data_PCOD8204712
_publ_section_title
;
Structure prediction by ZEFSAII (Michael W. Deem and Ramdas Pophale) SiO2 
 PCOD8204712
Probable space group: P C C M
;
_chemical_formula_sum "Si O2"
_cell_formula_units_Z 48
_cell_length_a 9.000000
_cell_length_b 30.000000
_cell_length_c 9.000000
_cell_angle_alpha 90.000000
_cell_angle_beta 90.000000
_cell_angle_gamma 90.000000
_cell_volume 2430.000000
_symmetry_space_group_name_H-M "P C C M"
_symmetry_group_IT_number 49
_symmetry_cell_setting 'orthorhombic'
loop_
_space_group_symop_operation_xyz
x,y,z
-x,-y,z
x,-y,1/2-z
-x,y,1/2-z
-x,-y,-z
x,y,-z
-x,y,1/2+z
x,-y,1/2+z
loop_
_atom_site_type_symbol
_atom_site_label
_atom_site_fract_x
_atom_site_fract_y
_atom_site_fract_z
Si Si1 0.159060 0.272800 0.825570
Si Si2 0.307146 0.043326 0.500000
Si Si3 0.655766 0.804484 0.671941
Si Si4 0.158596 0.625091 0.675218
Si Si5 0.655903 0.061743 0.500000
Si Si6 0.662306 0.454825 0.180589
Si Si7 0.178173 0.895008 0.234687
O O1 0.274768 0.238726 0.752087
O O2 0.215679 0.323880 0.802216
O O3 0.000000 0.265691 0.750000
O O4 0.143902 0.261897 0.000000
O O5 0.476655 0.061649 0.500000
O O6 0.215607 0.062618 0.364767
O O7 0.294414 0.989849 0.500000
O O8 0.500000 0.816310 0.750000
O O9 0.627546 0.792513 0.500000
O O10 0.765960 0.846947 0.678285
O O11 0.151668 0.613340 0.500000
O O12 0.260168 0.590159 0.762936
O O13 0.000000 0.620267 0.750000
O O14 0.724486 0.091833 0.373572
O O15 0.738406 0.500000 0.250000
O O16 0.500000 0.452696 0.250000
O O17 0.660894 0.456722 0.000000
O O18 0.000000 0.892038 0.250000
#
# Coordination Sequence:
#
# PCOD8204712 Si02
#       7
#     8   4   8   8   4   8   8
#     4  10  22  41  67  95 129 167 210 262 321 384
#     4  11  23  47  63  99 129 169 219 251 328 375
#     4  12  26  44  67  93 128 167 215 267 324 392
#     4  10  21  39  62  92 126 165 210 262 320 383
#     4  11  25  41  73  91 131 173 207 269 310 393
#     4  11  22  38  60  87 122 166 213 267 323 385
#     4  12  26  42  66  97 129 168 213 265 321 384
#
# _framework density 19.753086
#
# number of rings (size 3 to 8) (size 9 to 14) (size 15 to 20)
#    0.000    1.000    0.833    6.500    2.333    6.333 
#    0.000    1.667    0.000    0.000    0.000    0.000 
#    0.000    0.000    0.000    0.000    0.000    0.000 
#
# Total GULP energy -594845.329475 kJ/mol
# GULP energy per Si atom -12392.611031 kJ/mol
# Density = 1.970813 g / cm^3
# Si number density = 19.753086 Si / 1000 Ang^3
#
#
#
# Elastic Constant Matrix: (Units=GPa)
#
#
# Indices 1 2 3 4 5 6 
#
# 1 114.4378 48.2231 36.6291 0.0000 0.0000 0.0000
# 2 48.2231 139.0601 48.9506 0.0000 0.0000 0.0000
# 3 36.6291 48.9506 168.3734 0.0000 0.0000 0.0000
# 4 0.0000 0.0000 0.0000 43.6329 0.0000 0.0000
# 5 0.0000 0.0000 0.0000 0.0000 39.3203 0.0000
# 6 0.0000 0.0000 0.0000 0.0000 0.0000 45.4737
#
#
#
# Elastic Compliance Matrix: (Units=1/GPa)
#
#
# Indices 1 2 3 4 5 6 
#
# 1 0.010509 -0.003163 -0.001367 0.000000 0.000000 0.000000
# 2 -0.003163 0.008963 -0.001918 0.000000 0.000000 0.000000
# 3 -0.001367 -0.001918 0.006794 0.000000 0.000000 0.000000
# 4 0.000000 0.000000 0.000000 0.022919 0.000000 0.000000
# 5 0.000000 0.000000 0.000000 0.000000 0.025432 0.000000
# 6 0.000000 0.000000 0.000000 0.000000 0.000000 0.021991
#
#
# Mechanical properties :
#
#
# Convention : Reuss Voigt Hill
#
# Bulk Modulus (GPa) = 74.78837 76.60854 75.69845
# Shear Modulus (GPa) = 43.87545 44.88992 44.38269
#
# Velocity S-wave (km/s) = 4.71807 4.77230 4.74526
# Velocity P-wave (km/s) = 8.22338 8.32068 8.27218
#
# Compressibility (1/GPa) = 0.01337106
#
# Stress axis : x y z
#
# Youngs Moduli (GPa) = 95.15927 111.56854 147.18911
#
# Poissons Ratio (x) = 0.35291 0.20114
# Poissons Ratio (y) = 0.30100 0.28226
# Poissons Ratio (z) = 0.13004 0.21395
#
# Static dielectric constant tensor:
#      x y z
#    x 3.854500 0.000000 0.000000 
#    y 0.000000 4.144960 0.000000 
#    z 0.000000 0.000000 3.901110 
# 
# 
# High freq. dielectric constant tensor:
#      x y z
#    x 1.776170 0.000000 0.000000 
#    y 0.000000 1.804670 0.000000 
#    z 0.000000 0.000000 1.800160 
# 
# From -- ./inp_files/2136.got.cif
#   From: 2010.03.12/outbox.ucp.g09.slc.cvg/sg49_2_cif.got.tgz:2136.got - 2010.05.04 21:28:32.
