data_PCOD8204484
_publ_section_title
;
Structure prediction by ZEFSAII (Michael W. Deem and Ramdas Pophale) SiO2 
 PCOD8204484
Probable space group: P C C M
;
_chemical_formula_sum "Si O2"
_cell_formula_units_Z 28
_cell_length_a 8.980386
_cell_length_b 5.545729
_cell_length_c 24.537293
_cell_angle_alpha 90.000000
_cell_angle_beta 90.000000
_cell_angle_gamma 90.000000
_cell_volume 1222.025579
_symmetry_space_group_name_H-M "P C C M"
_symmetry_group_IT_number 49
_symmetry_cell_setting 'orthorhombic'
loop_
_space_group_symop_operation_xyz
x,y,z
-x,-y,z
x,-y,1/2-z
-x,y,1/2-z
-x,-y,-z
x,y,-z
-x,y,1/2+z
x,-y,1/2+z
loop_
_atom_site_type_symbol
_atom_site_label
_atom_site_fract_x
_atom_site_fract_y
_atom_site_fract_z
Si Si1 0.905968 0.255300 0.000000
Si Si2 0.749329 0.323304 0.298916
Si Si3 0.000000 0.000000 0.318996
Si Si4 0.758612 0.284536 0.114167
Si Si5 0.500000 0.000000 0.840551
O O1 0.796352 0.281452 0.050952
O O2 0.000000 0.500000 0.000000
O O3 0.000000 0.000000 0.000000
O O4 0.710011 0.500000 0.250000
O O5 0.767688 0.451931 0.357852
O O6 0.905240 0.191064 0.282889
O O7 0.612659 0.140072 0.301159
O O8 0.878131 0.882431 0.357128
O O9 0.591852 0.182792 0.121161
#
# Coordination Sequence:
#
# PCOD8204484 Si02
#       5
#     4   8   4   8   4
#     4  12  26  47  79 113 149 197 252 323 385 443
#     4  11  25  45  70 103 144 191 243 304 372 450
#     4  10  22  42  68 100 138 179 234 303 364 438
#     4  11  24  44  72 105 144 187 245 300 374 445
#     4  10  26  46  70 100 148 195 244 305 372 456
#
# _framework density 22.912776000000001
#
# number of rings (size 3 to 8) (size 9 to 14) (size 15 to 20)
#    0.000    1.143    1.429    3.429    4.000   12.000 
#    0.000    7.143    0.000    0.000    0.000    0.000 
#    0.000    0.000    0.000    0.000    0.000    0.000 
#
# Total GULP energy -347174.649123 kJ/mol
# GULP energy per Si atom -12399.094612 kJ/mol
# Density = 2.286063 g / cm^3
# Si number density = 22.912776 Si / 1000 Ang^3
#
#
#
# Elastic Constant Matrix: (Units=GPa)
#
#
# Indices 1 2 3 4 5 6 
#
# 1 166.3852 63.9782 51.6300 0.0000 0.0000 0.0000
# 2 63.9782 138.6560 45.7623 0.0000 0.0000 0.0000
# 3 51.6300 45.7623 150.0850 0.0000 0.0000 0.0000
# 4 0.0000 0.0000 0.0000 32.1316 0.0000 0.0000
# 5 0.0000 0.0000 0.0000 0.0000 43.0555 0.0000
# 6 0.0000 0.0000 0.0000 0.0000 0.0000 29.6213
#
#
#
# Elastic Compliance Matrix: (Units=1/GPa)
#
#
# Indices 1 2 3 4 5 6 
#
# 1 0.007694 -0.002976 -0.001739 0.000000 0.000000 0.000000
# 2 -0.002976 0.009170 -0.001772 0.000000 0.000000 0.000000
# 3 -0.001739 -0.001772 0.007802 0.000000 0.000000 0.000000
# 4 0.000000 0.000000 0.000000 0.031122 0.000000 0.000000
# 5 0.000000 0.000000 0.000000 0.000000 0.023226 0.000000
# 6 0.000000 0.000000 0.000000 0.000000 0.000000 0.033760
#
#
# Mechanical properties :
#
#
# Convention : Reuss Voigt Hill
#
# Bulk Modulus (GPa) = 85.53987 86.42971 85.98479
# Shear Modulus (GPa) = 38.56650 40.54538 39.55594
#
# Velocity S-wave (km/s) = 4.10712 4.21117 4.15947
# Velocity P-wave (km/s) = 7.73984 7.83890 7.78953
#
# Compressibility (1/GPa) = 0.01169045
#
# Stress axis : x y z
#
# Youngs Moduli (GPa) = 129.96634 109.04782 128.17814
#
# Poissons Ratio (x) = 0.32455 0.22295
# Poissons Ratio (y) = 0.38681 0.22717
# Poissons Ratio (z) = 0.22606 0.19326
#
# Static dielectric constant tensor:
#      x y z
#    x 4.624890 0.000000 0.000000 
#    y 0.000000 4.783510 0.000000 
#    z 0.000000 0.000000 4.027800 
# 
# 
# High freq. dielectric constant tensor:
#      x y z
#    x 1.926070 0.000000 0.000000 
#    y 0.000000 1.924200 0.000000 
#    z 0.000000 0.000000 1.895240 
# 
# From -- ./inp_files/24226.got.cif
#   From: 2010.03.12/outbox.cif.g09.slc.cpg/sg49_13_cif.got.tgz:24226.got - 2010.04.14 03:58:27.
