data_PCOD8204307
_publ_section_title
;
Structure prediction by ZEFSAII (Michael W. Deem and Ramdas Pophale) SiO2 
 PCOD8204307
Probable space group: P C C M
;
_chemical_formula_sum "Si O2"
_cell_formula_units_Z 56
_cell_length_a 15.788837
_cell_length_b 9.551573
_cell_length_c 18.030015
_cell_angle_alpha 90.000000
_cell_angle_beta 90.000000
_cell_angle_gamma 90.000000
_cell_volume 2719.074634
_symmetry_space_group_name_H-M "P C C M"
_symmetry_group_IT_number 49
_symmetry_cell_setting 'orthorhombic'
loop_
_space_group_symop_operation_xyz
x,y,z
-x,-y,z
x,-y,1/2-z
-x,y,1/2-z
-x,-y,-z
x,y,-z
-x,y,1/2+z
x,-y,1/2+z
loop_
_atom_site_type_symbol
_atom_site_label
_atom_site_fract_x
_atom_site_fract_y
_atom_site_fract_z
Si Si1 0.243069 0.562350 0.087795
Si Si2 0.695108 0.196552 0.180010
Si Si3 0.361512 0.682042 0.583508
Si Si4 0.919104 0.092613 0.413417
Si Si5 0.075994 0.586165 0.413653
Si Si6 0.517043 0.347922 0.165998
Si Si7 0.743887 0.895249 0.157034
O O1 0.239696 0.707767 0.133279
O O2 0.327912 0.472989 0.106833
O O3 0.165473 0.467833 0.117809
O O4 0.238103 0.594634 0.000000
O O5 0.605304 0.267735 0.160013
O O6 0.726235 0.188175 0.265602
O O7 0.690039 0.037831 0.151622
O O8 0.392346 0.678990 0.500000
O O9 0.439843 0.742196 0.631796
O O10 0.284502 0.792101 0.591510
O O11 0.895296 0.065924 0.500000
O O12 0.942456 0.252606 0.398118
O O13 0.840996 0.058850 0.358131
O O14 0.000000 0.000000 0.390226
O O15 0.078076 0.553070 0.500000
O O16 0.000000 0.500000 0.375363
O O17 0.500000 0.500000 0.125751
O O18 0.500000 0.374478 0.250000
#
# Coordination Sequence:
#
# PCOD8204307 Si02
#       7
#     8   8   8   8   8   8   8
#     4  10  21  38  64  95 129 166 215 277 334 393
#     4  11  25  42  63  92 127 174 218 263 326 396
#     4  11  22  40  66  94 128 166 210 277 334 380
#     4  10  21  39  66  96 130 173 216 265 328 394
#     4   9  18  34  59  93 125 159 209 268 324 381
#     4  11  22  40  66  92 120 166 221 261 316 395
#     4  11  24  43  62  93 132 174 216 266 324 404
#
# _framework density 20.595243
#
# number of rings (size 3 to 8) (size 9 to 14) (size 15 to 20)
#    0.000    1.571    4.286    0.429    2.000    3.143 
#    0.000    2.143    0.000    0.857    0.000    0.000 
#    0.000    0.000    0.000    0.000    0.000    0.000 
#
# Total GULP energy -693865.611379 kJ/mol
# GULP energy per Si atom -12390.457346 kJ/mol
# Density = 2.054837 g / cm^3
# Si number density = 20.595243 Si / 1000 Ang^3
#
#
#
# Elastic Constant Matrix: (Units=GPa)
#
#
# Indices 1 2 3 4 5 6 
#
# 1 141.7629 55.3089 50.0157 0.0000 0.0000 0.0000
# 2 55.3089 126.4955 47.5112 0.0000 0.0000 0.0000
# 3 50.0157 47.5112 65.1163 0.0000 0.0000 0.0000
# 4 0.0000 0.0000 0.0000 40.2794 0.0000 0.0000
# 5 0.0000 0.0000 0.0000 0.0000 23.9336 0.0000
# 6 0.0000 0.0000 0.0000 0.0000 0.0000 38.9082
#
#
#
# Elastic Compliance Matrix: (Units=1/GPa)
#
#
# Indices 1 2 3 4 5 6 
#
# 1 0.010051 -0.002059 -0.006218 0.000000 0.000000 0.000000
# 2 -0.002059 0.011312 -0.006672 0.000000 0.000000 0.000000
# 3 -0.006218 -0.006672 0.025001 0.000000 0.000000 0.000000
# 4 0.000000 0.000000 0.000000 0.024827 0.000000 0.000000
# 5 0.000000 0.000000 0.000000 0.000000 0.041782 0.000000
# 6 0.000000 0.000000 0.000000 0.000000 0.000000 0.025702
#
#
# Mechanical properties :
#
#
# Convention : Reuss Voigt Hill
#
# Bulk Modulus (GPa) = 60.73015 71.00513 65.86764
# Shear Modulus (GPa) = 28.72569 32.66015 30.69292
#
# Velocity S-wave (km/s) = 3.73872 3.98654 3.86462
# Velocity P-wave (km/s) = 6.94182 7.46601 7.20868
#
# Compressibility (1/GPa) = 0.01646629
#
# Stress axis : x y z
#
# Youngs Moduli (GPa) = 99.49062 88.40391 39.99884
#
# Poissons Ratio (x) = 0.18207 0.24870
# Poissons Ratio (y) = 0.20490 0.26685
# Poissons Ratio (z) = 0.61860 0.58979
#
# Static dielectric constant tensor:
#      x y z
#    x 4.020500 0.000000 0.000000 
#    y 0.000000 3.757460 0.000000 
#    z 0.000000 0.000000 3.457590 
# 
# 
# High freq. dielectric constant tensor:
#      x y z
#    x 1.812240 0.000000 0.000000 
#    y 0.000000 1.810020 0.000000 
#    z 0.000000 0.000000 1.779870 
# 
# From -- ./inp_files/20880.got.cif
#   From: 2010.03.12/outbox.cif.g09.slc.cpg/sg49_11_cif.got.tgz:20880.got - 2010.04.14 03:58:27.
