data_PCOD8204438
_publ_section_title
;
Structure prediction by ZEFSAII (Michael W. Deem and Ramdas Pophale) SiO2 
 PCOD8204438
Probable space group: P C C M
;
_chemical_formula_sum "Si O2"
_cell_formula_units_Z 48
_cell_length_a 9.623303
_cell_length_b 28.116942
_cell_length_c 9.555438
_cell_angle_alpha 90.000000
_cell_angle_beta 90.000000
_cell_angle_gamma 90.000000
_cell_volume 2585.489892
_symmetry_space_group_name_H-M "P C C M"
_symmetry_group_IT_number 49
_symmetry_cell_setting 'orthorhombic'
loop_
_space_group_symop_operation_xyz
x,y,z
-x,-y,z
x,-y,1/2-z
-x,y,1/2-z
-x,-y,-z
x,y,-z
-x,y,1/2+z
x,-y,1/2+z
loop_
_atom_site_type_symbol
_atom_site_label
_atom_site_fract_x
_atom_site_fract_y
_atom_site_fract_z
Si Si1 0.000000 0.107782 0.750000
Si Si2 0.421962 0.951078 0.500000
Si Si3 0.139293 0.274816 0.334369
Si Si4 0.643564 0.541320 0.664690
Si Si5 0.500000 0.115994 0.250000
Si Si6 0.361965 0.353291 0.660585
Si Si7 0.899588 0.954533 0.000000
Si Si8 0.242419 0.173148 0.341226
O O1 0.922513 0.075329 0.639056
O O2 0.891665 0.140045 0.832239
O O3 0.471624 0.919445 0.373706
O O4 0.261965 0.967553 0.500000
O O5 0.500000 0.000000 0.500000
O O6 0.106870 0.273586 0.500000
O O7 0.246463 0.315909 0.292451
O O8 0.204980 0.225128 0.281816
O O9 0.000000 0.285336 0.250000
O O10 0.730721 0.500000 0.750000
O O11 0.500000 0.543822 0.750000
O O12 0.625863 0.527802 0.500000
O O13 0.707341 0.594159 0.679275
O O14 0.368280 0.150599 0.256728
O O15 0.500000 0.345515 0.750000
O O16 0.405903 0.345442 0.500000
O O17 0.000000 0.000000 0.000000
O O18 0.291571 0.177585 0.500000
#
# Coordination Sequence:
#
# PCOD8204438 Si02
#       8
#     4   4   8   8   4   8   4   8
#     4  12  23  42  66  88 116 148 193 234 278 332
#     4  12  28  44  64  90 122 156 190 230 285 340
#     4  10  22  40  59  85 116 152 190 236 287 341
#     4   9  15  25  44  73 106 147 189 237 287 336
#     4  12  25  44  64  90 120 152 187 232 286 336
#     4   9  19  34  53  80 118 152 192 240 290 343
#     4  12  28  42  64  92 118 154 192 232 277 334
#     4  11  23  41  65  90 116 149 189 238 282 335
#
# _framework density 18.565145999999999
#
# number of rings (size 3 to 8) (size 9 to 14) (size 15 to 20)
#    0.000    1.500    4.167    1.500    3.500    2.667 
#    1.500    0.000    0.000    0.500    0.000    3.500 
#    0.000    0.000    0.000    0.000    0.000    0.000 
#
# Total GULP energy -594935.831823 kJ/mol
# GULP energy per Si atom -12394.496496 kJ/mol
# Density = 1.852289 g / cm^3
# Si number density = 18.565146 Si / 1000 Ang^3
#
#
#
# Elastic Constant Matrix: (Units=GPa)
#
#
# Indices 1 2 3 4 5 6 
#
# 1 116.8815 75.1719 43.6373 0.0000 0.0000 0.0000
# 2 75.1719 166.0700 56.8376 0.0000 0.0000 0.0000
# 3 43.6373 56.8376 106.0027 0.0000 0.0000 0.0000
# 4 0.0000 0.0000 0.0000 75.3225 0.0000 0.0000
# 5 0.0000 0.0000 0.0000 0.0000 20.9734 0.0000
# 6 0.0000 0.0000 0.0000 0.0000 0.0000 -51.8688
#
#
#
# Elastic Compliance Matrix: (Units=1/GPa)
#
#
# Indices 1 2 3 4 5 6 
#
# 1 0.012634 -0.004824 -0.002614 0.000000 0.000000 0.000000
# 2 -0.004824 0.009217 -0.002956 0.000000 0.000000 0.000000
# 3 -0.002614 -0.002956 0.012095 0.000000 0.000000 0.000000
# 4 0.000000 0.000000 0.000000 0.013276 0.000000 0.000000
# 5 0.000000 0.000000 0.000000 0.000000 0.047679 0.000000
# 6 0.000000 0.000000 0.000000 0.000000 0.000000 -0.019279
#
#
# Mechanical properties :
#
#
# Convention : Reuss Voigt Hill
#
# Bulk Modulus (GPa) = 76.00551 82.24975 79.12763
# Shear Modulus (GPa) = 49.60429 23.10591 36.35510
#
# Velocity S-wave (km/s) = 5.17465 3.53170 4.43001
# Velocity P-wave (km/s) = 8.75965 7.81217 8.29944
#
# Compressibility (1/GPa) = 0.01315694
#
# Stress axis : x y z
#
# Youngs Moduli (GPa) = 79.14881 108.49555 82.67865
#
# Poissons Ratio (x) = 0.52340 0.21616
# Poissons Ratio (y) = 0.38183 0.24441
# Poissons Ratio (z) = 0.20693 0.32072
#
# Static dielectric constant tensor:
#      x y z
#    x 3.212340 0.000000 0.000000 
#    y 0.000000 4.259720 0.000000 
#    z 0.000000 0.000000 3.489600 
# 
# 
# High freq. dielectric constant tensor:
#      x y z
#    x 1.696880 0.000000 0.000000 
#    y 0.000000 1.744070 0.000000 
#    z 0.000000 0.000000 1.729310 
# 
# From -- ./inp_files/2189.got.cif
#   From: 2010.03.12/outbox.cif.g09.slc.cpg/sg49_2_cif.got.tgz:2189.got - 2010.04.14 03:58:27.
