data_PCOD8204693
_publ_section_title
;
Structure prediction by ZEFSAII (Michael W. Deem and Ramdas Pophale) SiO2 
 PCOD8204693
Probable space group: P C C M
;
_chemical_formula_sum "Si O2"
_cell_formula_units_Z 18
_cell_length_a 4.671136
_cell_length_b 8.348996
_cell_length_c 19.069658
_cell_angle_alpha 90.000000
_cell_angle_beta 90.000000
_cell_angle_gamma 90.000000
_cell_volume 743.703233
_symmetry_space_group_name_H-M "P C C M"
_symmetry_group_IT_number 49
_symmetry_cell_setting 'orthorhombic'
loop_
_space_group_symop_operation_xyz
x,y,z
-x,-y,z
x,-y,1/2-z
-x,y,1/2-z
-x,-y,-z
x,y,-z
-x,y,1/2+z
x,-y,1/2+z
loop_
_atom_site_type_symbol
_atom_site_label
_atom_site_fract_x
_atom_site_fract_y
_atom_site_fract_z
Si Si1 0.340812 0.657535 0.579430
Si Si2 0.500000 0.000000 0.750000
Si Si3 0.163017 0.153685 0.628507
O O1 0.500000 0.500000 0.609566
O O2 0.232097 0.629228 0.500000
O O3 0.568535 0.802534 0.579892
O O4 0.067718 0.700223 0.628393
O O5 0.710100 0.885777 0.705324
O O6 0.000000 0.000000 0.596361
#
# Coordination Sequence:
#
# PCOD8204693 Si02
#       3
#     8   2   8
#     4  11  25  45  71 108 146 176 224 293 364 428
#     4  12  26  48  70 100 142 188 252 306 322 416
#     4  12  24  44  75  97 140 187 235 288 349 406
#
# _framework density 24.203205000000001
#
# number of rings (size 3 to 8) (size 9 to 14) (size 15 to 20)
#    0.000    0.444    4.444    3.333    0.000    8.889 
#    0.000    1.111    9.778    0.000    0.000    0.000 
#    0.000    0.000    0.000    0.000    0.000    0.000 
#
# Total GULP energy -223097.898045 kJ/mol
# GULP energy per Si atom -12394.327669 kJ/mol
# Density = 2.414812 g / cm^3
# Si number density = 24.203205 Si / 1000 Ang^3
#
#
#
# Elastic Constant Matrix: (Units=GPa)
#
#
# Indices 1 2 3 4 5 6 
#
# 1 193.5706 60.5392 66.5771 0.0000 0.0000 0.0000
# 2 60.5392 85.3227 62.0801 0.0000 0.0000 0.0000
# 3 66.5771 62.0801 94.9656 0.0000 0.0000 0.0000
# 4 0.0000 0.0000 0.0000 24.4573 0.0000 0.0000
# 5 0.0000 0.0000 0.0000 0.0000 34.9837 0.0000
# 6 0.0000 0.0000 0.0000 0.0000 0.0000 66.8756
#
#
#
# Elastic Compliance Matrix: (Units=1/GPa)
#
#
# Indices 1 2 3 4 5 6 
#
# 1 0.007121 -0.002709 -0.003222 0.000000 0.000000 0.000000
# 2 -0.002709 0.023381 -0.013386 0.000000 0.000000 0.000000
# 3 -0.003222 -0.013386 0.021539 0.000000 0.000000 0.000000
# 4 0.000000 0.000000 0.000000 0.040888 0.000000 0.000000
# 5 0.000000 0.000000 0.000000 0.000000 0.028585 0.000000
# 6 0.000000 0.000000 0.000000 0.000000 0.000000 0.014953
#
#
# Mechanical properties :
#
#
# Convention : Reuss Voigt Hill
#
# Bulk Modulus (GPa) = 74.57379 83.58351 79.07865
# Shear Modulus (GPa) = 27.84430 37.57416 32.70923
#
# Velocity S-wave (km/s) = 3.39549 3.94438 3.68018
# Velocity P-wave (km/s) = 6.80080 7.43998 7.12756
#
# Compressibility (1/GPa) = 0.01340954
#
# Stress axis : x y z
#
# Youngs Moduli (GPa) = 140.42322 42.76895 46.42673
#
# Poissons Ratio (x) = 0.11584 0.14958
# Poissons Ratio (y) = 0.38035 0.62146
# Poissons Ratio (z) = 0.45242 0.57250
#
# Static dielectric constant tensor:
#      x y z
#    x 4.905810 0.000000 0.000000 
#    y 0.000000 4.640010 0.000000 
#    z 0.000000 0.000000 3.858110 
# 
# 
# High freq. dielectric constant tensor:
#      x y z
#    x 2.002400 0.000000 0.000000 
#    y 0.000000 1.961540 0.000000 
#    z 0.000000 0.000000 1.910620 
# 
# From -- ./inp_files/14822.got.cif
#   From: 2010.03.12/outbox.cif.g09.slc.cpg/sg49_8_cif.got.tgz:14822.got - 2010.04.14 03:58:27.
