data_PCOD8204583
_publ_section_title
;
Structure prediction by ZEFSAII (Michael W. Deem and Ramdas Pophale) SiO2 
 PCOD8204583
Probable space group: P C C M
;
_chemical_formula_sum "Si O2"
_cell_formula_units_Z 48
_cell_length_a 13.173196
_cell_length_b 12.529067
_cell_length_c 15.478122
_cell_angle_alpha 90.000000
_cell_angle_beta 90.000000
_cell_angle_gamma 90.000000
_cell_volume 2554.630840
_symmetry_space_group_name_H-M "P C C M"
_symmetry_group_IT_number 49
_symmetry_cell_setting 'orthorhombic'
loop_
_space_group_symop_operation_xyz
x,y,z
-x,-y,z
x,-y,1/2-z
-x,y,1/2-z
-x,-y,-z
x,y,-z
-x,y,1/2+z
x,-y,1/2+z
loop_
_atom_site_type_symbol
_atom_site_label
_atom_site_fract_x
_atom_site_fract_y
_atom_site_fract_z
Si Si1 0.123881 0.377686 0.000000
Si Si2 0.396414 0.134036 0.898866
Si Si3 0.255684 0.320625 0.842200
Si Si4 0.384533 0.512951 0.101113
Si Si5 0.885018 0.373632 0.000000
Si Si6 0.375323 0.892472 0.898881
Si Si7 0.751092 0.702872 0.349170
O O1 0.168530 0.320747 0.914867
O O2 0.151215 0.503233 0.000000
O O3 0.004665 0.360531 0.000000
O O4 0.328499 0.218769 0.849037
O O5 0.512510 0.140673 0.865955
O O6 0.353468 0.016298 0.878741
O O7 0.391371 0.159986 0.000000
O O8 0.320581 0.427548 0.846341
O O9 0.206306 0.319607 0.746841
O O10 0.500000 0.500000 0.130657
O O11 0.345238 0.630334 0.124477
O O12 0.372292 0.488717 0.000000
O O13 0.843492 0.316430 0.085488
O O14 0.288413 0.824274 0.852270
O O15 0.369476 0.869938 0.000000
#
# Coordination Sequence:
#
# PCOD8204583 Si02
#       7
#     4   8   8   8   4   8   8
#     4  11  24  44  63  82 111 145 190 246 298 346
#     4   9  18  34  57  85 120 161 197 227 267 328
#     4  12  22  36  59  86 116 149 188 234 286 342
#     4  11  21  35  55  81 119 158 187 222 274 338
#     4  11  24  44  63  82 111 145 190 246 298 346
#     4   9  18  34  57  85 120 161 197 227 267 328
#     4  12  22  36  59  86 116 149 188 234 286 342
#
# _framework density 18.789406
#
# number of rings (size 3 to 8) (size 9 to 14) (size 15 to 20)
#    0.000    1.333    5.000    2.500    0.000    7.333 
#    0.000    3.333    0.000    2.000    0.000    2.333 
#    0.000    0.000    0.000    0.000    0.000    0.000 
#
# Total GULP energy -595340.993581 kJ/mol
# GULP energy per Si atom -12402.937366 kJ/mol
# Density = 1.874664 g / cm^3
# Si number density = 18.789406 Si / 1000 Ang^3
#
#
#
# Elastic Constant Matrix: (Units=GPa)
#
#
# Indices 1 2 3 4 5 6 
#
# 1 70.8611 16.4949 25.0623 0.0000 0.0000 0.0000
# 2 16.4949 75.4668 11.4997 0.0000 0.0000 0.0000
# 3 25.0623 11.4997 107.1363 0.0000 0.0000 0.0000
# 4 0.0000 0.0000 0.0000 16.3400 0.0000 0.0000
# 5 0.0000 0.0000 0.0000 0.0000 4.9282 0.0000
# 6 0.0000 0.0000 0.0000 0.0000 0.0000 24.2031
#
#
#
# Elastic Compliance Matrix: (Units=1/GPa)
#
#
# Indices 1 2 3 4 5 6 
#
# 1 0.016018 -0.002979 -0.003427 0.000000 0.000000 0.000000
# 2 -0.002979 0.014025 -0.000809 0.000000 0.000000 0.000000
# 3 -0.003427 -0.000809 0.010222 0.000000 0.000000 0.000000
# 4 0.000000 0.000000 0.000000 0.061200 0.000000 0.000000
# 5 0.000000 0.000000 0.000000 0.000000 0.202915 0.000000
# 6 0.000000 0.000000 0.000000 0.000000 0.000000 0.041317
#
#
# Mechanical properties :
#
#
# Convention : Reuss Voigt Hill
#
# Bulk Modulus (GPa) = 38.70568 39.95311 39.32940
# Shear Modulus (GPa) = 13.55975 22.45472 18.00723
#
# Velocity S-wave (km/s) = 2.68931 3.46073 3.09912
# Velocity P-wave (km/s) = 5.50342 6.10563 5.81233
#
# Compressibility (1/GPa) = 0.02583600
#
# Stress axis : x y z
#
# Youngs Moduli (GPa) = 62.43102 71.30046 97.82401
#
# Poissons Ratio (x) = 0.21239 0.33527
# Poissons Ratio (y) = 0.18597 0.07910
# Poissons Ratio (z) = 0.21397 0.05765
#
# Static dielectric constant tensor:
#      x y z
#    x 3.193700 0.000000 0.000000 
#    y 0.000000 3.519130 0.000000 
#    z 0.000000 0.000000 3.455810 
# 
# 
# High freq. dielectric constant tensor:
#      x y z
#    x 1.698350 0.000000 0.000000 
#    y 0.000000 1.732660 0.000000 
#    z 0.000000 0.000000 1.735740 
# 
# From -- ./inp_files/13523.got.cif
#   From: 2010.03.12/outbox.cif.g09.slc.cpg/sg49_7_cif.got.tgz:13523.got - 2010.04.14 03:58:27.
