data_PCOD8204476
_publ_section_title
;
Structure prediction by ZEFSAII (Michael W. Deem and Ramdas Pophale) SiO2 
 PCOD8204476
Probable space group: P C C M
;
_chemical_formula_sum "Si O2"
_cell_formula_units_Z 30
_cell_length_a 13.530183
_cell_length_b 5.233038
_cell_length_c 18.592276
_cell_angle_alpha 90.000000
_cell_angle_beta 90.000000
_cell_angle_gamma 90.000000
_cell_volume 1316.406799
_symmetry_space_group_name_H-M "P C C M"
_symmetry_group_IT_number 49
_symmetry_cell_setting 'orthorhombic'
loop_
_space_group_symop_operation_xyz
x,y,z
-x,-y,z
x,-y,1/2-z
-x,y,1/2-z
-x,-y,-z
x,y,-z
-x,y,1/2+z
x,-y,1/2+z
loop_
_atom_site_type_symbol
_atom_site_label
_atom_site_fract_x
_atom_site_fract_y
_atom_site_fract_z
Si Si1 0.603459 0.139570 0.147672
Si Si2 0.500000 0.500000 0.250000
Si Si3 0.186797 0.022109 0.832055
Si Si4 0.883131 0.480071 0.083168
Si Si5 0.565481 0.747138 0.500000
O O1 0.581594 0.351023 0.205707
O O2 0.693762 0.965369 0.173025
O O3 0.634345 0.261770 0.070751
O O4 0.500000 0.000000 0.137336
O O5 0.149678 0.781861 0.878511
O O6 0.145108 0.000000 0.750000
O O7 0.156332 0.282736 0.870560
O O8 0.000000 0.500000 0.083571
O O9 0.845036 0.488826 0.000000
O O10 0.500000 0.500000 0.500000
O O11 0.500000 0.000000 0.500000
#
# Coordination Sequence:
#
# PCOD8204476 Si02
#       5
#     8   2   8   8   4
#     4  11  26  43  66 100 145 191 237 285 349 419
#     4  12  22  42  68  90 154 198 234 288 346 418
#     4  12  27  45  75 110 146 190 240 298 364 432
#     4  11  27  51  77 106 142 186 239 302 372 440
#     4  10  22  42  62  92 129 182 243 288 330 400
#
# _framework density 22.789307000000001
#
# number of rings (size 3 to 8) (size 9 to 14) (size 15 to 20)
#    0.000    0.800    1.333    4.400   11.200    5.333 
#    0.000    0.000    0.000    0.000    0.000    0.000 
#    0.000    0.000    0.000    0.000    0.000    0.000 
#
# Total GULP energy -371749.741578 kJ/mol
# GULP energy per Si atom -12391.658053 kJ/mol
# Density = 2.273744 g / cm^3
# Si number density = 22.789307 Si / 1000 Ang^3
#
#
#
# Elastic Constant Matrix: (Units=GPa)
#
#
# Indices 1 2 3 4 5 6 
#
# 1 87.3398 16.4825 24.5117 0.0000 0.0000 0.0000
# 2 16.4825 124.4459 49.1020 0.0000 0.0000 0.0000
# 3 24.5117 49.1020 208.9811 0.0000 0.0000 0.0000
# 4 0.0000 0.0000 0.0000 48.2595 0.0000 0.0000
# 5 0.0000 0.0000 0.0000 0.0000 86.2440 0.0000
# 6 0.0000 0.0000 0.0000 0.0000 0.0000 40.8062
#
#
#
# Elastic Compliance Matrix: (Units=1/GPa)
#
#
# Indices 1 2 3 4 5 6 
#
# 1 0.011984 -0.001138 -0.001138 0.000000 0.000000 0.000000
# 2 -0.001138 0.008965 -0.001973 0.000000 0.000000 0.000000
# 3 -0.001138 -0.001973 0.005382 0.000000 0.000000 0.000000
# 4 0.000000 0.000000 0.000000 0.020721 0.000000 0.000000
# 5 0.000000 0.000000 0.000000 0.000000 0.011595 0.000000
# 6 0.000000 0.000000 0.000000 0.000000 0.000000 0.024506
#
#
# Mechanical properties :
#
#
# Convention : Reuss Voigt Hill
#
# Bulk Modulus (GPa) = 56.07787 66.77327 61.42557
# Shear Modulus (GPa) = 51.23182 57.10663 54.16923
#
# Velocity S-wave (km/s) = 4.74652 5.01128 4.88069
# Velocity P-wave (km/s) = 7.39593 7.92766 7.66641
#
# Compressibility (1/GPa) = 0.01783235
#
# Stress axis : x y z
#
# Youngs Moduli (GPa) = 83.44636 111.54757 185.79886
#
# Poissons Ratio (x) = 0.12696 0.21147
# Poissons Ratio (y) = 0.09497 0.36656
# Poissons Ratio (z) = 0.09498 0.22007
#
# Static dielectric constant tensor:
#      x y z
#    x 4.377610 0.000000 0.000000 
#    y 0.000000 4.312050 0.000000 
#    z 0.000000 0.000000 5.875560 
# 
# 
# High freq. dielectric constant tensor:
#      x y z
#    x 1.894560 0.000000 0.000000 
#    y 0.000000 1.903400 0.000000 
#    z 0.000000 0.000000 1.941830 
# 
# From -- ./inp_files/17464.got.cif
#   From: 2010.03.12/outbox.cif.g09.slc.cpg/sg49_9_cif.got.tgz:17464.got - 2010.04.14 03:58:27.
