data_PCOD8204977
_publ_section_title
;
Structure prediction by ZEFSAII (Michael W. Deem and Ramdas Pophale) SiO2 
 PCOD8204977
Probable space group: P B A N
;
_chemical_formula_sum "Si O2"
_cell_formula_units_Z 56
_cell_length_a 15.486505
_cell_length_b 15.294285
_cell_length_c 12.099070
_cell_angle_alpha 90.000000
_cell_angle_beta 90.000000
_cell_angle_gamma 90.000000
_cell_volume 2865.725480
_symmetry_space_group_name_H-M "P B A N"
_symmetry_group_IT_number 50
_space_group.IT_coordinate_system_code '2'
_symmetry_cell_setting 'orthorhombic'
loop_
_space_group_symop_operation_xyz
x,y,z
1/2-x,1/2-y,z
x,1/2-y,-z
1/2-x,y,-z
-x,-y,-z
1/2+x,1/2+y,-z
-x,1/2+y,z
1/2+x,-y,z
loop_
_atom_site_type_symbol
_atom_site_label
_atom_site_fract_x
_atom_site_fract_y
_atom_site_fract_z
Si Si1 0.909196 0.433473 0.302593
Si Si2 0.274249 0.650118 0.159635
Si Si3 0.162374 0.430946 0.543865
Si Si4 0.380800 0.916883 0.034877
Si Si5 0.433361 0.065372 0.887046
Si Si6 0.548184 0.688192 0.398839
Si Si7 0.833269 0.696549 0.258456
O O1 0.816487 0.394593 0.266604
O O2 0.898650 0.494127 0.409270
O O3 0.952726 0.491351 0.205623
O O4 0.966473 0.352905 0.339358
O O5 0.250000 0.750000 0.183711
O O6 0.189378 0.591551 0.132939
O O7 0.345685 0.647798 0.061280
O O8 0.250000 0.474335 0.500000
O O9 0.112841 0.384784 0.444040
O O10 0.192383 0.362912 0.637658
O O11 0.476173 0.889622 0.077083
O O12 0.387075 0.017079 0.990705
O O13 0.368601 0.139349 0.843481
O O14 0.518087 0.750000 0.500000
O O15 0.591790 0.739754 0.298887
O O16 0.750000 0.750000 0.216913
#
# Coordination Sequence:
#
# PCOD8204977 Si02
#       7
#     8   8   8   8   8   8   8
#     4  10  22  38  53  90 114 154 200 237 281 343
#     4  10  21  38  61  83 116 153 198 234 283 346
#     4  10  19  36  59  82 116 158 199 227 290 349
#     4   9  18  38  60  84 110 154 186 239 290 346
#     4   9  20  36  62  87 115 146 194 238 291 349
#     4  10  21  36  59  84 119 155 190 244 288 341
#     4  10  19  35  60  91 115 150 193 243 289 344
#
# _framework density 19.541298999999999
#
# number of rings (size 3 to 8) (size 9 to 14) (size 15 to 20)
#    0.000    2.286    1.429    1.286    2.000    1.143 
#    7.714    0.000    0.000    0.000    7.429    0.000 
#    0.000    0.000    0.000    0.000    0.000    0.000 
#
# Total GULP energy -694318.983892 kJ/mol
# GULP energy per Si atom -12398.553284 kJ/mol
# Density = 1.949682 g / cm^3
# Si number density = 19.541299 Si / 1000 Ang^3
#
#
#
# Elastic Constant Matrix: (Units=GPa)
#
#
# Indices 1 2 3 4 5 6 
#
# 1 110.9722 52.2756 37.3034 0.0000 0.0000 0.0000
# 2 52.2756 93.4415 32.4501 0.0000 0.0000 0.0000
# 3 37.3034 32.4501 51.6072 0.0000 0.0000 0.0000
# 4 0.0000 0.0000 0.0000 -11.1345 0.0000 0.0000
# 5 0.0000 0.0000 0.0000 0.0000 18.8690 0.0000
# 6 0.0000 0.0000 0.0000 0.0000 0.0000 34.5574
#
#
#
# Elastic Compliance Matrix: (Units=1/GPa)
#
#
# Indices 1 2 3 4 5 6 
#
# 1 0.013767 -0.005432 -0.006536 0.000000 0.000000 0.000000
# 2 -0.005432 0.015835 -0.006030 0.000000 0.000000 0.000000
# 3 -0.006536 -0.006030 0.027893 0.000000 0.000000 0.000000
# 4 0.000000 0.000000 0.000000 -0.089811 0.000000 0.000000
# 5 0.000000 0.000000 0.000000 0.000000 0.052997 0.000000
# 6 0.000000 0.000000 0.000000 0.000000 0.000000 0.028937
#
#
# Mechanical properties :
#
#
# Convention : Reuss Voigt Hill
#
# Bulk Modulus (GPa) = 46.51389 55.56433 51.03911
# Shear Modulus (GPa) = 53.88969 17.39116 35.64042
#
# Velocity S-wave (km/s) = 5.25711 2.98647 4.27529
# Velocity P-wave (km/s) = 7.79129 6.35516 7.10958
#
# Compressibility (1/GPa) = 0.02149895
#
# Stress axis : x y z
#
# Youngs Moduli (GPa) = 72.63619 63.15040 35.85119
#
# Poissons Ratio (x) = 0.34306 0.23431
# Poissons Ratio (y) = 0.39459 0.21619
# Poissons Ratio (z) = 0.47472 0.38082
#
# Static dielectric constant tensor:
#      x y z
#    x 3.499720 0.000000 0.000000 
#    y 0.000000 3.511140 0.000000 
#    z 0.000000 0.000000 3.484430 
# 
# 
# High freq. dielectric constant tensor:
#      x y z
#    x 1.760140 0.000000 0.000000 
#    y 0.000000 1.754400 0.000000 
#    z 0.000000 0.000000 1.748540 
# 
# From -- ./inp_files/26564.got.cif
#   From: 2010.03.12/outbox.cif.g09.slc.cpg/sg50_14_cif.got.tgz:26564.got - 2010.04.16 13:23:21.
