data_PCOD8204356
_publ_section_title
;
Structure prediction by ZEFSAII (Michael W. Deem and Ramdas Pophale) SiO2 
 PCOD8204356
Probable space group: P C C M
;
_chemical_formula_sum "Si O2"
_cell_formula_units_Z 32
_cell_length_a 5.476129
_cell_length_b 9.111272
_cell_length_c 29.817231
_cell_angle_alpha 90.000000
_cell_angle_beta 90.000000
_cell_angle_gamma 90.000000
_cell_volume 1487.715857
_symmetry_space_group_name_H-M "P C C M"
_symmetry_group_IT_number 49
_symmetry_cell_setting 'orthorhombic'
loop_
_space_group_symop_operation_xyz
x,y,z
-x,-y,z
x,-y,1/2-z
-x,y,1/2-z
-x,-y,-z
x,y,-z
-x,y,1/2+z
x,-y,1/2+z
loop_
_atom_site_type_symbol
_atom_site_label
_atom_site_fract_x
_atom_site_fract_y
_atom_site_fract_z
Si Si1 0.000000 0.000000 0.178289
Si Si2 0.319874 0.749158 0.709549
Si Si3 0.249237 0.410462 0.449523
Si Si4 0.000000 0.500000 0.689184
Si Si5 0.711395 0.749071 0.637670
O O1 0.184256 0.910696 0.146572
O O2 0.863627 0.885473 0.210429
O O3 0.500000 0.780528 0.750000
O O4 0.186746 0.594086 0.719870
O O5 0.444793 0.739882 0.660495
O O6 0.500000 0.500000 0.444405
O O7 0.226140 0.348260 0.500000
O O8 0.287249 0.274031 0.415759
O O9 0.000000 0.500000 0.437958
O O10 0.130062 0.381398 0.658217
#
# Coordination Sequence:
#
# PCOD8204356 Si02
#       5
#     4   8   8   4   8
#     4  10  26  43  63  90 126 182 227 266 330 411
#     4  11  25  43  64  90 128 172 221 275 334 398
#     4  10  21  39  68 104 137 172 222 283 351 411
#     4  10  22  39  63  94 120 158 213 272 332 389
#     4  11  22  40  65  94 130 171 217 271 335 398
#
# _framework density 21.509482999999999
#
# number of rings (size 3 to 8) (size 9 to 14) (size 15 to 20)
#    0.000    1.500    1.250    3.000    3.500   10.000 
#    0.000    4.375    0.000    3.000    0.000    0.000 
#    0.000    0.000    0.000    0.000    0.000    0.000 
#
# Total GULP energy -396724.255791 kJ/mol
# GULP energy per Si atom -12397.632993 kJ/mol
# Density = 2.146053 g / cm^3
# Si number density = 21.509483 Si / 1000 Ang^3
#
#
#
# Elastic Constant Matrix: (Units=GPa)
#
#
# Indices 1 2 3 4 5 6 
#
# 1 126.2497 44.0962 38.0270 0.0000 0.0000 0.0000
# 2 44.0962 135.1551 44.6481 0.0000 0.0000 0.0000
# 3 38.0270 44.6481 132.2625 0.0000 0.0000 0.0000
# 4 0.0000 0.0000 0.0000 6.1693 0.0000 0.0000
# 5 0.0000 0.0000 0.0000 0.0000 28.0719 0.0000
# 6 0.0000 0.0000 0.0000 0.0000 0.0000 15.7326
#
#
#
# Elastic Compliance Matrix: (Units=1/GPa)
#
#
# Indices 1 2 3 4 5 6 
#
# 1 0.009330 -0.002429 -0.001863 0.000000 0.000000 0.000000
# 2 -0.002429 0.008960 -0.002326 0.000000 0.000000 0.000000
# 3 -0.001863 -0.002326 0.008882 0.000000 0.000000 0.000000
# 4 0.000000 0.000000 0.000000 0.162094 0.000000 0.000000
# 5 0.000000 0.000000 0.000000 0.000000 0.035623 0.000000
# 6 0.000000 0.000000 0.000000 0.000000 0.000000 0.063562
#
#
# Mechanical properties :
#
#
# Convention : Reuss Voigt Hill
#
# Bulk Modulus (GPa) = 71.75601 71.91222 71.83411
# Shear Modulus (GPa) = 16.32222 27.78782 22.05502
#
# Velocity S-wave (km/s) = 2.75769 3.59818 3.20560
# Velocity P-wave (km/s) = 6.60094 7.12516 6.86805
#
# Compressibility (1/GPa) = 0.01393612
#
# Stress axis : x y z
#
# Youngs Moduli (GPa) = 107.17927 111.60948 112.59303
#
# Poissons Ratio (x) = 0.27107 0.20972
# Poissons Ratio (y) = 0.26031 0.26192
# Poissons Ratio (z) = 0.19964 0.25964
#
# Static dielectric constant tensor:
#      x y z
#    x 4.409300 0.000000 0.000000 
#    y 0.000000 3.987080 0.000000 
#    z 0.000000 0.000000 3.905200 
# 
# 
# High freq. dielectric constant tensor:
#      x y z
#    x 1.867520 0.000000 0.000000 
#    y 0.000000 1.836310 0.000000 
#    z 0.000000 0.000000 1.836030 
# 
# From -- ./inp_files/25473.got.cif
#   From: 2010.03.12/outbox.cif.g09.slc.cpg/sg49_13_cif.got.tgz:25473.got - 2010.04.14 03:58:27.
