data_PCOD8204973
_publ_section_title
;
Structure prediction by ZEFSAII (Michael W. Deem and Ramdas Pophale) SiO2 
 PCOD8204973
Probable space group: P B A N
;
_chemical_formula_sum "Si O2"
_cell_formula_units_Z 54
_cell_length_a 17.006061
_cell_length_b 5.217634
_cell_length_c 30.514499
_cell_angle_alpha 90.000000
_cell_angle_beta 90.000000
_cell_angle_gamma 90.000000
_cell_volume 2707.594280
_symmetry_space_group_name_H-M "P B A N"
_symmetry_group_IT_number 50
_space_group.IT_coordinate_system_code '2'
_symmetry_cell_setting 'orthorhombic'
loop_
_space_group_symop_operation_xyz
x,y,z
1/2-x,1/2-y,z
x,1/2-y,-z
1/2-x,y,-z
-x,-y,-z
1/2+x,1/2+y,-z
-x,1/2+y,z
1/2+x,-y,z
loop_
_atom_site_type_symbol
_atom_site_label
_atom_site_fract_x
_atom_site_fract_y
_atom_site_fract_z
Si Si1 0.551451 0.470450 0.082468
Si Si2 0.448052 0.750000 0.500000
Si Si3 0.670969 0.099574 0.566781
Si Si4 0.446936 0.983475 0.272260
Si Si5 0.696351 0.500773 0.338406
Si Si6 0.716208 0.500019 0.048905
Si Si7 0.546835 0.560913 0.176945
Si Si8 0.250000 0.250000 0.500000
O O1 0.511909 0.194478 0.075132
O O2 0.621619 0.498891 0.047712
O O3 0.591130 0.493953 0.131327
O O4 0.500000 0.500000 0.500000
O O5 0.397859 0.729979 0.454616
O O6 0.750000 0.250000 0.575268
O O7 0.650888 0.985117 0.614482
O O8 0.687757 0.893588 0.529755
O O9 0.507405 0.217112 0.280329
O O10 0.372527 0.002058 0.303349
O O11 0.409927 0.997373 0.222841
O O12 0.750000 0.750000 0.332535
O O13 0.750000 0.250000 0.332415
O O14 0.750000 0.750000 0.073774
O O15 0.750000 0.250000 0.073829
O O16 0.750000 0.500441 0.000000
O O17 0.472486 0.363898 0.176408
#
# Coordination Sequence:
#
# PCOD8204973 Si02
#       8
#     8   4   8   8   8   8   8   2
#     4  10  19  35  59  84 106 142 201 245 269 328
#     4  12  26  38  57  89 118 134 178 246 288 314
#     4  11  23  39  63  80 108 156 193 222 273 347
#     4  10  20  38  61  84 117 155 183 224 292 351
#     4  11  24  39  59  88 116 149 193 239 272 333
#     4  10  21  38  53  75 115 152 181 231 299 349
#     4   8  16  31  55  83 109 142 186 232 279 335
#     4  12  16  40  68  76 100 146 214 214 262 334
#
# _framework density 19.943905999999998
#
# number of rings (size 3 to 8) (size 9 to 14) (size 15 to 20)
#    0.000    1.778    2.222    2.222    0.000    1.185 
#    0.000   10.370    0.000    0.000    0.000    0.000 
#    0.000    0.000    0.000    0.000    0.000    0.000 
#
# Total GULP energy -668976.007706 kJ/mol
# GULP energy per Si atom -12388.444587 kJ/mol
# Density = 1.989851 g / cm^3
# Si number density = 19.943906 Si / 1000 Ang^3
#
#
#
# Elastic Constant Matrix: (Units=GPa)
#
#
# Indices 1 2 3 4 5 6 
#
# 1 101.8835 38.0087 60.4670 0.0000 0.0000 0.0000
# 2 38.0087 143.5080 21.4037 0.0000 0.0000 0.0000
# 3 60.4670 21.4037 121.2498 0.0000 0.0000 0.0000
# 4 0.0000 0.0000 0.0000 14.8257 0.0000 0.0000
# 5 0.0000 0.0000 0.0000 0.0000 29.5534 0.0000
# 6 0.0000 0.0000 0.0000 0.0000 0.0000 34.4028
#
#
#
# Elastic Compliance Matrix: (Units=1/GPa)
#
#
# Indices 1 2 3 4 5 6 
#
# 1 0.015064 -0.002947 -0.006992 0.000000 0.000000 0.000000
# 2 -0.002947 0.007733 0.000105 0.000000 0.000000 0.000000
# 3 -0.006992 0.000105 0.011716 0.000000 0.000000 0.000000
# 4 0.000000 0.000000 0.000000 0.067451 0.000000 0.000000
# 5 0.000000 0.000000 0.000000 0.000000 0.033837 0.000000
# 6 0.000000 0.000000 0.000000 0.000000 0.000000 0.029067
#
#
# Mechanical properties :
#
#
# Convention : Reuss Voigt Hill
#
# Bulk Modulus (GPa) = 67.36708 67.37780 67.37244
# Shear Modulus (GPa) = 26.38710 32.20717 29.29714
#
# Velocity S-wave (km/s) = 3.64134 4.02293 3.83688
# Velocity P-wave (km/s) = 7.17849 7.44551 7.31322
#
# Compressibility (1/GPa) = 0.01484405
#
# Stress axis : x y z
#
# Youngs Moduli (GPa) = 66.38135 129.31285 85.35281
#
# Poissons Ratio (x) = 0.38108 0.59682
# Poissons Ratio (y) = 0.19563 -0.00892
# Poissons Ratio (z) = 0.46417 -0.01352
#
# Static dielectric constant tensor:
#      x y z
#    x 3.132580 0.000000 0.000000 
#    y 0.000000 0.818220 0.000000 
#    z 0.000000 0.000000 5.100380 
# 
# 
# High freq. dielectric constant tensor:
#      x y z
#    x 1.743980 0.000000 0.000000 
#    y 0.000000 1.805410 0.000000 
#    z 0.000000 0.000000 1.780660 
# 
# From -- ./inp_files/32525.got.cif
#   From: 2010.03.12/outbox.cif.g09.slc.cpg/sg50_17_cif.got.tgz:32525.got - 2010.04.16 13:23:21.
