data_PCOD8204335
_publ_section_title
;
Structure prediction by ZEFSAII (Michael W. Deem and Ramdas Pophale) SiO2 
 PCOD8204335
Probable space group: P C C M
;
_chemical_formula_sum "Si O2"
_cell_formula_units_Z 40
_cell_length_a 9.046944
_cell_length_b 23.701645
_cell_length_c 9.228096
_cell_angle_alpha 90.000000
_cell_angle_beta 90.000000
_cell_angle_gamma 90.000000
_cell_volume 1978.757140
_symmetry_space_group_name_H-M "P C C M"
_symmetry_group_IT_number 49
_symmetry_cell_setting 'orthorhombic'
loop_
_space_group_symop_operation_xyz
x,y,z
-x,-y,z
x,-y,1/2-z
-x,y,1/2-z
-x,-y,-z
x,y,-z
-x,y,1/2+z
x,-y,1/2+z
loop_
_atom_site_type_symbol
_atom_site_label
_atom_site_fract_x
_atom_site_fract_y
_atom_site_fract_z
Si Si1 0.852503 0.919714 0.000000
Si Si2 0.140126 0.225593 0.661770
Si Si3 0.152276 0.646736 0.173538
Si Si4 0.340945 0.554560 0.322702
Si Si5 0.186282 0.947272 0.000000
Si Si6 0.675117 0.877087 0.734247
O O1 0.773791 0.887202 0.872722
O O2 0.030358 0.912910 0.000000
O O3 0.827075 0.986208 0.000000
O O4 0.080151 0.228234 0.500000
O O5 0.191209 0.288097 0.708174
O O6 0.279790 0.183846 0.672096
O O7 0.000000 0.202817 0.750000
O O8 0.270770 0.611526 0.262835
O O9 0.000000 0.630263 0.250000
O O10 0.151093 0.633835 0.000000
O O11 0.257771 0.500000 0.250000
O O12 0.500000 0.554255 0.250000
O O13 0.343531 0.552199 0.500000
O O14 0.282735 0.929810 0.864053
O O15 0.500000 0.877393 0.750000
#
# Coordination Sequence:
#
# PCOD8204335 Si02
#       6
#     4   8   8   8   4   8
#     4  11  25  41  67  91 115 167 204 257 304 385
#     4  10  22  41  65  89 121 164 208 253 306 378
#     4  10  21  39  62  92 124 162 210 263 315 372
#     4  11  22  39  62  91 126 170 215 262 320 381
#     4  11  23  45  65  87 123 157 216 247 310 381
#     4  12  25  40  61  94 126 159 201 260 320 372
#
# _framework density 20.214708000000002
#
# number of rings (size 3 to 8) (size 9 to 14) (size 15 to 20)
#    0.000    1.200    1.000    6.000    1.400    6.000 
#    0.000    2.000    0.000    0.000    0.000    0.000 
#    0.000    0.000    0.000    0.000    0.000    0.000 
#
# Total GULP energy -495674.942166 kJ/mol
# GULP energy per Si atom -12391.873554 kJ/mol
# Density = 2.016870 g / cm^3
# Si number density = 20.214708 Si / 1000 Ang^3
#
#
#
# Elastic Constant Matrix: (Units=GPa)
#
#
# Indices 1 2 3 4 5 6 
#
# 1 112.0303 41.4174 28.7345 0.0000 0.0000 0.0000
# 2 41.4174 84.7805 26.1900 0.0000 0.0000 0.0000
# 3 28.7345 26.1900 131.2122 0.0000 0.0000 0.0000
# 4 0.0000 0.0000 0.0000 35.8531 0.0000 0.0000
# 5 0.0000 0.0000 0.0000 0.0000 37.7039 0.0000
# 6 0.0000 0.0000 0.0000 0.0000 0.0000 32.5061
#
#
#
# Elastic Compliance Matrix: (Units=1/GPa)
#
#
# Indices 1 2 3 4 5 6 
#
# 1 0.011144 -0.004998 -0.001443 0.000000 0.000000 0.000000
# 2 -0.004998 0.014812 -0.001862 0.000000 0.000000 0.000000
# 3 -0.001443 -0.001862 0.008309 0.000000 0.000000 0.000000
# 4 0.000000 0.000000 0.000000 0.027892 0.000000 0.000000
# 5 0.000000 0.000000 0.000000 0.000000 0.026522 0.000000
# 6 0.000000 0.000000 0.000000 0.000000 0.000000 0.030763
#
#
# Mechanical properties :
#
#
# Convention : Reuss Voigt Hill
#
# Bulk Modulus (GPa) = 56.62879 57.85631 57.24255
# Shear Modulus (GPa) = 35.22731 36.65803 35.94267
#
# Velocity S-wave (km/s) = 4.17904 4.26306 4.22126
# Velocity P-wave (km/s) = 7.16661 7.27424 7.22063
#
# Compressibility (1/GPa) = 0.01765886
#
# Stress axis : x y z
#
# Youngs Moduli (GPa) = 89.73324 67.51181 120.35386
#
# Poissons Ratio (x) = 0.33746 0.17364
# Poissons Ratio (y) = 0.44853 0.22409
# Poissons Ratio (z) = 0.12947 0.12570
#
# Static dielectric constant tensor:
#      x y z
#    x 3.658920 0.000000 0.000000 
#    y 0.000000 4.012540 0.000000 
#    z 0.000000 0.000000 3.901110 
# 
# 
# High freq. dielectric constant tensor:
#      x y z
#    x 1.778390 0.000000 0.000000 
#    y 0.000000 1.806770 0.000000 
#    z 0.000000 0.000000 1.809100 
# 
# From -- ./inp_files/1736.got.cif
#   From: 2010.03.12/outbox.cif.g09.slc.cpg/sg49_1_cif.got.tgz:1736.got - 2010.04.14 03:58:27.
