data_PCOD8204493
_publ_section_title
;
Structure prediction by ZEFSAII (Michael W. Deem and Ramdas Pophale) SiO2 
 PCOD8204493
Probable space group: P C C M
;
_chemical_formula_sum "Si O2"
_cell_formula_units_Z 56
_cell_length_a 13.987757
_cell_length_b 9.469821
_cell_length_c 19.116027
_cell_angle_alpha 90.000000
_cell_angle_beta 90.000000
_cell_angle_gamma 90.000000
_cell_volume 2532.138661
_symmetry_space_group_name_H-M "P C C M"
_symmetry_group_IT_number 49
_symmetry_cell_setting 'orthorhombic'
loop_
_space_group_symop_operation_xyz
x,y,z
-x,-y,z
x,-y,1/2-z
-x,y,1/2-z
-x,-y,-z
x,y,-z
-x,y,1/2+z
x,-y,1/2+z
loop_
_atom_site_type_symbol
_atom_site_label
_atom_site_fract_x
_atom_site_fract_y
_atom_site_fract_z
Si Si1 0.887525 0.159605 0.248533
Si Si2 0.555504 0.641148 0.924265
Si Si3 0.157262 0.045409 0.500000
Si Si4 0.966811 0.226972 0.500000
Si Si5 0.079283 0.608915 0.360842
Si Si6 0.748780 0.184922 0.871803
Si Si7 0.261301 0.512184 0.919517
Si Si8 0.542568 0.141001 0.826802
O O1 0.873946 0.268914 0.312122
O O2 0.838901 0.222353 0.178697
O O3 0.000000 0.143353 0.250000
O O4 0.843256 0.000000 0.250000
O O5 0.500000 0.500000 0.939957
O O6 0.657972 0.596245 0.891812
O O7 0.494878 0.729340 0.870614
O O8 0.567815 0.718738 0.000000
O O9 0.219845 0.070261 0.569880
O O10 0.068838 0.152103 0.500000
O O11 0.120368 0.884625 0.500000
O O12 0.963407 0.321931 0.430874
O O13 0.166453 0.507879 0.376112
O O14 0.000000 0.500000 0.327469
O O15 0.710539 0.324548 0.910501
O O16 0.658097 0.129017 0.826982
O O17 0.241757 0.478673 0.000000
O O18 0.500000 0.158879 0.750000
O O19 0.500000 0.000000 0.861506
#
# Coordination Sequence:
#
# PCOD8204493 Si02
#       8
#     8   8   4   4   8   8   8   8
#     4  11  26  46  68 101 145 194 242 294 360 436
#     4  10  22  44  71  98 136 176 230 297 357 436
#     4  11  24  42  75 105 145 194 253 293 376 448
#     4  11  23  44  68 110 149 198 239 305 367 439
#     4  12  25  42  71 104 151 191 243 307 363 432
#     4  12  25  45  75 101 143 192 242 306 364 443
#     4  11  23  42  69 103 139 180 233 294 368 429
#     4  11  28  49  71 103 142 187 240 304 370 433
#
# _framework density 22.115693
#
# number of rings (size 3 to 8) (size 9 to 14) (size 15 to 20)
#    0.000    0.857    2.857    3.643    5.000    6.000 
#    0.000    0.000    0.000    0.000    0.000    0.000 
#    0.000    0.000    0.000    0.000    0.000    0.000 
#
# Total GULP energy -693951.470749 kJ/mol
# GULP energy per Si atom -12391.990549 kJ/mol
# Density = 2.206536 g / cm^3
# Si number density = 22.115693 Si / 1000 Ang^3
#
#
#
# Elastic Constant Matrix: (Units=GPa)
#
#
# Indices 1 2 3 4 5 6 
#
# 1 136.7125 27.3609 44.0004 0.0000 0.0000 0.0000
# 2 27.3609 98.8482 35.1734 0.0000 0.0000 0.0000
# 3 44.0004 35.1734 106.1001 0.0000 0.0000 0.0000
# 4 0.0000 0.0000 0.0000 14.6087 0.0000 0.0000
# 5 0.0000 0.0000 0.0000 0.0000 36.0568 0.0000
# 6 0.0000 0.0000 0.0000 0.0000 0.0000 31.8064
#
#
#
# Elastic Compliance Matrix: (Units=1/GPa)
#
#
# Indices 1 2 3 4 5 6 
#
# 1 0.008577 -0.001257 -0.003140 0.000000 0.000000 0.000000
# 2 -0.001257 0.011654 -0.003342 0.000000 0.000000 0.000000
# 3 -0.003140 -0.003342 0.011835 0.000000 0.000000 0.000000
# 4 0.000000 0.000000 0.000000 0.068452 0.000000 0.000000
# 5 0.000000 0.000000 0.000000 0.000000 0.027734 0.000000
# 6 0.000000 0.000000 0.000000 0.000000 0.000000 0.031440
#
#
# Mechanical properties :
#
#
# Convention : Reuss Voigt Hill
#
# Bulk Modulus (GPa) = 60.28601 61.63668 60.96134
# Shear Modulus (GPa) = 27.67024 32.16945 29.91985
#
# Velocity S-wave (km/s) = 3.54101 3.81806 3.68214
# Velocity P-wave (km/s) = 6.63603 6.88240 6.76033
#
# Compressibility (1/GPa) = 0.01658760
#
# Stress axis : x y z
#
# Youngs Moduli (GPa) = 116.59361 85.81040 84.49286
#
# Poissons Ratio (x) = 0.10783 0.26533
# Poissons Ratio (y) = 0.14651 0.28239
# Poissons Ratio (z) = 0.36614 0.28679
#
# Static dielectric constant tensor:
#      x y z
#    x 4.379940 0.000000 0.000000 
#    y 0.000000 4.122180 0.000000 
#    z 0.000000 0.000000 3.623340 
# 
# 
# High freq. dielectric constant tensor:
#      x y z
#    x 1.881140 0.000000 0.000000 
#    y 0.000000 1.876810 0.000000 
#    z 0.000000 0.000000 1.863130 
# 
# From -- ./inp_files/20908.got.cif
#   From: 2010.03.12/outbox.cif.g09.slc.cpg/sg49_11_cif.got.tgz:20908.got - 2010.04.14 03:58:27.
