data_PCOD8204490
_publ_section_title
;
Structure prediction by ZEFSAII (Michael W. Deem and Ramdas Pophale) SiO2 
 PCOD8204490
Probable space group: P C C M
;
_chemical_formula_sum "Si O2"
_cell_formula_units_Z 34
_cell_length_a 19.206494
_cell_length_b 5.166374
_cell_length_c 14.580232
_cell_angle_alpha 90.000000
_cell_angle_beta 90.000000
_cell_angle_gamma 90.000000
_cell_volume 1446.766258
_symmetry_space_group_name_H-M "P C C M"
_symmetry_group_IT_number 49
_symmetry_cell_setting 'orthorhombic'
loop_
_space_group_symop_operation_xyz
x,y,z
-x,-y,z
x,-y,1/2-z
-x,y,1/2-z
-x,-y,-z
x,y,-z
-x,y,1/2+z
x,-y,1/2+z
loop_
_atom_site_type_symbol
_atom_site_label
_atom_site_fract_x
_atom_site_fract_y
_atom_site_fract_z
Si Si1 0.159025 0.070839 0.348579
Si Si2 0.387394 0.355275 0.888628
Si Si3 0.310689 0.859862 0.101093
Si Si4 0.921854 0.554034 0.894520
Si Si5 0.500000 0.500000 0.250000
O O1 0.227251 0.113691 0.409142
O O2 0.122064 0.347187 0.337571
O O3 0.188568 0.000000 0.250000
O O4 0.105261 0.849278 0.383537
O O5 0.340476 0.598097 0.854325
O O6 0.455141 0.333812 0.823490
O O7 0.341977 0.114503 0.853121
O O8 0.403705 0.354282 0.000000
O O9 0.341684 0.850939 0.000000
O O10 0.000000 0.500000 0.860010
O O11 0.915382 0.473545 0.000000
#
# Coordination Sequence:
#
# PCOD8204490 Si02
#       5
#     8   8   8   8   2
#     4  12  25  39  66  98 131 167 216 277 333 382
#     4  10  24  42  65  96 127 169 215 261 318 383
#     4  10  22  43  66  90 127 166 213 264 309 378
#     4  11  24  43  65  91 128 177 223 263 323 400
#     4  12  26  42  72  92 136 170 200 270 312 400
#
# _framework density 23.500686000000002
#
# number of rings (size 3 to 8) (size 9 to 14) (size 15 to 20)
#    0.000    1.176    0.000    5.294    3.294    8.471 
#    0.000    3.529    0.000    0.000    0.000    0.000 
#    0.000    0.000    0.000    0.000    0.000    0.000 
#
# Total GULP energy -421218.447085 kJ/mol
# GULP energy per Si atom -12388.777855 kJ/mol
# Density = 2.344720 g / cm^3
# Si number density = 23.500686 Si / 1000 Ang^3
#
#
#
# Elastic Constant Matrix: (Units=GPa)
#
#
# Indices 1 2 3 4 5 6 
#
# 1 161.9838 70.8145 21.1982 0.0000 0.0000 0.0000
# 2 70.8145 178.5717 15.0129 0.0000 0.0000 0.0000
# 3 21.1982 15.0129 68.3852 0.0000 0.0000 0.0000
# 4 0.0000 0.0000 0.0000 22.3481 0.0000 0.0000
# 5 0.0000 0.0000 0.0000 0.0000 22.0056 0.0000
# 6 0.0000 0.0000 0.0000 0.0000 0.0000 29.8198
#
#
#
# Elastic Compliance Matrix: (Units=1/GPa)
#
#
# Indices 1 2 3 4 5 6 
#
# 1 0.007666 -0.002894 -0.001741 0.000000 0.000000 0.000000
# 2 -0.002894 0.006798 -0.000595 0.000000 0.000000 0.000000
# 3 -0.001741 -0.000595 0.015293 0.000000 0.000000 0.000000
# 4 0.000000 0.000000 0.000000 0.044747 0.000000 0.000000
# 5 0.000000 0.000000 0.000000 0.000000 0.045443 0.000000
# 6 0.000000 0.000000 0.000000 0.000000 0.000000 0.033535
#
#
# Mechanical properties :
#
#
# Convention : Reuss Voigt Hill
#
# Bulk Modulus (GPa) = 51.82160 69.22133 60.52146
# Shear Modulus (GPa) = 29.34710 34.96238 32.15474
#
# Velocity S-wave (km/s) = 3.53764 3.86128 3.70299
# Velocity P-wave (km/s) = 6.22780 7.02839 6.64017
#
# Compressibility (1/GPa) = 0.01929697
#
# Stress axis : x y z
#
# Youngs Moduli (GPa) = 130.43927 147.11054 65.38748
#
# Poissons Ratio (x) = 0.42571 0.11385
# Poissons Ratio (y) = 0.37747 0.03892
# Poissons Ratio (z) = 0.22712 0.08757
#
# Static dielectric constant tensor:
#      x y z
#    x 4.069360 0.000000 0.000000 
#    y 0.000000 4.366560 0.000000 
#    z 0.000000 0.000000 4.202560 
# 
# 
# High freq. dielectric constant tensor:
#      x y z
#    x 1.927220 0.000000 0.000000 
#    y 0.000000 1.937810 0.000000 
#    z 0.000000 0.000000 1.938270 
# 
# From -- ./inp_files/13894.got.cif
#   From: 2010.03.12/outbox.cif.g09.slc.cpg/sg49_7_cif.got.tgz:13894.got - 2010.04.14 03:58:27.
