data_PCOD8204882
_publ_section_title
;
Structure prediction by ZEFSAII (Michael W. Deem and Ramdas Pophale) SiO2 
 PCOD8204882
Probable space group: P B A N
;
_chemical_formula_sum "Si O2"
_cell_formula_units_Z 48
_cell_length_a 5.147159
_cell_length_b 35.595051
_cell_length_c 13.985025
_cell_angle_alpha 90.000000
_cell_angle_beta 90.000000
_cell_angle_gamma 90.000000
_cell_volume 2562.243799
_symmetry_space_group_name_H-M "P B A N"
_symmetry_group_IT_number 50
_space_group.IT_coordinate_system_code '2'
_symmetry_cell_setting 'orthorhombic'
loop_
_space_group_symop_operation_xyz
x,y,z
1/2-x,1/2-y,z
x,1/2-y,-z
1/2-x,y,-z
-x,-y,-z
1/2+x,1/2+y,-z
-x,1/2+y,z
1/2+x,-y,z
loop_
_atom_site_type_symbol
_atom_site_label
_atom_site_fract_x
_atom_site_fract_y
_atom_site_fract_z
Si Si1 0.678565 0.523711 0.403278
Si Si2 0.250007 0.294540 0.392378
Si Si3 0.749348 0.352211 0.114349
Si Si4 0.249815 0.705553 0.274944
Si Si5 0.748998 0.604212 0.110582
Si Si6 0.766476 0.525269 0.196656
O O1 0.750000 0.547678 0.500000
O O2 0.376263 0.512214 0.406378
O O3 0.741773 0.543940 0.302967
O O4 0.250000 0.250000 0.399671
O O5 0.250000 0.311511 0.500000
O O6 0.502603 0.308337 0.335390
O O7 0.998162 0.308345 0.334833
O O8 0.747660 0.312544 0.169258
O O9 0.506650 0.376620 0.152153
O O10 0.994807 0.375856 0.152418
O O11 0.750000 0.344731 0.000000
O O12 0.250000 0.750000 0.258314
O O13 0.742756 0.559532 0.124565
O O14 0.750000 0.612258 0.000000
O O15 0.541482 0.494790 0.179648
#
# Coordination Sequence:
#
# PCOD8204882 Si02
#       6
#     8   8   8   8   8   8
#     4   8  14  25  42  65  91 117 147 187 236 287
#     4   9  17  30  50  78 109 137 169 212 261 311
#     4  10  21  37  54  73 102 141 177 210 261 321
#     4  10  19  32  54  81 104 134 179 223 257 295
#     4  10  21  36  52  71 101 139 170 203 259 321
#     4  10  19  31  51  77  98 122 164 212 250 291
#
# _framework density 18.73358
#
# number of rings (size 3 to 8) (size 9 to 14) (size 15 to 20)
#    0.000    2.500    0.000    2.500    0.000    3.000 
#    0.000    0.000    0.000   12.000    0.000    0.000 
#    0.000    0.000    0.000    0.000    0.000    0.000 
#
# Total GULP energy -594825.453569 kJ/mol
# GULP energy per Si atom -12392.196949 kJ/mol
# Density = 1.869094 g / cm^3
# Si number density = 18.733580 Si / 1000 Ang^3
#
#
#
# Elastic Constant Matrix: (Units=GPa)
#
#
# Indices 1 2 3 4 5 6 
#
# 1 152.5480 32.5993 42.5471 0.0000 0.0000 0.0000
# 2 32.5993 61.8348 34.8286 0.0000 0.0000 0.0000
# 3 42.5471 34.8286 66.0255 0.0000 0.0000 0.0000
# 4 0.0000 0.0000 0.0000 13.8027 0.0000 0.0000
# 5 0.0000 0.0000 0.0000 0.0000 10.1953 0.0000
# 6 0.0000 0.0000 0.0000 0.0000 0.0000 16.7330
#
#
#
# Elastic Compliance Matrix: (Units=1/GPa)
#
#
# Indices 1 2 3 4 5 6 
#
# 1 0.008146 -0.001903 -0.004245 0.000000 0.000000 0.000000
# 2 -0.001903 0.023453 -0.011145 0.000000 0.000000 0.000000
# 3 -0.004245 -0.011145 0.023760 0.000000 0.000000 0.000000
# 4 0.000000 0.000000 0.000000 0.072450 0.000000 0.000000
# 5 0.000000 0.000000 0.000000 0.000000 0.098085 0.000000
# 6 0.000000 0.000000 0.000000 0.000000 0.000000 0.059762
#
#
# Mechanical properties :
#
#
# Convention : Reuss Voigt Hill
#
# Bulk Modulus (GPa) = 48.14152 55.59536 51.86844
# Shear Modulus (GPa) = 15.28269 19.50841 17.39555
#
# Velocity S-wave (km/s) = 2.85930 3.23051 3.05056
# Velocity P-wave (km/s) = 6.05430 6.60729 6.33683
#
# Compressibility (1/GPa) = 0.02077209
#
# Stress axis : x y z
#
# Youngs Moduli (GPa) = 122.75749 42.63844 42.08697
#
# Poissons Ratio (x) = 0.08116 0.17867
# Poissons Ratio (y) = 0.23366 0.46906
# Poissons Ratio (z) = 0.52115 0.47520
#
# Static dielectric constant tensor:
#      x y z
#    x 4.052490 0.000000 0.000000 
#    y 0.000000 2.852910 0.000000 
#    z 0.000000 0.000000 3.629250 
# 
# 
# High freq. dielectric constant tensor:
#      x y z
#    x 1.754890 0.000000 0.000000 
#    y 0.000000 1.669300 0.000000 
#    z 0.000000 0.000000 1.734700 
# 
# From -- ./inp_files/24091.got.cif
#   From: 2010.03.12/outbox.cif.g09.slc.cpg/sg50_13_cif.got.tgz:24091.got - 2010.04.16 13:23:21.
