data_PCOD8204706
_publ_section_title
;
Structure prediction by ZEFSAII (Michael W. Deem and Ramdas Pophale) SiO2 
 PCOD8204706
Probable space group: P C C M
;
_chemical_formula_sum "Si O2"
_cell_formula_units_Z 48
_cell_length_a 13.697210
_cell_length_b 24.231279
_cell_length_c 9.248632
_cell_angle_alpha 90.000000
_cell_angle_beta 90.000000
_cell_angle_gamma 90.000000
_cell_volume 3069.629442
_symmetry_space_group_name_H-M "P C C M"
_symmetry_group_IT_number 49
_symmetry_cell_setting 'orthorhombic'
loop_
_space_group_symop_operation_xyz
x,y,z
-x,-y,z
x,-y,1/2-z
-x,y,1/2-z
-x,-y,-z
x,y,-z
-x,y,1/2+z
x,-y,1/2+z
loop_
_atom_site_type_symbol
_atom_site_label
_atom_site_fract_x
_atom_site_fract_y
_atom_site_fract_z
Si Si1 0.292453 0.445163 0.832138
Si Si2 0.598890 0.665049 0.170189
Si Si3 0.101191 0.171358 0.168054
Si Si4 0.209248 0.278062 0.828636
Si Si5 0.896874 0.050023 0.330647
Si Si6 0.097698 0.384153 0.830329
O O1 0.324257 0.500000 0.750000
O O2 0.367095 0.396635 0.788919
O O3 0.182224 0.427790 0.791425
O O4 0.300140 0.457948 0.000000
O O5 0.500000 0.680710 0.250000
O O6 0.681854 0.707854 0.226688
O O7 0.582203 0.670721 0.000000
O O8 0.177035 0.217385 0.225565
O O9 0.150581 0.110739 0.191432
O O10 0.000000 0.177895 0.250000
O O11 0.077666 0.180689 0.000000
O O12 0.131579 0.323703 0.773957
O O13 0.212130 0.282278 0.000000
O O14 0.908739 0.036221 0.500000
O O15 0.000000 0.052786 0.250000
O O16 0.837167 0.000000 0.250000
O O17 0.000000 0.402746 0.750000
O O18 0.076663 0.383311 0.000000
#
# Coordination Sequence:
#
# PCOD8204706 Si02
#       6
#     8   8   8   8   8   8
#     4   9  19  33  46  62  84 108 133 162 197 238
#     4   9  18  33  50  65  82 104 129 161 204 249
#     4   9  16  25  39  59  82 111 143 170 198 233
#     4   8  15  29  45  60  82 108 133 164 202 244
#     4   9  15  22  33  50  75 108 143 172 197 226
#     4   9  17  29  44  61  82 109 137 164 197 234
#
# _framework density 15.637067
#
# number of rings (size 3 to 8) (size 9 to 14) (size 15 to 20)
#    0.000    3.167    0.000    3.500    0.000    2.667 
#    0.000    6.667    0.000    0.000    0.000    0.000 
#    0.000    0.667    0.000    8.333    0.000    0.000 
#
# Total GULP energy -594769.173376 kJ/mol
# GULP energy per Si atom -12391.024445 kJ/mol
# Density = 1.560148 g / cm^3
# Si number density = 15.637067 Si / 1000 Ang^3
#
#
#
# Elastic Constant Matrix: (Units=GPa)
#
#
# Indices 1 2 3 4 5 6 
#
# 1 79.5525 34.8402 25.1828 0.0000 0.0000 0.0000
# 2 34.8402 123.0778 35.6051 0.0000 0.0000 0.0000
# 3 25.1828 35.6051 43.9292 0.0000 0.0000 0.0000
# 4 0.0000 0.0000 0.0000 -91.1531 0.0000 0.0000
# 5 0.0000 0.0000 0.0000 0.0000 23.0205 0.0000
# 6 0.0000 0.0000 0.0000 0.0000 0.0000 13.4705
#
#
#
# Elastic Compliance Matrix: (Units=1/GPa)
#
#
# Indices 1 2 3 4 5 6 
#
# 1 0.015897 -0.002434 -0.007140 0.000000 0.000000 0.000000
# 2 -0.002434 0.010986 -0.007509 0.000000 0.000000 0.000000
# 3 -0.007140 -0.007509 0.032943 0.000000 0.000000 0.000000
# 4 0.000000 0.000000 0.000000 -0.010971 0.000000 0.000000
# 5 0.000000 0.000000 0.000000 0.000000 0.043440 0.000000
# 6 0.000000 0.000000 0.000000 0.000000 0.000000 0.074236
#
#
# Mechanical properties :
#
#
# Convention : Reuss Voigt Hill
#
# Bulk Modulus (GPa) = 38.97180 48.64617 43.80898
# Shear Modulus (GPa) = 23.89482 -0.87032 11.51225
#
# Velocity S-wave (km/s) = 3.91332 -0.74685 2.71627
# Velocity P-wave (km/s) = 6.73762 5.51664 6.15747
#
# Compressibility (1/GPa) = 0.02565958
#
# Stress axis : x y z
#
# Youngs Moduli (GPa) = 62.90652 91.02209 30.35557
#
# Poissons Ratio (x) = 0.22159 0.21673
# Poissons Ratio (y) = 0.15315 0.22794
# Poissons Ratio (z) = 0.44913 0.68348
#
# Static dielectric constant tensor:
#      x y z
#    x 2.766230 0.000000 0.000000 
#    y 0.000000 3.621780 0.000000 
#    z 0.000000 0.000000 2.828260 
# 
# 
# High freq. dielectric constant tensor:
#      x y z
#    x 1.562530 0.000000 0.000000 
#    y 0.000000 1.606940 0.000000 
#    z 0.000000 0.000000 1.589150 
# 
# From -- ./inp_files/4140.got.cif
#   From: 2010.03.12/outbox.cif.g09.slc.cpg/sg49_3_cif.got.tgz:4140.got - 2010.04.14 03:58:27.
