data_PCOD8204125
_publ_section_title
;
Structure prediction by ZEFSAII (Michael W. Deem and Ramdas Pophale) SiO2 
 PCOD8204125
Probable space group: P C C M
;
_chemical_formula_sum "Si O2"
_cell_formula_units_Z 48
_cell_length_a 5.069195
_cell_length_b 17.874409
_cell_length_c 27.203112
_cell_angle_alpha 90.000000
_cell_angle_beta 90.000000
_cell_angle_gamma 90.000000
_cell_volume 2464.843095
_symmetry_space_group_name_H-M "P C C M"
_symmetry_group_IT_number 49
_symmetry_cell_setting 'orthorhombic'
loop_
_space_group_symop_operation_xyz
x,y,z
-x,-y,z
x,-y,1/2-z
-x,y,1/2-z
-x,-y,-z
x,y,-z
-x,y,1/2+z
x,-y,1/2+z
loop_
_atom_site_type_symbol
_atom_site_label
_atom_site_fract_x
_atom_site_fract_y
_atom_site_fract_z
Si Si1 0.461458 0.079246 0.193652
Si Si2 0.321593 0.288156 0.556565
Si Si3 0.249024 0.456203 0.441505
Si Si4 0.251253 0.949833 0.443270
Si Si5 0.033969 0.828965 0.193921
Si Si6 0.828993 0.787625 0.096886
O O1 0.500000 0.063012 0.250000
O O2 0.670543 0.144543 0.179170
O O3 0.159244 0.101066 0.186272
O O4 0.500000 0.000000 0.164943
O O5 0.412817 0.289800 0.500000
O O6 0.247679 0.370511 0.576334
O O7 0.567748 0.260279 0.588367
O O8 0.065479 0.235185 0.560382
O O9 0.500000 0.500000 0.420555
O O10 0.243168 0.458421 0.500000
O O11 0.000000 0.500000 0.419337
O O12 0.265273 0.924038 0.500000
O O13 0.245600 0.875135 0.410112
O O14 0.500000 0.000000 0.428835
O O15 0.000000 0.000000 0.432316
O O16 0.000000 0.797021 0.250000
O O17 0.936484 0.770195 0.152390
#
# Coordination Sequence:
#
# PCOD8204125 Si02
#       6
#     8   8   8   8   8   8
#     4   9  17  31  50  69  91 122 162 214 279 337
#     4  11  22  36  56  82 112 143 176 216 261 317
#     4   9  17  31  52  79 111 143 168 195 245 314
#     4  10  21  36  51  68  96 136 182 230 273 312
#     4  10  21  35  50  71 101 134 171 223 276 326
#     4  12  23  36  54  77 105 142 187 229 274 322
#
# _framework density 19.473856999999999
#
# number of rings (size 3 to 8) (size 9 to 14) (size 15 to 20)
#    0.000    1.833    0.000    5.000    0.000    8.000 
#    0.000    0.000    0.000    0.000    0.000    0.000 
#    0.000   10.000    0.000    0.000    0.000    0.000 
#
# Total GULP energy -594954.610172 kJ/mol
# GULP energy per Si atom -12394.887712 kJ/mol
# Density = 1.942953 g / cm^3
# Si number density = 19.473857 Si / 1000 Ang^3
#
#
#
# Elastic Constant Matrix: (Units=GPa)
#
#
# Indices 1 2 3 4 5 6 
#
# 1 135.7807 46.8255 20.6675 0.0000 0.0000 0.0000
# 2 46.8255 98.3993 35.1097 0.0000 0.0000 0.0000
# 3 20.6675 35.1097 75.7804 0.0000 0.0000 0.0000
# 4 0.0000 0.0000 0.0000 55.1431 0.0000 0.0000
# 5 0.0000 0.0000 0.0000 0.0000 17.9223 0.0000
# 6 0.0000 0.0000 0.0000 0.0000 0.0000 33.5128
#
#
#
# Elastic Compliance Matrix: (Units=1/GPa)
#
#
# Indices 1 2 3 4 5 6 
#
# 1 0.008830 -0.004005 -0.000553 0.000000 0.000000 0.000000
# 2 -0.004005 0.013992 -0.005390 0.000000 0.000000 0.000000
# 3 -0.000553 -0.005390 0.015844 0.000000 0.000000 0.000000
# 4 0.000000 0.000000 0.000000 0.018135 0.000000 0.000000
# 5 0.000000 0.000000 0.000000 0.000000 0.055796 0.000000
# 6 0.000000 0.000000 0.000000 0.000000 0.000000 0.029839
#
#
# Mechanical properties :
#
#
# Convention : Reuss Voigt Hill
#
# Bulk Modulus (GPa) = 53.27562 57.24066 55.25814
# Shear Modulus (GPa) = 29.65801 35.13948 32.39875
#
# Velocity S-wave (km/s) = 3.90675 4.25248 4.08328
# Velocity P-wave (km/s) = 6.91138 7.31908 7.11815
#
# Compressibility (1/GPa) = 0.01877031
#
# Stress axis : x y z
#
# Youngs Moduli (GPa) = 113.24979 71.47085 63.11482
#
# Poissons Ratio (x) = 0.28622 0.03489
# Poissons Ratio (y) = 0.45354 0.34021
# Poissons Ratio (z) = 0.06260 0.38525
#
# Static dielectric constant tensor:
#      x y z
#    x 3.499700 0.000000 0.000000 
#    y 0.000000 3.456560 0.000000 
#    z 0.000000 0.000000 3.454350 
# 
# 
# High freq. dielectric constant tensor:
#      x y z
#    x 1.782460 0.000000 0.000000 
#    y 0.000000 1.724000 0.000000 
#    z 0.000000 0.000000 1.738920 
# 
# From -- ./inp_files/23933.got.cif
#   From: 2010.03.12/outbox.cif.g09.slc.cpg/sg49_12_cif.got.tgz:23933.got - 2010.04.14 03:58:27.
