data_PCOD8204935
_publ_section_title
;
Structure prediction by ZEFSAII (Michael W. Deem and Ramdas Pophale) SiO2 
 PCOD8204935
Probable space group: P B A N
;
_chemical_formula_sum "Si O2"
_cell_formula_units_Z 40
_cell_length_a 16.908788
_cell_length_b 22.091895
_cell_length_c 5.107559
_cell_angle_alpha 90.000000
_cell_angle_beta 90.000000
_cell_angle_gamma 90.000000
_cell_volume 1907.914205
_symmetry_space_group_name_H-M "P B A N"
_symmetry_group_IT_number 50
_space_group.IT_coordinate_system_code '2'
_symmetry_cell_setting 'orthorhombic'
loop_
_space_group_symop_operation_xyz
x,y,z
1/2-x,1/2-y,z
x,1/2-y,-z
1/2-x,y,-z
-x,-y,-z
1/2+x,1/2+y,-z
-x,1/2+y,z
1/2+x,-y,z
loop_
_atom_site_type_symbol
_atom_site_label
_atom_site_fract_x
_atom_site_fract_y
_atom_site_fract_z
Si Si1 0.659832 0.086357 0.072698
Si Si2 0.919579 0.710684 0.741539
Si Si3 0.598496 0.210821 0.256813
Si Si4 0.802605 0.897983 0.257798
Si Si5 0.339629 0.529032 0.570644
O O1 0.652820 0.153482 0.189951
O O2 0.619809 0.040828 0.287476
O O3 0.750000 0.069658 0.000000
O O4 0.618911 0.072857 0.790200
O O5 0.885602 0.750000 0.500000
O O6 0.869074 0.651231 0.795517
O O7 0.009162 0.690113 0.676297
O O8 0.914631 0.750000 0.000000
O O9 0.633510 0.250000 0.500000
O O10 0.598409 0.250000 0.000000
O O11 0.750000 0.875384 0.500000
O O12 0.845947 0.960168 0.335558
O O13 0.750000 0.908166 0.000000
O O14 0.250000 0.549163 0.500000
#
# Coordination Sequence:
#
# PCOD8204935 Si02
#       5
#     8   8   8   8   8
#     4  10  19  34  56  79 105 138 177 218 262 318
#     4  10  22  38  55  78 111 147 179 221 276 321
#     4  10  21  38  56  77 111 147 179 222 275 323
#     4  11  21  35  57  82 109 141 182 225 266 322
#     4   9  18  33  52  78 108 137 170 218 274 312
#
# _framework density 20.965306000000002
#
# number of rings (size 3 to 8) (size 9 to 14) (size 15 to 20)
#    0.000    2.000    0.000    5.400    0.000    2.800 
#    0.000    3.000    0.000    0.000    0.000    4.200 
#    0.000    0.000    0.000    0.000    0.000    0.000 
#
# Total GULP energy -495638.569138 kJ/mol
# GULP energy per Si atom -12390.964228 kJ/mol
# Density = 2.091759 g / cm^3
# Si number density = 20.965306 Si / 1000 Ang^3
#
#
#
# Elastic Constant Matrix: (Units=GPa)
#
#
# Indices 1 2 3 4 5 6 
#
# 1 18.3873 24.9200 26.0145 0.0000 0.0000 0.0000
# 2 24.9200 122.1165 64.0425 0.0000 0.0000 0.0000
# 3 26.0145 64.0425 170.4339 0.0000 0.0000 0.0000
# 4 0.0000 0.0000 0.0000 35.5835 0.0000 0.0000
# 5 0.0000 0.0000 0.0000 0.0000 35.0561 0.0000
# 6 0.0000 0.0000 0.0000 0.0000 0.0000 8.7298
#
#
#
# Elastic Compliance Matrix: (Units=1/GPa)
#
#
# Indices 1 2 3 4 5 6 
#
# 1 0.082800 -0.012789 -0.007833 0.000000 0.000000 0.000000
# 2 -0.012789 0.012174 -0.002622 0.000000 0.000000 0.000000
# 3 -0.007833 -0.002622 0.008048 0.000000 0.000000 0.000000
# 4 0.000000 0.000000 0.000000 0.028103 0.000000 0.000000
# 5 0.000000 0.000000 0.000000 0.000000 0.028526 0.000000
# 6 0.000000 0.000000 0.000000 0.000000 0.000000 0.114550
#
#
# Mechanical properties :
#
#
# Convention : Reuss Voigt Hill
#
# Bulk Modulus (GPa) = 17.68845 60.09909 38.89377
# Shear Modulus (GPa) = 14.72604 28.93792 21.83198
#
# Velocity S-wave (km/s) = 2.65316 3.71924 3.23048
# Velocity P-wave (km/s) = 4.22386 6.86818 5.70144
#
# Compressibility (1/GPa) = 0.05653408
#
# Stress axis : x y z
#
# Youngs Moduli (GPa) = 12.07728 82.14196 124.24878
#
# Poissons Ratio (x) = 1.05051 0.97321
# Poissons Ratio (y) = 0.15446 0.32584
# Poissons Ratio (z) = 0.09460 0.21541
#
# Static dielectric constant tensor:
#      x y z
#    x 3.435600 0.000000 0.000000 
#    y 0.000000 3.430640 0.000000 
#    z 0.000000 0.000000 4.606020 
# 
# 
# High freq. dielectric constant tensor:
#      x y z
#    x 1.763580 0.000000 0.000000 
#    y 0.000000 1.820410 0.000000 
#    z 0.000000 0.000000 1.862360 
# 
# From -- ./inp_files/4204.got.cif
#   From: 2010.03.12/outbox.cif.g09.slc.cpg/sg50_3_cif.got.tgz:4204.got - 2010.04.16 13:23:21.
