data_PCOD8204140
_publ_section_title
;
Structure prediction by ZEFSAII (Michael W. Deem and Ramdas Pophale) SiO2 
 PCOD8204140
Probable space group: P C C M
;
_chemical_formula_sum "Si O2"
_cell_formula_units_Z 26
_cell_length_a 5.227992
_cell_length_b 14.699529
_cell_length_c 14.030549
_cell_angle_alpha 90.000000
_cell_angle_beta 90.000000
_cell_angle_gamma 90.000000
_cell_volume 1078.233941
_symmetry_space_group_name_H-M "P C C M"
_symmetry_group_IT_number 49
_symmetry_cell_setting 'orthorhombic'
loop_
_space_group_symop_operation_xyz
x,y,z
-x,-y,z
x,-y,1/2-z
-x,y,1/2-z
-x,-y,-z
x,y,-z
-x,y,1/2+z
x,-y,1/2+z
loop_
_atom_site_type_symbol
_atom_site_label
_atom_site_fract_x
_atom_site_fract_y
_atom_site_fract_z
Si Si1 0.251590 0.039449 0.645476
Si Si2 0.811218 0.644268 0.111885
Si Si3 0.318271 0.756632 0.889776
Si Si4 0.000000 0.500000 0.250000
O O1 0.263034 0.147571 0.659297
O O2 0.500000 0.000000 0.590135
O O3 0.248878 0.000000 0.750000
O O4 0.000000 0.000000 0.591307
O O5 0.581183 0.710011 0.146173
O O6 0.811539 0.556487 0.179970
O O7 0.082133 0.691214 0.131678
O O8 0.778350 0.617047 0.000000
O O9 0.345074 0.778687 0.000000
#
# Coordination Sequence:
#
# PCOD8204140 Si02
#       4
#     8   8   8   2
#     4  10  21  35  56  87 122 161 207 262 308 363
#     4  10  24  44  66  94 128 165 212 265 319 388
#     4  10  22  42  63  87 127 172 209 258 321 378
#     4  12  26  42  72 100 126 166 214 270 336 388
#
# _framework density 24.113506000000001
#
# number of rings (size 3 to 8) (size 9 to 14) (size 15 to 20)
#    0.000    1.846    0.000    2.308    0.000   12.308 
#    0.000    4.615    0.000    0.000    0.000    0.000 
#    0.000    0.000    0.000    0.000    0.000    0.000 
#
# Total GULP energy -322311.202821 kJ/mol
# GULP energy per Si atom -12396.584724 kJ/mol
# Density = 2.405862 g / cm^3
# Si number density = 24.113506 Si / 1000 Ang^3
#
#
#
# Elastic Constant Matrix: (Units=GPa)
#
#
# Indices 1 2 3 4 5 6 
#
# 1 220.5170 72.3133 28.4072 0.0000 0.0000 0.0000
# 2 72.3133 184.6394 70.3656 0.0000 0.0000 0.0000
# 3 28.4072 70.3656 78.6645 0.0000 0.0000 0.0000
# 4 0.0000 0.0000 0.0000 -31.7715 0.0000 0.0000
# 5 0.0000 0.0000 0.0000 0.0000 11.8096 0.0000
# 6 0.0000 0.0000 0.0000 0.0000 0.0000 16.5476
#
#
#
# Elastic Compliance Matrix: (Units=1/GPa)
#
#
# Indices 1 2 3 4 5 6 
#
# 1 0.005203 -0.002005 -0.000085 0.000000 0.000000 0.000000
# 2 -0.002005 0.008990 -0.007317 0.000000 0.000000 0.000000
# 3 -0.000085 -0.007317 0.019288 0.000000 0.000000 0.000000
# 4 0.000000 0.000000 0.000000 -0.031475 0.000000 0.000000
# 5 0.000000 0.000000 0.000000 0.000000 0.084677 0.000000
# 6 0.000000 0.000000 0.000000 0.000000 0.000000 0.060432
#
#
# Mechanical properties :
#
#
# Convention : Reuss Voigt Hill
#
# Bulk Modulus (GPa) = 68.18583 91.77704 79.98143
# Shear Modulus (GPa) = 29.27054 20.16613 24.71834
#
# Velocity S-wave (km/s) = 3.48784 2.89502 3.20516
# Velocity P-wave (km/s) = 6.67521 7.02267 6.85114
#
# Compressibility (1/GPa) = 0.01466580
#
# Stress axis : x y z
#
# Youngs Moduli (GPa) = 192.18183 111.23434 51.84461
#
# Poissons Ratio (x) = 0.22307 0.00442
# Poissons Ratio (y) = 0.38541 0.37937
# Poissons Ratio (z) = 0.01637 0.81395
#
# Static dielectric constant tensor:
#      x y z
#    x 2.939860 0.000000 0.000000 
#    y 0.000000 4.325090 0.000000 
#    z 0.000000 0.000000 4.217420 
# 
# 
# High freq. dielectric constant tensor:
#      x y z
#    x 1.976930 0.000000 0.000000 
#    y 0.000000 1.954490 0.000000 
#    z 0.000000 0.000000 1.960210 
# 
# From -- ./inp_files/10455.got.cif
#   From: 2010.03.12/outbox.cif.g09.slc.cpg/sg49_6_cif.got.tgz:10455.got - 2010.04.14 03:58:27.
