data_PCOD8204639
_publ_section_title
;
Structure prediction by ZEFSAII (Michael W. Deem and Ramdas Pophale) SiO2 
 PCOD8204639
Probable space group: P C C M
;
_chemical_formula_sum "Si O2"
_cell_formula_units_Z 56
_cell_length_a 10.964000
_cell_length_b 15.046141
_cell_length_c 15.244664
_cell_angle_alpha 90.000000
_cell_angle_beta 90.000000
_cell_angle_gamma 90.000000
_cell_volume 2514.849563
_symmetry_space_group_name_H-M "P C C M"
_symmetry_group_IT_number 49
_symmetry_cell_setting 'orthorhombic'
loop_
_space_group_symop_operation_xyz
x,y,z
-x,-y,z
x,-y,1/2-z
-x,y,1/2-z
-x,-y,-z
x,y,-z
-x,y,1/2+z
x,-y,1/2+z
loop_
_atom_site_type_symbol
_atom_site_label
_atom_site_fract_x
_atom_site_fract_y
_atom_site_fract_z
Si Si1 0.875143 0.543117 0.342038
Si Si2 0.612495 0.559170 0.599815
Si Si3 0.720715 0.226697 0.399883
Si Si4 0.374962 0.963018 0.601061
Si Si5 0.269964 0.855901 0.097128
Si Si6 0.130512 0.737494 0.767832
Si Si7 0.472892 0.738376 0.151733
O O1 0.853414 0.500000 0.250000
O O2 0.750541 0.519481 0.395199
O O3 0.888338 0.647884 0.324613
O O4 0.000000 0.500000 0.385156
O O5 0.500000 0.500000 0.637948
O O6 0.582140 0.581395 0.500000
O O7 0.613952 0.651458 0.653970
O O8 0.775646 0.225365 0.500000
O O9 0.681320 0.129045 0.362075
O O10 0.808454 0.273348 0.328617
O O11 0.597093 0.285156 0.400182
O O12 0.404087 0.944548 0.500000
O O13 0.500000 0.000000 0.646593
O O14 0.271394 0.038418 0.613323
O O15 0.196782 0.809191 0.173281
O O16 0.408621 0.819317 0.100856
O O17 0.215941 0.835349 0.000000
O O18 0.000000 0.779742 0.750000
O O19 0.500000 0.769080 0.250000
#
# Coordination Sequence:
#
# PCOD8204639 Si02
#       7
#     8   8   8   8   8   8   8
#     4  11  24  46  70  90 125 176 219 278 337 400
#     4  11  26  41  62 100 135 168 218 277 343 413
#     4  11  23  41  66 100 139 175 219 276 330 399
#     4   9  18  35  63  99 137 175 213 264 335 397
#     4  11  22  40  66  97 133 171 217 273 328 396
#     4  12  26  46  67  93 126 174 235 272 334 397
#     4  12  22  38  63  99 135 174 212 263 339 404
#
# _framework density 22.267734000000001
#
# number of rings (size 3 to 8) (size 9 to 14) (size 15 to 20)
#    0.000    1.000    5.714    1.286    4.000    1.429 
#    0.000    2.857    0.000    3.000    0.000    0.000 
#    0.000    0.000    0.000    0.000    0.000    0.000 
#
# Total GULP energy -693907.097473 kJ/mol
# GULP energy per Si atom -12391.198169 kJ/mol
# Density = 2.221705 g / cm^3
# Si number density = 22.267734 Si / 1000 Ang^3
#
#
#
# Elastic Constant Matrix: (Units=GPa)
#
#
# Indices 1 2 3 4 5 6 
#
# 1 141.3921 25.3869 29.0900 0.0000 0.0000 0.0000
# 2 25.3869 73.0489 9.6526 0.0000 0.0000 0.0000
# 3 29.0900 9.6526 79.3662 0.0000 0.0000 0.0000
# 4 0.0000 0.0000 0.0000 24.3632 0.0000 0.0000
# 5 0.0000 0.0000 0.0000 0.0000 29.0509 0.0000
# 6 0.0000 0.0000 0.0000 0.0000 0.0000 26.0096
#
#
#
# Elastic Compliance Matrix: (Units=1/GPa)
#
#
# Indices 1 2 3 4 5 6 
#
# 1 0.008059 -0.002450 -0.002656 0.000000 0.000000 0.000000
# 2 -0.002450 0.014658 -0.000885 0.000000 0.000000 0.000000
# 3 -0.002656 -0.000885 0.013681 0.000000 0.000000 0.000000
# 4 0.000000 0.000000 0.000000 0.041045 0.000000 0.000000
# 5 0.000000 0.000000 0.000000 0.000000 0.034422 0.000000
# 6 0.000000 0.000000 0.000000 0.000000 0.000000 0.038447
#
#
# Mechanical properties :
#
#
# Convention : Reuss Voigt Hill
#
# Bulk Modulus (GPa) = 40.95564 46.89625 43.92594
# Shear Modulus (GPa) = 29.33717 31.19658 30.26688
#
# Velocity S-wave (km/s) = 3.63364 3.74702 3.69077
# Velocity P-wave (km/s) = 6.00306 6.31080 6.15885
#
# Compressibility (1/GPa) = 0.02441666
#
# Stress axis : x y z
#
# Youngs Moduli (GPa) = 124.08792 68.22328 73.09478
#
# Poissons Ratio (x) = 0.16713 0.19413
# Poissons Ratio (y) = 0.30399 0.06467
# Poissons Ratio (z) = 0.32956 0.06036
#
# Static dielectric constant tensor:
#      x y z
#    x 4.238030 0.000000 0.000000 
#    y 0.000000 5.779520 0.000000 
#    z 0.000000 0.000000 3.799420 
# 
# 
# High freq. dielectric constant tensor:
#      x y z
#    x 1.862990 0.000000 0.000000 
#    y 0.000000 1.877670 0.000000 
#    z 0.000000 0.000000 1.866580 
# 
# From -- ./inp_files/12897.got.cif
#   From: 2010.03.12/outbox.cif.g09.slc.cpg/sg49_7_cif.got.tgz:12897.got - 2010.04.14 03:58:27.
