data_PCOD8204214
_publ_section_title
;
Structure prediction by ZEFSAII (Michael W. Deem and Ramdas Pophale) SiO2 
 PCOD8204214
Probable space group: P C C M
;
_chemical_formula_sum "Si O2"
_cell_formula_units_Z 56
_cell_length_a 23.542833
_cell_length_b 14.309694
_cell_length_c 8.600281
_cell_angle_alpha 90.000000
_cell_angle_beta 90.000000
_cell_angle_gamma 90.000000
_cell_volume 2897.354997
_symmetry_space_group_name_H-M "P C C M"
_symmetry_group_IT_number 49
_symmetry_cell_setting 'orthorhombic'
loop_
_space_group_symop_operation_xyz
x,y,z
-x,-y,z
x,-y,1/2-z
-x,y,1/2-z
-x,-y,-z
x,y,-z
-x,y,1/2+z
x,-y,1/2+z
loop_
_atom_site_type_symbol
_atom_site_label
_atom_site_fract_x
_atom_site_fract_y
_atom_site_fract_z
Si Si1 0.853883 0.602013 0.318224
Si Si2 0.847839 0.897767 0.816893
Si Si3 0.359956 0.250260 0.182562
Si Si4 0.237388 0.242257 0.317946
Si Si5 0.558548 0.897650 0.684213
Si Si6 0.061530 0.741856 0.681383
Si Si7 0.558366 0.397525 0.184328
O O1 0.842687 0.500000 0.250000
O O2 0.861864 0.592402 0.500000
O O3 0.800878 0.668136 0.275191
O O4 0.911028 0.647999 0.251254
O O5 0.793285 0.853553 0.732094
O O6 0.901993 0.833607 0.777100
O O7 0.859924 0.000000 0.750000
O O8 0.836141 0.902687 0.000000
O O9 0.293651 0.252055 0.217272
O O10 0.387337 0.159754 0.260578
O O11 0.387451 0.341121 0.258737
O O12 0.371007 0.249295 0.000000
O O13 0.251757 0.238042 0.500000
O O14 0.500000 0.853470 0.750000
O O15 0.555288 0.899121 0.500000
O O16 0.566956 0.000000 0.750000
O O17 0.056808 0.725897 0.500000
O O18 0.000000 0.759049 0.750000
O O19 0.565966 0.500000 0.250000
O O20 0.500000 0.352607 0.250000
O O21 0.555561 0.398463 0.000000
#
# Coordination Sequence:
#
# PCOD8204214 Si02
#       7
#     8   8   8   8   8   8   8
#     4  10  21  38  61  85 114 150 189 231 281 334
#     4  10  21  38  60  85 114 152 191 233 282 336
#     4  12  24  39  59  85 115 150 190 235 285 339
#     4  10  22  40  59  83 113 147 189 238 284 334
#     4  11  22  39  60  85 115 148 187 232 284 343
#     4  10  21  37  58  86 120 152 190 234 279 328
#     4  11  22  39  60  85 115 149 188 233 285 342
#
# _framework density 19.327973
#
# number of rings (size 3 to 8) (size 9 to 14) (size 15 to 20)
#    0.000    1.429    0.000    6.857    0.000    5.143 
#    0.000    7.143    0.000    0.000    0.000    0.000 
#    0.000    0.000    0.000    0.000    0.000    0.000 
#
# Total GULP energy -694662.887139 kJ/mol
# GULP energy per Si atom -12404.694413 kJ/mol
# Density = 1.928398 g / cm^3
# Si number density = 19.327973 Si / 1000 Ang^3
#
#
#
# Elastic Constant Matrix: (Units=GPa)
#
#
# Indices 1 2 3 4 5 6 
#
# 1 126.3843 50.5387 53.9736 0.0000 0.0000 0.0000
# 2 50.5387 121.6627 51.9524 0.0000 0.0000 0.0000
# 3 53.9736 51.9524 150.8617 0.0000 0.0000 0.0000
# 4 0.0000 0.0000 0.0000 35.3503 0.0000 0.0000
# 5 0.0000 0.0000 0.0000 0.0000 38.2739 0.0000
# 6 0.0000 0.0000 0.0000 0.0000 0.0000 20.1373
#
#
#
# Elastic Compliance Matrix: (Units=1/GPa)
#
#
# Indices 1 2 3 4 5 6 
#
# 1 0.010284 -0.003167 -0.002589 0.000000 0.000000 0.000000
# 2 -0.003167 0.010612 -0.002521 0.000000 0.000000 0.000000
# 3 -0.002589 -0.002521 0.008423 0.000000 0.000000 0.000000
# 4 0.000000 0.000000 0.000000 0.028288 0.000000 0.000000
# 5 0.000000 0.000000 0.000000 0.000000 0.026127 0.000000
# 6 0.000000 0.000000 0.000000 0.000000 0.000000 0.049659
#
#
# Mechanical properties :
#
#
# Convention : Reuss Voigt Hill
#
# Bulk Modulus (GPa) = 78.33837 79.09311 78.71574
# Shear Modulus (GPa) = 32.42489 34.91525 33.67007
#
# Velocity S-wave (km/s) = 4.10031 4.25486 4.17830
# Velocity P-wave (km/s) = 7.93951 8.07148 8.00577
#
# Compressibility (1/GPa) = 0.01276514
#
# Stress axis : x y z
#
# Youngs Moduli (GPa) = 97.23622 94.23718 118.72088
#
# Poissons Ratio (x) = 0.29841 0.30736
# Poissons Ratio (y) = 0.30790 0.29934
# Poissons Ratio (z) = 0.25174 0.23761
#
# Static dielectric constant tensor:
#      x y z
#    x 3.570180 0.000000 0.000000 
#    y 0.000000 3.628320 0.000000 
#    z 0.000000 0.000000 3.713010 
# 
# 
# High freq. dielectric constant tensor:
#      x y z
#    x 1.753260 0.000000 0.000000 
#    y 0.000000 1.759480 0.000000 
#    z 0.000000 0.000000 1.774760 
# 
# From -- ./inp_files/5818.got.cif
#   From: 2010.03.12/outbox.cif.g09.slc.cpg/sg49_3_cif.got.tgz:5818.got - 2010.04.14 03:58:27.
