data_PCOD8204303
_publ_section_title
;
Structure prediction by ZEFSAII (Michael W. Deem and Ramdas Pophale) SiO2 
 PCOD8204303
Probable space group: P C C M
;
_chemical_formula_sum "Si O2"
_cell_formula_units_Z 34
_cell_length_a 20.300539
_cell_length_b 9.352403
_cell_length_c 8.968133
_cell_angle_alpha 90.000000
_cell_angle_beta 90.000000
_cell_angle_gamma 90.000000
_cell_volume 1702.679166
_symmetry_space_group_name_H-M "P C C M"
_symmetry_group_IT_number 49
_symmetry_cell_setting 'orthorhombic'
loop_
_space_group_symop_operation_xyz
x,y,z
-x,-y,z
x,-y,1/2-z
-x,y,1/2-z
-x,-y,-z
x,y,-z
-x,y,1/2+z
x,-y,1/2+z
loop_
_atom_site_type_symbol
_atom_site_label
_atom_site_fract_x
_atom_site_fract_y
_atom_site_fract_z
Si Si1 0.500000 0.000000 0.250000
Si Si2 0.932899 0.647285 0.174035
Si Si3 0.295340 0.350477 0.678693
Si Si4 0.189638 0.848579 0.325330
Si Si5 0.439306 0.723560 0.836753
O O1 0.451930 0.895926 0.154504
O O2 0.909771 0.500000 0.250000
O O3 0.877378 0.763632 0.202105
O O4 0.000000 0.703179 0.250000
O O5 0.945371 0.619865 0.000000
O O6 0.272903 0.500000 0.750000
O O7 0.289965 0.356018 0.500000
O O8 0.249350 0.227616 0.742038
O O9 0.369063 0.312974 0.736591
O O10 0.206120 0.863345 0.500000
O O11 0.179091 0.000000 0.250000
O O12 0.500000 0.648793 0.750000
O O13 0.439257 0.657169 0.000000
#
# Coordination Sequence:
#
# PCOD8204303 Si02
#       5
#     2   8   8   8   8
#     4   8  18  36  56  80 118 148 190 236 302 352
#     4  10  21  38  63  92 123 159 202 244 295 352
#     4  11  24  42  61  88 120 160 205 252 304 362
#     4  11  25  42  62  91 123 161 201 250 303 360
#     4   9  20  35  57  84 113 150 196 243 295 354
#
# _framework density 19.968530999999999
#
# number of rings (size 3 to 8) (size 9 to 14) (size 15 to 20)
#    0.706    1.176    0.000    3.882    1.647    8.471 
#    0.000    4.706    0.000    0.000    0.000    0.000 
#    0.000    0.000    0.000    0.000    0.000    0.000 
#
# Total GULP energy -421455.253600 kJ/mol
# GULP energy per Si atom -12395.742753 kJ/mol
# Density = 1.992308 g / cm^3
# Si number density = 19.968531 Si / 1000 Ang^3
#
#
#
# Elastic Constant Matrix: (Units=GPa)
#
#
# Indices 1 2 3 4 5 6 
#
# 1 139.2412 64.3437 76.4868 0.0000 0.0000 0.0000
# 2 64.3437 108.7063 55.3374 0.0000 0.0000 0.0000
# 3 76.4868 55.3374 135.0857 0.0000 0.0000 0.0000
# 4 0.0000 0.0000 0.0000 32.1390 0.0000 0.0000
# 5 0.0000 0.0000 0.0000 0.0000 -3.0254 0.0000
# 6 0.0000 0.0000 0.0000 0.0000 0.0000 6.9729
#
#
#
# Elastic Compliance Matrix: (Units=1/GPa)
#
#
# Indices 1 2 3 4 5 6 
#
# 1 0.012009 -0.004608 -0.004912 0.000000 0.000000 0.000000
# 2 -0.004608 0.013391 -0.002876 0.000000 0.000000 0.000000
# 3 -0.004912 -0.002876 0.011362 0.000000 0.000000 0.000000
# 4 0.000000 0.000000 0.000000 0.031115 0.000000 0.000000
# 5 0.000000 0.000000 0.000000 0.000000 -0.330536 0.000000
# 6 0.000000 0.000000 0.000000 0.000000 0.000000 0.143413
#
#
# Mechanical properties :
#
#
# Convention : Reuss Voigt Hill
#
# Bulk Modulus (GPa) = 83.54596 86.15211 84.84904
# Shear Modulus (GPa) = -55.27121 19.67498 -17.79812
#
# Velocity S-wave (km/s) = -5.26681 3.14235 -2.98872
# Velocity P-wave (km/s) = 2.22351 7.51022 5.53839
#
# Compressibility (1/GPa) = 0.01196946
#
# Stress axis : x y z
#
# Youngs Moduli (GPa) = 83.26785 74.67824 88.00930
#
# Poissons Ratio (x) = 0.34410 0.43233
# Poissons Ratio (y) = 0.38368 0.25316
# Poissons Ratio (z) = 0.40903 0.21481
#
# Static dielectric constant tensor:
#      x y z
#    x 3.755000 0.000000 0.000000 
#    y 0.000000 4.551080 0.000000 
#    z 0.000000 0.000000 3.646370 
# 
# 
# High freq. dielectric constant tensor:
#      x y z
#    x 1.789390 0.000000 0.000000 
#    y 0.000000 1.776470 0.000000 
#    z 0.000000 0.000000 1.785990 
# 
# From -- ./inp_files/5544.got.cif
#   From: 2010.03.12/outbox.cif.g09.slc.cpg/sg49_3_cif.got.tgz:5544.got - 2010.04.14 03:58:27.
