data_PCOD8204406
_publ_section_title
;
Structure prediction by ZEFSAII (Michael W. Deem and Ramdas Pophale) SiO2 
 PCOD8204406
Probable space group: P C C M
;
_chemical_formula_sum "Si O2"
_cell_formula_units_Z 48
_cell_length_a 30.961796
_cell_length_b 9.156572
_cell_length_c 8.617548
_cell_angle_alpha 90.000000
_cell_angle_beta 90.000000
_cell_angle_gamma 90.000000
_cell_volume 2443.108590
_symmetry_space_group_name_H-M "P C C M"
_symmetry_group_IT_number 49
_symmetry_cell_setting 'orthorhombic'
loop_
_space_group_symop_operation_xyz
x,y,z
-x,-y,z
x,-y,1/2-z
-x,y,1/2-z
-x,-y,-z
x,y,-z
-x,y,1/2+z
x,-y,1/2+z
loop_
_atom_site_type_symbol
_atom_site_label
_atom_site_fract_x
_atom_site_fract_y
_atom_site_fract_z
Si Si1 0.547192 0.845556 0.684592
Si Si2 0.136368 0.160209 0.317159
Si Si3 0.621791 0.341287 0.683885
Si Si4 0.783787 0.658258 0.681964
Si Si5 0.958021 0.839346 0.318734
Si Si6 0.300359 0.159892 0.316413
O O1 0.500000 0.812099 0.750000
O O2 0.545885 0.853186 0.500000
O O3 0.577552 0.715100 0.740737
O O4 0.564688 0.000000 0.750000
O O5 0.141659 0.144460 0.500000
O O6 0.172961 0.267038 0.248125
O O7 0.088936 0.228612 0.275361
O O8 0.142915 0.000000 0.250000
O O9 0.632740 0.500000 0.750000
O O10 0.616863 0.348250 0.500000
O O11 0.659824 0.233029 0.729922
O O12 0.777179 0.500000 0.750000
O O13 0.788418 0.642952 0.500000
O O14 0.742749 0.754012 0.728389
O O15 0.964339 0.847714 0.500000
O O16 0.000000 0.752359 0.250000
O O17 0.958136 0.000000 0.250000
O O18 0.309089 0.157473 0.500000
O O19 0.294274 0.000000 0.250000
#
# Coordination Sequence:
#
# PCOD8204406 Si02
#       6
#     8   8   8   8   8   8
#     4  11  22  40  64  92 123 159 201 245 291 339
#     4   9  18  32  50  75 104 136 174 220 267 320
#     4  12  25  42  62  88 121 157 195 238 286 339
#     4  10  22  38  56  79 109 142 180 223 273 327
#     4   9  15  24  41  66  98 130 166 211 262 313
#     4  11  23  40  62  88 115 147 186 231 279 333
#
# _framework density 19.647100999999999
#
# number of rings (size 3 to 8) (size 9 to 14) (size 15 to 20)
#    0.000    1.667    0.000    6.500    0.000    4.333 
#    0.000    1.667    0.000    0.500    0.000    3.500 
#    0.000    0.000    0.000    0.000    0.000    0.000 
#
# Total GULP energy -595123.999905 kJ/mol
# GULP energy per Si atom -12398.416665 kJ/mol
# Density = 1.960238 g / cm^3
# Si number density = 19.647101 Si / 1000 Ang^3
#
#
#
# Elastic Constant Matrix: (Units=GPa)
#
#
# Indices 1 2 3 4 5 6 
#
# 1 141.6946 62.1010 56.8299 0.0000 0.0000 0.0000
# 2 62.1010 118.3257 39.6661 0.0000 0.0000 0.0000
# 3 56.8299 39.6661 107.6005 0.0000 0.0000 0.0000
# 4 0.0000 0.0000 0.0000 28.9579 0.0000 0.0000
# 5 0.0000 0.0000 0.0000 0.0000 25.7868 0.0000
# 6 0.0000 0.0000 0.0000 0.0000 0.0000 10.4961
#
#
#
# Elastic Compliance Matrix: (Units=1/GPa)
#
#
# Indices 1 2 3 4 5 6 
#
# 1 0.010488 -0.004162 -0.004005 0.000000 0.000000 0.000000
# 2 -0.004162 0.011294 -0.001966 0.000000 0.000000 0.000000
# 3 -0.004005 -0.001966 0.012133 0.000000 0.000000 0.000000
# 4 0.000000 0.000000 0.000000 0.034533 0.000000 0.000000
# 5 0.000000 0.000000 0.000000 0.000000 0.038780 0.000000
# 6 0.000000 0.000000 0.000000 0.000000 0.000000 0.095273
#
#
# Mechanical properties :
#
#
# Convention : Reuss Voigt Hill
#
# Bulk Modulus (GPa) = 73.25421 76.09052 74.67237
# Shear Modulus (GPa) = 21.99582 26.98308 24.48945
#
# Velocity S-wave (km/s) = 3.34959 3.70994 3.53436
# Velocity P-wave (km/s) = 7.23365 7.56071 7.39898
#
# Compressibility (1/GPa) = 0.01365109
#
# Stress axis : x y z
#
# Youngs Moduli (GPa) = 95.35016 88.53994 82.41668
#
# Poissons Ratio (x) = 0.36847 0.33007
# Poissons Ratio (y) = 0.39682 0.16199
# Poissons Ratio (z) = 0.38187 0.17403
#
# Static dielectric constant tensor:
#      x y z
#    x 4.369380 0.000000 0.000000 
#    y 0.000000 3.242310 0.000000 
#    z 0.000000 0.000000 3.691900 
# 
# 
# High freq. dielectric constant tensor:
#      x y z
#    x 1.793320 0.000000 0.000000 
#    y 0.000000 1.742460 0.000000 
#    z 0.000000 0.000000 1.774340 
# 
# From -- ./inp_files/2081.got.cif
#   From: 2010.03.12/outbox.cif.g09.slc.cpg/sg49_2_cif.got.tgz:2081.got - 2010.04.14 03:58:27.
