data_PCOD8204334
_publ_section_title
;
Structure prediction by ZEFSAII (Michael W. Deem and Ramdas Pophale) SiO2 
 PCOD8204334
Probable space group: P C C M
;
_chemical_formula_sum "Si O2"
_cell_formula_units_Z 56
_cell_length_a 9.642902
_cell_length_b 18.486160
_cell_length_c 14.867093
_cell_angle_alpha 90.000000
_cell_angle_beta 90.000000
_cell_angle_gamma 90.000000
_cell_volume 2650.211406
_symmetry_space_group_name_H-M "P C C M"
_symmetry_group_IT_number 49
_symmetry_cell_setting 'orthorhombic'
loop_
_space_group_symop_operation_xyz
x,y,z
-x,-y,z
x,-y,1/2-z
-x,y,1/2-z
-x,-y,-z
x,y,-z
-x,y,1/2+z
x,-y,1/2+z
loop_
_atom_site_type_symbol
_atom_site_label
_atom_site_fract_x
_atom_site_fract_y
_atom_site_fract_z
Si Si1 0.010314 0.779237 0.143183
Si Si2 0.835927 0.583490 0.745673
Si Si3 0.530060 0.218749 0.605653
Si Si4 0.227090 0.680818 0.599162
Si Si5 0.391151 0.062150 0.892873
Si Si6 0.924466 0.066625 0.653156
Si Si7 0.269572 0.303914 0.603486
O O1 0.165396 0.763759 0.111557
O O2 0.000000 0.772803 0.250000
O O3 0.924683 0.715114 0.097324
O O4 0.957506 0.856748 0.105613
O O5 0.794919 0.500000 0.750000
O O6 0.763241 0.613670 0.834637
O O7 0.776320 0.624719 0.658412
O O8 0.000000 0.595349 0.750000
O O9 0.505623 0.215971 0.500000
O O10 0.673492 0.255597 0.633393
O O11 0.537192 0.136480 0.641377
O O12 0.408379 0.268735 0.646515
O O13 0.267891 0.652630 0.500000
O O14 0.241637 0.052633 0.843821
O O15 0.500000 0.000000 0.864516
O O16 0.363863 0.062407 0.000000
O O17 0.000000 0.070416 0.750000
O O18 0.000000 0.000000 0.600823
O O19 0.288065 0.328447 0.500000
#
# Coordination Sequence:
#
# PCOD8204334 Si02
#       7
#     8   8   8   8   8   8   8
#     4  11  20  37  62  87 125 165 218 266 303 374
#     4  11  24  42  63  95 130 157 201 259 314 386
#     4   9  21  38  60  91 125 159 211 266 310 375
#     4  11  20  39  65  91 122 166 209 255 315 372
#     4  10  21  39  62  91 128 171 218 271 329 386
#     4  10  23  40  59  87 131 171 217 272 325 378
#     4  11  22  39  63  94 127 165 210 259 317 377
#
# _framework density 21.130389999999998
#
# number of rings (size 3 to 8) (size 9 to 14) (size 15 to 20)
#    0.000    1.571    4.286    0.429    2.000    2.000 
#    0.000    4.286    0.000    2.571    0.000    0.000 
#    0.000    0.000    0.000    0.000    0.000    0.000 
#
# Total GULP energy -694117.334698 kJ/mol
# GULP energy per Si atom -12394.952405 kJ/mol
# Density = 2.108230 g / cm^3
# Si number density = 21.130390 Si / 1000 Ang^3
#
#
#
# Elastic Constant Matrix: (Units=GPa)
#
#
# Indices 1 2 3 4 5 6 
#
# 1 112.2789 54.2208 31.1592 0.0000 0.0000 0.0000
# 2 54.2208 173.6998 50.8116 0.0000 0.0000 0.0000
# 3 31.1592 50.8116 82.2411 0.0000 0.0000 0.0000
# 4 0.0000 0.0000 0.0000 -4.5300 0.0000 0.0000
# 5 0.0000 0.0000 0.0000 0.0000 24.8251 0.0000
# 6 0.0000 0.0000 0.0000 0.0000 0.0000 33.0194
#
#
#
# Elastic Compliance Matrix: (Units=1/GPa)
#
#
# Indices 1 2 3 4 5 6 
#
# 1 0.010884 -0.002674 -0.002471 0.000000 0.000000 0.000000
# 2 -0.002674 0.007684 -0.003734 0.000000 0.000000 0.000000
# 3 -0.002471 -0.003734 0.015403 0.000000 0.000000 0.000000
# 4 0.000000 0.000000 0.000000 -0.220749 0.000000 0.000000
# 5 0.000000 0.000000 0.000000 0.000000 0.040282 0.000000
# 6 0.000000 0.000000 0.000000 0.000000 0.000000 0.030285
#
#
# Mechanical properties :
#
#
# Convention : Reuss Voigt Hill
#
# Bulk Modulus (GPa) = 61.68712 71.17811 66.43262
# Shear Modulus (GPa) = -53.73596 26.13144 -13.80226
#
# Velocity S-wave (km/s) = -5.04835 3.52046 -2.55854
# Velocity P-wave (km/s) = 2.17353 7.09106 4.77278
#
# Compressibility (1/GPa) = 0.01621084
#
# Stress axis : x y z
#
# Youngs Moduli (GPa) = 91.88025 130.13551 64.92306
#
# Poissons Ratio (x) = 0.34805 0.16044
# Poissons Ratio (y) = 0.24573 0.24244
# Poissons Ratio (z) = 0.22705 0.48597
#
# Static dielectric constant tensor:
#      x y z
#    x 3.868520 0.000000 0.000000 
#    y 0.000000 4.139720 0.000000 
#    z 0.000000 0.000000 3.662690 
# 
# 
# High freq. dielectric constant tensor:
#      x y z
#    x 1.832340 0.000000 0.000000 
#    y 0.000000 1.825860 0.000000 
#    z 0.000000 0.000000 1.817050 
# 
# From -- ./inp_files/11990.got.cif
#   From: 2010.03.12/outbox.cif.g09.slc.cpg/sg49_6_cif.got.tgz:11990.got - 2010.04.14 03:58:27.
