data_PCOD8204654
_publ_section_title
;
Structure prediction by ZEFSAII (Michael W. Deem and Ramdas Pophale) SiO2 
 PCOD8204654
Probable space group: P C C M
;
_chemical_formula_sum "Si O2"
_cell_formula_units_Z 56
_cell_length_a 8.760379
_cell_length_b 17.025713
_cell_length_c 23.413861
_cell_angle_alpha 90.000000
_cell_angle_beta 90.000000
_cell_angle_gamma 90.000000
_cell_volume 3492.217140
_symmetry_space_group_name_H-M "P C C M"
_symmetry_group_IT_number 49
_symmetry_cell_setting 'orthorhombic'
loop_
_space_group_symop_operation_xyz
x,y,z
-x,-y,z
x,-y,1/2-z
-x,y,1/2-z
-x,-y,-z
x,y,-z
-x,y,1/2+z
x,-y,1/2+z
loop_
_atom_site_type_symbol
_atom_site_label
_atom_site_fract_x
_atom_site_fract_y
_atom_site_fract_z
Si Si1 0.821172 0.359008 0.866291
Si Si2 0.319556 0.409682 0.250000
Si Si3 0.670463 0.768965 0.435573
Si Si4 0.325728 0.500000 0.567588
Si Si5 0.821172 0.640992 0.133709
Si Si6 0.329537 0.768965 0.435573
Si Si7 0.500000 0.085962 0.067309
O O1 0.744127 0.365650 0.804935
O O2 0.783927 0.273378 0.891886
O O3 0.757734 0.423311 0.909631
O O4 0.000000 0.370018 0.859137
O O5 0.264264 0.500000 0.250000
O O6 0.500000 0.403971 0.250000
O O7 0.255873 0.365650 0.195065
O O8 0.736164 0.761953 0.500000
O O9 0.500000 0.729864 0.433727
O O10 0.650690 0.861466 0.417296
O O11 0.500000 0.500000 0.589566
O O12 0.315850 0.500000 0.500000
O O13 0.242266 0.576689 0.590368
O O14 0.783927 0.726622 0.108114
O O15 0.263836 0.761953 0.500000
O O16 0.349310 0.861466 0.417296
O O17 0.500000 0.000000 0.097779
O O18 0.500000 0.074032 0.000000
#
# Coordination Sequence:
#
# PCOD8204654 Si02
#       7
#     8   8   8   8   8   8   8
#     4  12  23  34  50  73 102 132 168 212 260 301
#     4  11  23  39  57  69  88 131 180 221 255 294
#     4   8  16  30  50  75 104 134 167 204 244 292
#     4  11  23  36  51  68  95 135 177 211 244 291
#     4  12  23  34  50  73 102 132 168 212 260 301
#     4   8  16  30  50  75 104 134 167 204 244 292
#     4   7  12  26  52  80 103 132 170 206 239 287
#
# _framework density 16.035658000000002
#
# number of rings (size 3 to 8) (size 9 to 14) (size 15 to 20)
#    0.857    1.286    1.429    4.286    0.000    5.714 
#    0.000    0.000    0.000    0.857    0.000    6.000 
#    0.000    2.286    0.000    0.000    0.000    0.000 
#
# Total GULP energy -693924.062253 kJ/mol
# GULP energy per Si atom -12391.501112 kJ/mol
# Density = 1.599916 g / cm^3
# Si number density = 16.035658 Si / 1000 Ang^3
#
#
#
# Elastic Constant Matrix: (Units=GPa)
#
#
# Indices 1 2 3 4 5 6 
#
# 1 72.4508 33.3837 32.4650 0.0000 0.0000 0.0000
# 2 33.3837 118.6429 46.3350 0.0000 0.0000 0.0000
# 3 32.4650 46.3350 89.8362 0.0000 0.0000 0.0000
# 4 0.0000 0.0000 0.0000 6.6333 0.0000 0.0000
# 5 0.0000 0.0000 0.0000 0.0000 112.9723 0.0000
# 6 0.0000 0.0000 0.0000 0.0000 0.0000 8.8011
#
#
#
# Elastic Compliance Matrix: (Units=1/GPa)
#
#
# Indices 1 2 3 4 5 6 
#
# 1 0.017302 -0.003039 -0.004685 0.000000 0.000000 0.000000
# 2 -0.003039 0.011088 -0.004621 0.000000 0.000000 0.000000
# 3 -0.004685 -0.004621 0.015208 0.000000 0.000000 0.000000
# 4 0.000000 0.000000 0.000000 0.150755 0.000000 0.000000
# 5 0.000000 0.000000 0.000000 0.000000 0.008852 0.000000
# 6 0.000000 0.000000 0.000000 0.000000 0.000000 0.113622
#
#
# Mechanical properties :
#
#
# Convention : Reuss Voigt Hill
#
# Bulk Modulus (GPa) = 52.88646 56.14415 54.51531
# Shear Modulus (GPa) = 14.37528 36.93110 25.65319
#
# Velocity S-wave (km/s) = 2.99734 4.80423 4.00404
# Velocity P-wave (km/s) = 6.71050 8.11555 7.44624
#
# Compressibility (1/GPa) = 0.01890843
#
# Stress axis : x y z
#
# Youngs Moduli (GPa) = 57.79639 90.18492 65.75516
#
# Poissons Ratio (x) = 0.27404 0.30809
# Poissons Ratio (y) = 0.17562 0.30385
# Poissons Ratio (z) = 0.27080 0.41674
#
# Static dielectric constant tensor:
#      x y z
#    x 2.927610 0.000000 0.000000 
#    y 0.000000 3.317970 0.000000 
#    z 0.000000 0.000000 2.925220 
# 
# 
# High freq. dielectric constant tensor:
#      x y z
#    x 1.602220 0.000000 0.000000 
#    y 0.000000 1.602200 0.000000 
#    z 0.000000 0.000000 1.606040 
# 
# From -- ./inp_files/19973.got.cif
#   From: 2010.03.12/outbox.cif.g09.slc.cpg/sg49_10_cif.got.tgz:19973.got - 2010.04.14 03:58:27.
