data_PCOD8204917
_publ_section_title
;
Structure prediction by ZEFSAII (Michael W. Deem and Ramdas Pophale) SiO2 
 PCOD8204917
Probable space group: P B A N
;
_chemical_formula_sum "Si O2"
_cell_formula_units_Z 32
_cell_length_a 12.907691
_cell_length_b 14.634135
_cell_length_c 9.520808
_cell_angle_alpha 90.000000
_cell_angle_beta 90.000000
_cell_angle_gamma 90.000000
_cell_volume 1798.412963
_symmetry_space_group_name_H-M "P B A N"
_symmetry_group_IT_number 50
_space_group.IT_coordinate_system_code '2'
_symmetry_cell_setting 'orthorhombic'
loop_
_space_group_symop_operation_xyz
x,y,z
1/2-x,1/2-y,z
x,1/2-y,-z
1/2-x,y,-z
-x,-y,-z
1/2+x,1/2+y,-z
-x,1/2+y,z
1/2+x,-y,z
loop_
_atom_site_type_symbol
_atom_site_label
_atom_site_fract_x
_atom_site_fract_y
_atom_site_fract_z
Si Si1 0.250000 0.384977 0.500000
Si Si2 0.757415 0.357117 0.160966
Si Si3 0.055768 0.894380 0.356084
Si Si4 0.125711 0.972537 0.642511
Si Si5 0.076512 0.250000 0.500000
O O1 0.288817 0.447605 0.628088
O O2 0.154128 0.326579 0.564955
O O3 0.750000 0.250000 0.180455
O O4 0.866776 0.386913 0.226309
O O5 0.659577 0.403842 0.236138
O O6 0.750000 0.387400 0.000000
O O7 0.118292 0.915132 0.498555
O O8 0.992942 0.798920 0.380119
O O9 0.983051 0.980451 0.319129
#
# Coordination Sequence:
#
# PCOD8204917 Si02
#       5
#     4   8   8   8   4
#     4   9  16  32  51  82 112 134 167 228 272 315
#     4  11  23  37  52  75 111 147 179 217 263 315
#     4  10  19  33  57  84 104 138 178 222 270 311
#     4  10  19  34  57  81 107 134 180 226 265 315
#     4   9  18  28  53  86 108 134 171 222 275 318
#
# _framework density 17.793464
#
# number of rings (size 3 to 8) (size 9 to 14) (size 15 to 20)
#    0.000    2.000    2.500    1.500    0.000    2.000 
#    0.000    0.000    0.000    0.000    0.000    0.000 
#    0.000    0.000    0.000    0.000    0.000    0.000 
#
# Total GULP energy -396674.433891 kJ/mol
# GULP energy per Si atom -12396.076059 kJ/mol
# Density = 1.775297 g / cm^3
# Si number density = 17.793464 Si / 1000 Ang^3
#
#
#
# Elastic Constant Matrix: (Units=GPa)
#
#
# Indices 1 2 3 4 5 6 
#
# 1 107.4490 45.5716 72.4813 0.0000 0.0000 0.0000
# 2 45.5716 86.2637 62.9374 0.0000 0.0000 0.0000
# 3 72.4813 62.9374 128.3608 0.0000 0.0000 0.0000
# 4 0.0000 0.0000 0.0000 23.8934 0.0000 0.0000
# 5 0.0000 0.0000 0.0000 0.0000 10.8063 0.0000
# 6 0.0000 0.0000 0.0000 0.0000 0.0000 34.8430
#
#
#
# Elastic Compliance Matrix: (Units=1/GPa)
#
#
# Indices 1 2 3 4 5 6 
#
# 1 0.015455 -0.002799 -0.007355 0.000000 0.000000 0.000000
# 2 -0.002799 0.018556 -0.007518 0.000000 0.000000 0.000000
# 3 -0.007355 -0.007518 0.015630 0.000000 0.000000 0.000000
# 4 0.000000 0.000000 0.000000 0.041853 0.000000 0.000000
# 5 0.000000 0.000000 0.000000 0.000000 0.092539 0.000000
# 6 0.000000 0.000000 0.000000 0.000000 0.000000 0.028700
#
#
# Mechanical properties :
#
#
# Convention : Reuss Voigt Hill
#
# Bulk Modulus (GPa) = 69.94022 76.00601 72.97312
# Shear Modulus (GPa) = 19.77533 23.31409 21.54471
#
# Velocity S-wave (km/s) = 3.33736 3.62368 3.48346
# Velocity P-wave (km/s) = 7.36496 7.76637 7.56833
#
# Compressibility (1/GPa) = 0.01429792
#
# Stress axis : x y z
#
# Youngs Moduli (GPa) = 64.70431 53.89129 63.98086
#
# Poissons Ratio (x) = 0.15082 0.47056
# Poissons Ratio (y) = 0.18108 0.48100
# Poissons Ratio (z) = 0.47588 0.40515
#
# Static dielectric constant tensor:
#      x y z
#    x 3.543020 0.000000 0.000000 
#    y 0.000000 3.634840 0.000000 
#    z 0.000000 0.000000 2.932470 
# 
# 
# High freq. dielectric constant tensor:
#      x y z
#    x 1.709630 0.000000 0.000000 
#    y 0.000000 1.709510 0.000000 
#    z 0.000000 0.000000 1.632580 
# 
# From -- ./inp_files/10746.got.cif
#   From: 2010.03.12/outbox.cif.g09.slc.cpg/sg50_6_cif.got.tgz:10746.got - 2010.04.16 13:23:21.
