data_PCOD8204157
_publ_section_title
;
Structure prediction by ZEFSAII (Michael W. Deem and Ramdas Pophale) SiO2 
 PCOD8204157
Probable space group: P C C M
;
_chemical_formula_sum "Si O2"
_cell_formula_units_Z 40
_cell_length_a 9.596865
_cell_length_b 25.335723
_cell_length_c 8.626752
_cell_angle_alpha 90.000000
_cell_angle_beta 90.000000
_cell_angle_gamma 90.000000
_cell_volume 2097.538790
_symmetry_space_group_name_H-M "P C C M"
_symmetry_group_IT_number 49
_symmetry_cell_setting 'orthorhombic'
loop_
_space_group_symop_operation_xyz
x,y,z
-x,-y,z
x,-y,1/2-z
-x,y,1/2-z
-x,-y,-z
x,y,-z
-x,y,1/2+z
x,-y,1/2+z
loop_
_atom_site_type_symbol
_atom_site_label
_atom_site_fract_x
_atom_site_fract_y
_atom_site_fract_z
Si Si1 0.151130 0.445628 0.317410
Si Si2 0.647371 0.648093 0.683407
Si Si3 0.352120 0.943962 0.182039
Si Si4 0.846445 0.848761 0.682915
Si Si5 0.650425 0.239273 0.316530
O O1 0.214344 0.500000 0.250000
O O2 0.141539 0.451211 0.500000
O O3 0.245548 0.396865 0.266067
O O4 0.000000 0.434526 0.250000
O O5 0.500000 0.629915 0.750000
O O6 0.637895 0.655716 0.500000
O O7 0.694997 0.702896 0.759323
O O8 0.500000 0.925292 0.250000
O O9 0.235252 0.901863 0.228199
O O10 0.304681 0.000000 0.250000
O O11 0.369830 0.949566 0.000000
O O12 0.851953 0.839985 0.500000
O O13 0.769603 0.799706 0.759999
O O14 0.000000 0.853676 0.750000
O O15 0.500000 0.222426 0.250000
O O16 0.640239 0.238395 0.500000
#
# Coordination Sequence:
#
# PCOD8204157 Si02
#       5
#     8   8   8   8   8
#     4  10  21  36  56  80 109 145 184 225 272 328
#     4  10  21  37  57  83 112 144 184 230 278 330
#     4  10  21  37  60  86 113 147 188 231 277 330
#     4  11  24  40  58  84 116 151 189 232 282 335
#     4  11  22  38  61  85 112 148 187 232 280 333
#
# _framework density 19.069969
#
# number of rings (size 3 to 8) (size 9 to 14) (size 15 to 20)
#    0.000    1.600    0.000    7.200    0.000    9.600 
#    0.000    6.000    0.000    0.000    0.000    0.000 
#    0.000    0.000    0.000    0.000    0.000    0.000 
#
# Total GULP energy -496155.579287 kJ/mol
# GULP energy per Si atom -12403.889482 kJ/mol
# Density = 1.902657 g / cm^3
# Si number density = 19.069969 Si / 1000 Ang^3
#
#
#
# Elastic Constant Matrix: (Units=GPa)
#
#
# Indices 1 2 3 4 5 6 
#
# 1 142.5100 111.9574 66.5322 0.0000 0.0000 0.0000
# 2 111.9574 154.1390 76.3138 0.0000 0.0000 0.0000
# 3 66.5322 76.3138 123.7412 0.0000 0.0000 0.0000
# 4 0.0000 0.0000 0.0000 107.6656 0.0000 0.0000
# 5 0.0000 0.0000 0.0000 0.0000 23.9061 0.0000
# 6 0.0000 0.0000 0.0000 0.0000 0.0000 1.5069
#
#
#
# Elastic Compliance Matrix: (Units=1/GPa)
#
#
# Indices 1 2 3 4 5 6 
#
# 1 0.016735 -0.011085 -0.002161 0.000000 0.000000 0.000000
# 2 -0.011085 0.016682 -0.004328 0.000000 0.000000 0.000000
# 3 -0.002161 -0.004328 0.011913 0.000000 0.000000 0.000000
# 4 0.000000 0.000000 0.000000 0.009288 0.000000 0.000000
# 5 0.000000 0.000000 0.000000 0.000000 0.041830 0.000000
# 6 0.000000 0.000000 0.000000 0.000000 0.000000 0.663624
#
#
# Mechanical properties :
#
#
# Convention : Reuss Voigt Hill
#
# Bulk Modulus (GPa) = 98.22739 103.33300 100.78019
# Shear Modulus (GPa) = 6.26085 37.65483 21.95784
#
# Velocity S-wave (km/s) = 1.81390 4.44842 3.39696
# Velocity P-wave (km/s) = 7.48383 8.98268 8.26729
#
# Compressibility (1/GPa) = 0.01018046
#
# Stress axis : x y z
#
# Youngs Moduli (GPa) = 59.75679 59.94552 83.94406
#
# Poissons Ratio (x) = 0.66449 0.18144
# Poissons Ratio (y) = 0.66239 0.36331
# Poissons Ratio (z) = 0.12916 0.25945
#
# Static dielectric constant tensor:
#      x y z
#    x 3.498510 0.000000 0.000000 
#    y 0.000000 3.753680 0.000000 
#    z 0.000000 0.000000 3.500780 
# 
# 
# High freq. dielectric constant tensor:
#      x y z
#    x 1.739170 0.000000 0.000000 
#    y 0.000000 1.755420 0.000000 
#    z 0.000000 0.000000 1.762320 
# 
# From -- ./inp_files/1915.got.cif
#   From: 2010.03.12/outbox.cif.g09.slc.cpg/sg49_1_cif.got.tgz:1915.got - 2010.04.14 03:58:27.
