data_PCOD8204323
_publ_section_title
;
Structure prediction by ZEFSAII (Michael W. Deem and Ramdas Pophale) SiO2 
 PCOD8204323
Probable space group: P C C M
;
_chemical_formula_sum "Si O2"
_cell_formula_units_Z 56
_cell_length_a 15.562113
_cell_length_b 19.701144
_cell_length_c 8.969029
_cell_angle_alpha 90.000000
_cell_angle_beta 90.000000
_cell_angle_gamma 90.000000
_cell_volume 2749.827419
_symmetry_space_group_name_H-M "P C C M"
_symmetry_group_IT_number 49
_symmetry_cell_setting 'orthorhombic'
loop_
_space_group_symop_operation_xyz
x,y,z
-x,-y,z
x,-y,1/2-z
-x,y,1/2-z
-x,-y,-z
x,y,-z
-x,y,1/2+z
x,-y,1/2+z
loop_
_atom_site_type_symbol
_atom_site_label
_atom_site_fract_x
_atom_site_fract_y
_atom_site_fract_z
Si Si1 0.837882 0.709829 0.175926
Si Si2 0.913509 0.851411 0.826374
Si Si3 0.857071 0.563800 0.836555
Si Si4 0.656367 0.295332 0.177771
Si Si5 0.414842 0.165771 0.177130
Si Si6 0.347694 0.566231 0.668294
Si Si7 0.255309 0.927955 0.675798
O O1 0.901854 0.771583 0.209166
O O2 0.882845 0.638625 0.226486
O O3 0.752449 0.721782 0.270046
O O4 0.812455 0.706604 0.000000
O O5 0.832305 0.893441 0.764310
O O6 0.000000 0.878232 0.750000
O O7 0.923390 0.864237 0.000000
O O8 0.897594 0.500000 0.750000
O O9 0.754666 0.560670 0.835602
O O10 0.895479 0.555993 0.000000
O O11 0.594339 0.239273 0.247817
O O12 0.624259 0.367921 0.238463
O O13 0.651264 0.294718 0.000000
O O14 0.500000 0.132297 0.250000
O O15 0.334490 0.119297 0.222259
O O16 0.423884 0.172869 0.000000
O O17 0.386430 0.500000 0.750000
O O18 0.383987 0.570707 0.500000
O O19 0.251408 0.937331 0.500000
O O20 0.268469 0.000000 0.750000
#
# Coordination Sequence:
#
# PCOD8204323 Si02
#       7
#     8   8   8   8   8   8   8
#     4   9  17  33  53  74 110 155 197 243 303 354
#     4  10  21  39  61  88 120 158 199 245 298 354
#     4   8  14  23  40  66  99 141 185 237 290 345
#     4  11  20  31  53  84 115 154 202 249 299 358
#     4  11  23  42  64  90 123 160 199 244 296 352
#     4   9  16  27  44  71 109 152 198 251 304 356
#     4  10  23  43  67  91 124 159 193 238 295 355
#
# _framework density 20.364913999999999
#
# number of rings (size 3 to 8) (size 9 to 14) (size 15 to 20)
#    0.000    2.286    1.429    3.000    0.000    6.286 
#    0.000    2.857    0.000    0.857    0.000    6.000 
#    0.000    0.000    0.000    0.000    0.000    0.000 
#
# Total GULP energy -694271.239018 kJ/mol
# GULP energy per Si atom -12397.700697 kJ/mol
# Density = 2.031856 g / cm^3
# Si number density = 20.364914 Si / 1000 Ang^3
#
#
#
# Elastic Constant Matrix: (Units=GPa)
#
#
# Indices 1 2 3 4 5 6 
#
# 1 104.1103 52.3157 44.5183 0.0000 0.0000 0.0000
# 2 52.3157 137.9777 52.3866 0.0000 0.0000 0.0000
# 3 44.5183 52.3866 97.2411 0.0000 0.0000 0.0000
# 4 0.0000 0.0000 0.0000 37.0355 0.0000 0.0000
# 5 0.0000 0.0000 0.0000 0.0000 20.0495 0.0000
# 6 0.0000 0.0000 0.0000 0.0000 0.0000 4.6299
#
#
#
# Elastic Compliance Matrix: (Units=1/GPa)
#
#
# Indices 1 2 3 4 5 6 
#
# 1 0.013086 -0.003378 -0.004171 0.000000 0.000000 0.000000
# 2 -0.003378 0.009983 -0.003832 0.000000 0.000000 0.000000
# 3 -0.004171 -0.003832 0.014258 0.000000 0.000000 0.000000
# 4 0.000000 0.000000 0.000000 0.027001 0.000000 0.000000
# 5 0.000000 0.000000 0.000000 0.000000 0.049877 0.000000
# 6 0.000000 0.000000 0.000000 0.000000 0.000000 0.215988
#
#
# Mechanical properties :
#
#
# Convention : Reuss Voigt Hill
#
# Bulk Modulus (GPa) = 68.65731 70.86337 69.76034
# Shear Modulus (GPa) = 13.97391 25.01688 19.49539
#
# Velocity S-wave (km/s) = 2.62234 3.50870 3.09739
# Velocity P-wave (km/s) = 6.55405 7.16149 6.86449
#
# Compressibility (1/GPa) = 0.01456509
#
# Stress axis : x y z
#
# Youngs Moduli (GPa) = 76.41548 100.16835 70.13811
#
# Poissons Ratio (x) = 0.33838 0.29256
# Poissons Ratio (y) = 0.25814 0.26875
# Poissons Ratio (z) = 0.31874 0.38381
#
# Static dielectric constant tensor:
#      x y z
#    x 3.425130 0.000000 0.000000 
#    y 0.000000 3.908860 0.000000 
#    z 0.000000 0.000000 3.644760 
# 
# 
# High freq. dielectric constant tensor:
#      x y z
#    x 1.769290 0.000000 0.000000 
#    y 0.000000 1.805040 0.000000 
#    z 0.000000 0.000000 1.789910 
# 
# From -- ./inp_files/4066.got.cif
#   From: 2010.03.12/outbox.cif.g09.slc.cpg/sg49_3_cif.got.tgz:4066.got - 2010.04.14 03:58:27.
