data_PCOD8204810
_publ_section_title
;
Structure prediction by ZEFSAII (Michael W. Deem and Ramdas Pophale) SiO2 
 PCOD8204810
Probable space group: P B A N
;
_chemical_formula_sum "Si O2"
_cell_formula_units_Z 64
_cell_length_a 26.895922
_cell_length_b 12.694414
_cell_length_c 9.884443
_cell_angle_alpha 90.000000
_cell_angle_beta 90.000000
_cell_angle_gamma 90.000000
_cell_volume 3374.825296
_symmetry_space_group_name_H-M "P B A N"
_symmetry_group_IT_number 50
_space_group.IT_coordinate_system_code '2'
_symmetry_cell_setting 'orthorhombic'
loop_
_space_group_symop_operation_xyz
x,y,z
1/2-x,1/2-y,z
x,1/2-y,-z
1/2-x,y,-z
-x,-y,-z
1/2+x,1/2+y,-z
-x,1/2+y,z
1/2+x,-y,z
loop_
_atom_site_type_symbol
_atom_site_label
_atom_site_fract_x
_atom_site_fract_y
_atom_site_fract_z
Si Si1 0.817693 0.677546 0.705587
Si Si2 0.560518 0.966970 0.148538
Si Si3 0.139013 0.931633 0.328664
Si Si4 0.803977 0.269269 0.657941
Si Si5 0.089267 0.259022 0.153697
Si Si6 0.633714 0.466948 0.367944
Si Si7 0.280364 0.392226 0.363224
Si Si8 0.551571 0.973454 0.831511
O O1 0.852610 0.708346 0.832233
O O2 0.845048 0.585784 0.619232
O O3 0.763156 0.632671 0.748928
O O4 0.811913 0.784588 0.616751
O O5 0.576296 0.854729 0.214818
O O6 0.595062 0.050361 0.223091
O O7 0.503568 0.984679 0.187325
O O8 0.569494 0.979637 0.987878
O O9 0.157641 0.816551 0.284937
O O10 0.117057 0.933623 0.481222
O O11 0.185261 0.012553 0.314820
O O12 0.750000 0.250000 0.726524
O O13 0.798443 0.250000 0.500000
O O14 0.823751 0.387242 0.687013
O O15 0.054892 0.351249 0.217202
O O16 0.074306 0.250000 0.000000
O O17 0.587674 0.458050 0.264086
O O18 0.250000 0.420117 0.500000
#
# Coordination Sequence:
#
# PCOD8204810 Si02
#       8
#     8   8   8   8   8   8   8   8
#     4  10  18  30  51  77 111 143 174 214 268 321
#     4  10  20  38  58  82 104 140 189 225 275 331
#     4  11  21  33  58  83 110 142 187 232 263 319
#     4   9  19  34  53  80 113 150 182 218 272 327
#     4   9  18  35  55  77 111 141 177 224 275 328
#     4  10  20  35  54  80 111 144 180 224 275 318
#     4  11  20  29  49  81 113 140 177 218 266 325
#     4   9  21  38  59  76 108 148 177 225 283 335
#
# _framework density 18.963946
#
# number of rings (size 3 to 8) (size 9 to 14) (size 15 to 20)
#    0.000    2.125    2.500    1.500    1.750    1.500 
#    0.000    3.125    0.000    3.000    0.000    0.000 
#    0.000    0.000    0.000    0.000    0.000    0.000 
#
# Total GULP energy -792963.732101 kJ/mol
# GULP energy per Si atom -12390.058314 kJ/mol
# Density = 1.892078 g / cm^3
# Si number density = 18.963946 Si / 1000 Ang^3
#
#
#
# Elastic Constant Matrix: (Units=GPa)
#
#
# Indices 1 2 3 4 5 6 
#
# 1 119.6342 47.3614 43.0670 0.0000 0.0000 0.0000
# 2 47.3614 99.8229 23.7123 0.0000 0.0000 0.0000
# 3 43.0670 23.7123 43.1947 0.0000 0.0000 0.0000
# 4 0.0000 0.0000 0.0000 18.6641 0.0000 0.0000
# 5 0.0000 0.0000 0.0000 0.0000 31.6646 0.0000
# 6 0.0000 0.0000 0.0000 0.0000 0.0000 24.2811
#
#
#
# Elastic Compliance Matrix: (Units=1/GPa)
#
#
# Indices 1 2 3 4 5 6 
#
# 1 0.014242 -0.003892 -0.012064 0.000000 0.000000 0.000000
# 2 -0.003892 0.012583 -0.003028 0.000000 0.000000 0.000000
# 3 -0.012064 -0.003028 0.036841 0.000000 0.000000 0.000000
# 4 0.000000 0.000000 0.000000 0.053579 0.000000 0.000000
# 5 0.000000 0.000000 0.000000 0.000000 0.031581 0.000000
# 6 0.000000 0.000000 0.000000 0.000000 0.000000 0.041184
#
#
# Mechanical properties :
#
#
# Convention : Reuss Voigt Hill
#
# Bulk Modulus (GPa) = 38.90955 54.54814 46.72884
# Shear Modulus (GPa) = 21.13769 24.82269 22.98019
#
# Velocity S-wave (km/s) = 3.34222 3.62185 3.48484
# Velocity P-wave (km/s) = 5.95450 6.80566 6.39426
#
# Compressibility (1/GPa) = 0.02570063
#
# Stress axis : x y z
#
# Youngs Moduli (GPa) = 70.21329 79.47007 27.14345
#
# Poissons Ratio (x) = 0.30927 0.32745
# Poissons Ratio (y) = 0.27324 0.08218
# Poissons Ratio (z) = 0.84704 0.24061
#
# Static dielectric constant tensor:
#      x y z
#    x 3.612900 0.000000 0.000000 
#    y 0.000000 3.815520 0.000000 
#    z 0.000000 0.000000 3.135880 
# 
# 
# High freq. dielectric constant tensor:
#      x y z
#    x 1.736650 0.000000 0.000000 
#    y 0.000000 1.751270 0.000000 
#    z 0.000000 0.000000 1.691460 
# 
# From -- ./inp_files/23195.got.cif
#   From: 2010.03.12/outbox.cif.g09.slc.cpg/sg50_12_cif.got.tgz:23195.got - 2010.04.16 13:23:21.
