data_PCOD8204691
_publ_section_title
;
Structure prediction by ZEFSAII (Michael W. Deem and Ramdas Pophale) SiO2 
 PCOD8204691
Probable space group: P C C M
;
_chemical_formula_sum "Si O2"
_cell_formula_units_Z 64
_cell_length_a 14.618566
_cell_length_b 11.449028
_cell_length_c 17.059746
_cell_angle_alpha 90.000000
_cell_angle_beta 90.000000
_cell_angle_gamma 90.000000
_cell_volume 2855.261905
_symmetry_space_group_name_H-M "P C C M"
_symmetry_group_IT_number 49
_symmetry_cell_setting 'orthorhombic'
loop_
_space_group_symop_operation_xyz
x,y,z
-x,-y,z
x,-y,1/2-z
-x,y,1/2-z
-x,-y,-z
x,y,-z
-x,y,1/2+z
x,-y,1/2+z
loop_
_atom_site_type_symbol
_atom_site_label
_atom_site_fract_x
_atom_site_fract_y
_atom_site_fract_z
Si Si1 0.918091 0.070377 0.909375
Si Si2 0.845014 0.410131 0.408959
Si Si3 0.977186 0.698256 0.665531
Si Si4 0.650180 0.791949 0.409122
Si Si5 0.489771 0.633642 0.342288
Si Si6 0.296116 0.725020 0.336345
Si Si7 0.219293 0.370765 0.328863
Si Si8 0.731188 0.991509 0.162593
O O1 0.937789 0.204930 0.892226
O O2 0.820164 0.018633 0.887863
O O3 0.925122 0.050819 0.000000
O O4 0.000000 0.000000 0.866665
O O5 0.857250 0.446330 0.500000
O O6 0.786899 0.291898 0.398138
O O7 0.773019 0.497263 0.362536
O O8 0.944933 0.383928 0.372329
O O9 0.889433 0.619358 0.682304
O O10 0.000000 0.754293 0.750000
O O11 0.643800 0.823495 0.500000
O O12 0.564508 0.713723 0.384225
O O13 0.744144 0.720171 0.393743
O O14 0.652946 0.913878 0.360643
O O15 0.500000 0.500000 0.368933
O O16 0.500000 0.649124 0.250000
O O17 0.389467 0.671547 0.368706
O O18 0.271141 0.666212 0.251302
O O19 0.311887 0.863276 0.340639
O O20 0.767330 0.000000 0.250000
#
# Coordination Sequence:
#
# PCOD8204691 Si02
#       8
#     8   8   8   8   8   8   8   8
#     4  11  25  41  65  99 143 191 246 310 369 431
#     4  12  28  44  69 107 150 191 240 309 379 440
#     4  12  25  42  69 105 143 193 248 298 358 444
#     4  12  26  46  75 112 148 188 245 310 380 444
#     4  11  24  45  77 111 144 193 244 304 371 455
#     4  12  25  46  75 103 146 188 250 303 369 449
#     4  12  24  46  72 103 141 194 244 299 363 445
#     4  12  24  44  70 103 141 196 249 303 364 446
#
# _framework density 22.414757000000002
#
# number of rings (size 3 to 8) (size 9 to 14) (size 15 to 20)
#    0.000    0.250    5.000    3.375    3.500    5.750 
#    0.000    1.875    0.000    0.000    0.000    0.000 
#    0.000    0.000    0.000    0.000    0.000    0.000 
#
# Total GULP energy -792890.230775 kJ/mol
# GULP energy per Si atom -12388.909856 kJ/mol
# Density = 2.236374 g / cm^3
# Si number density = 22.414757 Si / 1000 Ang^3
#
#
#
# Elastic Constant Matrix: (Units=GPa)
#
#
# Indices 1 2 3 4 5 6 
#
# 1 139.4426 52.7338 38.2074 0.0000 0.0000 0.0000
# 2 52.7338 121.8800 48.9524 0.0000 0.0000 0.0000
# 3 38.2074 48.9524 105.4410 0.0000 0.0000 0.0000
# 4 0.0000 0.0000 0.0000 -48.0349 0.0000 0.0000
# 5 0.0000 0.0000 0.0000 0.0000 24.8222 0.0000
# 6 0.0000 0.0000 0.0000 0.0000 0.0000 32.9995
#
#
#
# Elastic Compliance Matrix: (Units=1/GPa)
#
#
# Indices 1 2 3 4 5 6 
#
# 1 0.008830 -0.003117 -0.001753 0.000000 0.000000 0.000000
# 2 -0.003117 0.011185 -0.004064 0.000000 0.000000 0.000000
# 3 -0.001753 -0.004064 0.012006 0.000000 0.000000 0.000000
# 4 0.000000 0.000000 0.000000 -0.020818 0.000000 0.000000
# 5 0.000000 0.000000 0.000000 0.000000 0.040286 0.000000
# 6 0.000000 0.000000 0.000000 0.000000 0.000000 0.030303
#
#
# Mechanical properties :
#
#
# Convention : Reuss Voigt Hill
#
# Bulk Modulus (GPa) = 70.64485 71.83898 71.24192
# Shear Modulus (GPa) = 47.90294 17.08203 32.49249
#
# Velocity S-wave (km/s) = 4.62791 2.76359 3.81149
# Velocity P-wave (km/s) = 7.75515 6.50405 7.15699
#
# Compressibility (1/GPa) = 0.01415531
#
# Stress axis : x y z
#
# Youngs Moduli (GPa) = 113.24638 89.40233 83.29357
#
# Poissons Ratio (x) = 0.27863 0.14600
# Poissons Ratio (y) = 0.35294 0.33848
# Poissons Ratio (z) = 0.19850 0.36330
#
# Static dielectric constant tensor:
#      x y z
#    x 4.205720 0.000000 0.000000 
#    y 0.000000 4.242030 0.000000 
#    z 0.000000 0.000000 3.982160 
# 
# 
# High freq. dielectric constant tensor:
#      x y z
#    x 1.890110 0.000000 0.000000 
#    y 0.000000 1.895370 0.000000 
#    z 0.000000 0.000000 1.875510 
# 
# From -- ./inp_files/17950.got.cif
#   From: 2010.03.12/outbox.cif.g09.slc.cpg/sg49_9_cif.got.tgz:17950.got - 2010.04.14 03:58:27.
