data_PCOD8204842
_publ_section_title
;
Structure prediction by ZEFSAII (Michael W. Deem and Ramdas Pophale) SiO2 
 PCOD8204842
Probable space group: P B A N
;
_chemical_formula_sum "Si O2"
_cell_formula_units_Z 40
_cell_length_a 10.605136
_cell_length_b 20.119537
_cell_length_c 8.275770
_cell_angle_alpha 90.000000
_cell_angle_beta 90.000000
_cell_angle_gamma 90.000000
_cell_volume 1765.804572
_symmetry_space_group_name_H-M "P B A N"
_symmetry_group_IT_number 50
_space_group.IT_coordinate_system_code '2'
_symmetry_cell_setting 'orthorhombic'
loop_
_space_group_symop_operation_xyz
x,y,z
1/2-x,1/2-y,z
x,1/2-y,-z
1/2-x,y,-z
-x,-y,-z
1/2+x,1/2+y,-z
-x,1/2+y,z
1/2+x,-y,z
loop_
_atom_site_type_symbol
_atom_site_label
_atom_site_fract_x
_atom_site_fract_y
_atom_site_fract_z
Si Si1 0.250000 0.415298 0.000000
Si Si2 0.444101 0.369368 0.246575
Si Si3 0.502025 0.379348 0.591355
Si Si4 0.894212 0.498643 0.766823
Si Si5 0.750000 0.061756 0.500000
Si Si6 0.604086 0.247221 0.306955
O O1 0.354973 0.464472 0.929270
O O2 0.184552 0.369459 0.860949
O O3 0.406811 0.366515 0.439009
O O4 0.523901 0.434010 0.195312
O O5 0.529135 0.304350 0.210352
O O6 0.478434 0.450202 0.667674
O O7 0.635537 0.387018 0.502165
O O8 0.524072 0.321510 0.726334
O O9 0.768354 0.483005 0.660791
O O10 0.750000 0.250000 0.247319
O O11 0.594732 0.250000 0.500000
#
# Coordination Sequence:
#
# PCOD8204842 Si02
#       6
#     4   8   8   8   4   8
#     4  12  24  38  55  80 127 170 200 240 284 358
#     4  10  21  36  58  87 117 156 199 242 300 356
#     4  10  19  35  61  89 113 144 195 250 302 352
#     4  11  21  36  57  84 117 156 200 243 294 352
#     4  10  18  34  63  92 115 144 194 260 304 348
#     4   9  17  34  61  90 114 138 184 251 309 354
#
# _framework density 22.652564000000002
#
# number of rings (size 3 to 8) (size 9 to 14) (size 15 to 20)
#    0.000    1.800    0.000    9.000    0.000    0.000 
#    0.000    3.000    0.000    4.800    0.000    0.000 
#    0.000    0.000    0.000    0.000    0.000    0.000 
#
# Total GULP energy -495561.478145 kJ/mol
# GULP energy per Si atom -12389.036954 kJ/mol
# Density = 2.260101 g / cm^3
# Si number density = 22.652564 Si / 1000 Ang^3
#
#
#
# Elastic Constant Matrix: (Units=GPa)
#
#
# Indices 1 2 3 4 5 6 
#
# 1 78.9195 51.9959 36.4629 0.0000 0.0000 0.0000
# 2 51.9959 150.4023 34.9579 0.0000 0.0000 0.0000
# 3 36.4629 34.9579 69.7047 0.0000 0.0000 0.0000
# 4 0.0000 0.0000 0.0000 10.4978 0.0000 0.0000
# 5 0.0000 0.0000 0.0000 0.0000 21.1923 0.0000
# 6 0.0000 0.0000 0.0000 0.0000 0.0000 27.1033
#
#
#
# Elastic Compliance Matrix: (Units=1/GPa)
#
#
# Indices 1 2 3 4 5 6 
#
# 1 0.019496 -0.004946 -0.007718 0.000000 0.000000 0.000000
# 2 -0.004946 0.008781 -0.001816 0.000000 0.000000 0.000000
# 3 -0.007718 -0.001816 0.019294 0.000000 0.000000 0.000000
# 4 0.000000 0.000000 0.000000 0.095258 0.000000 0.000000
# 5 0.000000 0.000000 0.000000 0.000000 0.047187 0.000000
# 6 0.000000 0.000000 0.000000 0.000000 0.000000 0.036896
#
#
# Mechanical properties :
#
#
# Convention : Reuss Voigt Hill
#
# Bulk Modulus (GPa) = 53.73323 60.65111 57.19217
# Shear Modulus (GPa) = 19.07846 23.46601 21.27223
#
# Velocity S-wave (km/s) = 2.90525 3.22205 3.06774
# Velocity P-wave (km/s) = 5.91828 6.37768 6.15227
#
# Compressibility (1/GPa) = 0.01861046
#
# Stress axis : x y z
#
# Youngs Moduli (GPa) = 51.29355 113.88302 51.82848
#
# Poissons Ratio (x) = 0.56327 0.40000
# Poissons Ratio (y) = 0.25370 0.09414
# Poissons Ratio (z) = 0.39587 0.20686
#
# Static dielectric constant tensor:
#      x y z
#    x 4.872180 0.000000 0.000000 
#    y 0.000000 4.588640 0.000000 
#    z 0.000000 0.000000 3.914550 
# 
# 
# High freq. dielectric constant tensor:
#      x y z
#    x 1.881060 0.000000 0.000000 
#    y 0.000000 1.905560 0.000000 
#    z 0.000000 0.000000 1.860620 
# 
# From -- ./inp_files/11367.got.cif
#   From: 2010.03.12/outbox.cif.g09.slc.cpg/sg50_6_cif.got.tgz:11367.got - 2010.04.16 13:23:21.
