data_PCOD8204715
_publ_section_title
;
Structure prediction by ZEFSAII (Michael W. Deem and Ramdas Pophale) SiO2 
 PCOD8204715
Probable space group: P B A N
;
_chemical_formula_sum "Si O2"
_cell_formula_units_Z 64
_cell_length_a 5.190623
_cell_length_b 26.428968
_cell_length_c 28.554020
_cell_angle_alpha 90.000000
_cell_angle_beta 90.000000
_cell_angle_gamma 90.000000
_cell_volume 3917.120677
_symmetry_space_group_name_H-M "P B A N"
_symmetry_group_IT_number 50
_space_group.IT_coordinate_system_code '2'
_symmetry_cell_setting 'orthorhombic'
loop_
_space_group_symop_operation_xyz
x,y,z
1/2-x,1/2-y,z
x,1/2-y,-z
1/2-x,y,-z
-x,-y,-z
1/2+x,1/2+y,-z
-x,1/2+y,z
1/2+x,-y,z
loop_
_atom_site_type_symbol
_atom_site_label
_atom_site_fract_x
_atom_site_fract_y
_atom_site_fract_z
Si Si1 0.270432 0.633405 0.720234
Si Si2 0.731775 0.467925 0.553553
Si Si3 0.730101 0.693304 0.279451
Si Si4 0.265795 0.866049 0.390862
Si Si5 0.510110 0.031070 0.876939
Si Si6 0.502864 0.057455 0.979693
Si Si7 0.374323 0.534024 0.776555
Si Si8 0.730403 0.806536 0.609393
O O1 0.512884 0.665713 0.737010
O O2 0.255425 0.627925 0.664686
O O3 0.309063 0.577646 0.740220
O O4 0.015927 0.661885 0.739750
O O5 0.750000 0.449385 0.500000
O O6 0.453982 0.491611 0.564455
O O7 0.768298 0.421177 0.587501
O O8 0.750000 0.750000 0.258613
O O9 0.711145 0.696342 0.335024
O O10 0.521581 0.837388 0.407416
O O11 0.023371 0.834218 0.410190
O O12 0.538699 0.063411 0.923940
O O13 0.598552 0.058991 0.828850
O O14 0.708950 0.983941 0.877914
O O15 0.250000 0.085249 0.000000
O O16 0.750000 0.086422 0.000000
O O17 0.500000 0.000000 0.000000
O O18 0.647246 0.506563 0.768817
O O19 0.750000 0.750000 0.588516
#
# Coordination Sequence:
#
# PCOD8204715 Si02
#       8
#     8   8   8   8   8   8   8   8
#     4  10  19  31  46  68  91 115 151 183 219 264
#     4  10  21  36  52  70  91 118 153 192 228 259
#     4   9  17  30  49  69  89 110 142 189 232 265
#     4  10  19  31  51  71  90 118 147 183 222 264
#     4  10  16  25  35  50  72 104 142 180 210 244
#     4  10  14  20  34  51  67  88 132 192 216 231
#     4  10  21  31  41  56  87 126 155 179 207 259
#     4   9  17  30  49  74  97 116 139 173 221 273
#
# _framework density 16.338531
#
# number of rings (size 3 to 8) (size 9 to 14) (size 15 to 20)
#    0.000    2.250    2.500    2.250    0.000    4.000 
#    0.000    0.000    0.000    2.250    0.000    0.000 
#    0.000    0.000    0.000    0.000    0.000    9.375 
#
# Total GULP energy -793028.242214 kJ/mol
# GULP energy per Si atom -12391.066285 kJ/mol
# Density = 1.630134 g / cm^3
# Si number density = 16.338531 Si / 1000 Ang^3
#
#
#
# Elastic Constant Matrix: (Units=GPa)
#
#
# Indices 1 2 3 4 5 6 
#
# 1 132.6103 33.9918 26.5632 0.0000 0.0000 0.0000
# 2 33.9918 77.5643 30.8683 0.0000 0.0000 0.0000
# 3 26.5632 30.8683 35.3486 0.0000 0.0000 0.0000
# 4 0.0000 0.0000 0.0000 -0.8511 0.0000 0.0000
# 5 0.0000 0.0000 0.0000 0.0000 13.7032 0.0000
# 6 0.0000 0.0000 0.0000 0.0000 0.0000 21.4189
#
#
#
# Elastic Compliance Matrix: (Units=1/GPa)
#
#
# Indices 1 2 3 4 5 6 
#
# 1 0.009062 -0.001933 -0.005122 0.000000 0.000000 0.000000
# 2 -0.001933 0.020172 -0.016163 0.000000 0.000000 0.000000
# 3 -0.005122 -0.016163 0.046253 0.000000 0.000000 0.000000
# 4 0.000000 0.000000 0.000000 -1.175006 0.000000 0.000000
# 5 0.000000 0.000000 0.000000 0.000000 0.072976 0.000000
# 6 0.000000 0.000000 0.000000 0.000000 0.000000 0.046688
#
#
# Mechanical properties :
#
#
# Convention : Reuss Voigt Hill
#
# Bulk Modulus (GPa) = 34.42141 47.59664 41.00902
# Shear Modulus (GPa) = -5.41280 17.12753 5.85736
#
# Velocity S-wave (km/s) = -1.82211 3.24124 1.89546
# Velocity P-wave (km/s) = 4.08492 6.57285 5.47215
#
# Compressibility (1/GPa) = 0.02905169
#
# Stress axis : x y z
#
# Youngs Moduli (GPa) = 110.34625 49.57383 21.62041
#
# Poissons Ratio (x) = 0.09583 0.11074
# Poissons Ratio (y) = 0.21331 0.34944
# Poissons Ratio (z) = 0.56519 0.80124
#
# Static dielectric constant tensor:
#      x y z
#    x 4.103280 0.000000 0.000000 
#    y 0.000000 2.797550 0.000000 
#    z 0.000000 0.000000 3.043740 
# 
# 
# High freq. dielectric constant tensor:
#      x y z
#    x 1.662480 0.000000 0.000000 
#    y 0.000000 1.585630 0.000000 
#    z 0.000000 0.000000 1.601790 
# 
# From -- ./inp_files/31923.got.cif
#   From: 2010.03.12/outbox.cif.g09.slc.cpg/sg50_16_cif.got.tgz:31923.got - 2010.04.16 13:23:21.
