data_PCOD8204478
_publ_section_title
;
Structure prediction by ZEFSAII (Michael W. Deem and Ramdas Pophale) SiO2 
 PCOD8204478
Probable space group: P C C M
;
_chemical_formula_sum "Si O2"
_cell_formula_units_Z 14
_cell_length_a 5.151760
_cell_length_b 9.968827
_cell_length_c 14.217264
_cell_angle_alpha 90.000000
_cell_angle_beta 90.000000
_cell_angle_gamma 90.000000
_cell_volume 730.156087
_symmetry_space_group_name_H-M "P C C M"
_symmetry_group_IT_number 49
_symmetry_cell_setting 'orthorhombic'
loop_
_space_group_symop_operation_xyz
x,y,z
-x,-y,z
x,-y,1/2-z
-x,y,1/2-z
-x,-y,-z
x,y,-z
-x,y,1/2+z
x,-y,1/2+z
loop_
_atom_site_type_symbol
_atom_site_label
_atom_site_fract_x
_atom_site_fract_y
_atom_site_fract_z
Si Si1 0.739563 0.756798 0.806723
Si Si2 0.249127 0.908230 0.500000
Si Si3 0.500000 0.500000 0.750000
O O1 0.500000 0.825949 0.750000
O O2 0.758031 0.812670 0.910548
O O3 0.683979 0.596024 0.813914
O O4 0.000000 0.788837 0.750000
O O5 0.500000 0.000000 0.500000
O O6 0.000000 0.000000 0.500000
#
# Coordination Sequence:
#
# PCOD8204478 Si02
#       3
#     8   4   2
#     4  10  22  42  65  93 126 163 207 267 306 368
#     4  12  26  41  63  97 127 170 213 245 319 379
#     4   8  22  42  68  88 128 156 226 236 346 332
#
# _framework density 19.173983
#
# number of rings (size 3 to 8) (size 9 to 14) (size 15 to 20)
#    1.714    0.000    0.000    4.286    0.000    8.000 
#    0.000    2.857    0.000    0.000    0.000    0.000 
#    0.000    0.000    0.000    0.000    0.000    0.000 
#
# Total GULP energy -173486.401613 kJ/mol
# GULP energy per Si atom -12391.885829 kJ/mol
# Density = 1.913034 g / cm^3
# Si number density = 19.173983 Si / 1000 Ang^3
#
#
#
# Elastic Constant Matrix: (Units=GPa)
#
#
# Indices 1 2 3 4 5 6 
#
# 1 185.2463 58.9832 88.0101 0.0000 0.0000 0.0000
# 2 58.9832 124.8314 97.2576 0.0000 0.0000 0.0000
# 3 88.0101 97.2576 206.2020 0.0000 0.0000 0.0000
# 4 0.0000 0.0000 0.0000 62.9833 0.0000 0.0000
# 5 0.0000 0.0000 0.0000 0.0000 31.6586 0.0000
# 6 0.0000 0.0000 0.0000 0.0000 0.0000 10.5601
#
#
#
# Elastic Compliance Matrix: (Units=1/GPa)
#
#
# Indices 1 2 3 4 5 6 
#
# 1 0.006953 -0.001539 -0.002242 0.000000 0.000000 0.000000
# 2 -0.001539 0.013005 -0.005477 0.000000 0.000000 0.000000
# 3 -0.002242 -0.005477 0.008390 0.000000 0.000000 0.000000
# 4 0.000000 0.000000 0.000000 0.015877 0.000000 0.000000
# 5 0.000000 0.000000 0.000000 0.000000 0.031587 0.000000
# 6 0.000000 0.000000 0.000000 0.000000 0.000000 0.094696
#
#
# Mechanical properties :
#
#
# Convention : Reuss Voigt Hill
#
# Bulk Modulus (GPa) = 101.70380 111.64239 106.67310
# Shear Modulus (GPa) = 26.00068 39.17566 32.58817
#
# Velocity S-wave (km/s) = 3.68644 4.52505 4.12710
# Velocity P-wave (km/s) = 8.44260 9.25493 8.85808
#
# Compressibility (1/GPa) = 0.00983247
#
# Stress axis : x y z
#
# Youngs Moduli (GPa) = 143.81597 76.89161 119.18904
#
# Poissons Ratio (x) = 0.11831 0.26723
# Poissons Ratio (y) = 0.22128 0.65284
# Poissons Ratio (z) = 0.32244 0.42117
#
# Static dielectric constant tensor:
#      x y z
#    x 3.817010 0.000000 0.000000 
#    y 0.000000 3.456200 0.000000 
#    z 0.000000 0.000000 3.344040 
# 
# 
# High freq. dielectric constant tensor:
#      x y z
#    x 1.767560 0.000000 0.000000 
#    y 0.000000 1.745930 0.000000 
#    z 0.000000 0.000000 1.734940 
# 
# From -- ./inp_files/7125.got.cif
#   From: 2010.03.12/outbox.cif.g09.slc.cpg/sg49_4_cif.got.tgz:7125.got - 2010.04.14 03:58:27.
