data_PCOD8204789
_publ_section_title
;
Structure prediction by ZEFSAII (Michael W. Deem and Ramdas Pophale) SiO2 
 PCOD8204789
Probable space group: P B A N
;
_chemical_formula_sum "Si O2"
_cell_formula_units_Z 56
_cell_length_a 8.962960
_cell_length_b 20.973524
_cell_length_c 14.822988
_cell_angle_alpha 90.000000
_cell_angle_beta 90.000000
_cell_angle_gamma 90.000000
_cell_volume 2786.497275
_symmetry_space_group_name_H-M "P B A N"
_symmetry_group_IT_number 50
_space_group.IT_coordinate_system_code '2'
_symmetry_cell_setting 'orthorhombic'
loop_
_space_group_symop_operation_xyz
x,y,z
1/2-x,1/2-y,z
x,1/2-y,-z
1/2-x,y,-z
-x,-y,-z
1/2+x,1/2+y,-z
-x,1/2+y,z
1/2+x,-y,z
loop_
_atom_site_type_symbol
_atom_site_label
_atom_site_fract_x
_atom_site_fract_y
_atom_site_fract_z
Si Si1 0.750000 0.250000 0.727530
Si Si2 0.876346 0.018246 0.068836
Si Si3 0.308653 0.318919 0.264255
Si Si4 0.250000 0.887226 0.500000
Si Si5 0.618206 0.561097 0.248314
Si Si6 0.708983 0.046618 0.323527
Si Si7 0.481337 0.790455 0.414773
Si Si8 0.113211 0.631939 0.196445
O O1 0.605754 0.252646 0.660632
O O2 0.766715 0.310195 0.795327
O O3 0.878605 0.091246 0.105004
O O4 0.857647 0.967955 0.149462
O O5 0.750000 0.009855 0.000000
O O6 0.000000 0.000000 0.000000
O O7 0.250000 0.250000 0.232831
O O8 0.167224 0.365436 0.253368
O O9 0.369274 0.317298 0.367736
O O10 0.444660 0.342269 0.201637
O O11 0.325157 0.932739 0.574361
O O12 0.374113 0.845641 0.450472
O O13 0.728732 0.525453 0.319002
O O14 0.443437 0.554217 0.268447
O O15 0.845191 0.087390 0.281276
O O16 0.533414 0.750000 0.500000
#
# Coordination Sequence:
#
# PCOD8204789 Si02
#       8
#     4   8   8   4   8   8   8   8
#     4  10  17  34  65  88 130 176 212 256 337 381
#     4  11  22  43  75 102 123 167 220 282 341 415
#     4  11  25  41  63  95 134 184 224 263 334 399
#     4  12  21  38  66  94 131 178 236 282 330 368
#     4  11  25  45  66  98 136 171 224 278 350 410
#     4  11  23  41  67  92 133 182 221 284 334 386
#     4  11  20  37  60  91 131 175 238 275 312 384
#     4  10  21  40  66  97 134 168 224 271 336 409
#
# _framework density 20.096916
#
# number of rings (size 3 to 8) (size 9 to 14) (size 15 to 20)
#    0.000    1.143    4.286    4.286    6.000    0.857 
#    0.000    0.357    0.000    3.000    0.000    0.000 
#    0.000    0.000    0.000    0.000    0.000    0.000 
#
# Total GULP energy -693883.866105 kJ/mol
# GULP energy per Si atom -12390.783323 kJ/mol
# Density = 2.005117 g / cm^3
# Si number density = 20.096916 Si / 1000 Ang^3
#
#
#
# Elastic Constant Matrix: (Units=GPa)
#
#
# Indices 1 2 3 4 5 6 
#
# 1 105.0017 41.3507 37.0593 0.0000 0.0000 0.0000
# 2 41.3507 117.7502 40.1787 0.0000 0.0000 0.0000
# 3 37.0593 40.1787 118.4392 0.0000 0.0000 0.0000
# 4 0.0000 0.0000 0.0000 -89.6355 0.0000 0.0000
# 5 0.0000 0.0000 0.0000 0.0000 31.1240 0.0000
# 6 0.0000 0.0000 0.0000 0.0000 0.0000 18.7564
#
#
#
# Elastic Compliance Matrix: (Units=1/GPa)
#
#
# Indices 1 2 3 4 5 6 
#
# 1 0.011703 -0.003235 -0.002564 0.000000 0.000000 0.000000
# 2 -0.003235 0.010498 -0.002549 0.000000 0.000000 0.000000
# 3 -0.002564 -0.002549 0.010110 0.000000 0.000000 0.000000
# 4 0.000000 0.000000 0.000000 -0.011156 0.000000 0.000000
# 5 0.000000 0.000000 0.000000 0.000000 0.032130 0.000000
# 6 0.000000 0.000000 0.000000 0.000000 0.000000 0.053315
#
#
# Mechanical properties :
#
#
# Convention : Reuss Voigt Hill
#
# Bulk Modulus (GPa) = 64.04251 64.26316 64.15284
# Shear Modulus (GPa) = 38.91018 6.88914 22.89966
#
# Velocity S-wave (km/s) = 4.40492 1.85348 3.37925
# Velocity P-wave (km/s) = 7.60310 6.05199 6.87145
#
# Compressibility (1/GPa) = 0.01561463
#
# Stress axis : x y z
#
# Youngs Moduli (GPa) = 85.45148 95.25321 98.90842
#
# Poissons Ratio (x) = 0.30811 0.25364
# Poissons Ratio (y) = 0.27640 0.25215
# Poissons Ratio (z) = 0.21913 0.24283
#
# Static dielectric constant tensor:
#      x y z
#    x 3.649870 0.000000 0.000000 
#    y 0.000000 3.889920 0.000000 
#    z 0.000000 0.000000 3.628570 
# 
# 
# High freq. dielectric constant tensor:
#      x y z
#    x 1.791670 0.000000 0.000000 
#    y 0.000000 1.788550 0.000000 
#    z 0.000000 0.000000 1.767140 
# 
# From -- ./inp_files/25286.got.cif
#   From: 2010.03.12/outbox.cif.g09.slc.cpg/sg50_13_cif.got.tgz:25286.got - 2010.04.16 13:23:21.
