data_PCOD8204452
_publ_section_title
;
Structure prediction by ZEFSAII (Michael W. Deem and Ramdas Pophale) SiO2 
 PCOD8204452
Probable space group: P C C M
;
_chemical_formula_sum "Si O2"
_cell_formula_units_Z 64
_cell_length_a 10.439208
_cell_length_b 15.684548
_cell_length_c 17.767540
_cell_angle_alpha 90.000000
_cell_angle_beta 90.000000
_cell_angle_gamma 90.000000
_cell_volume 2909.154995
_symmetry_space_group_name_H-M "P C C M"
_symmetry_group_IT_number 49
_symmetry_cell_setting 'orthorhombic'
loop_
_space_group_symop_operation_xyz
x,y,z
-x,-y,z
x,-y,1/2-z
-x,y,1/2-z
-x,-y,-z
x,y,-z
-x,y,1/2+z
x,-y,1/2+z
loop_
_atom_site_type_symbol
_atom_site_label
_atom_site_fract_x
_atom_site_fract_y
_atom_site_fract_z
Si Si1 0.134319 0.975764 0.635058
Si Si2 0.792066 0.556497 0.584901
Si Si3 0.126448 0.325673 0.710100
Si Si4 0.547135 0.199693 0.174782
Si Si5 0.190482 0.864050 0.770116
Si Si6 0.527631 0.358940 0.915877
Si Si7 0.308174 0.570817 0.309291
Si Si8 0.601161 0.071376 0.582999
O O1 0.155758 0.887327 0.683134
O O2 0.256888 0.970517 0.580714
O O3 0.130246 0.057616 0.687412
O O4 0.000000 0.000000 0.591558
O O5 0.847811 0.545020 0.500000
O O6 0.865970 0.633687 0.626413
O O7 0.639950 0.572438 0.580591
O O8 0.800884 0.470612 0.635431
O O9 0.123161 0.223749 0.705427
O O10 0.247432 0.352706 0.761049
O O11 0.000000 0.361091 0.750000
O O12 0.500000 0.248084 0.250000
O O13 0.661780 0.138396 0.202397
O O14 0.589638 0.270345 0.114042
O O15 0.425546 0.147029 0.142031
O O16 0.420157 0.390108 0.859008
O O17 0.470584 0.346009 0.000000
O O18 0.359290 0.500000 0.250000
O O19 0.573471 0.107845 0.500000
O O20 0.500000 0.000000 0.605007
#
# Coordination Sequence:
#
# PCOD8204452 Si02
#       8
#     8   8   8   8   8   8   8   8
#     4  11  23  40  66  96 126 167 216 268 324 387
#     4  10  22  40  63  92 126 165 212 265 327 400
#     4  11  23  42  64  91 125 167 221 274 323 380
#     4  12  22  37  66  95 124 164 216 267 322 385
#     4  11  21  40  65  93 124 162 214 270 313 376
#     4  11  23  40  62  94 133 168 204 264 337 396
#     4  10  23  38  62  94 126 169 216 265 324 395
#     4  11  24  41  61  91 131 169 208 262 327 395
#
# _framework density 21.999514999999999
#
# number of rings (size 3 to 8) (size 9 to 14) (size 15 to 20)
#    0.000    1.125    3.750    3.375    1.750    5.250 
#    0.000    2.500    0.000    2.250    0.000    0.000 
#    0.000    0.000    0.000    0.000    0.000    0.000 
#
# Total GULP energy -792871.977202 kJ/mol
# GULP energy per Si atom -12388.624644 kJ/mol
# Density = 2.194944 g / cm^3
# Si number density = 21.999515 Si / 1000 Ang^3
#
#
#
# Elastic Constant Matrix: (Units=GPa)
#
#
# Indices 1 2 3 4 5 6 
#
# 1 84.3367 4.2599 4.5460 0.0000 0.0000 0.0000
# 2 4.2599 75.7177 29.3592 0.0000 0.0000 0.0000
# 3 4.5460 29.3592 125.7203 0.0000 0.0000 0.0000
# 4 0.0000 0.0000 0.0000 22.7383 0.0000 0.0000
# 5 0.0000 0.0000 0.0000 0.0000 15.1597 0.0000
# 6 0.0000 0.0000 0.0000 0.0000 0.0000 17.5595
#
#
#
# Elastic Compliance Matrix: (Units=1/GPa)
#
#
# Indices 1 2 3 4 5 6 
#
# 1 0.011901 -0.000553 -0.000301 0.000000 0.000000 0.000000
# 2 -0.000553 0.014548 -0.003377 0.000000 0.000000 0.000000
# 3 -0.000301 -0.003377 0.008754 0.000000 0.000000 0.000000
# 4 0.000000 0.000000 0.000000 0.043979 0.000000 0.000000
# 5 0.000000 0.000000 0.000000 0.000000 0.065964 0.000000
# 6 0.000000 0.000000 0.000000 0.000000 0.000000 0.056949
#
#
# Mechanical properties :
#
#
# Convention : Reuss Voigt Hill
#
# Bulk Modulus (GPa) = 37.39703 40.23389 38.81546
# Shear Modulus (GPa) = 22.78208 27.59882 25.19045
#
# Velocity S-wave (km/s) = 3.22152 3.54576 3.38752
# Velocity P-wave (km/s) = 5.55640 5.92381 5.74304
#
# Compressibility (1/GPa) = 0.02674009
#
# Stress axis : x y z
#
# Youngs Moduli (GPa) = 84.02381 68.74001 114.23682
#
# Poissons Ratio (x) = 0.03800 0.03442
# Poissons Ratio (y) = 0.04645 0.38581
# Poissons Ratio (z) = 0.02531 0.23215
#
# Static dielectric constant tensor:
#      x y z
#    x 3.950540 0.000000 0.000000 
#    y 0.000000 3.965960 0.000000 
#    z 0.000000 0.000000 4.112100 
# 
# 
# High freq. dielectric constant tensor:
#      x y z
#    x 1.855860 0.000000 0.000000 
#    y 0.000000 1.860880 0.000000 
#    z 0.000000 0.000000 1.862430 
# 
# From -- ./inp_files/17319.got.cif
#   From: 2010.03.12/outbox.cif.g09.slc.cpg/sg49_9_cif.got.tgz:17319.got - 2010.04.14 03:58:27.
