data_PCOD8204273
_publ_section_title
;
Structure prediction by ZEFSAII (Michael W. Deem and Ramdas Pophale) SiO2 
 PCOD8204273
Probable space group: P C C M
;
_chemical_formula_sum "Si O2"
_cell_formula_units_Z 64
_cell_length_a 8.581877
_cell_length_b 26.048413
_cell_length_c 14.578141
_cell_angle_alpha 90.000000
_cell_angle_beta 90.000000
_cell_angle_gamma 90.000000
_cell_volume 3258.859981
_symmetry_space_group_name_H-M "P C C M"
_symmetry_group_IT_number 49
_symmetry_cell_setting 'orthorhombic'
loop_
_space_group_symop_operation_xyz
x,y,z
-x,-y,z
x,-y,1/2-z
-x,y,1/2-z
-x,-y,-z
x,y,-z
-x,y,1/2+z
x,-y,1/2+z
loop_
_atom_site_type_symbol
_atom_site_label
_atom_site_fract_x
_atom_site_fract_y
_atom_site_fract_z
Si Si1 0.319873 0.314623 0.250000
Si Si2 0.816473 0.059137 0.250000
Si Si3 0.819764 0.240675 0.606725
Si Si4 0.319430 0.866967 0.605928
Si Si5 0.819764 0.240675 0.106725
Si Si6 0.182438 0.425055 0.250000
Si Si7 0.684807 0.500000 0.394460
Si Si8 0.680570 0.866967 0.605928
O O1 0.500000 0.330330 0.250000
O O2 0.282355 0.282206 0.159487
O O3 0.282355 0.282206 0.340513
O O4 0.215100 0.365031 0.250000
O O5 0.744994 0.084308 0.340511
O O6 0.744994 0.084308 0.159489
O O7 0.000000 0.066591 0.250000
O O8 0.767343 0.000000 0.250000
O O9 0.784362 0.248426 0.500000
O O10 0.771269 0.183819 0.638321
O O11 0.000000 0.248843 0.630977
O O12 0.288715 0.878586 0.500000
O O13 0.500000 0.858301 0.627873
O O14 0.771269 0.183819 0.138321
O O15 0.784362 0.248426 0.000000
O O16 0.253855 0.449551 0.342280
O O17 0.253855 0.449551 0.157720
O O18 0.000000 0.435744 0.250000
O O19 0.500000 0.500000 0.390964
O O20 0.744107 0.500000 0.500000
O O21 0.711285 0.878586 0.500000
#
# Coordination Sequence:
#
# PCOD8204273 Si02
#       8
#     8   8   8   8   8   8   8   8
#     4  12  24  38  58  84 120 157 189 234 285 334
#     4  11  24  39  56  80 110 145 185 230 281 336
#     4  10  21  38  60  85 114 149 189 231 277 334
#     4  10  21  38  60  84 111 145 185 229 278 334
#     4  10  21  38  60  85 114 149 189 231 277 334
#     4  11  23  39  60  87 119 153 194 240 283 334
#     4  10  21  40  65  89 116 152 193 237 286 339
#     4  10  21  38  60  84 111 145 185 229 278 334
#
# _framework density 19.638769
#
# number of rings (size 3 to 8) (size 9 to 14) (size 15 to 20)
#    0.000    1.500    0.000    6.000    0.000    6.500 
#    0.000    2.500    0.000    0.000    0.000    0.000 
#    0.000    0.000    0.000    0.000    0.000    0.000 
#
# Total GULP energy -793974.591278 kJ/mol
# GULP energy per Si atom -12405.852989 kJ/mol
# Density = 1.959407 g / cm^3
# Si number density = 19.638769 Si / 1000 Ang^3
#
#
#
# Elastic Constant Matrix: (Units=GPa)
#
#
# Indices 1 2 3 4 5 6 
#
# 1 88.5249 26.0650 40.1567 0.0000 0.0000 0.0000
# 2 26.0650 123.7499 62.4003 0.0000 0.0000 0.0000
# 3 40.1567 62.4003 125.0390 0.0000 0.0000 0.0000
# 4 0.0000 0.0000 0.0000 -51.5255 0.0000 0.0000
# 5 0.0000 0.0000 0.0000 0.0000 17.3984 0.0000
# 6 0.0000 0.0000 0.0000 0.0000 0.0000 31.9453
#
#
#
# Elastic Compliance Matrix: (Units=1/GPa)
#
#
# Indices 1 2 3 4 5 6 
#
# 1 0.013291 -0.000865 -0.003837 0.000000 0.000000 0.000000
# 2 -0.000865 0.010854 -0.005139 0.000000 0.000000 0.000000
# 3 -0.003837 -0.005139 0.011794 0.000000 0.000000 0.000000
# 4 0.000000 0.000000 0.000000 -0.019408 0.000000 0.000000
# 5 0.000000 0.000000 0.000000 0.000000 0.057477 0.000000
# 6 0.000000 0.000000 0.000000 0.000000 0.000000 0.031304
#
#
# Mechanical properties :
#
#
# Convention : Reuss Voigt Hill
#
# Bulk Modulus (GPa) = 61.50652 66.06198 63.78425
# Shear Modulus (GPa) = 38.33952 13.47641 25.90796
#
# Velocity S-wave (km/s) = 4.42321 2.62241 3.63605
# Velocity P-wave (km/s) = 7.58111 6.54836 7.08358
#
# Compressibility (1/GPa) = 0.01625844
#
# Stress axis : x y z
#
# Youngs Moduli (GPa) = 75.23649 92.12925 84.78571
#
# Poissons Ratio (x) = 0.07966 0.32533
# Poissons Ratio (y) = 0.06506 0.43572
# Poissons Ratio (z) = 0.28869 0.47346
#
# Static dielectric constant tensor:
#      x y z
#    x 3.694960 0.000000 0.000000 
#    y 0.000000 3.535260 0.000000 
#    z 0.000000 0.000000 3.632840 
# 
# 
# High freq. dielectric constant tensor:
#      x y z
#    x 1.781930 0.000000 0.000000 
#    y 0.000000 1.763550 0.000000 
#    z 0.000000 0.000000 1.776510 
# 
# From -- ./inp_files/12109.got.cif
#   From: 2010.03.12/outbox.cif.g09.slc.cpg/sg49_7_cif.got.tgz:12109.got - 2010.04.14 03:58:27.
