data_PCOD8204332
_publ_section_title
;
Structure prediction by ZEFSAII (Michael W. Deem and Ramdas Pophale) SiO2 
 PCOD8204332
Probable space group: P C C M
;
_chemical_formula_sum "Si O2"
_cell_formula_units_Z 58
_cell_length_a 9.335290
_cell_length_b 17.454425
_cell_length_c 16.635983
_cell_angle_alpha 90.000000
_cell_angle_beta 90.000000
_cell_angle_gamma 90.000000
_cell_volume 2710.702324
_symmetry_space_group_name_H-M "P C C M"
_symmetry_group_IT_number 49
_symmetry_cell_setting 'orthorhombic'
loop_
_space_group_symop_operation_xyz
x,y,z
-x,-y,z
x,-y,1/2-z
-x,y,1/2-z
-x,-y,-z
x,y,-z
-x,y,1/2+z
x,-y,1/2+z
loop_
_atom_site_type_symbol
_atom_site_label
_atom_site_fract_x
_atom_site_fract_y
_atom_site_fract_z
Si Si1 0.296053 0.320110 0.088985
Si Si2 0.019408 0.733552 0.089870
Si Si3 0.000000 0.000000 0.250000
Si Si4 0.078085 0.428703 0.663052
Si Si5 0.540091 0.917795 0.406449
Si Si6 0.625590 0.190736 0.311383
Si Si7 0.332541 0.493605 0.906031
Si Si8 0.178239 0.866084 0.182259
O O1 0.389315 0.278184 0.157156
O O2 0.274543 0.408060 0.112711
O O3 0.151487 0.270289 0.089771
O O4 0.367353 0.316343 0.000000
O O5 0.074331 0.652212 0.120708
O O6 0.073638 0.803526 0.143349
O O7 0.078536 0.745683 0.000000
O O8 0.903697 0.053891 0.193368
O O9 0.247044 0.451471 0.656511
O O10 0.000000 0.500000 0.616262
O O11 0.000000 0.422938 0.750000
O O12 0.563381 0.925707 0.500000
O O13 0.403399 0.864122 0.387619
O O14 0.685437 0.882124 0.372389
O O15 0.500000 0.000000 0.367980
O O16 0.500000 0.174198 0.250000
O O17 0.775351 0.169648 0.268502
O O18 0.500000 0.500000 0.885533
O O19 0.305353 0.515468 0.000000
#
# Coordination Sequence:
#
# PCOD8204332 Si02
#       8
#     8   8   2   8   8   8   8   8
#     4  10  21  39  62  90 126 171 219 269 337 404
#     4  11  24  41  66  95 131 175 227 286 331 403
#     4  12  24  40  64  92 130 176 202 274 344 412
#     4  11  24  41  67 100 133 184 232 283 345 417
#     4  10  21  40  64  90 125 167 218 274 334 417
#     4  10  22  38  61  89 122 165 205 266 331 404
#     4  10  22  42  67  96 133 175 228 288 346 411
#     4  11  24  40  64  97 129 169 222 273 344 407
#
# _framework density 21.396668999999999
#
# number of rings (size 3 to 8) (size 9 to 14) (size 15 to 20)
#    0.000    1.517    1.379    2.897    2.897    4.690 
#    0.000    8.276    0.000    0.000    0.000    0.000 
#    0.000    0.000    0.000    0.000    0.000    0.000 
#
# Total GULP energy -718815.519591 kJ/mol
# GULP energy per Si atom -12393.371027 kJ/mol
# Density = 2.134797 g / cm^3
# Si number density = 21.396669 Si / 1000 Ang^3
#
#
#
# Elastic Constant Matrix: (Units=GPa)
#
#
# Indices 1 2 3 4 5 6 
#
# 1 83.2141 28.5976 39.1726 0.0000 0.0000 0.0000
# 2 28.5976 128.8486 41.5684 0.0000 0.0000 0.0000
# 3 39.1726 41.5684 73.6619 0.0000 0.0000 0.0000
# 4 0.0000 0.0000 0.0000 26.6229 0.0000 0.0000
# 5 0.0000 0.0000 0.0000 0.0000 25.9712 0.0000
# 6 0.0000 0.0000 0.0000 0.0000 0.0000 39.3507
#
#
#
# Elastic Compliance Matrix: (Units=1/GPa)
#
#
# Indices 1 2 3 4 5 6 
#
# 1 0.016134 -0.000994 -0.008019 0.000000 0.000000 0.000000
# 2 -0.000994 0.009550 -0.004861 0.000000 0.000000 0.000000
# 3 -0.008019 -0.004861 0.020583 0.000000 0.000000 0.000000
# 4 0.000000 0.000000 0.000000 0.037562 0.000000 0.000000
# 5 0.000000 0.000000 0.000000 0.000000 0.038504 0.000000
# 6 0.000000 0.000000 0.000000 0.000000 0.000000 0.025413
#
#
# Mechanical properties :
#
#
# Convention : Reuss Voigt Hill
#
# Bulk Modulus (GPa) = 53.99671 56.04465 55.02068
# Shear Modulus (GPa) = 27.52335 30.14802 28.83569
#
# Velocity S-wave (km/s) = 3.59045 3.75774 3.67505
# Velocity P-wave (km/s) = 6.51761 6.71398 6.61652
#
# Compressibility (1/GPa) = 0.01851965
#
# Stress axis : x y z
#
# Youngs Moduli (GPa) = 61.98258 104.71531 48.58439
#
# Poissons Ratio (x) = 0.10407 0.38959
# Poissons Ratio (y) = 0.06160 0.23615
# Poissons Ratio (z) = 0.49703 0.50897
#
# Static dielectric constant tensor:
#      x y z
#    x 3.939910 0.000000 0.000000 
#    y 0.000000 4.054990 0.000000 
#    z 0.000000 0.000000 3.948530 
# 
# 
# High freq. dielectric constant tensor:
#      x y z
#    x 1.836790 0.000000 0.000000 
#    y 0.000000 1.850360 0.000000 
#    z 0.000000 0.000000 1.835870 
# 
# From -- ./inp_files/16489.got.cif
#   From: 2010.03.12/outbox.cif.g09.slc.cpg/sg49_9_cif.got.tgz:16489.got - 2010.04.14 03:58:27.
