data_PCOD8204928
_publ_section_title
;
Structure prediction by ZEFSAII (Michael W. Deem and Ramdas Pophale) SiO2 
 PCOD8204928
Probable space group: P B A N
;
_chemical_formula_sum "Si O2"
_cell_formula_units_Z 48
_cell_length_a 5.077791
_cell_length_b 24.176095
_cell_length_c 20.793221
_cell_angle_alpha 90.000000
_cell_angle_beta 90.000000
_cell_angle_gamma 90.000000
_cell_volume 2552.599880
_symmetry_space_group_name_H-M "P B A N"
_symmetry_group_IT_number 50
_space_group.IT_coordinate_system_code '2'
_symmetry_cell_setting 'orthorhombic'
loop_
_space_group_symop_operation_xyz
x,y,z
1/2-x,1/2-y,z
x,1/2-y,-z
1/2-x,y,-z
-x,-y,-z
1/2+x,1/2+y,-z
-x,1/2+y,z
1/2+x,-y,z
loop_
_atom_site_type_symbol
_atom_site_label
_atom_site_fract_x
_atom_site_fract_y
_atom_site_fract_z
Si Si1 0.664027 0.964052 0.064242
Si Si2 0.732627 0.964076 0.425868
Si Si3 0.225392 0.463651 0.795845
Si Si4 0.683381 0.310758 0.671995
Si Si5 0.496360 0.811131 0.529016
Si Si6 0.710599 0.620816 0.684721
O O1 0.703645 0.934449 0.133416
O O2 0.360875 0.982764 0.060963
O O3 0.750000 0.928222 0.000000
O O4 0.750000 0.945449 0.500000
O O5 0.791725 0.911401 0.380569
O O6 0.446980 0.988763 0.409784
O O7 0.522758 0.485323 0.788165
O O8 0.142712 0.420403 0.741989
O O9 0.750000 0.250000 0.699829
O O10 0.526211 0.305602 0.604858
O O11 0.457666 0.342852 0.712004
O O12 0.954702 0.343462 0.668151
O O13 0.496033 0.750000 0.500000
O O14 0.250000 0.845254 0.500000
O O15 0.750000 0.842554 0.500000
#
# Coordination Sequence:
#
# PCOD8204928 Si02
#       6
#     8   8   8   8   8   8
#     4   8  14  25  45  75 110 144 170 199 249 304
#     4  10  21  39  56  71  98 126 162 213 253 293
#     4  10  19  34  55  80 112 144 177 216 251 301
#     4  12  25  40  52  75 105 131 166 223 270 317
#     4  10  19  34  55  68  87 120 149 202 272 330
#     4  12  24  36  57  78 100 136 182 206 261 330
#
# _framework density 18.804357
#
# number of rings (size 3 to 8) (size 9 to 14) (size 15 to 20)
#    0.000    1.667    1.667    4.500    2.333    2.000 
#    0.000    0.000    0.000    0.000    0.000    0.000 
#    0.000    4.000    0.000    0.000    0.000    0.000 
#
# Total GULP energy -594694.160360 kJ/mol
# GULP energy per Si atom -12389.461674 kJ/mol
# Density = 1.876156 g / cm^3
# Si number density = 18.804357 Si / 1000 Ang^3
#
#
#
# Elastic Constant Matrix: (Units=GPa)
#
#
# Indices 1 2 3 4 5 6 
#
# 1 124.3882 24.0590 15.9094 0.0000 0.0000 0.0000
# 2 24.0590 71.5171 35.2542 0.0000 0.0000 0.0000
# 3 15.9094 35.2542 101.3693 0.0000 0.0000 0.0000
# 4 0.0000 0.0000 0.0000 1.6914 0.0000 0.0000
# 5 0.0000 0.0000 0.0000 0.0000 23.5728 0.0000
# 6 0.0000 0.0000 0.0000 0.0000 0.0000 18.7619
#
#
#
# Elastic Compliance Matrix: (Units=1/GPa)
#
#
# Indices 1 2 3 4 5 6 
#
# 1 0.008613 -0.002693 -0.000415 0.000000 0.000000 0.000000
# 2 -0.002693 0.017718 -0.005739 0.000000 0.000000 0.000000
# 3 -0.000415 -0.005739 0.011926 0.000000 0.000000 0.000000
# 4 0.000000 0.000000 0.000000 0.591230 0.000000 0.000000
# 5 0.000000 0.000000 0.000000 0.000000 0.042422 0.000000
# 6 0.000000 0.000000 0.000000 0.000000 0.000000 0.053299
#
#
# Mechanical properties :
#
#
# Convention : Reuss Voigt Hill
#
# Bulk Modulus (GPa) = 48.63263 49.74663 49.18963
# Shear Modulus (GPa) = 6.66882 23.60870 15.13876
#
# Velocity S-wave (km/s) = 1.88524 3.54713 2.84045
# Velocity P-wave (km/s) = 5.53691 6.57940 6.08054
#
# Compressibility (1/GPa) = 0.02056233
#
# Stress axis : x y z
#
# Youngs Moduli (GPa) = 116.09931 56.44068 83.84988
#
# Poissons Ratio (x) = 0.15199 0.03482
# Poissons Ratio (y) = 0.31264 0.48123
# Poissons Ratio (z) = 0.04821 0.32393
#
# Static dielectric constant tensor:
#      x y z
#    x 3.451240 0.000000 0.000000 
#    y 0.000000 3.159670 0.000000 
#    z 0.000000 0.000000 3.694730 
# 
# 
# High freq. dielectric constant tensor:
#      x y z
#    x 1.767390 0.000000 0.000000 
#    y 0.000000 1.682820 0.000000 
#    z 0.000000 0.000000 1.711900 
# 
# From -- ./inp_files/30374.got.cif
#   From: 2010.03.12/outbox.cif.g09.slc.cpg/sg50_16_cif.got.tgz:30374.got - 2010.04.16 13:23:21.
