data_PCOD8204939
_publ_section_title
;
Structure prediction by ZEFSAII (Michael W. Deem and Ramdas Pophale) SiO2 
 PCOD8204939
Probable space group: P B A N
;
_chemical_formula_sum "Si O2"
_cell_formula_units_Z 40
_cell_length_a 16.380786
_cell_length_b 12.482751
_cell_length_c 8.904780
_cell_angle_alpha 90.000000
_cell_angle_beta 90.000000
_cell_angle_gamma 90.000000
_cell_volume 1820.825129
_symmetry_space_group_name_H-M "P B A N"
_symmetry_group_IT_number 50
_space_group.IT_coordinate_system_code '2'
_symmetry_cell_setting 'orthorhombic'
loop_
_space_group_symop_operation_xyz
x,y,z
1/2-x,1/2-y,z
x,1/2-y,-z
1/2-x,y,-z
-x,-y,-z
1/2+x,1/2+y,-z
-x,1/2+y,z
1/2+x,-y,z
loop_
_atom_site_type_symbol
_atom_site_label
_atom_site_fract_x
_atom_site_fract_y
_atom_site_fract_z
Si Si1 0.605113 0.020983 0.169993
Si Si2 0.919391 0.449792 0.830561
Si Si3 0.570824 0.231653 0.325936
Si Si4 0.895439 0.848096 0.347395
Si Si5 0.815983 0.640517 0.371121
O O1 0.619034 0.127295 0.268707
O O2 0.516063 0.968109 0.183318
O O3 0.674619 0.938434 0.230007
O O4 0.618503 0.047788 0.996308
O O5 0.897823 0.334368 0.764088
O O6 0.873773 0.542842 0.738355
O O7 0.588349 0.250000 0.500000
O O8 0.476743 0.207130 0.285668
O O9 0.817205 0.767075 0.317274
O O10 0.900969 0.868552 0.528311
O O11 0.750000 0.607703 0.500000
#
# Coordination Sequence:
#
# PCOD8204939 Si02
#       5
#     8   8   8   8   8
#     4  10  21  34  54  89 121 164 202 252 333 373
#     4  10  20  34  56  87 127 154 196 270 322 388
#     4  11  18  32  58  88 124 150 200 267 327 382
#     4  10  19  34  56  85 116 157 207 249 323 367
#     4  11  21  38  57  82 120 163 214 254 294 388
#
# _framework density 21.968063000000001
#
# number of rings (size 3 to 8) (size 9 to 14) (size 15 to 20)
#    0.000    1.600    4.000    3.000    0.000    4.000 
#    0.000    1.000    0.000   11.400    0.000    5.600 
#    0.000    0.000    0.000    0.000    0.000    0.000 
#
# Total GULP energy -495666.904163 kJ/mol
# GULP energy per Si atom -12391.672604 kJ/mol
# Density = 2.191806 g / cm^3
# Si number density = 21.968063 Si / 1000 Ang^3
#
#
#
# Elastic Constant Matrix: (Units=GPa)
#
#
# Indices 1 2 3 4 5 6 
#
# 1 24.2527 -3.9754 -12.7891 0.0000 0.0000 0.0000
# 2 -3.9754 128.0891 37.6908 0.0000 0.0000 0.0000
# 3 -12.7891 37.6908 83.0596 0.0000 0.0000 0.0000
# 4 0.0000 0.0000 0.0000 42.6537 0.0000 0.0000
# 5 0.0000 0.0000 0.0000 0.0000 31.3808 0.0000
# 6 0.0000 0.0000 0.0000 0.0000 0.0000 3.1101
#
#
#
# Elastic Compliance Matrix: (Units=1/GPa)
#
#
# Indices 1 2 3 4 5 6 
#
# 1 0.044937 -0.000740 0.007255 0.000000 0.000000 0.000000
# 2 -0.000740 0.009022 -0.004208 0.000000 0.000000 0.000000
# 3 0.007255 -0.004208 0.015066 0.000000 0.000000 0.000000
# 4 0.000000 0.000000 0.000000 0.023445 0.000000 0.000000
# 5 0.000000 0.000000 0.000000 0.000000 0.031867 0.000000
# 6 0.000000 0.000000 0.000000 0.000000 0.000000 0.321536
#
#
# Mechanical properties :
#
#
# Convention : Reuss Voigt Hill
#
# Bulk Modulus (GPa) = 13.57972 30.80600 22.19286
# Shear Modulus (GPa) = 10.73409 29.72726 20.23067
#
# Velocity S-wave (km/s) = 2.21288 3.68258 3.03795
# Velocity P-wave (km/s) = 3.56709 5.66881 4.73601
#
# Compressibility (1/GPa) = 0.07363924
#
# Stress axis : x y z
#
# Youngs Moduli (GPa) = 22.25333 110.83578 66.37358
#
# Poissons Ratio (x) = 0.08204 -0.48155
# Poissons Ratio (y) = 0.01647 0.27931
# Poissons Ratio (z) = -0.16145 0.46641
#
# Static dielectric constant tensor:
#      x y z
#    x 3.772030 0.000000 0.000000 
#    y 0.000000 4.090420 0.000000 
#    z 0.000000 0.000000 4.228200 
# 
# 
# High freq. dielectric constant tensor:
#      x y z
#    x 1.829770 0.000000 0.000000 
#    y 0.000000 1.876980 0.000000 
#    z 0.000000 0.000000 1.857180 
# 
# From -- ./inp_files/13904.got.cif
#   From: 2010.03.12/outbox.cif.g09.slc.cpg/sg50_7_cif.got.tgz:13904.got - 2010.04.16 13:23:21.
