data_PCOD8204045
_publ_section_title
;
Structure prediction by ZEFSAII (Michael W. Deem and Ramdas Pophale) SiO2 
 PCOD8204045
Probable space group: P C C M
;
_chemical_formula_sum "Si O2"
_cell_formula_units_Z 64
_cell_length_a 20.952073
_cell_length_b 17.499473
_cell_length_c 8.465265
_cell_angle_alpha 90.000000
_cell_angle_beta 90.000000
_cell_angle_gamma 90.000000
_cell_volume 3103.791408
_symmetry_space_group_name_H-M "P C C M"
_symmetry_group_IT_number 49
_symmetry_cell_setting 'orthorhombic'
loop_
_space_group_symop_operation_xyz
x,y,z
-x,-y,z
x,-y,1/2-z
-x,y,1/2-z
-x,-y,-z
x,y,-z
-x,y,1/2+z
x,-y,1/2+z
loop_
_atom_site_type_symbol
_atom_site_label
_atom_site_fract_x
_atom_site_fract_y
_atom_site_fract_z
Si Si1 0.067132 0.624340 0.687089
Si Si2 0.565892 0.755810 0.314616
Si Si3 0.589253 0.080066 0.682783
Si Si4 0.282519 0.119782 0.317550
Si Si5 0.299244 0.282163 0.812686
Si Si6 0.064251 0.204709 0.814192
Si Si7 0.155132 0.074957 0.186854
Si Si8 0.792994 0.419889 0.687098
O O1 0.064614 0.620547 0.500000
O O2 0.071992 0.710350 0.754453
O O3 0.133286 0.586966 0.750085
O O4 0.000000 0.586974 0.750000
O O5 0.500000 0.718884 0.250000
O O6 0.571228 0.743302 0.500000
O O7 0.563115 0.846489 0.277161
O O8 0.625852 0.711822 0.234776
O O9 0.570905 0.088089 0.500000
O O10 0.665090 0.080814 0.705679
O O11 0.560909 0.000000 0.750000
O O12 0.304017 0.115037 0.500000
O O13 0.270116 0.207584 0.269482
O O14 0.219950 0.071596 0.285594
O O15 0.255733 0.353615 0.753648
O O16 0.294084 0.273219 0.000000
O O17 0.120975 0.151602 0.755305
O O18 0.000000 0.166640 0.750000
O O19 0.062315 0.207897 0.000000
O O20 0.117115 0.000000 0.250000
O O21 0.165386 0.074338 0.000000
O O22 0.765397 0.500000 0.750000
O O23 0.793782 0.418567 0.500000
#
# Coordination Sequence:
#
# PCOD8204045 Si02
#       8
#     8   8   8   8   8   8   8   8
#     4   9  18  35  56  81 110 147 187 227 271 325
#     4  11  22  38  59  86 115 149 192 237 283 337
#     4  11  21  35  53  77 111 150 188 232 282 333
#     4  11  21  34  53  78 104 137 181 228 274 330
#     4  10  20  38  61  85 113 149 186 230 281 333
#     4   9  19  35  54  71  94 128 172 221 273 327
#     4  11  22  35  49  69  98 134 175 227 282 334
#     4  10  22  38  59  86 120 153 186 224 273 329
#
# _framework density 20.619942999999999
#
# number of rings (size 3 to 8) (size 9 to 14) (size 15 to 20)
#    0.000    1.750    0.000    6.750    0.000    5.250 
#    0.000    6.250    0.000    0.375    0.000    2.625 
#    0.000    0.000    0.000    0.000    0.000    0.000 
#
# Total GULP energy -793243.359872 kJ/mol
# GULP energy per Si atom -12394.427498 kJ/mol
# Density = 2.057301 g / cm^3
# Si number density = 20.619943 Si / 1000 Ang^3
#
#
#
# Elastic Constant Matrix: (Units=GPa)
#
#
# Indices 1 2 3 4 5 6 
#
# 1 109.1607 34.5588 15.4454 0.0000 0.0000 0.0000
# 2 34.5588 87.0337 15.3260 0.0000 0.0000 0.0000
# 3 15.4454 15.3260 63.3683 0.0000 0.0000 0.0000
# 4 0.0000 0.0000 0.0000 27.1586 0.0000 0.0000
# 5 0.0000 0.0000 0.0000 0.0000 26.8445 0.0000
# 6 0.0000 0.0000 0.0000 0.0000 0.0000 -11.9937
#
#
#
# Elastic Compliance Matrix: (Units=1/GPa)
#
#
# Indices 1 2 3 4 5 6 
#
# 1 0.010639 -0.003935 -0.001641 0.000000 0.000000 0.000000
# 2 -0.003935 0.013457 -0.002295 0.000000 0.000000 0.000000
# 3 -0.001641 -0.002295 0.016736 0.000000 0.000000 0.000000
# 4 0.000000 0.000000 0.000000 0.036821 0.000000 0.000000
# 5 0.000000 0.000000 0.000000 0.000000 0.037252 0.000000
# 6 0.000000 0.000000 0.000000 0.000000 0.000000 -0.083377
#
#
# Mechanical properties :
#
#
# Convention : Reuss Voigt Hill
#
# Bulk Modulus (GPa) = 39.86074 43.35813 41.60944
# Shear Modulus (GPa) = 89.87401 21.35070 55.61235
#
# Velocity S-wave (km/s) = 6.60913 3.22132 5.19892
# Velocity P-wave (km/s) = 8.80988 5.90836 7.50076
#
# Compressibility (1/GPa) = 0.02508734
#
# Stress axis : x y z
#
# Youngs Moduli (GPa) = 93.99433 74.31271 59.75153
#
# Poissons Ratio (x) = 0.29245 0.09807
# Poissons Ratio (y) = 0.36991 0.13715
# Poissons Ratio (z) = 0.15428 0.17057
#
# Static dielectric constant tensor:
#      x y z
#    x 4.021540 0.000000 0.000000 
#    y 0.000000 3.859430 0.000000 
#    z 0.000000 0.000000 3.682560 
# 
# 
# High freq. dielectric constant tensor:
#      x y z
#    x 1.813320 0.000000 0.000000 
#    y 0.000000 1.788790 0.000000 
#    z 0.000000 0.000000 1.802500 
# 
# From -- ./inp_files/6018.got.cif
#   From: 2010.03.12/outbox.cif.g09.slc.cpg/sg49_4_cif.got.tgz:6018.got - 2010.04.14 03:58:27.
