data_PCOD8204097
_publ_section_title
;
Structure prediction by ZEFSAII (Michael W. Deem and Ramdas Pophale) SiO2 
 PCOD8204097
Probable space group: P C C M
;
_chemical_formula_sum "Si O2"
_cell_formula_units_Z 48
_cell_length_a 13.868340
_cell_length_b 9.826919
_cell_length_c 18.097375
_cell_angle_alpha 90.000000
_cell_angle_beta 90.000000
_cell_angle_gamma 90.000000
_cell_volume 2466.365532
_symmetry_space_group_name_H-M "P C C M"
_symmetry_group_IT_number 49
_symmetry_cell_setting 'orthorhombic'
loop_
_space_group_symop_operation_xyz
x,y,z
-x,-y,z
x,-y,1/2-z
-x,y,1/2-z
-x,-y,-z
x,y,-z
-x,y,1/2+z
x,-y,1/2+z
loop_
_atom_site_type_symbol
_atom_site_label
_atom_site_fract_x
_atom_site_fract_y
_atom_site_fract_z
Si Si1 0.598288 0.738410 0.660335
Si Si2 0.270111 0.510390 0.333487
Si Si3 0.085192 0.404698 0.412347
Si Si4 0.703589 0.028126 0.085798
Si Si5 0.083109 0.901761 0.087722
Si Si6 0.620282 0.222475 0.671414
O O1 0.636616 0.584888 0.656518
O O2 0.652319 0.827484 0.598791
O O3 0.485134 0.734063 0.643318
O O4 0.620021 0.801382 0.740823
O O5 0.230678 0.500000 0.250000
O O6 0.186430 0.467379 0.388577
O O7 0.303080 0.662983 0.352551
O O8 0.083851 0.401687 0.500000
O O9 0.071233 0.251630 0.380711
O O10 0.000000 0.500000 0.381081
O O11 0.814284 0.037533 0.112252
O O12 0.648911 0.917002 0.133406
O O13 0.696763 0.989772 0.000000
O O14 0.075784 0.896316 0.000000
O O15 0.000000 0.000000 0.120636
#
# Coordination Sequence:
#
# PCOD8204097 Si02
#       6
#     8   8   8   8   8   8
#     4  10  20  40  59  79 114 154 194 228 277 339
#     4  10  21  38  60  85 114 148 189 239 282 329
#     4  10  21  37  60  85 112 148 188 229 282 344
#     4  11  22  36  58  86 116 147 187 237 285 332
#     4   9  19  36  57  81 110 146 184 226 276 336
#     4  10  22  36  59  85 111 153 193 230 276 340
#
# _framework density 19.461836000000002
#
# number of rings (size 3 to 8) (size 9 to 14) (size 15 to 20)
#    0.000    2.000    1.667    1.500    2.333    5.667 
#    0.000    0.000    0.000    5.000    0.000    0.000 
#    0.000    0.000    0.000    0.000    0.000    0.000 
#
# Total GULP energy -595351.044881 kJ/mol
# GULP energy per Si atom -12403.146768 kJ/mol
# Density = 1.941754 g / cm^3
# Si number density = 19.461836 Si / 1000 Ang^3
#
#
#
# Elastic Constant Matrix: (Units=GPa)
#
#
# Indices 1 2 3 4 5 6 
#
# 1 118.0828 29.3106 17.5930 0.0000 0.0000 0.0000
# 2 29.3106 85.9745 16.5927 0.0000 0.0000 0.0000
# 3 17.5930 16.5927 24.6846 0.0000 0.0000 0.0000
# 4 0.0000 0.0000 0.0000 21.2385 0.0000 0.0000
# 5 0.0000 0.0000 0.0000 0.0000 26.1391 0.0000
# 6 0.0000 0.0000 0.0000 0.0000 0.0000 36.6994
#
#
#
# Elastic Compliance Matrix: (Units=1/GPa)
#
#
# Indices 1 2 3 4 5 6 
#
# 1 0.009856 -0.002303 -0.005476 0.000000 0.000000 0.000000
# 2 -0.002303 0.013903 -0.007704 0.000000 0.000000 0.000000
# 3 -0.005476 -0.007704 0.049593 0.000000 0.000000 0.000000
# 4 0.000000 0.000000 0.000000 0.047084 0.000000 0.000000
# 5 0.000000 0.000000 0.000000 0.000000 0.038257 0.000000
# 6 0.000000 0.000000 0.000000 0.000000 0.000000 0.027248
#
#
# Mechanical properties :
#
#
# Convention : Reuss Voigt Hill
#
# Bulk Modulus (GPa) = 23.59338 39.52608 31.55973
# Shear Modulus (GPa) = 21.64145 27.83178 24.73661
#
# Velocity S-wave (km/s) = 3.33828 3.78573 3.56902
# Velocity P-wave (km/s) = 5.19692 6.28193 5.76501
#
# Compressibility (1/GPa) = 0.04238476
#
# Stress axis : x y z
#
# Youngs Moduli (GPa) = 101.45807 71.92447 20.16421
#
# Poissons Ratio (x) = 0.16566 0.11043
# Poissons Ratio (y) = 0.23369 0.15535
# Poissons Ratio (z) = 0.55563 0.55412
#
# Static dielectric constant tensor:
#      x y z
#    x 3.631630 0.000000 0.000000 
#    y 0.000000 3.711400 0.000000 
#    z 0.000000 0.000000 3.273000 
# 
# 
# High freq. dielectric constant tensor:
#      x y z
#    x 1.767180 0.000000 0.000000 
#    y 0.000000 1.770180 0.000000 
#    z 0.000000 0.000000 1.728420 
# 
# From -- ./inp_files/16322.got.cif
#   From: 2010.03.12/outbox.cif.g09.slc.cpg/sg49_9_cif.got.tgz:16322.got - 2010.04.14 03:58:27.
