data_PCOD8204836
_publ_section_title
;
Structure prediction by ZEFSAII (Michael W. Deem and Ramdas Pophale) SiO2 
 PCOD8204836
Probable space group: P B A N
;
_chemical_formula_sum "Si O2"
_cell_formula_units_Z 48
_cell_length_a 17.485986
_cell_length_b 16.194533
_cell_length_c 8.462581
_cell_angle_alpha 90.000000
_cell_angle_beta 90.000000
_cell_angle_gamma 90.000000
_cell_volume 2396.411493
_symmetry_space_group_name_H-M "P B A N"
_symmetry_group_IT_number 50
_space_group.IT_coordinate_system_code '2'
_symmetry_cell_setting 'orthorhombic'
loop_
_space_group_symop_operation_xyz
x,y,z
1/2-x,1/2-y,z
x,1/2-y,-z
1/2-x,y,-z
-x,-y,-z
1/2+x,1/2+y,-z
-x,1/2+y,z
1/2+x,-y,z
loop_
_atom_site_type_symbol
_atom_site_label
_atom_site_fract_x
_atom_site_fract_y
_atom_site_fract_z
Si Si1 0.172994 0.976673 0.586879
Si Si2 0.335552 0.336697 0.062046
Si Si3 0.449561 0.843308 0.512947
Si Si4 0.948598 0.052847 0.795721
Si Si5 0.108296 0.496392 0.100146
Si Si6 0.391461 0.398336 0.377806
O O1 0.250000 0.946438 0.500000
O O2 0.109457 0.906400 0.564419
O O3 0.178615 0.982839 0.780615
O O4 0.154651 0.072151 0.534295
O O5 0.343365 0.341404 0.254357
O O6 0.369410 0.250000 0.000000
O O7 0.250000 0.346630 0.000000
O O8 0.385166 0.409349 0.988759
O O9 0.419969 0.750000 0.500000
O O10 0.455741 0.861578 0.700764
O O11 0.531152 0.851739 0.425156
O O12 0.031034 0.009794 0.800358
O O13 0.899002 0.989505 0.694668
O O14 0.906413 0.066389 0.965211
#
# Coordination Sequence:
#
# PCOD8204836 Si02
#       6
#     8   8   8   8   8   8
#     4  11  21  37  61  85 112 155 205 247 299 366
#     4  10  22  35  50  82 122 151 183 240 314 372
#     4  11  22  37  56  85 120 152 196 253 309 362
#     4   9  18  35  57  81 111 143 196 246 287 349
#     4  10  18  34  59  82 110 151 200 244 290 361
#     4  10  19  37  56  78 110 150 195 242 289 361
#
# _framework density 20.029948999999998
#
# number of rings (size 3 to 8) (size 9 to 14) (size 15 to 20)
#    0.000    1.833    3.333    2.000    2.333    0.333 
#    0.000    0.833    0.000    3.000    0.000    7.000 
#    0.000    0.000    0.000    0.000    0.000    0.000 
#
# Total GULP energy -594649.741110 kJ/mol
# GULP energy per Si atom -12388.536273 kJ/mol
# Density = 1.998436 g / cm^3
# Si number density = 20.029949 Si / 1000 Ang^3
#
#
#
# Elastic Constant Matrix: (Units=GPa)
#
#
# Indices 1 2 3 4 5 6 
#
# 1 72.5059 14.0201 32.3196 0.0000 0.0000 0.0000
# 2 14.0201 95.5498 49.2965 0.0000 0.0000 0.0000
# 3 32.3196 49.2965 145.3430 0.0000 0.0000 0.0000
# 4 0.0000 0.0000 0.0000 27.6912 0.0000 0.0000
# 5 0.0000 0.0000 0.0000 0.0000 38.0164 0.0000
# 6 0.0000 0.0000 0.0000 0.0000 0.0000 14.6596
#
#
#
# Elastic Compliance Matrix: (Units=1/GPa)
#
#
# Indices 1 2 3 4 5 6 
#
# 1 0.015337 -0.000595 -0.003209 0.000000 0.000000 0.000000
# 2 -0.000595 0.012709 -0.004178 0.000000 0.000000 0.000000
# 3 -0.003209 -0.004178 0.009011 0.000000 0.000000 0.000000
# 4 0.000000 0.000000 0.000000 0.036113 0.000000 0.000000
# 5 0.000000 0.000000 0.000000 0.000000 0.026304 0.000000
# 6 0.000000 0.000000 0.000000 0.000000 0.000000 0.068215
#
#
# Mechanical properties :
#
#
# Convention : Reuss Voigt Hill
#
# Bulk Modulus (GPa) = 47.40869 56.07457 51.74163
# Shear Modulus (GPa) = 26.22148 30.59093 28.40621
#
# Velocity S-wave (km/s) = 3.62209 3.91226 3.76997
# Velocity P-wave (km/s) = 6.41974 6.96160 6.69615
#
# Compressibility (1/GPa) = 0.02109318
#
# Stress axis : x y z
#
# Youngs Moduli (GPa) = 65.20041 78.68655 110.97671
#
# Poissons Ratio (x) = 0.04682 0.35609
# Poissons Ratio (y) = 0.03879 0.46367
# Poissons Ratio (z) = 0.20921 0.32876
#
# Static dielectric constant tensor:
#      x y z
#    x 3.426390 0.000000 0.000000 
#    y 0.000000 3.467750 0.000000 
#    z 0.000000 0.000000 4.135820 
# 
# 
# High freq. dielectric constant tensor:
#      x y z
#    x 1.765740 0.000000 0.000000 
#    y 0.000000 1.747720 0.000000 
#    z 0.000000 0.000000 1.802630 
# 
# From -- ./inp_files/14351.got.cif
#   From: 2010.03.12/outbox.cif.g09.slc.cpg/sg50_8_cif.got.tgz:14351.got - 2010.04.16 13:23:21.
