data_PCOD8204665
_publ_section_title
;
Structure prediction by ZEFSAII (Michael W. Deem and Ramdas Pophale) SiO2 
 PCOD8204665
Probable space group: P C C M
;
_chemical_formula_sum "Si O2"
_cell_formula_units_Z 52
_cell_length_a 23.506701
_cell_length_b 5.136633
_cell_length_c 21.278370
_cell_angle_alpha 90.000000
_cell_angle_beta 90.000000
_cell_angle_gamma 90.000000
_cell_volume 2569.263086
_symmetry_space_group_name_H-M "P C C M"
_symmetry_group_IT_number 49
_symmetry_cell_setting 'orthorhombic'
loop_
_space_group_symop_operation_xyz
x,y,z
-x,-y,z
x,-y,1/2-z
-x,y,1/2-z
-x,-y,-z
x,y,-z
-x,y,1/2+z
x,-y,1/2+z
loop_
_atom_site_type_symbol
_atom_site_label
_atom_site_fract_x
_atom_site_fract_y
_atom_site_fract_z
Si Si1 0.559991 0.591758 0.321756
Si Si2 0.429757 0.188452 0.000000
Si Si3 0.130555 0.000721 0.675157
Si Si4 0.500000 0.000000 0.111579
Si Si5 0.681157 0.512298 0.871718
Si Si6 0.259066 0.977849 0.824043
Si Si7 0.064182 0.499897 0.675026
Si Si8 0.353743 0.327949 0.500000
O O1 0.500000 0.500000 0.351960
O O2 0.562840 0.500000 0.250000
O O3 0.614733 0.473848 0.354736
O O4 0.550799 0.894982 0.340900
O O5 0.466743 0.187712 0.063463
O O6 0.406116 0.477487 0.000000
O O7 0.379618 0.965544 0.000000
O O8 0.194911 0.007523 0.649681
O O9 0.098232 0.748073 0.648964
O O10 0.130766 0.000000 0.750000
O O11 0.096646 0.248239 0.648860
O O12 0.705497 0.802243 0.861317
O O13 0.687049 0.396044 0.941476
O O14 0.715426 0.309843 0.829758
O O15 0.260992 0.000000 0.750000
O O16 0.063137 0.500000 0.750000
O O17 0.000000 0.500000 0.648646
#
# Coordination Sequence:
#
# PCOD8204665 Si02
#       8
#     8   4   8   4   8   8   8   4
#     4  11  25  41  60  87 120 151 183 239 299 371
#     4  11  24  42  72  86 118 142 198 236 292 377
#     4   9  17  29  46  71 107 151 197 233 273 332
#     4  11  24  41  66  92 114 156 186 238 300 365
#     4  12  25  43  63  86 116 150 198 247 300 356
#     4  11  23  40  61  85 116 160 202 240 288 356
#     4   9  15  24  42  71 108 151 195 235 273 320
#     4  12  24  45  64  94 110 148 189 258 295 351
#
# _framework density 20.239265
#
# number of rings (size 3 to 8) (size 9 to 14) (size 15 to 20)
#    0.000    1.385    1.538    4.615    2.154    6.154 
#    0.000    0.000    0.000    0.000    0.000    0.000 
#    0.000    0.000    0.000   48.462    0.000   21.538 
#
# Total GULP energy -644187.174346 kJ/mol
# GULP energy per Si atom -12388.214891 kJ/mol
# Density = 2.019320 g / cm^3
# Si number density = 20.239265 Si / 1000 Ang^3
#
#
#
# Elastic Constant Matrix: (Units=GPa)
#
#
# Indices 1 2 3 4 5 6 
#
# 1 149.4669 47.8974 14.8433 0.0000 0.0000 0.0000
# 2 47.8974 102.9572 7.3747 0.0000 0.0000 0.0000
# 3 14.8433 7.3747 76.2919 0.0000 0.0000 0.0000
# 4 0.0000 0.0000 0.0000 16.1852 0.0000 0.0000
# 5 0.0000 0.0000 0.0000 0.0000 7.1423 0.0000
# 6 0.0000 0.0000 0.0000 0.0000 0.0000 34.2841
#
#
#
# Elastic Compliance Matrix: (Units=1/GPa)
#
#
# Indices 1 2 3 4 5 6 
#
# 1 0.007970 -0.003622 -0.001201 0.000000 0.000000 0.000000
# 2 -0.003622 0.011426 -0.000400 0.000000 0.000000 0.000000
# 3 -0.001201 -0.000400 0.013380 0.000000 0.000000 0.000000
# 4 0.000000 0.000000 0.000000 0.061785 0.000000 0.000000
# 5 0.000000 0.000000 0.000000 0.000000 0.140012 0.000000
# 6 0.000000 0.000000 0.000000 0.000000 0.000000 0.029168
#
#
# Mechanical properties :
#
#
# Convention : Reuss Voigt Hill
#
# Bulk Modulus (GPa) = 44.77923 52.10519 48.44221
# Shear Modulus (GPa) = 17.75380 28.76234 23.25807
#
# Velocity S-wave (km/s) = 2.96496 3.77386 3.39360
# Velocity P-wave (km/s) = 5.82188 6.69252 6.27233
#
# Compressibility (1/GPa) = 0.02233178
#
# Stress axis : x y z
#
# Youngs Moduli (GPa) = 125.46519 87.51664 74.73963
#
# Poissons Ratio (x) = 0.31698 0.08973
# Poissons Ratio (y) = 0.45443 0.02988
# Poissons Ratio (z) = 0.15063 0.03499
#
# Static dielectric constant tensor:
#      x y z
#    x 3.909830 0.000000 0.000000 
#    y 0.000000 4.153950 0.000000 
#    z 0.000000 0.000000 3.433970 
# 
# 
# High freq. dielectric constant tensor:
#      x y z
#    x 1.790280 0.000000 0.000000 
#    y 0.000000 1.808380 0.000000 
#    z 0.000000 0.000000 1.747730 
# 
# From -- ./inp_files/21194.got.cif
#   From: 2010.03.12/outbox.cif.g09.slc.cpg/sg49_11_cif.got.tgz:21194.got - 2010.04.14 03:58:27.
