data_PCOD8204683
_publ_section_title
;
Structure prediction by ZEFSAII (Michael W. Deem and Ramdas Pophale) SiO2 
 PCOD8204683
Probable space group: P C C M
;
_chemical_formula_sum "Si O2"
_cell_formula_units_Z 64
_cell_length_a 23.513957
_cell_length_b 9.595143
_cell_length_c 14.675929
_cell_angle_alpha 90.000000
_cell_angle_beta 90.000000
_cell_angle_gamma 90.000000
_cell_volume 3311.179871
_symmetry_space_group_name_H-M "P C C M"
_symmetry_group_IT_number 49
_symmetry_cell_setting 'orthorhombic'
loop_
_space_group_symop_operation_xyz
x,y,z
-x,-y,z
x,-y,1/2-z
-x,y,1/2-z
-x,-y,-z
x,y,-z
-x,y,1/2+z
x,-y,1/2+z
loop_
_atom_site_type_symbol
_atom_site_label
_atom_site_fract_x
_atom_site_fract_y
_atom_site_fract_z
Si Si1 0.680041 0.843284 0.750000
Si Si2 0.260039 0.658451 0.894476
Si Si3 0.739961 0.341549 0.394476
Si Si4 0.566037 0.277084 0.250000
Si Si5 0.870817 0.658253 0.894281
Si Si6 0.129183 0.341747 0.394281
Si Si7 0.566137 0.500000 0.100678
Si Si8 0.067172 0.160434 0.250000
O O1 0.701725 0.765364 0.660534
O O2 0.701725 0.765364 0.839466
O O3 0.610844 0.849306 0.750000
O O4 0.703371 0.000000 0.750000
O O5 0.279783 0.500000 0.873459
O O6 0.194622 0.677180 0.865445
O O7 0.267922 0.693194 0.000000
O O8 0.732078 0.306807 0.500000
O O9 0.805378 0.322820 0.365445
O O10 0.500000 0.227349 0.250000
O O11 0.581340 0.364118 0.159240
O O12 0.581340 0.364118 0.340760
O O13 0.889923 0.500000 0.872504
O O14 0.909248 0.765867 0.839905
O O15 0.879206 0.691629 0.000000
O O16 0.120794 0.308371 0.500000
O O17 0.090752 0.234133 0.339904
O O18 0.500000 0.500000 0.083281
O O19 0.596613 0.500000 0.000000
O O20 0.000000 0.174002 0.250000
O O21 0.086789 0.000000 0.250000
#
# Coordination Sequence:
#
# PCOD8204683 Si02
#       8
#     8   8   8   8   8   8   8   8
#     4  12  25  36  52  82 117 150 183 223 273 332
#     4   9  20  39  62  85 109 141 183 232 283 332
#     4   9  20  39  62  85 109 141 183 232 283 332
#     4   9  20  36  52  77 109 142 184 224 268 329
#     4   9  19  38  62  85 108 140 186 236 283 329
#     4   9  19  38  62  85 108 140 186 236 283 329
#     4   8  15  31  56  81 101 126 171 229 272 307
#     4  11  24  37  51  80 120 157 190 224 270 329
#
# _framework density 19.328457
#
# number of rings (size 3 to 8) (size 9 to 14) (size 15 to 20)
#    0.000    2.500    0.000    3.750    3.500    7.750 
#    0.000    5.000    0.000    0.000    0.000    5.250 
#    0.000    0.000    0.000    0.000    0.000    0.000 
#
# Total GULP energy -793411.559442 kJ/mol
# GULP energy per Si atom -12397.055616 kJ/mol
# Density = 1.928446 g / cm^3
# Si number density = 19.328457 Si / 1000 Ang^3
#
#
#
# Elastic Constant Matrix: (Units=GPa)
#
#
# Indices 1 2 3 4 5 6 
#
# 1 83.8038 63.0492 41.3041 0.0000 0.0000 0.0000
# 2 63.0492 129.3548 58.6462 0.0000 0.0000 0.0000
# 3 41.3041 58.6462 120.5913 0.0000 0.0000 0.0000
# 4 0.0000 0.0000 0.0000 -18.4821 0.0000 0.0000
# 5 0.0000 0.0000 0.0000 0.0000 238.9310 0.0000
# 6 0.0000 0.0000 0.0000 0.0000 0.0000 22.7823
#
#
#
# Elastic Compliance Matrix: (Units=1/GPa)
#
#
# Indices 1 2 3 4 5 6 
#
# 1 0.019473 -0.008297 -0.002635 0.000000 0.000000 0.000000
# 2 -0.008297 0.013452 -0.003700 0.000000 0.000000 0.000000
# 3 -0.002635 -0.003700 0.010995 0.000000 0.000000 0.000000
# 4 0.000000 0.000000 0.000000 -0.054107 0.000000 0.000000
# 5 0.000000 0.000000 0.000000 0.000000 0.004185 0.000000
# 6 0.000000 0.000000 0.000000 0.000000 0.000000 0.043894
#
#
# Mechanical properties :
#
#
# Convention : Reuss Voigt Hill
#
# Bulk Modulus (GPa) = 68.23214 73.30542 70.76878
# Shear Modulus (GPa) = 69.40319 60.02961 64.71640
#
# Velocity S-wave (km/s) = 5.99877 5.57898 5.79268
# Velocity P-wave (km/s) = 9.13008 8.91676 9.02405
#
# Compressibility (1/GPa) = 0.01465585
#
# Stress axis : x y z
#
# Youngs Moduli (GPa) = 51.35187 74.33613 90.95430
#
# Poissons Ratio (x) = 0.61677 0.23965
# Poissons Ratio (y) = 0.42607 0.33656
# Poissons Ratio (z) = 0.13531 0.27507
#
# Static dielectric constant tensor:
#      x y z
#    x 3.477370 0.000000 0.000000 
#    y 0.000000 3.310920 0.000000 
#    z 0.000000 0.000000 3.833050 
# 
# 
# High freq. dielectric constant tensor:
#      x y z
#    x 1.754480 0.000000 0.000000 
#    y 0.000000 1.726570 0.000000 
#    z 0.000000 0.000000 1.765590 
# 
# From -- ./inp_files/14554.got.cif
#   From: 2010.03.12/outbox.cif.g09.slc.cpg/sg49_8_cif.got.tgz:14554.got - 2010.04.14 03:58:27.
