data_PCOD8204181
_publ_section_title
;
Structure prediction by ZEFSAII (Michael W. Deem and Ramdas Pophale) SiO2 
 PCOD8204181
Probable space group: P C C M
;
_chemical_formula_sum "Si O2"
_cell_formula_units_Z 56
_cell_length_a 14.754638
_cell_length_b 10.978589
_cell_length_c 15.842029
_cell_angle_alpha 90.000000
_cell_angle_beta 90.000000
_cell_angle_gamma 90.000000
_cell_volume 2566.172754
_symmetry_space_group_name_H-M "P C C M"
_symmetry_group_IT_number 49
_symmetry_cell_setting 'orthorhombic'
loop_
_space_group_symop_operation_xyz
x,y,z
-x,-y,z
x,-y,1/2-z
-x,y,1/2-z
-x,-y,-z
x,y,-z
-x,y,1/2+z
x,-y,1/2+z
loop_
_atom_site_type_symbol
_atom_site_label
_atom_site_fract_x
_atom_site_fract_y
_atom_site_fract_z
Si Si1 0.210960 0.141602 0.756888
Si Si2 0.469985 0.306426 0.405583
Si Si3 0.118874 0.248520 0.405146
Si Si4 0.166575 0.488215 0.849294
Si Si5 0.090393 0.246674 0.095505
Si Si6 0.594914 0.858039 0.724799
Si Si7 0.626240 0.461486 0.345713
O O1 0.172147 0.179162 0.667015
O O2 0.150555 0.174006 0.836906
O O3 0.312847 0.198920 0.765250
O O4 0.224672 0.000000 0.750000
O O5 0.493381 0.270271 0.500000
O O6 0.412015 0.187790 0.372294
O O7 0.568126 0.338708 0.362729
O O8 0.407591 0.426608 0.402952
O O9 0.146689 0.206141 0.500000
O O10 0.141931 0.389893 0.397805
O O11 0.014147 0.215608 0.389967
O O12 0.147568 0.500000 0.750000
O O13 0.099520 0.389613 0.888680
O O14 0.268180 0.440858 0.866200
O O15 0.120184 0.211757 0.000000
O O16 0.500000 0.793513 0.750000
O O17 0.589607 0.000000 0.750000
O O18 0.610996 0.500000 0.250000
#
# Coordination Sequence:
#
# PCOD8204181 Si02
#       7
#     8   8   8   8   8   8   8
#     4  11  25  45  69  95 126 172 226 275 326 390
#     4  11  22  36  60  93 129 164 212 269 318 382
#     4  11  24  42  67  98 134 174 215 267 332 394
#     4  11  22  37  64  96 132 175 215 259 321 397
#     4  11  25  42  64  98 135 171 215 273 332 389
#     4  10  23  44  66  87 122 170 214 263 325 383
#     4  10  21  36  59  93 130 172 211 251 320 389
#
# _framework density 21.822382000000001
#
# number of rings (size 3 to 8) (size 9 to 14) (size 15 to 20)
#    0.000    1.286    1.429    4.714    4.000    7.429 
#    0.000    5.000    0.000    0.000    0.000    0.000 
#    0.000    0.000    0.000    0.000    0.000    0.000 
#
# Total GULP energy -693751.338611 kJ/mol
# GULP energy per Si atom -12388.416761 kJ/mol
# Density = 2.177271 g / cm^3
# Si number density = 21.822382 Si / 1000 Ang^3
#
#
#
# Elastic Constant Matrix: (Units=GPa)
#
#
# Indices 1 2 3 4 5 6 
#
# 1 134.6535 28.5406 71.9798 0.0000 0.0000 0.0000
# 2 28.5406 64.4191 36.6999 0.0000 0.0000 0.0000
# 3 71.9798 36.6999 136.6795 0.0000 0.0000 0.0000
# 4 0.0000 0.0000 0.0000 6.7676 0.0000 0.0000
# 5 0.0000 0.0000 0.0000 0.0000 -1.5967 0.0000
# 6 0.0000 0.0000 0.0000 0.0000 0.0000 25.1700
#
#
#
# Elastic Compliance Matrix: (Units=1/GPa)
#
#
# Indices 1 2 3 4 5 6 
#
# 1 0.010505 -0.001774 -0.005056 0.000000 0.000000 0.000000
# 2 -0.001774 0.018626 -0.004067 0.000000 0.000000 0.000000
# 3 -0.005056 -0.004067 0.011071 0.000000 0.000000 0.000000
# 4 0.000000 0.000000 0.000000 0.147764 0.000000 0.000000
# 5 0.000000 0.000000 0.000000 0.000000 -0.626298 0.000000
# 6 0.000000 0.000000 0.000000 0.000000 0.000000 0.039730
#
#
# Mechanical properties :
#
#
# Convention : Reuss Voigt Hill
#
# Bulk Modulus (GPa) = 54.32282 67.79920 61.06101
# Shear Modulus (GPa) = -13.48903 19.30364 2.90730
#
# Velocity S-wave (km/s) = -2.48892 2.97742 1.15549
# Velocity P-wave (km/s) = 4.08505 6.55409 5.46094
#
# Compressibility (1/GPa) = 0.01840847
#
# Stress axis : x y z
#
# Youngs Moduli (GPa) = 95.19097 53.68744 90.32463
#
# Poissons Ratio (x) = 0.09523 0.45669
# Poissons Ratio (y) = 0.16885 0.36737
# Poissons Ratio (z) = 0.48129 0.21836
#
# Static dielectric constant tensor:
#      x y z
#    x 4.414850 0.000000 0.000000 
#    y 0.000000 3.724640 0.000000 
#    z 0.000000 0.000000 3.994540 
# 
# 
# High freq. dielectric constant tensor:
#      x y z
#    x 1.878710 0.000000 0.000000 
#    y 0.000000 1.843770 0.000000 
#    z 0.000000 0.000000 1.857840 
# 
# From -- ./inp_files/13565.got.cif
#   From: 2010.03.12/outbox.cif.g09.slc.cpg/sg49_7_cif.got.tgz:13565.got - 2010.04.14 03:58:27.
