data_PCOD8204294
_publ_section_title
;
Structure prediction by ZEFSAII (Michael W. Deem and Ramdas Pophale) SiO2 
 PCOD8204294
Probable space group: P C C M
;
_chemical_formula_sum "Si O2"
_cell_formula_units_Z 34
_cell_length_a 5.980741
_cell_length_b 14.289964
_cell_length_c 18.550601
_cell_angle_alpha 90.000000
_cell_angle_beta 90.000000
_cell_angle_gamma 90.000000
_cell_volume 1585.419204
_symmetry_space_group_name_H-M "P C C M"
_symmetry_group_IT_number 49
_symmetry_cell_setting 'orthorhombic'
loop_
_space_group_symop_operation_xyz
x,y,z
-x,-y,z
x,-y,1/2-z
-x,y,1/2-z
-x,-y,-z
x,y,-z
-x,y,1/2+z
x,-y,1/2+z
loop_
_atom_site_type_symbol
_atom_site_label
_atom_site_fract_x
_atom_site_fract_y
_atom_site_fract_z
Si Si1 0.159304 0.636169 0.185446
Si Si2 0.139339 0.085163 0.419863
Si Si3 0.452800 0.190681 0.672868
Si Si4 0.853321 0.272011 0.581268
Si Si5 0.500000 0.500000 0.250000
O O1 0.255424 0.739247 0.194420
O O2 0.356965 0.559972 0.191592
O O3 0.000000 0.609641 0.250000
O O4 0.005950 0.641749 0.112427
O O5 0.210960 0.053998 0.500000
O O6 0.368192 0.106053 0.377334
O O7 0.992532 0.177502 0.422077
O O8 0.000000 0.000000 0.383352
O O9 0.500000 0.143328 0.750000
O O10 0.643455 0.251991 0.633441
O O11 0.774825 0.299374 0.500000
#
# Coordination Sequence:
#
# PCOD8204294 Si02
#       5
#     8   8   8   8   2
#     4  11  21  39  62  91 122 160 206 256 311 378
#     4   9  20  37  57  83 121 166 210 260 312 369
#     4  11  20  36  61  87 118 165 213 260 311 372
#     4  10  21  38  62  89 122 165 210 257 312 377
#     4  12  22  36  66  98 120 158 206 262 312 386
#
# _framework density 21.445433999999999
#
# number of rings (size 3 to 8) (size 9 to 14) (size 15 to 20)
#    0.000    1.647    3.529    1.059    0.000    1.882 
#    0.000    7.647    0.000    7.059    0.000    0.000 
#    0.000    0.000    0.000    0.000    0.000    0.000 
#
# Total GULP energy -421206.476150 kJ/mol
# GULP energy per Si atom -12388.425769 kJ/mol
# Density = 2.139662 g / cm^3
# Si number density = 21.445434 Si / 1000 Ang^3
#
#
#
# Elastic Constant Matrix: (Units=GPa)
#
#
# Indices 1 2 3 4 5 6 
#
# 1 106.2138 35.8537 63.4472 0.0000 0.0000 0.0000
# 2 35.8537 77.6818 39.6773 0.0000 0.0000 0.0000
# 3 63.4472 39.6773 151.6602 0.0000 0.0000 0.0000
# 4 0.0000 0.0000 0.0000 16.4194 0.0000 0.0000
# 5 0.0000 0.0000 0.0000 0.0000 31.7987 0.0000
# 6 0.0000 0.0000 0.0000 0.0000 0.0000 32.3118
#
#
#
# Elastic Compliance Matrix: (Units=1/GPa)
#
#
# Indices 1 2 3 4 5 6 
#
# 1 0.013484 -0.003858 -0.004632 0.000000 0.000000 0.000000
# 2 -0.003858 0.015962 -0.002562 0.000000 0.000000 0.000000
# 3 -0.004632 -0.002562 0.009202 0.000000 0.000000 0.000000
# 4 0.000000 0.000000 0.000000 0.060904 0.000000 0.000000
# 5 0.000000 0.000000 0.000000 0.000000 0.031448 0.000000
# 6 0.000000 0.000000 0.000000 0.000000 0.000000 0.030948
#
#
# Mechanical properties :
#
#
# Convention : Reuss Voigt Hill
#
# Bulk Modulus (GPa) = 60.44266 68.16802 64.30534
# Shear Modulus (GPa) = 26.37605 29.21116 27.79360
#
# Velocity S-wave (km/s) = 3.51082 3.69469 3.60393
# Velocity P-wave (km/s) = 6.68431 7.07508 6.88247
#
# Compressibility (1/GPa) = 0.01654461
#
# Stress axis : x y z
#
# Youngs Moduli (GPa) = 74.16193 62.64806 108.67536
#
# Poissons Ratio (x) = 0.24168 0.50336
# Poissons Ratio (y) = 0.28609 0.27844
# Poissons Ratio (z) = 0.34350 0.16051
#
# Static dielectric constant tensor:
#      x y z
#    x 4.135510 0.000000 0.000000 
#    y 0.000000 3.684160 0.000000 
#    z 0.000000 0.000000 4.295720 
# 
# 
# High freq. dielectric constant tensor:
#      x y z
#    x 1.850680 0.000000 0.000000 
#    y 0.000000 1.818900 0.000000 
#    z 0.000000 0.000000 1.837280 
# 
# From -- ./inp_files/15151.got.cif
#   From: 2010.03.12/outbox.cif.g09.slc.cpg/sg49_8_cif.got.tgz:15151.got - 2010.04.14 03:58:27.
