data_PCOD8204413
_publ_section_title
;
Structure prediction by ZEFSAII (Michael W. Deem and Ramdas Pophale) SiO2 
 PCOD8204413
Probable space group: P C C M
;
_chemical_formula_sum "Si O2"
_cell_formula_units_Z 32
_cell_length_a 8.736008
_cell_length_b 11.748543
_cell_length_c 17.006529
_cell_angle_alpha 90.000000
_cell_angle_beta 90.000000
_cell_angle_gamma 90.000000
_cell_volume 1745.471322
_symmetry_space_group_name_H-M "P C C M"
_symmetry_group_IT_number 49
_symmetry_cell_setting 'orthorhombic'
loop_
_space_group_symop_operation_xyz
x,y,z
-x,-y,z
x,-y,1/2-z
-x,y,1/2-z
-x,-y,-z
x,y,-z
-x,y,1/2+z
x,-y,1/2+z
loop_
_atom_site_type_symbol
_atom_site_label
_atom_site_fract_x
_atom_site_fract_y
_atom_site_fract_z
Si Si1 0.681677 0.005104 0.085694
Si Si2 0.827971 0.367787 0.733515
Si Si3 0.685768 0.248815 0.408704
Si Si4 0.393479 0.793413 0.178964
O O1 0.717346 0.104237 0.148615
O O2 0.500000 0.000000 0.078941
O O3 0.743627 0.880416 0.110763
O O4 0.750787 0.037039 0.000000
O O5 0.807768 0.500000 0.750000
O O6 0.783725 0.336536 0.643703
O O7 0.715095 0.307124 0.793805
O O8 0.000000 0.327547 0.750000
O O9 0.709947 0.279654 0.500000
O O10 0.504428 0.256582 0.388991
O O11 0.500000 0.839505 0.250000
#
# Coordination Sequence:
#
# PCOD8204413 Si02
#       4
#     8   8   8   8
#     4   8  14  27  48  77 108 130 154 198 256 309
#     4  10  22  39  52  68 101 142 178 212 253 300
#     4   9  18  34  56  80 105 131 164 209 256 302
#     4   9  17  29  52  79 101 131 170 209 250 298
#
# _framework density 18.333158000000001
#
# number of rings (size 3 to 8) (size 9 to 14) (size 15 to 20)
#    0.000    3.000    0.000    2.250    0.000   16.000 
#    0.000   11.250    0.000    3.000    0.000    0.000 
#    0.000    0.000    0.000    0.000    0.000    0.000 
#
# Total GULP energy -396544.069191 kJ/mol
# GULP energy per Si atom -12392.002162 kJ/mol
# Density = 1.829143 g / cm^3
# Si number density = 18.333158 Si / 1000 Ang^3
#
#
#
# Elastic Constant Matrix: (Units=GPa)
#
#
# Indices 1 2 3 4 5 6 
#
# 1 64.0622 43.4970 46.7710 0.0000 0.0000 0.0000
# 2 43.4970 94.6971 69.2159 0.0000 0.0000 0.0000
# 3 46.7710 69.2159 123.6739 0.0000 0.0000 0.0000
# 4 0.0000 0.0000 0.0000 4.7990 0.0000 0.0000
# 5 0.0000 0.0000 0.0000 0.0000 12.1185 0.0000
# 6 0.0000 0.0000 0.0000 0.0000 0.0000 4.3661
#
#
#
# Elastic Compliance Matrix: (Units=1/GPa)
#
#
# Indices 1 2 3 4 5 6 
#
# 1 0.024382 -0.007547 -0.004997 0.000000 0.000000 0.000000
# 2 -0.007547 0.020206 -0.008455 0.000000 0.000000 0.000000
# 3 -0.004997 -0.008455 0.014707 0.000000 0.000000 0.000000
# 4 0.000000 0.000000 0.000000 0.208378 0.000000 0.000000
# 5 0.000000 0.000000 0.000000 0.000000 0.082518 0.000000
# 6 0.000000 0.000000 0.000000 0.000000 0.000000 0.229040
#
#
# Mechanical properties :
#
#
# Convention : Reuss Voigt Hill
#
# Bulk Modulus (GPa) = 57.80852 66.82233 62.31543
# Shear Modulus (GPa) = 7.97454 12.45332 10.21393
#
# Velocity S-wave (km/s) = 2.08788 2.60913 2.36292
# Velocity P-wave (km/s) = 6.11662 6.75313 6.44274
#
# Compressibility (1/GPa) = 0.01729849
#
# Stress axis : x y z
#
# Youngs Moduli (GPa) = 41.01305 49.48997 67.99340
#
# Poissons Ratio (x) = 0.37350 0.33977
# Poissons Ratio (y) = 0.30953 0.57485
# Poissons Ratio (z) = 0.20495 0.41841
#
# Static dielectric constant tensor:
#      x y z
#    x 3.105060 0.000000 0.000000 
#    y 0.000000 3.439630 0.000000 
#    z 0.000000 0.000000 3.622480 
# 
# 
# High freq. dielectric constant tensor:
#      x y z
#    x 1.666650 0.000000 0.000000 
#    y 0.000000 1.704220 0.000000 
#    z 0.000000 0.000000 1.719700 
# 
# From -- ./inp_files/11206.got.cif
#   From: 2010.03.12/outbox.cif.g09.slc.cpg/sg49_6_cif.got.tgz:11206.got - 2010.04.14 03:58:27.
