data_PCOD8204877
_publ_section_title
;
Structure prediction by ZEFSAII (Michael W. Deem and Ramdas Pophale) SiO2 
 PCOD8204877
Probable space group: P B A N
;
_chemical_formula_sum "Si O2"
_cell_formula_units_Z 56
_cell_length_a 24.283070
_cell_length_b 5.053067
_cell_length_c 25.639987
_cell_angle_alpha 90.000000
_cell_angle_beta 90.000000
_cell_angle_gamma 90.000000
_cell_volume 3146.128444
_symmetry_space_group_name_H-M "P B A N"
_symmetry_group_IT_number 50
_space_group.IT_coordinate_system_code '2'
_symmetry_cell_setting 'orthorhombic'
loop_
_space_group_symop_operation_xyz
x,y,z
1/2-x,1/2-y,z
x,1/2-y,-z
1/2-x,y,-z
-x,-y,-z
1/2+x,1/2+y,-z
-x,1/2+y,z
1/2+x,-y,z
loop_
_atom_site_type_symbol
_atom_site_label
_atom_site_fract_x
_atom_site_fract_y
_atom_site_fract_z
Si Si1 0.537511 0.770305 0.833921
Si Si2 0.464405 0.321348 0.053385
Si Si3 0.875238 0.788199 0.560011
Si Si4 0.812773 0.280031 0.280796
Si Si5 0.038265 0.243919 0.646400
Si Si6 0.812551 0.211021 0.403741
Si Si7 0.379305 0.281225 0.741795
O O1 0.488454 0.559552 0.826269
O O2 0.565670 0.739223 0.891552
O O3 0.585097 0.721755 0.792629
O O4 0.481869 0.628020 0.051982
O O5 0.429894 0.250000 0.000000
O O6 0.889643 0.750000 0.500000
O O7 0.932289 0.746996 0.590499
O O8 0.829362 0.584007 0.580184
O O9 0.852121 0.082814 0.567439
O O10 0.750000 0.250000 0.262953
O O11 0.819215 0.245803 0.342400
O O12 0.830814 0.569190 0.262863
O O13 0.851435 0.066980 0.252472
O O14 0.083880 0.239884 0.690699
O O15 0.000103 0.494351 0.653132
O O16 0.750000 0.250000 0.422123
#
# Coordination Sequence:
#
# PCOD8204877 Si02
#       7
#     8   8   8   8   8   8   8
#     4  10  19  31  48  78 111 145 181 213 253 299
#     4   8  14  25  42  65 101 144 180 213 250 293
#     4  12  25  41  59  82 106 132 170 209 250 310
#     4  11  22  38  60  80 103 133 167 209 266 321
#     4  12  24  39  57  76 102 137 172 202 245 294
#     4  11  22  41  62  83 106 129 161 209 268 319
#     4  12  21  37  57  80 106 135 172 215 257 304
#
# _framework density 17.799654
#
# number of rings (size 3 to 8) (size 9 to 14) (size 15 to 20)
#    0.000    1.143    2.857    4.714    0.000    4.571 
#    0.000    0.000    0.000    0.000    0.000    0.000 
#    0.000    3.429    0.000    0.000    0.000    0.000 
#
# Total GULP energy -694449.496829 kJ/mol
# GULP energy per Si atom -12400.883872 kJ/mol
# Density = 1.775914 g / cm^3
# Si number density = 17.799654 Si / 1000 Ang^3
#
#
#
# Elastic Constant Matrix: (Units=GPa)
#
#
# Indices 1 2 3 4 5 6 
#
# 1 77.7416 20.4862 27.0207 0.0000 0.0000 0.0000
# 2 20.4862 83.6092 -2.3260 0.0000 0.0000 0.0000
# 3 27.0207 -2.3260 106.0046 0.0000 0.0000 0.0000
# 4 0.0000 0.0000 0.0000 21.5700 0.0000 0.0000
# 5 0.0000 0.0000 0.0000 0.0000 2.1469 0.0000
# 6 0.0000 0.0000 0.0000 0.0000 0.0000 23.6608
#
#
#
# Elastic Compliance Matrix: (Units=1/GPa)
#
#
# Indices 1 2 3 4 5 6 
#
# 1 0.015259 -0.003849 -0.003974 0.000000 0.000000 0.000000
# 2 -0.003849 0.012939 0.001265 0.000000 0.000000 0.000000
# 3 -0.003974 0.001265 0.010474 0.000000 0.000000 0.000000
# 4 0.000000 0.000000 0.000000 0.046361 0.000000 0.000000
# 5 0.000000 0.000000 0.000000 0.000000 0.465779 0.000000
# 6 0.000000 0.000000 0.000000 0.000000 0.000000 0.042264
#
#
# Mechanical properties :
#
#
# Convention : Reuss Voigt Hill
#
# Bulk Modulus (GPa) = 39.13052 39.74636 39.43844
# Shear Modulus (GPa) = 8.13392 24.28719 16.21055
#
# Velocity S-wave (km/s) = 2.14001 3.69789 3.02109
# Velocity P-wave (km/s) = 5.30450 6.37266 5.86296
#
# Compressibility (1/GPa) = 0.02555550
#
# Stress axis : x y z
#
# Youngs Moduli (GPa) = 65.53643 77.28716 95.47202
#
# Poissons Ratio (x) = 0.29750 0.37940
# Poissons Ratio (y) = 0.25227 -0.12078
# Poissons Ratio (z) = 0.26044 -0.09778
#
# Static dielectric constant tensor:
#      x y z
#    x 3.143150 0.000000 0.000000 
#    y 0.000000 3.452100 0.000000 
#    z 0.000000 0.000000 3.518350 
# 
# 
# High freq. dielectric constant tensor:
#      x y z
#    x 1.655890 0.000000 0.000000 
#    y 0.000000 1.715800 0.000000 
#    z 0.000000 0.000000 1.688270 
# 
# From -- ./inp_files/31867.got.cif
#   From: 2010.03.12/outbox.cif.g09.slc.cpg/sg50_16_cif.got.tgz:31867.got - 2010.04.16 13:23:21.
