data_PCOD8204055
_publ_section_title
;
Structure prediction by ZEFSAII (Michael W. Deem and Ramdas Pophale) SiO2 
 PCOD8204055
Probable space group: P C C M
;
_chemical_formula_sum "Si O2"
_cell_formula_units_Z 40
_cell_length_a 9.010946
_cell_length_b 15.450339
_cell_length_c 13.776329
_cell_angle_alpha 90.000000
_cell_angle_beta 90.000000
_cell_angle_gamma 90.000000
_cell_volume 1917.970424
_symmetry_space_group_name_H-M "P C C M"
_symmetry_group_IT_number 49
_symmetry_cell_setting 'orthorhombic'
loop_
_space_group_symop_operation_xyz
x,y,z
-x,-y,z
x,-y,1/2-z
-x,y,1/2-z
-x,-y,-z
x,y,-z
-x,y,1/2+z
x,-y,1/2+z
loop_
_atom_site_type_symbol
_atom_site_label
_atom_site_fract_x
_atom_site_fract_y
_atom_site_fract_z
Si Si1 0.411974 0.584743 0.108249
Si Si2 0.840552 0.400076 0.255854
Si Si3 0.170677 0.024576 0.612668
Si Si4 0.671391 0.120085 0.274000
Si Si5 0.325872 0.708536 0.607727
O O1 0.500000 0.500000 0.152052
O O2 0.273536 0.619197 0.169459
O O3 0.508971 0.671528 0.106877
O O4 0.359285 0.559438 0.000000
O O5 0.870604 0.500000 0.250000
O O6 0.776125 0.371733 0.359744
O O7 0.000000 0.351848 0.250000
O O8 0.192933 0.048497 0.500000
O O9 0.224291 0.105948 0.678740
O O10 0.276761 0.944816 0.641143
O O11 0.000000 0.000000 0.634891
O O12 0.500000 0.101374 0.250000
O O13 0.693204 0.216433 0.313373
O O14 0.279770 0.740221 0.500000
#
# Coordination Sequence:
#
# PCOD8204055 Si02
#       5
#     8   8   8   8   8
#     4  10  20  38  63  85 115 162 209 253 313 382
#     4  11  23  37  59  90 123 158 202 260 317 378
#     4  10  22  41  66  94 128 171 210 248 310 386
#     4  11  22  38  63  94 127 162 206 264 310 366
#     4  11  24  41  62  90 123 165 212 262 316 375
#
# _framework density 20.855378999999999
#
# number of rings (size 3 to 8) (size 9 to 14) (size 15 to 20)
#    0.000    1.400    2.000    4.800    0.000    4.800 
#    0.000    3.000    0.000    0.000    0.000    0.000 
#    0.000    0.000    0.000    0.000    0.000    0.000 
#
# Total GULP energy -495691.240674 kJ/mol
# GULP energy per Si atom -12392.281017 kJ/mol
# Density = 2.080791 g / cm^3
# Si number density = 20.855379 Si / 1000 Ang^3
#
#
#
# Elastic Constant Matrix: (Units=GPa)
#
#
# Indices 1 2 3 4 5 6 
#
# 1 149.6244 28.7446 79.6112 0.0000 0.0000 0.0000
# 2 28.7446 94.8695 52.9889 0.0000 0.0000 0.0000
# 3 79.6112 52.9889 164.8999 0.0000 0.0000 0.0000
# 4 0.0000 0.0000 0.0000 35.8704 0.0000 0.0000
# 5 0.0000 0.0000 0.0000 0.0000 28.4548 0.0000
# 6 0.0000 0.0000 0.0000 0.0000 0.0000 11.7076
#
#
#
# Elastic Compliance Matrix: (Units=1/GPa)
#
#
# Indices 1 2 3 4 5 6 
#
# 1 0.009004 -0.000366 -0.004229 0.000000 0.000000 0.000000
# 2 -0.000366 0.012861 -0.003956 0.000000 0.000000 0.000000
# 3 -0.004229 -0.003956 0.009378 0.000000 0.000000 0.000000
# 4 0.000000 0.000000 0.000000 0.027878 0.000000 0.000000
# 5 0.000000 0.000000 0.000000 0.000000 0.035143 0.000000
# 6 0.000000 0.000000 0.000000 0.000000 0.000000 0.085414
#
#
# Mechanical properties :
#
#
# Convention : Reuss Voigt Hill
#
# Bulk Modulus (GPa) = 70.72199 81.34257 76.03228
# Shear Modulus (GPa) = 24.81446 31.74318 28.27882
#
# Velocity S-wave (km/s) = 3.45314 3.90559 3.68632
# Velocity P-wave (km/s) = 7.06280 7.70883 7.39288
#
# Compressibility (1/GPa) = 0.01413987
#
# Stress axis : x y z
#
# Youngs Moduli (GPa) = 111.06092 77.75216 106.63800
#
# Poissons Ratio (x) = 0.02844 0.45102
# Poissons Ratio (y) = 0.04063 0.42189
# Poissons Ratio (z) = 0.46973 0.30761
#
# Static dielectric constant tensor:
#      x y z
#    x 4.498190 0.000000 0.000000 
#    y 0.000000 3.630390 0.000000 
#    z 0.000000 0.000000 3.939670 
# 
# 
# High freq. dielectric constant tensor:
#      x y z
#    x 1.820870 0.000000 0.000000 
#    y 0.000000 1.804010 0.000000 
#    z 0.000000 0.000000 1.822970 
# 
# From -- ./inp_files/11582.got.cif
#   From: 2010.03.12/outbox.cif.g09.slc.cpg/sg49_6_cif.got.tgz:11582.got - 2010.04.14 03:58:27.
