data_PCOD8204800
_publ_section_title
;
Structure prediction by ZEFSAII (Michael W. Deem and Ramdas Pophale) SiO2 
 PCOD8204800
Probable space group: P B A N
;
_chemical_formula_sum "Si O2"
_cell_formula_units_Z 48
_cell_length_a 17.878150
_cell_length_b 8.947164
_cell_length_c 15.889794
_cell_angle_alpha 90.000000
_cell_angle_beta 90.000000
_cell_angle_gamma 90.000000
_cell_volume 2541.711428
_symmetry_space_group_name_H-M "P B A N"
_symmetry_group_IT_number 50
_space_group.IT_coordinate_system_code '2'
_symmetry_cell_setting 'orthorhombic'
loop_
_space_group_symop_operation_xyz
x,y,z
1/2-x,1/2-y,z
x,1/2-y,-z
1/2-x,y,-z
-x,-y,-z
1/2+x,1/2+y,-z
-x,1/2+y,z
1/2+x,-y,z
loop_
_atom_site_type_symbol
_atom_site_label
_atom_site_fract_x
_atom_site_fract_y
_atom_site_fract_z
Si Si1 0.455706 0.119684 0.152070
Si Si2 0.079326 0.692883 0.087320
Si Si3 0.430238 0.834603 0.582257
Si Si4 0.412460 0.319482 0.418265
Si Si5 0.166779 0.304008 0.752890
Si Si6 0.605678 0.381597 0.764179
O O1 0.495294 0.238871 0.090522
O O2 0.385298 0.193292 0.195738
O O3 0.518123 0.066740 0.221650
O O4 0.425603 0.984942 0.094165
O O5 0.127378 0.755374 0.167082
O O6 0.116598 0.750000 0.000000
O O7 0.394484 0.750000 0.500000
O O8 0.512005 0.770638 0.600383
O O9 0.383500 0.814257 0.669660
O O10 0.434457 0.009953 0.563563
O O11 0.372669 0.250000 0.500000
O O12 0.353598 0.297286 0.344778
O O13 0.250000 0.250000 0.768567
O O14 0.157829 0.475629 0.781832
#
# Coordination Sequence:
#
# PCOD8204800 Si02
#       6
#     8   8   8   8   8   8
#     4  10  18  34  57  84 113 142 187 239 270 335
#     4  10  19  32  61  88 109 141 191 242 283 323
#     4  10  18  28  51  82 111 143 181 235 275 316
#     4  10  19  31  50  79 109 142 190 232 276 330
#     4  11  22  37  56  82 115 155 186 231 293 339
#     4   9  19  35  55  84 115 141 196 229 273 345
#
# _framework density 18.884913000000001
#
# number of rings (size 3 to 8) (size 9 to 14) (size 15 to 20)
#    1.000    1.000    3.333    2.500    2.333    1.667 
#    0.000    0.833    0.000    5.500    0.000   10.500 
#    0.000    0.000    0.000    0.000    0.000    0.000 
#
# Total GULP energy -594723.703558 kJ/mol
# GULP energy per Si atom -12390.077157 kJ/mol
# Density = 1.884193 g / cm^3
# Si number density = 18.884913 Si / 1000 Ang^3
#
#
#
# Elastic Constant Matrix: (Units=GPa)
#
#
# Indices 1 2 3 4 5 6 
#
# 1 54.5623 22.4383 12.1008 0.0000 0.0000 0.0000
# 2 22.4383 82.6129 35.8199 0.0000 0.0000 0.0000
# 3 12.1008 35.8199 108.0752 0.0000 0.0000 0.0000
# 4 0.0000 0.0000 0.0000 32.8616 0.0000 0.0000
# 5 0.0000 0.0000 0.0000 0.0000 2.0358 0.0000
# 6 0.0000 0.0000 0.0000 0.0000 0.0000 14.1053
#
#
#
# Elastic Compliance Matrix: (Units=1/GPa)
#
#
# Indices 1 2 3 4 5 6 
#
# 1 0.020658 -0.005381 -0.000529 0.000000 0.000000 0.000000
# 2 -0.005381 0.015538 -0.004547 0.000000 0.000000 0.000000
# 3 -0.000529 -0.004547 0.010819 0.000000 0.000000 0.000000
# 4 0.000000 0.000000 0.000000 0.030431 0.000000 0.000000
# 5 0.000000 0.000000 0.000000 0.000000 0.491203 0.000000
# 6 0.000000 0.000000 0.000000 0.000000 0.000000 0.070895
#
#
# Mechanical properties :
#
#
# Convention : Reuss Voigt Hill
#
# Bulk Modulus (GPa) = 38.31548 42.88539 40.60043
# Shear Modulus (GPa) = 7.47205 21.45997 14.46601
#
# Velocity S-wave (km/s) = 1.99128 3.37464 2.77069
# Velocity P-wave (km/s) = 5.06161 6.15974 5.63748
#
# Compressibility (1/GPa) = 0.02609911
#
# Stress axis : x y z
#
# Youngs Moduli (GPa) = 48.40706 64.35880 92.42816
#
# Poissons Ratio (x) = 0.34634 0.04894
# Poissons Ratio (y) = 0.26050 0.42029
# Poissons Ratio (z) = 0.02563 0.29266
#
# Static dielectric constant tensor:
#      x y z
#    x 2.839990 0.000000 0.000000 
#    y 0.000000 3.475990 0.000000 
#    z 0.000000 0.000000 3.647890 
# 
# 
# High freq. dielectric constant tensor:
#      x y z
#    x 1.667180 0.000000 0.000000 
#    y 0.000000 1.744890 0.000000 
#    z 0.000000 0.000000 1.744520 
# 
# From -- ./inp_files/27144.got.cif
#   From: 2010.03.12/outbox.cif.g09.slc.cpg/sg50_14_cif.got.tgz:27144.got - 2010.04.16 13:23:21.
