data_PCOD8204964
_publ_section_title
;
Structure prediction by ZEFSAII (Michael W. Deem and Ramdas Pophale) SiO2 
 PCOD8204964
Probable space group: P B A N
;
_chemical_formula_sum "Si O2"
_cell_formula_units_Z 58
_cell_length_a 12.529103
_cell_length_b 26.562113
_cell_length_c 8.947057
_cell_angle_alpha 90.000000
_cell_angle_beta 90.000000
_cell_angle_gamma 90.000000
_cell_volume 2977.575646
_symmetry_space_group_name_H-M "P B A N"
_symmetry_group_IT_number 50
_space_group.IT_coordinate_system_code '2'
_symmetry_cell_setting 'orthorhombic'
loop_
_space_group_symop_operation_xyz
x,y,z
1/2-x,1/2-y,z
x,1/2-y,-z
1/2-x,y,-z
-x,-y,-z
1/2+x,1/2+y,-z
-x,1/2+y,z
1/2+x,-y,z
loop_
_atom_site_type_symbol
_atom_site_label
_atom_site_fract_x
_atom_site_fract_y
_atom_site_fract_z
Si Si1 0.317876 0.129252 0.725776
Si Si2 0.127023 0.847375 0.035838
Si Si3 0.933150 0.290306 0.312461
Si Si4 0.088980 0.123819 0.594035
Si Si5 0.018680 0.942417 0.174174
Si Si6 0.750000 0.250000 0.500000
Si Si7 0.538757 0.789290 0.136715
Si Si8 0.353275 0.468027 0.080106
O O1 0.196168 0.139881 0.680255
O O2 0.389398 0.115516 0.580888
O O3 0.356794 0.178627 0.816461
O O4 0.319150 0.081092 0.830847
O O5 0.108692 0.802173 0.148749
O O6 0.093652 0.898985 0.111612
O O7 0.250000 0.851742 0.000000
O O8 0.052607 0.831321 0.896832
O O9 0.826056 0.285918 0.406280
O O10 0.006447 0.331121 0.390653
O O11 0.001197 0.239270 0.288043
O O12 0.036846 0.073631 0.669022
O O13 0.930874 0.952749 0.051587
O O14 0.092442 0.991949 0.193894
O O15 0.565332 0.750000 0.000000
O O16 0.250000 0.492501 0.000000
#
# Coordination Sequence:
#
# PCOD8204964 Si02
#       8
#     8   8   8   8   8   2   8   8
#     4  11  22  40  63  86 119 167 196 251 310 365
#     4  10  19  35  56  84 118 148 195 251 299 345
#     4  10  22  36  56  83 117 158 199 249 292 363
#     4  10  23  41  60  87 126 155 204 251 306 362
#     4  10  21  38  59  91 118 149 197 253 293 365
#     4  12  20  36  58  78 116 168 200 234 312 370
#     4  10  21  37  59  89 118 157 208 253 302 358
#     4  11  21  37  65  89 115 156 202 243 307 363
#
# _framework density 19.478933000000001
#
# number of rings (size 3 to 8) (size 9 to 14) (size 15 to 20)
#    0.000    1.655    2.759    2.069    0.000    3.034 
#    0.000    4.828    0.000    1.655    0.000    0.000 
#    0.000    0.000    0.000    0.000    0.000    0.000 
#
# Total GULP energy -718973.493029 kJ/mol
# GULP energy per Si atom -12396.094707 kJ/mol
# Density = 1.943460 g / cm^3
# Si number density = 19.478933 Si / 1000 Ang^3
#
#
#
# Elastic Constant Matrix: (Units=GPa)
#
#
# Indices 1 2 3 4 5 6 
#
# 1 122.1297 38.3924 39.9417 0.0000 0.0000 0.0000
# 2 38.3924 81.6552 36.3056 0.0000 0.0000 0.0000
# 3 39.9417 36.3056 63.0164 0.0000 0.0000 0.0000
# 4 0.0000 0.0000 0.0000 21.2863 0.0000 0.0000
# 5 0.0000 0.0000 0.0000 0.0000 33.9297 0.0000
# 6 0.0000 0.0000 0.0000 0.0000 0.0000 24.7796
#
#
#
# Elastic Compliance Matrix: (Units=1/GPa)
#
#
# Indices 1 2 3 4 5 6 
#
# 1 0.010762 -0.002725 -0.005251 0.000000 0.000000 0.000000
# 2 -0.002725 0.017154 -0.008156 0.000000 0.000000 0.000000
# 3 -0.005251 -0.008156 0.023896 0.000000 0.000000 0.000000
# 4 0.000000 0.000000 0.000000 0.046979 0.000000 0.000000
# 5 0.000000 0.000000 0.000000 0.000000 0.029473 0.000000
# 6 0.000000 0.000000 0.000000 0.000000 0.000000 0.040356
#
#
# Mechanical properties :
#
#
# Convention : Reuss Voigt Hill
#
# Bulk Modulus (GPa) = 51.15632 55.12006 53.13819
# Shear Modulus (GPa) = 24.10805 26.14323 25.12564
#
# Velocity S-wave (km/s) = 3.52184 3.66748 3.59540
# Velocity P-wave (km/s) = 6.54654 6.80387 6.67644
#
# Compressibility (1/GPa) = 0.01954793
#
# Stress axis : x y z
#
# Youngs Moduli (GPa) = 92.91853 58.29491 41.84801
#
# Poissons Ratio (x) = 0.15887 0.21975
# Poissons Ratio (y) = 0.25323 0.34130
# Poissons Ratio (z) = 0.48794 0.47543
#
# Static dielectric constant tensor:
#      x y z
#    x 3.685530 0.000000 0.000000 
#    y 0.000000 3.562550 0.000000 
#    z 0.000000 0.000000 3.684420 
# 
# 
# High freq. dielectric constant tensor:
#      x y z
#    x 1.770620 0.000000 0.000000 
#    y 0.000000 1.756380 0.000000 
#    z 0.000000 0.000000 1.754080 
# 
# From -- ./inp_files/11755.got.cif
#   From: 2010.03.12/outbox.cif.g09.slc.cpg/sg50_6_cif.got.tgz:11755.got - 2010.04.16 13:23:21.
