data_PCOD8204142
_publ_section_title
;
Structure prediction by ZEFSAII (Michael W. Deem and Ramdas Pophale) SiO2 
 PCOD8204142
Probable space group: P C C M
;
_chemical_formula_sum "Si O2"
_cell_formula_units_Z 64
_cell_length_a 8.826745
_cell_length_b 24.327900
_cell_length_c 15.800700
_cell_angle_alpha 90.000000
_cell_angle_beta 90.000000
_cell_angle_gamma 90.000000
_cell_volume 3392.981796
_symmetry_space_group_name_H-M "P C C M"
_symmetry_group_IT_number 49
_symmetry_cell_setting 'orthorhombic'
loop_
_space_group_symop_operation_xyz
x,y,z
-x,-y,z
x,-y,1/2-z
-x,y,1/2-z
-x,-y,-z
x,y,-z
-x,y,1/2+z
x,-y,1/2+z
loop_
_atom_site_type_symbol
_atom_site_label
_atom_site_fract_x
_atom_site_fract_y
_atom_site_fract_z
Si Si1 0.612247 0.608472 0.671970
Si Si2 0.822240 0.889352 0.096383
Si Si3 0.678897 0.497614 0.907368
Si Si4 0.331489 0.998834 0.899999
Si Si5 0.820547 0.813813 0.248565
Si Si6 0.181172 0.113370 0.596467
Si Si7 0.178925 0.311083 0.760612
Si Si8 0.688219 0.618750 0.095273
O O1 0.500000 0.596899 0.750000
O O2 0.714246 0.554067 0.653359
O O3 0.732338 0.656784 0.686965
O O4 0.495793 0.625551 0.597410
O O5 0.760021 0.947602 0.129531
O O6 0.761167 0.844333 0.163551
O O7 0.001915 0.892324 0.097650
O O8 0.766349 0.875530 0.000000
O O9 0.500000 0.500000 0.917187
O O10 0.734693 0.556987 0.872203
O O11 0.752106 0.487337 0.000000
O O12 0.500000 0.000000 0.860703
O O13 0.247547 0.943986 0.869444
O O14 0.339262 0.998315 0.000000
O O15 0.760988 0.840778 0.336526
O O16 0.763305 0.751396 0.244024
O O17 0.000000 0.815890 0.250000
O O18 0.235563 0.127744 0.500000
O O19 0.224143 0.336082 0.850772
O O20 0.000000 0.316267 0.750000
O O21 0.742567 0.627456 0.000000
#
# Coordination Sequence:
#
# PCOD8204142 Si02
#       8
#     8   8   8   8   8   8   8   8
#     4   9  17  30  51  75  99 131 171 211 253 302
#     4   9  17  31  53  75  93 123 166 205 240 284
#     4   8  14  27  49  75  99 125 165 213 253 297
#     4   9  17  30  48  74 106 130 150 188 248 308
#     4   9  19  35  52  71  96 129 174 214 241 286
#     4   9  17  32  53  72  93 125 165 206 242 283
#     4  10  21  36  51  73 106 139 171 212 262 310
#     4   9  18  34  55  77 101 132 171 213 257 306
#
# _framework density 18.862463999999999
#
# number of rings (size 3 to 8) (size 9 to 14) (size 15 to 20)
#    0.000    3.000    0.000    1.500    0.000    8.250 
#    0.000   12.500    0.000    3.000    0.000    0.000 
#    0.000    0.000    0.000    0.000    0.000    0.000 
#
# Total GULP energy -793011.226662 kJ/mol
# GULP energy per Si atom -12390.800417 kJ/mol
# Density = 1.881953 g / cm^3
# Si number density = 18.862464 Si / 1000 Ang^3
#
#
#
# Elastic Constant Matrix: (Units=GPa)
#
#
# Indices 1 2 3 4 5 6 
#
# 1 41.3303 41.3579 23.6603 0.0000 0.0000 0.0000
# 2 41.3579 188.6895 81.3486 0.0000 0.0000 0.0000
# 3 23.6603 81.3486 95.3806 0.0000 0.0000 0.0000
# 4 0.0000 0.0000 0.0000 196.9602 0.0000 0.0000
# 5 0.0000 0.0000 0.0000 0.0000 13.3934 0.0000
# 6 0.0000 0.0000 0.0000 0.0000 0.0000 14.7759
#
#
#
# Elastic Compliance Matrix: (Units=1/GPa)
#
#
# Indices 1 2 3 4 5 6 
#
# 1 0.031544 -0.005599 -0.003049 0.000000 0.000000 0.000000
# 2 -0.005599 0.009376 -0.006607 0.000000 0.000000 0.000000
# 3 -0.003049 -0.006607 0.016876 0.000000 0.000000 0.000000
# 4 0.000000 0.000000 0.000000 0.005077 0.000000 0.000000
# 5 0.000000 0.000000 0.000000 0.000000 0.074664 0.000000
# 6 0.000000 0.000000 0.000000 0.000000 0.000000 0.067678
#
#
# Mechanical properties :
#
#
# Convention : Reuss Voigt Hill
#
# Bulk Modulus (GPa) = 36.65188 68.68155 52.66671
# Shear Modulus (GPa) = 20.42312 56.96148 38.69230
#
# Velocity S-wave (km/s) = 3.29407 5.50126 4.53403
# Velocity P-wave (km/s) = 5.82590 8.76599 7.44257
#
# Compressibility (1/GPa) = 0.02728373
#
# Stress axis : x y z
#
# Youngs Moduli (GPa) = 31.70175 106.66031 59.25594
#
# Poissons Ratio (x) = 0.59723 0.18069
# Poissons Ratio (y) = 0.17751 0.39152
# Poissons Ratio (z) = 0.09667 0.70473
#
# Static dielectric constant tensor:
#      x y z
#    x 3.195480 0.000000 0.000000 
#    y 0.000000 3.709780 0.000000 
#    z 0.000000 0.000000 3.686070 
# 
# 
# High freq. dielectric constant tensor:
#      x y z
#    x 1.694380 0.000000 0.000000 
#    y 0.000000 1.732770 0.000000 
#    z 0.000000 0.000000 1.731960 
# 
# From -- ./inp_files/12106.got.cif
#   From: 2010.03.12/outbox.cif.g09.slc.cpg/sg49_7_cif.got.tgz:12106.got - 2010.04.14 03:58:27.
