data_PCOD8204641
_publ_section_title
;
Structure prediction by ZEFSAII (Michael W. Deem and Ramdas Pophale) SiO2 
 PCOD8204641
Probable space group: P C C M
;
_chemical_formula_sum "Si O2"
_cell_formula_units_Z 40
_cell_length_a 9.710355
_cell_length_b 10.695569
_cell_length_c 16.882793
_cell_angle_alpha 90.000000
_cell_angle_beta 90.000000
_cell_angle_gamma 90.000000
_cell_volume 1753.409265
_symmetry_space_group_name_H-M "P C C M"
_symmetry_group_IT_number 49
_symmetry_cell_setting 'orthorhombic'
loop_
_space_group_symop_operation_xyz
x,y,z
-x,-y,z
x,-y,1/2-z
-x,y,1/2-z
-x,-y,-z
x,y,-z
-x,y,1/2+z
x,-y,1/2+z
loop_
_atom_site_type_symbol
_atom_site_label
_atom_site_fract_x
_atom_site_fract_y
_atom_site_fract_z
Si Si1 0.339730 0.978024 0.336956
Si Si2 0.718629 0.760497 0.367046
Si Si3 0.407265 0.280297 0.908689
Si Si4 0.002472 0.647216 0.085402
Si Si5 0.784355 0.632160 0.790605
O O1 0.323840 0.844219 0.379167
O O2 0.500000 0.000000 0.330279
O O3 0.274113 0.000000 0.250000
O O4 0.271707 0.091300 0.387373
O O5 0.570090 0.714182 0.396514
O O6 0.840096 0.691356 0.412106
O O7 0.731696 0.733129 0.273062
O O8 0.337301 0.389747 0.855624
O O9 0.372902 0.302530 0.000000
O O10 0.000000 0.500000 0.087887
O O11 0.915766 0.691612 0.162182
O O12 0.941716 0.693021 0.000000
O O13 0.821940 0.500000 0.750000
#
# Coordination Sequence:
#
# PCOD8204641 Si02
#       5
#     8   8   8   8   8
#     4   9  18  37  65  98 132 170 222 274 337 410
#     4  11  22  40  71  97 130 176 234 278 342 419
#     4  11  24  42  68 102 138 173 221 291 354 404
#     4  11  24  43  64  93 132 175 229 285 340 402
#     4  12  24  43  65  94 133 186 230 278 338 416
#
# _framework density 22.8127
#
# number of rings (size 3 to 8) (size 9 to 14) (size 15 to 20)
#    0.000    1.200    4.000    2.400    0.000    6.000 
#    0.000    2.000    0.000    2.400    0.000    0.000 
#    0.000    0.000    0.000    0.000    0.000    0.000 
#
# Total GULP energy -495552.611361 kJ/mol
# GULP energy per Si atom -12388.815284 kJ/mol
# Density = 2.276078 g / cm^3
# Si number density = 22.812700 Si / 1000 Ang^3
#
#
#
# Elastic Constant Matrix: (Units=GPa)
#
#
# Indices 1 2 3 4 5 6 
#
# 1 109.5857 41.8878 36.9705 0.0000 0.0000 0.0000
# 2 41.8878 71.7586 23.7796 0.0000 0.0000 0.0000
# 3 36.9705 23.7796 168.5436 0.0000 0.0000 0.0000
# 4 0.0000 0.0000 0.0000 13.6063 0.0000 0.0000
# 5 0.0000 0.0000 0.0000 0.0000 164.6790 0.0000
# 6 0.0000 0.0000 0.0000 0.0000 0.0000 34.2248
#
#
#
# Elastic Compliance Matrix: (Units=1/GPa)
#
#
# Indices 1 2 3 4 5 6 
#
# 1 0.012223 -0.006553 -0.001757 0.000000 0.000000 0.000000
# 2 -0.006553 0.018132 -0.001121 0.000000 0.000000 0.000000
# 3 -0.001757 -0.001121 0.006477 0.000000 0.000000 0.000000
# 4 0.000000 0.000000 0.000000 0.073495 0.000000 0.000000
# 5 0.000000 0.000000 0.000000 0.000000 0.006072 0.000000
# 6 0.000000 0.000000 0.000000 0.000000 0.000000 0.029219
#
#
# Mechanical properties :
#
#
# Convention : Reuss Voigt Hill
#
# Bulk Modulus (GPa) = 55.64488 61.68485 58.66487
# Shear Modulus (GPa) = 29.33105 58.98536 44.15821
#
# Velocity S-wave (km/s) = 3.58960 5.09043 4.40442
# Velocity P-wave (km/s) = 6.45177 7.85165 7.18588
#
# Compressibility (1/GPa) = 0.01797111
#
# Stress axis : x y z
#
# Youngs Moduli (GPa) = 81.81613 55.15112 154.40126
#
# Poissons Ratio (x) = 0.36138 0.27121
# Poissons Ratio (y) = 0.53611 0.17307
# Poissons Ratio (z) = 0.14371 0.06182
#
# Static dielectric constant tensor:
#      x y z
#    x 4.274970 0.000000 0.000000 
#    y 0.000000 4.334080 0.000000 
#    z 0.000000 0.000000 4.536710 
# 
# 
# High freq. dielectric constant tensor:
#      x y z
#    x 1.888380 0.000000 0.000000 
#    y 0.000000 1.882440 0.000000 
#    z 0.000000 0.000000 1.915060 
# 
# From -- ./inp_files/15956.got.cif
#   From: 2010.03.12/outbox.cif.g09.slc.cpg/sg49_8_cif.got.tgz:15956.got - 2010.04.14 03:58:27.
