data_PCOD8204056
_publ_section_title
;
Structure prediction by ZEFSAII (Michael W. Deem and Ramdas Pophale) SiO2 
 PCOD8204056
Probable space group: P C C M
;
_chemical_formula_sum "Si O2"
_cell_formula_units_Z 64
_cell_length_a 12.229487
_cell_length_b 14.582171
_cell_length_c 17.555125
_cell_angle_alpha 90.000000
_cell_angle_beta 90.000000
_cell_angle_gamma 90.000000
_cell_volume 3130.648814
_symmetry_space_group_name_H-M "P C C M"
_symmetry_group_IT_number 49
_symmetry_cell_setting 'orthorhombic'
loop_
_space_group_symop_operation_xyz
x,y,z
-x,-y,z
x,-y,1/2-z
-x,y,1/2-z
-x,-y,-z
x,y,-z
-x,y,1/2+z
x,-y,1/2+z
loop_
_atom_site_type_symbol
_atom_site_label
_atom_site_fract_x
_atom_site_fract_y
_atom_site_fract_z
Si Si1 0.820761 0.503061 0.162812
Si Si2 0.604767 0.553794 0.910368
Si Si3 0.355942 0.759390 0.410830
Si Si4 0.190996 0.115400 0.172759
Si Si5 0.015853 0.837769 0.913256
Si Si6 0.455494 0.097394 0.411205
Si Si7 0.771154 0.090325 0.844939
Si Si8 0.998704 0.647658 0.662158
O O1 0.783090 0.500000 0.250000
O O2 0.713592 0.498049 0.110896
O O3 0.895791 0.416429 0.144816
O O4 0.888420 0.595206 0.144673
O O5 0.500000 0.500000 0.875261
O O6 0.614211 0.658206 0.879327
O O7 0.591631 0.557588 0.000000
O O8 0.326825 0.757684 0.500000
O O9 0.250990 0.799008 0.366790
O O10 0.457750 0.824242 0.393274
O O11 0.192906 0.129686 0.263259
O O12 0.066454 0.110265 0.143624
O O13 0.246036 0.019081 0.152037
O O14 0.137094 0.878153 0.904242
O O15 0.013196 0.730500 0.895499
O O16 0.978499 0.853683 0.000000
O O17 0.428106 0.088448 0.500000
O O18 0.346360 0.130238 0.368013
O O19 0.500000 0.000000 0.380085
O O20 0.000000 0.680749 0.750000
#
# Coordination Sequence:
#
# PCOD8204056 Si02
#       8
#     8   8   8   8   8   8   8   8
#     4   9  19  37  62  87 114 151 194 242 298 363
#     4  10  22  39  58  84 121 159 199 251 305 356
#     4  10  21  39  64  90 118 161 208 250 305 366
#     4  11  23  40  60  86 118 158 200 249 303 364
#     4  12  25  38  58  87 121 159 202 246 297 366
#     4  10  20  38  63  88 119 155 200 254 299 353
#     4  11  24  40  59  88 121 157 196 250 307 358
#     4   9  19  38  61  87 118 152 190 242 305 361
#
# _framework density 20.443047
#
# number of rings (size 3 to 8) (size 9 to 14) (size 15 to 20)
#    0.000    1.750    1.250    3.750    0.000    7.750 
#    0.000    3.750    0.000    0.000    0.000    0.000 
#    0.000    0.000    0.000    0.000    0.000    0.000 
#
# Total GULP energy -793825.306619 kJ/mol
# GULP energy per Si atom -12403.520416 kJ/mol
# Density = 2.039652 g / cm^3
# Si number density = 20.443047 Si / 1000 Ang^3
#
#
#
# Elastic Constant Matrix: (Units=GPa)
#
#
# Indices 1 2 3 4 5 6 
#
# 1 128.0686 28.1482 30.9412 0.0000 0.0000 0.0000
# 2 28.1482 88.7041 21.8254 0.0000 0.0000 0.0000
# 3 30.9412 21.8254 62.5064 0.0000 0.0000 0.0000
# 4 0.0000 0.0000 0.0000 24.0585 0.0000 0.0000
# 5 0.0000 0.0000 0.0000 0.0000 33.3371 0.0000
# 6 0.0000 0.0000 0.0000 0.0000 0.0000 25.3943
#
#
#
# Elastic Compliance Matrix: (Units=1/GPa)
#
#
# Indices 1 2 3 4 5 6 
#
# 1 0.009171 -0.001962 -0.003855 0.000000 0.000000 0.000000
# 2 -0.001962 0.012753 -0.003482 0.000000 0.000000 0.000000
# 3 -0.003855 -0.003482 0.019122 0.000000 0.000000 0.000000
# 4 0.000000 0.000000 0.000000 0.041565 0.000000 0.000000
# 5 0.000000 0.000000 0.000000 0.000000 0.029997 0.000000
# 6 0.000000 0.000000 0.000000 0.000000 0.000000 0.039379
#
#
# Mechanical properties :
#
#
# Convention : Reuss Voigt Hill
#
# Bulk Modulus (GPa) = 44.54478 49.01207 46.77842
# Shear Modulus (GPa) = 28.07952 29.78227 28.93089
#
# Velocity S-wave (km/s) = 3.71016 3.82100 3.76599
# Velocity P-wave (km/s) = 6.33962 6.59498 6.46856
#
# Compressibility (1/GPa) = 0.02244932
#
# Stress axis : x y z
#
# Youngs Moduli (GPa) = 109.04228 78.41530 52.29531
#
# Poissons Ratio (x) = 0.15383 0.20158
# Poissons Ratio (y) = 0.21391 0.18208
# Poissons Ratio (z) = 0.42032 0.27302
#
# Static dielectric constant tensor:
#      x y z
#    x 3.668230 0.000000 0.000000 
#    y 0.000000 3.749520 0.000000 
#    z 0.000000 0.000000 3.505170 
# 
# 
# High freq. dielectric constant tensor:
#      x y z
#    x 1.808140 0.000000 0.000000 
#    y 0.000000 1.801220 0.000000 
#    z 0.000000 0.000000 1.784990 
# 
# From -- ./inp_files/17335.got.cif
#   From: 2010.03.12/outbox.cif.g09.slc.cpg/sg49_9_cif.got.tgz:17335.got - 2010.04.14 03:58:27.
