data_PCOD8204518
_publ_section_title
;
Structure prediction by ZEFSAII (Michael W. Deem and Ramdas Pophale) SiO2 
 PCOD8204518
Probable space group: P C C M
;
_chemical_formula_sum "Si O2"
_cell_formula_units_Z 56
_cell_length_a 9.497384
_cell_length_b 15.516919
_cell_length_c 18.727608
_cell_angle_alpha 90.000000
_cell_angle_beta 90.000000
_cell_angle_gamma 90.000000
_cell_volume 2759.890180
_symmetry_space_group_name_H-M "P C C M"
_symmetry_group_IT_number 49
_symmetry_cell_setting 'orthorhombic'
loop_
_space_group_symop_operation_xyz
x,y,z
-x,-y,z
x,-y,1/2-z
-x,y,1/2-z
-x,-y,-z
x,y,-z
-x,y,1/2+z
x,-y,1/2+z
loop_
_atom_site_type_symbol
_atom_site_label
_atom_site_fract_x
_atom_site_fract_y
_atom_site_fract_z
Si Si1 0.638386 0.546578 0.676830
Si Si2 0.660897 0.006930 0.334496
Si Si3 0.893923 0.577289 0.421643
Si Si4 0.805596 0.145940 0.081991
Si Si5 0.687418 0.197252 0.673166
Si Si6 0.938462 0.741766 0.083123
Si Si7 0.376192 0.254376 0.326670
O O1 0.500000 0.500000 0.644400
O O2 0.681419 0.500000 0.750000
O O3 0.765707 0.539862 0.623051
O O4 0.606589 0.646094 0.691923
O O5 0.721227 0.100766 0.353499
O O6 0.500000 0.000000 0.362175
O O7 0.664670 0.000000 0.250000
O O8 0.760922 0.936049 0.370994
O O9 0.837432 0.603295 0.500000
O O10 0.970191 0.660794 0.387822
O O11 0.000000 0.500000 0.427571
O O12 0.970419 0.170172 0.091930
O O13 0.720432 0.232147 0.105492
O O14 0.771177 0.125268 0.000000
O O15 0.528351 0.218887 0.652139
O O16 0.696141 0.206781 0.758952
O O17 0.799077 0.256885 0.631864
O O18 0.896341 0.727846 0.000000
#
# Coordination Sequence:
#
# PCOD8204518 Si02
#       7
#     8   8   8   8   8   8   8
#     4  11  24  41  65  98 133 163 215 274 329 378
#     4  11  20  40  64  94 130 167 220 275 327 381
#     4  10  23  43  64  89 128 171 213 263 323 391
#     4  11  23  42  64  93 132 172 214 269 326 387
#     4  11  22  39  68  90 126 167 217 265 327 381
#     4  10  24  44  63  91 132 172 212 265 330 398
#     4  11  22  42  65  94 128 170 214 269 317 386
#
# _framework density 20.290661
#
# number of rings (size 3 to 8) (size 9 to 14) (size 15 to 20)
#    0.000    1.286    4.286    2.571    4.000    3.143 
#    0.000    2.143    0.000    0.000    0.000    0.000 
#    0.000    0.000    0.000    0.000    0.000    0.000 
#
# Total GULP energy -694238.987061 kJ/mol
# GULP energy per Si atom -12397.124769 kJ/mol
# Density = 2.024448 g / cm^3
# Si number density = 20.290661 Si / 1000 Ang^3
#
#
#
# Elastic Constant Matrix: (Units=GPa)
#
#
# Indices 1 2 3 4 5 6 
#
# 1 113.9289 33.9661 70.6628 0.0000 0.0000 0.0000
# 2 33.9661 135.4070 35.7115 0.0000 0.0000 0.0000
# 3 70.6628 35.7115 87.0292 0.0000 0.0000 0.0000
# 4 0.0000 0.0000 0.0000 34.6104 0.0000 0.0000
# 5 0.0000 0.0000 0.0000 0.0000 69.8977 0.0000
# 6 0.0000 0.0000 0.0000 0.0000 0.0000 29.1640
#
#
#
# Elastic Compliance Matrix: (Units=1/GPa)
#
#
# Indices 1 2 3 4 5 6 
#
# 1 0.017746 -0.000730 -0.014109 0.000000 0.000000 0.000000
# 2 -0.000730 0.008311 -0.002817 0.000000 0.000000 0.000000
# 3 -0.014109 -0.002817 0.024102 0.000000 0.000000 0.000000
# 4 0.000000 0.000000 0.000000 0.028893 0.000000 0.000000
# 5 0.000000 0.000000 0.000000 0.000000 0.014307 0.000000
# 6 0.000000 0.000000 0.000000 0.000000 0.000000 0.034289
#
#
# Mechanical properties :
#
#
# Convention : Reuss Voigt Hill
#
# Bulk Modulus (GPa) = 67.35878 68.56066 67.95972
# Shear Modulus (GPa) = 29.77764 39.80274 34.79019
#
# Velocity S-wave (km/s) = 3.83502 4.43383 4.14525
# Velocity P-wave (km/s) = 7.27179 7.75077 7.51510
#
# Compressibility (1/GPa) = 0.01484587
#
# Stress axis : x y z
#
# Youngs Moduli (GPa) = 56.35007 120.31637 41.48970
#
# Poissons Ratio (x) = 0.08789 0.58539
# Poissons Ratio (y) = 0.04116 0.11689
# Poissons Ratio (z) = 0.79505 0.33898
#
# Static dielectric constant tensor:
#      x y z
#    x 3.552410 0.000000 0.000000 
#    y 0.000000 3.990360 0.000000 
#    z 0.000000 0.000000 3.653620 
# 
# 
# High freq. dielectric constant tensor:
#      x y z
#    x 1.789330 0.000000 0.000000 
#    y 0.000000 1.810120 0.000000 
#    z 0.000000 0.000000 1.780220 
# 
# From -- ./inp_files/19876.got.cif
#   From: 2010.03.12/outbox.cif.g09.slc.cpg/sg49_10_cif.got.tgz:19876.got - 2010.04.14 03:58:27.
