data_PCOD8204110
_publ_section_title
;
Structure prediction by ZEFSAII (Michael W. Deem and Ramdas Pophale) SiO2 
 PCOD8204110
Probable space group: P C C M
;
_chemical_formula_sum "Si O2"
_cell_formula_units_Z 48
_cell_length_a 17.367893
_cell_length_b 14.066761
_cell_length_c 9.578065
_cell_angle_alpha 90.000000
_cell_angle_beta 90.000000
_cell_angle_gamma 90.000000
_cell_volume 2340.017059
_symmetry_space_group_name_H-M "P C C M"
_symmetry_group_IT_number 49
_symmetry_cell_setting 'orthorhombic'
loop_
_space_group_symop_operation_xyz
x,y,z
-x,-y,z
x,-y,1/2-z
-x,y,1/2-z
-x,-y,-z
x,y,-z
-x,y,1/2+z
x,-y,1/2+z
loop_
_atom_site_type_symbol
_atom_site_label
_atom_site_fract_x
_atom_site_fract_y
_atom_site_fract_z
Si Si1 0.301862 0.630115 0.000000
Si Si2 0.925014 0.752678 0.834479
Si Si3 0.422703 0.797751 0.000000
Si Si4 0.203561 0.393954 0.236946
Si Si5 0.603628 0.776210 0.000000
Si Si6 0.831523 0.097045 0.834850
Si Si7 0.663453 0.112817 0.762709
Si Si8 0.321766 0.584414 0.500000
O O1 0.241224 0.646720 0.876487
O O2 0.344507 0.527010 0.000000
O O3 0.373989 0.700554 0.000000
O O4 0.864230 0.668694 0.824506
O O5 0.895004 0.842930 0.747744
O O6 0.000000 0.718293 0.750000
O O7 0.940295 0.775416 0.000000
O O8 0.513140 0.785999 0.000000
O O9 0.404037 0.859825 0.133674
O O10 0.169142 0.500000 0.250000
O O11 0.274716 0.393450 0.135829
O O12 0.647502 0.827894 0.124847
O O13 0.609682 0.661171 0.000000
O O14 0.747016 0.144523 0.822071
O O15 0.829363 0.000000 0.750000
O O16 0.852543 0.084618 0.000000
O O17 0.660039 0.000000 0.750000
#
# Coordination Sequence:
#
# PCOD8204110 Si02
#       8
#     4   8   4   8   4   8   8   4
#     4  10  22  38  68  90 127 161 219 280 326 392
#     4  12  26  43  66  99 138 173 211 261 326 386
#     4  12  23  41  58  96 125 173 212 269 340 397
#     4  10  22  41  66  93 124 166 219 267 321 387
#     4  12  25  37  64  88 133 171 216 267 334 407
#     4  11  24  44  71  98 128 170 223 272 321 380
#     4  11  25  41  63  91 126 169 222 272 323 386
#     4  10  20  42  62  96 119 167 217 274 330 388
#
# _framework density 20.512671000000001
#
# number of rings (size 3 to 8) (size 9 to 14) (size 15 to 20)
#    0.000    1.000    1.667    5.000    7.000    3.000 
#    0.000    2.500    0.000    5.000    0.000    0.000 
#    0.000    0.000    0.000    0.000    0.000    0.000 
#
# Total GULP energy -594909.323043 kJ/mol
# GULP energy per Si atom -12393.944230 kJ/mol
# Density = 2.046598 g / cm^3
# Si number density = 20.512671 Si / 1000 Ang^3
#
#
#
# Elastic Constant Matrix: (Units=GPa)
#
#
# Indices 1 2 3 4 5 6 
#
# 1 35.0383 22.5542 15.3421 0.0000 0.0000 0.0000
# 2 22.5542 88.8368 28.4092 0.0000 0.0000 0.0000
# 3 15.3421 28.4092 164.6080 0.0000 0.0000 0.0000
# 4 0.0000 0.0000 0.0000 26.8393 0.0000 0.0000
# 5 0.0000 0.0000 0.0000 0.0000 -242.0434 0.0000
# 6 0.0000 0.0000 0.0000 0.0000 0.0000 10.4016
#
#
#
# Elastic Compliance Matrix: (Units=1/GPa)
#
#
# Indices 1 2 3 4 5 6 
#
# 1 0.034617 -0.008210 -0.001810 0.000000 0.000000 0.000000
# 2 -0.008210 0.013861 -0.001627 0.000000 0.000000 0.000000
# 3 -0.001810 -0.001627 0.006525 0.000000 0.000000 0.000000
# 4 0.000000 0.000000 0.000000 0.037259 0.000000 0.000000
# 5 0.000000 0.000000 0.000000 0.000000 -0.004131 0.000000
# 6 0.000000 0.000000 0.000000 0.000000 0.000000 0.096139
#
#
# Mechanical properties :
#
#
# Convention : Reuss Voigt Hill
#
# Bulk Modulus (GPa) = 31.53598 46.78823 39.16211
# Shear Modulus (GPa) = 22.92184 -26.14866 -1.61341
#
# Velocity S-wave (km/s) = 3.34645 -3.57425 -0.88783
# Velocity P-wave (km/s) = 5.50808 2.41356 4.25231
#
# Compressibility (1/GPa) = 0.03170981
#
# Stress axis : x y z
#
# Youngs Moduli (GPa) = 28.88722 72.14311 153.26837
#
# Poissons Ratio (x) = 0.59230 0.27734
# Poissons Ratio (y) = 0.23717 0.24938
# Poissons Ratio (z) = 0.05227 0.11738
#
# Static dielectric constant tensor:
#      x y z
#    x 3.673540 0.000000 0.000000 
#    y 0.000000 4.107270 0.000000 
#    z 0.000000 0.000000 3.941050 
# 
# 
# High freq. dielectric constant tensor:
#      x y z
#    x 1.790940 0.000000 0.000000 
#    y 0.000000 1.815910 0.000000 
#    z 0.000000 0.000000 1.826450 
# 
# From -- ./inp_files/4919.got.cif
#   From: 2010.03.12/outbox.cif.g09.slc.cpg/sg49_3_cif.got.tgz:4919.got - 2010.04.14 03:58:27.
