data_PCOD8204441
_publ_section_title
;
Structure prediction by ZEFSAII (Michael W. Deem and Ramdas Pophale) SiO2 
 PCOD8204441
Probable space group: P C C M
;
_chemical_formula_sum "Si O2"
_cell_formula_units_Z 64
_cell_length_a 9.190224
_cell_length_b 16.910222
_cell_length_c 20.843611
_cell_angle_alpha 90.000000
_cell_angle_beta 90.000000
_cell_angle_gamma 90.000000
_cell_volume 3239.279074
_symmetry_space_group_name_H-M "P C C M"
_symmetry_group_IT_number 49
_symmetry_cell_setting 'orthorhombic'
loop_
_space_group_symop_operation_xyz
x,y,z
-x,-y,z
x,-y,1/2-z
-x,y,1/2-z
-x,-y,-z
x,y,-z
-x,y,1/2+z
x,-y,1/2+z
loop_
_atom_site_type_symbol
_atom_site_label
_atom_site_fract_x
_atom_site_fract_y
_atom_site_fract_z
Si Si1 0.004310 0.263538 0.428401
Si Si2 0.461293 0.716788 0.683389
Si Si3 0.270147 0.196364 0.648635
Si Si4 0.642134 0.457952 0.682933
Si Si5 0.170338 0.911457 0.738582
Si Si6 0.878776 0.433622 0.426741
Si Si7 0.534117 0.915914 0.428169
Si Si8 0.740985 0.170528 0.614050
O O1 0.071198 0.267343 0.500000
O O2 0.949185 0.349987 0.407074
O O3 0.872004 0.201183 0.429881
O O4 0.122513 0.233320 0.378142
O O5 0.500000 0.760574 0.750000
O O6 0.612177 0.731680 0.644840
O O7 0.414451 0.628618 0.699244
O O8 0.321806 0.753577 0.650280
O O9 0.243530 0.156910 0.718022
O O10 0.330712 0.124965 0.606133
O O11 0.500000 0.500000 0.654318
O O12 0.696012 0.500000 0.750000
O O13 0.760387 0.458113 0.626418
O O14 0.202185 0.893596 0.664523
O O15 0.000000 0.909683 0.750000
O O16 0.232482 0.000000 0.750000
O O17 0.813760 0.428564 0.500000
O O18 0.000000 0.500000 0.424483
O O19 0.588090 0.930457 0.500000
O O20 0.386555 0.865106 0.429171
O O21 0.500000 0.000000 0.394514
#
# Coordination Sequence:
#
# PCOD8204441 Si02
#       8
#     8   8   8   8   8   8   8   8
#     4  11  23  41  64  89 122 162 208 255 302 364
#     4  11  21  38  58  92 122 155 194 248 303 362
#     4  11  23  38  62  90 121 158 204 253 307 363
#     4  11  23  39  64  93 129 159 200 255 310 369
#     4  11  22  36  57  89 123 156 199 256 312 365
#     4  10  24  45  64  90 126 165 207 254 306 372
#     4  10  22  40  60  86 122 162 206 253 303 365
#     4  11  21  39  63  85 120 160 203 250 308 358
#
# _framework density 19.757483000000001
#
# number of rings (size 3 to 8) (size 9 to 14) (size 15 to 20)
#    0.000    1.250    5.000    1.500    1.750    0.500 
#    0.000    3.750    0.000    3.000    0.000    0.000 
#    0.000    0.000    0.000    0.000    0.000    0.000 
#
# Total GULP energy -793158.578998 kJ/mol
# GULP energy per Si atom -12393.102797 kJ/mol
# Density = 1.971251 g / cm^3
# Si number density = 19.757483 Si / 1000 Ang^3
#
#
#
# Elastic Constant Matrix: (Units=GPa)
#
#
# Indices 1 2 3 4 5 6 
#
# 1 86.5051 29.4373 31.9156 0.0000 0.0000 0.0000
# 2 29.4373 111.0900 32.3474 0.0000 0.0000 0.0000
# 3 31.9156 32.3474 91.1041 0.0000 0.0000 0.0000
# 4 0.0000 0.0000 0.0000 75.8014 0.0000 0.0000
# 5 0.0000 0.0000 0.0000 0.0000 13.1346 0.0000
# 6 0.0000 0.0000 0.0000 0.0000 0.0000 25.2726
#
#
#
# Elastic Compliance Matrix: (Units=1/GPa)
#
#
# Indices 1 2 3 4 5 6 
#
# 1 0.013882 -0.002523 -0.003967 0.000000 0.000000 0.000000
# 2 -0.002523 0.010498 -0.002844 0.000000 0.000000 0.000000
# 3 -0.003967 -0.002844 0.013376 0.000000 0.000000 0.000000
# 4 0.000000 0.000000 0.000000 0.013192 0.000000 0.000000
# 5 0.000000 0.000000 0.000000 0.000000 0.076135 0.000000
# 6 0.000000 0.000000 0.000000 0.000000 0.000000 0.039569
#
#
# Mechanical properties :
#
#
# Convention : Reuss Voigt Hill
#
# Bulk Modulus (GPa) = 52.38858 52.89997 52.64427
# Shear Modulus (GPa) = 26.08460 35.84164 30.96312
#
# Velocity S-wave (km/s) = 3.63745 4.26382 3.96303
# Velocity P-wave (km/s) = 6.64942 7.14654 6.90246
#
# Compressibility (1/GPa) = 0.01908813
#
# Stress axis : x y z
#
# Youngs Moduli (GPa) = 72.03337 95.25285 74.76126
#
# Poissons Ratio (x) = 0.24037 0.29660
# Poissons Ratio (y) = 0.18177 0.21259
# Poissons Ratio (z) = 0.28578 0.27085
#
# Static dielectric constant tensor:
#      x y z
#    x 3.663670 0.000000 0.000000 
#    y 0.000000 3.757070 0.000000 
#    z 0.000000 0.000000 3.603150 
# 
# 
# High freq. dielectric constant tensor:
#      x y z
#    x 1.769030 0.000000 0.000000 
#    y 0.000000 1.780920 0.000000 
#    z 0.000000 0.000000 1.769760 
# 
# From -- ./inp_files/20012.got.cif
#   From: 2010.03.12/outbox.cif.g09.slc.cpg/sg49_11_cif.got.tgz:20012.got - 2010.04.14 03:58:27.
