data_PCOD8204270
_publ_section_title
;
Structure prediction by ZEFSAII (Michael W. Deem and Ramdas Pophale) SiO2 
 PCOD8204270
Probable space group: P C C M
;
_chemical_formula_sum "Si O2"
_cell_formula_units_Z 64
_cell_length_a 23.202984
_cell_length_b 9.128697
_cell_length_c 14.409793
_cell_angle_alpha 90.000000
_cell_angle_beta 90.000000
_cell_angle_gamma 90.000000
_cell_volume 3052.181635
_symmetry_space_group_name_H-M "P C C M"
_symmetry_group_IT_number 49
_symmetry_cell_setting 'orthorhombic'
loop_
_space_group_symop_operation_xyz
x,y,z
-x,-y,z
x,-y,1/2-z
-x,y,1/2-z
-x,-y,-z
x,y,-z
-x,y,1/2+z
x,-y,1/2+z
loop_
_atom_site_type_symbol
_atom_site_label
_atom_site_fract_x
_atom_site_fract_y
_atom_site_fract_z
Si Si1 0.892337 0.333838 0.777233
Si Si2 0.350941 0.275777 0.108628
Si Si3 0.949919 0.893009 0.394419
Si Si4 0.658348 0.611756 0.393567
Si Si5 0.563980 0.672991 0.747987
Si Si6 0.219744 0.243854 0.390279
Si Si7 0.251829 0.069633 0.895310
Si Si8 0.872177 0.846275 0.898275
O O1 0.905615 0.500000 0.750000
O O2 0.942695 0.260229 0.839851
O O3 0.831136 0.317425 0.830027
O O4 0.899083 0.253029 0.679675
O O5 0.335248 0.442235 0.135125
O O6 0.410668 0.247753 0.160781
O O7 0.303288 0.163625 0.150230
O O8 0.359383 0.253270 0.000000
O O9 0.964715 0.852042 0.500000
O O10 0.889621 0.982393 0.384551
O O11 0.000000 0.000000 0.354304
O O12 0.639890 0.629813 0.500000
O O13 0.608604 0.701355 0.337533
O O14 0.722201 0.667410 0.374453
O O15 0.556898 0.500000 0.750000
O O16 0.500000 0.743288 0.750000
O O17 0.201717 0.238864 0.500000
O O18 0.235166 0.083810 0.346785
O O19 0.196257 0.173340 0.894307
O O20 0.270473 0.029729 0.000000
O O21 0.895011 0.795242 0.000000
#
# Coordination Sequence:
#
# PCOD8204270 Si02
#       8
#     8   8   8   8   8   8   8   8
#     4  12  26  38  62 101 135 168 206 266 325 375
#     4   9  18  32  53  80 107 144 195 251 302 358
#     4  10  22  46  75  96 125 172 221 264 307 365
#     4   9  19  33  51  78 113 152 192 245 312 378
#     4   9  18  32  51  76 109 147 192 250 308 375
#     4  10  21  38  59  86 126 166 204 253 315 381
#     4   9  18  34  56  81 115 154 199 248 296 357
#     4  10  22  40  60  90 126 168 214 253 302 371
#
# _framework density 20.968608
#
# number of rings (size 3 to 8) (size 9 to 14) (size 15 to 20)
#    0.000    2.250    1.250    0.750    3.500    3.000 
#    0.000    3.750    0.000    3.750    0.000    3.500 
#    0.000    0.000    0.000    0.000    0.000    0.000 
#
# Total GULP energy -792954.232282 kJ/mol
# GULP energy per Si atom -12389.909879 kJ/mol
# Density = 2.092088 g / cm^3
# Si number density = 20.968608 Si / 1000 Ang^3
#
#
#
# Elastic Constant Matrix: (Units=GPa)
#
#
# Indices 1 2 3 4 5 6 
#
# 1 124.7455 45.7591 38.3250 0.0000 0.0000 0.0000
# 2 45.7591 104.3850 51.6990 0.0000 0.0000 0.0000
# 3 38.3250 51.6990 81.6007 0.0000 0.0000 0.0000
# 4 0.0000 0.0000 0.0000 20.9307 0.0000 0.0000
# 5 0.0000 0.0000 0.0000 0.0000 28.9745 0.0000
# 6 0.0000 0.0000 0.0000 0.0000 0.0000 14.4636
#
#
#
# Elastic Compliance Matrix: (Units=1/GPa)
#
#
# Indices 1 2 3 4 5 6 
#
# 1 0.009970 -0.002989 -0.002788 0.000000 0.000000 0.000000
# 2 -0.002989 0.014857 -0.008009 0.000000 0.000000 0.000000
# 3 -0.002788 -0.008009 0.018638 0.000000 0.000000 0.000000
# 4 0.000000 0.000000 0.000000 0.047777 0.000000 0.000000
# 5 0.000000 0.000000 0.000000 0.000000 0.034513 0.000000
# 6 0.000000 0.000000 0.000000 0.000000 0.000000 0.069139
#
#
# Mechanical properties :
#
#
# Convention : Reuss Voigt Hill
#
# Bulk Modulus (GPa) = 62.92524 64.69971 63.81247
# Shear Modulus (GPa) = 21.95253 24.53695 23.24474
#
# Velocity S-wave (km/s) = 3.23913 3.42449 3.33310
# Velocity P-wave (km/s) = 6.63805 6.82339 6.73136
#
# Compressibility (1/GPa) = 0.01589187
#
# Stress axis : x y z
#
# Youngs Moduli (GPa) = 100.30554 67.30911 53.65252
#
# Poissons Ratio (x) = 0.20121 0.14961
# Poissons Ratio (y) = 0.29984 0.42969
# Poissons Ratio (z) = 0.27970 0.53906
#
# Static dielectric constant tensor:
#      x y z
#    x 3.929780 0.000000 0.000000 
#    y 0.000000 3.622450 0.000000 
#    z 0.000000 0.000000 3.894960 
# 
# 
# High freq. dielectric constant tensor:
#      x y z
#    x 1.819530 0.000000 0.000000 
#    y 0.000000 1.790760 0.000000 
#    z 0.000000 0.000000 1.826940 
# 
# From -- ./inp_files/14524.got.cif
#   From: 2010.03.12/outbox.cif.g09.slc.cpg/sg49_8_cif.got.tgz:14524.got - 2010.04.14 03:58:27.
