data_PCOD8204267
_publ_section_title
;
Structure prediction by ZEFSAII (Michael W. Deem and Ramdas Pophale) SiO2 
 PCOD8204267
Probable space group: P C C M
;
_chemical_formula_sum "Si O2"
_cell_formula_units_Z 64
_cell_length_a 27.490231
_cell_length_b 6.676363
_cell_length_c 18.506120
_cell_angle_alpha 90.000000
_cell_angle_beta 90.000000
_cell_angle_gamma 90.000000
_cell_volume 3396.516313
_symmetry_space_group_name_H-M "P C C M"
_symmetry_group_IT_number 49
_symmetry_cell_setting 'orthorhombic'
loop_
_space_group_symop_operation_xyz
x,y,z
-x,-y,z
x,-y,1/2-z
-x,y,1/2-z
-x,-y,-z
x,y,-z
-x,y,1/2+z
x,-y,1/2+z
loop_
_atom_site_type_symbol
_atom_site_label
_atom_site_fract_x
_atom_site_fract_y
_atom_site_fract_z
Si Si1 0.444160 0.053452 0.169081
Si Si2 0.891560 0.416224 0.329539
Si Si3 0.698552 0.079296 0.669664
Si Si4 0.618740 0.411361 0.670420
Si Si5 0.047857 0.885586 0.418107
Si Si6 0.808232 0.908860 0.171727
Si Si7 0.632092 0.195086 0.914827
Si Si8 0.866208 0.801409 0.419626
O O1 0.431815 0.288870 0.158094
O O2 0.500000 0.000000 0.157355
O O3 0.426556 0.000000 0.250000
O O4 0.414586 0.928175 0.110924
O O5 0.904515 0.500000 0.250000
O O6 0.937345 0.291968 0.362480
O O7 0.842862 0.283589 0.331444
O O8 0.881431 0.601878 0.379940
O O9 0.664480 0.268535 0.658824
O O10 0.753183 0.152836 0.652571
O O11 0.694232 0.000000 0.750000
O O12 0.681697 0.898979 0.617291
O O13 0.618831 0.500000 0.750000
O O14 0.624086 0.578445 0.609902
O O15 0.039846 0.800207 0.500000
O O16 0.089034 0.049914 0.419274
O O17 0.000000 0.000000 0.389344
O O18 0.813268 0.000000 0.250000
O O19 0.821319 0.085726 0.116741
O O20 0.635706 0.188204 0.000000
O O21 0.850353 0.741601 0.500000
#
# Coordination Sequence:
#
# PCOD8204267 Si02
#       8
#     8   8   8   8   8   8   8   8
#     4  10  21  39  62  87 115 155 200 243 290 351
#     4  11  21  36  60  88 120 153 196 252 303 353
#     4  10  21  38  63  86 113 154 198 238 290 356
#     4  11  19  37  61  87 115 153 200 240 286 350
#     4   9  20  39  61  83 115 160 203 243 294 358
#     4  10  21  38  60  87 116 154 194 239 296 355
#     4  11  23  39  58  87 122 153 191 247 300 346
#     4  10  21  38  59  84 117 155 195 246 297 351
#
# _framework density 18.842835999999998
#
# number of rings (size 3 to 8) (size 9 to 14) (size 15 to 20)
#    0.000    1.750    3.750    1.125    0.000    5.750 
#    0.000    4.375    0.000    0.000    0.000    0.000 
#    0.000    0.000    0.000    0.000    0.000    0.000 
#
# Total GULP energy -793529.057285 kJ/mol
# GULP energy per Si atom -12398.891520 kJ/mol
# Density = 1.879995 g / cm^3
# Si number density = 18.842836 Si / 1000 Ang^3
#
#
#
# Elastic Constant Matrix: (Units=GPa)
#
#
# Indices 1 2 3 4 5 6 
#
# 1 90.4039 34.6552 52.1444 0.0000 0.0000 0.0000
# 2 34.6552 120.0771 65.7746 0.0000 0.0000 0.0000
# 3 52.1444 65.7746 154.1229 0.0000 0.0000 0.0000
# 4 0.0000 0.0000 0.0000 32.5119 0.0000 0.0000
# 5 0.0000 0.0000 0.0000 0.0000 22.0359 0.0000
# 6 0.0000 0.0000 0.0000 0.0000 0.0000 189.0815
#
#
#
# Elastic Compliance Matrix: (Units=1/GPa)
#
#
# Indices 1 2 3 4 5 6 
#
# 1 0.014067 -0.001896 -0.003950 0.000000 0.000000 0.000000
# 2 -0.001896 0.011124 -0.004106 0.000000 0.000000 0.000000
# 3 -0.003950 -0.004106 0.009577 0.000000 0.000000 0.000000
# 4 0.000000 0.000000 0.000000 0.030758 0.000000 0.000000
# 5 0.000000 0.000000 0.000000 0.000000 0.045380 0.000000
# 6 0.000000 0.000000 0.000000 0.000000 0.000000 0.005289
#
#
# Mechanical properties :
#
#
# Convention : Reuss Voigt Hill
#
# Bulk Modulus (GPa) = 67.27711 74.41692 70.84701
# Shear Modulus (GPa) = 35.44744 62.86119 49.15432
#
# Velocity S-wave (km/s) = 4.34200 5.78215 5.11303
# Velocity P-wave (km/s) = 7.80507 9.17370 8.51692
#
# Compressibility (1/GPa) = 0.01486390
#
# Stress axis : x y z
#
# Youngs Moduli (GPa) = 71.09026 89.89293 104.41642
#
# Poissons Ratio (x) = 0.17044 0.41244
# Poissons Ratio (y) = 0.13479 0.42873
# Poissons Ratio (z) = 0.28081 0.36910
#
# Static dielectric constant tensor:
#      x y z
#    x 3.570860 0.000000 0.000000 
#    y 0.000000 3.591460 0.000000 
#    z 0.000000 0.000000 3.617510 
# 
# 
# High freq. dielectric constant tensor:
#      x y z
#    x 1.730970 0.000000 0.000000 
#    y 0.000000 1.741240 0.000000 
#    z 0.000000 0.000000 1.732310 
# 
# From -- ./inp_files/18441.got.cif
#   From: 2010.03.12/outbox.cif.g09.slc.cpg/sg49_10_cif.got.tgz:18441.got - 2010.04.14 03:58:27.
