data_PCOD8204540
_publ_section_title
;
Structure prediction by ZEFSAII (Michael W. Deem and Ramdas Pophale) SiO2 
 PCOD8204540
Probable space group: P C C M
;
_chemical_formula_sum "Si O2"
_cell_formula_units_Z 32
_cell_length_a 5.444326
_cell_length_b 18.163445
_cell_length_c 13.953887
_cell_angle_alpha 90.000000
_cell_angle_beta 90.000000
_cell_angle_gamma 90.000000
_cell_volume 1379.868013
_symmetry_space_group_name_H-M "P C C M"
_symmetry_group_IT_number 49
_symmetry_cell_setting 'orthorhombic'
loop_
_space_group_symop_operation_xyz
x,y,z
-x,-y,z
x,-y,1/2-z
-x,y,1/2-z
-x,-y,-z
x,y,-z
-x,y,1/2+z
x,-y,1/2+z
loop_
_atom_site_type_symbol
_atom_site_label
_atom_site_fract_x
_atom_site_fract_y
_atom_site_fract_z
Si Si1 0.659248 0.428183 0.102025
Si Si2 0.712776 0.702167 0.109080
Si Si3 0.000000 0.390657 0.250000
Si Si4 0.248161 0.046452 0.000000
Si Si5 0.260852 0.140058 0.807679
O O1 0.500000 0.500000 0.091497
O O2 0.520542 0.350884 0.116230
O O3 0.804481 0.443668 0.199903
O O4 0.807482 0.422400 0.000000
O O5 0.665460 0.776870 0.166116
O O6 0.933191 0.660077 0.159970
O O7 0.786877 0.719687 0.000000
O O8 0.236138 0.095119 0.095023
O O9 0.500000 0.000000 0.000000
O O10 0.000000 0.000000 0.000000
O O11 0.500000 0.109003 0.750000
O O12 0.000000 0.134604 0.750000
#
# Coordination Sequence:
#
# PCOD8204540 Si02
#       5
#     8   8   4   4   8
#     4  10  24  44  65  96 140 186 239 302 372 438
#     4  11  24  43  66 101 141 187 240 301 364 431
#     4  12  22  41  68 100 129 182 246 296 365 426
#     4  12  28  52  78 118 157 197 239 303 374 450
#     4  12  26  48  78 113 151 200 252 305 367 447
#
# _framework density 23.190624
#
# number of rings (size 3 to 8) (size 9 to 14) (size 15 to 20)
#    0.000    0.750    2.500    4.500    0.000    7.000 
#    0.000    3.750    0.000    2.250    0.000    0.000 
#    0.000    0.000    0.000    0.000    0.000    0.000 
#
# Total GULP energy -396424.752168 kJ/mol
# GULP energy per Si atom -12388.273505 kJ/mol
# Density = 2.313784 g / cm^3
# Si number density = 23.190624 Si / 1000 Ang^3
#
#
#
# Elastic Constant Matrix: (Units=GPa)
#
#
# Indices 1 2 3 4 5 6 
#
# 1 138.6049 44.2702 87.6777 0.0000 0.0000 0.0000
# 2 44.2702 107.6932 68.5066 0.0000 0.0000 0.0000
# 3 87.6777 68.5066 206.7634 0.0000 0.0000 0.0000
# 4 0.0000 0.0000 0.0000 18.8888 0.0000 0.0000
# 5 0.0000 0.0000 0.0000 0.0000 53.5492 0.0000
# 6 0.0000 0.0000 0.0000 0.0000 0.0000 24.6579
#
#
#
# Elastic Compliance Matrix: (Units=1/GPa)
#
#
# Indices 1 2 3 4 5 6 
#
# 1 0.010132 -0.001814 -0.003695 0.000000 0.000000 0.000000
# 2 -0.001814 0.012090 -0.003237 0.000000 0.000000 0.000000
# 3 -0.003695 -0.003237 0.007476 0.000000 0.000000 0.000000
# 4 0.000000 0.000000 0.000000 0.052941 0.000000 0.000000
# 5 0.000000 0.000000 0.000000 0.000000 0.018674 0.000000
# 6 0.000000 0.000000 0.000000 0.000000 0.000000 0.040555
#
#
# Mechanical properties :
#
#
# Convention : Reuss Voigt Hill
#
# Bulk Modulus (GPa) = 81.92876 94.88561 88.40719
# Shear Modulus (GPa) = 30.59431 36.25964 33.42698
#
# Velocity S-wave (km/s) = 3.63609 3.95846 3.80070
# Velocity P-wave (km/s) = 7.28240 7.86746 7.58057
#
# Compressibility (1/GPa) = 0.01220573
#
# Stress axis : x y z
#
# Youngs Moduli (GPa) = 98.69984 82.71103 133.76589
#
# Poissons Ratio (x) = 0.15006 0.49429
# Poissons Ratio (y) = 0.17907 0.43293
# Poissons Ratio (z) = 0.36472 0.26770
#
# Static dielectric constant tensor:
#      x y z
#    x 3.974130 0.000000 0.000000 
#    y 0.000000 4.206450 0.000000 
#    z 0.000000 0.000000 5.618860 
# 
# 
# High freq. dielectric constant tensor:
#      x y z
#    x 1.905950 0.000000 0.000000 
#    y 0.000000 1.922950 0.000000 
#    z 0.000000 0.000000 1.959040 
# 
# From -- ./inp_files/10624.got.cif
#   From: 2010.03.12/outbox.cif.g09.slc.cpg/sg49_6_cif.got.tgz:10624.got - 2010.04.14 03:58:27.
