data_PCOD8204496
_publ_section_title
;
Structure prediction by ZEFSAII (Michael W. Deem and Ramdas Pophale) SiO2 
 PCOD8204496
Probable space group: P C C M
;
_chemical_formula_sum "Si O2"
_cell_formula_units_Z 44
_cell_length_a 16.028126
_cell_length_b 14.587839
_cell_length_c 10.182405
_cell_angle_alpha 90.000000
_cell_angle_beta 90.000000
_cell_angle_gamma 90.000000
_cell_volume 2380.806372
_symmetry_space_group_name_H-M "P C C M"
_symmetry_group_IT_number 49
_symmetry_cell_setting 'orthorhombic'
loop_
_space_group_symop_operation_xyz
x,y,z
-x,-y,z
x,-y,1/2-z
-x,y,1/2-z
-x,-y,-z
x,y,-z
-x,y,1/2+z
x,-y,1/2+z
loop_
_atom_site_type_symbol
_atom_site_label
_atom_site_fract_x
_atom_site_fract_y
_atom_site_fract_z
Si Si1 0.608120 0.403417 0.500000
Si Si2 0.085186 0.879020 0.000000
Si Si3 0.159866 0.205217 0.237882
Si Si4 0.109582 0.092435 0.000000
Si Si5 0.934191 0.380875 0.644055
Si Si6 0.308265 0.663085 0.234145
Si Si7 0.584014 0.620252 0.500000
Si Si8 0.197969 0.500000 0.750000
O O1 0.655595 0.363749 0.374928
O O2 0.608415 0.513279 0.500000
O O3 0.514592 0.365968 0.500000
O O4 0.123191 0.829856 0.873919
O O5 0.985274 0.870583 0.000000
O O6 0.113004 0.983650 0.000000
O O7 0.098552 0.281931 0.183042
O O8 0.253852 0.243873 0.256979
O O9 0.159295 0.124929 0.129663
O O10 0.976025 0.376702 0.500000
O O11 0.858227 0.452824 0.637740
O O12 0.000000 0.416216 0.750000
O O13 0.381909 0.673195 0.128403
O O14 0.252008 0.579067 0.180619
#
# Coordination Sequence:
#
# PCOD8204496 Si02
#       8
#     4   4   8   4   8   8   4   4
#     4  11  21  36  58  82 112 152 193 228 276 337
#     4  11  23  38  60  85 113 147 192 236 290 347
#     4  11  23  37  57  83 112 148 184 239 287 339
#     4  11  21  40  62  81 113 149 190 238 290 347
#     4  11  24  39  54  74 106 150 200 246 282 324
#     4  11  22  37  56  80 116 147 187 230 279 336
#     4  11  21  36  58  82 112 150 193 234 272 335
#     4  10  23  34  53  74 106 150 194 232 273 324
#
# _framework density 18.481134999999998
#
# number of rings (size 3 to 8) (size 9 to 14) (size 15 to 20)
#    0.000    1.091    2.727    4.091    6.364    4.364 
#    0.000    0.000    0.000    0.000    0.000    0.000 
#    0.000   50.909    0.000    0.000    0.000    0.000 
#
# Total GULP energy -545602.214446 kJ/mol
# GULP energy per Si atom -12400.050328 kJ/mol
# Density = 1.843907 g / cm^3
# Si number density = 18.481135 Si / 1000 Ang^3
#
#
#
# Elastic Constant Matrix: (Units=GPa)
#
#
# Indices 1 2 3 4 5 6 
#
# 1 102.7227 41.9610 52.5239 0.0000 0.0000 0.0000
# 2 41.9610 84.0376 43.4792 0.0000 0.0000 0.0000
# 3 52.5239 43.4792 165.1235 0.0000 0.0000 0.0000
# 4 0.0000 0.0000 0.0000 42.0412 0.0000 0.0000
# 5 0.0000 0.0000 0.0000 0.0000 11.8962 0.0000
# 6 0.0000 0.0000 0.0000 0.0000 0.0000 27.8798
#
#
#
# Elastic Compliance Matrix: (Units=1/GPa)
#
#
# Indices 1 2 3 4 5 6 
#
# 1 0.013313 -0.005159 -0.002876 0.000000 0.000000 0.000000
# 2 -0.005159 0.015776 -0.002513 0.000000 0.000000 0.000000
# 3 -0.002876 -0.002513 0.007633 0.000000 0.000000 0.000000
# 4 0.000000 0.000000 0.000000 0.023786 0.000000 0.000000
# 5 0.000000 0.000000 0.000000 0.000000 0.084061 0.000000
# 6 0.000000 0.000000 0.000000 0.000000 0.000000 0.035868
#
#
# Mechanical properties :
#
#
# Convention : Reuss Voigt Hill
#
# Bulk Modulus (GPa) = 64.00141 69.75689 66.87915
# Shear Modulus (GPa) = 24.18481 30.62475 27.40478
#
# Velocity S-wave (km/s) = 3.62141 4.07514 3.85496
# Velocity P-wave (km/s) = 7.22440 7.74398 7.48870
#
# Compressibility (1/GPa) = 0.01562466
#
# Stress axis : x y z
#
# Youngs Moduli (GPa) = 75.11382 63.38898 131.01641
#
# Poissons Ratio (x) = 0.32704 0.37683
# Poissons Ratio (y) = 0.38753 0.32922
# Poissons Ratio (z) = 0.21605 0.15928
#
# Static dielectric constant tensor:
#      x y z
#    x 3.491310 0.000000 0.000000 
#    y 0.000000 3.328280 0.000000 
#    z 0.000000 0.000000 2.399150 
# 
# 
# High freq. dielectric constant tensor:
#      x y z
#    x 1.707510 0.000000 0.000000 
#    y 0.000000 1.697630 0.000000 
#    z 0.000000 0.000000 1.732290 
# 
# From -- ./inp_files/4862.got.cif
#   From: 2010.03.12/outbox.cif.g09.slc.cpg/sg49_3_cif.got.tgz:4862.got - 2010.04.14 03:58:27.
