data_PCOD8204635
_publ_section_title
;
Structure prediction by ZEFSAII (Michael W. Deem and Ramdas Pophale) SiO2 
 PCOD8204635
Probable space group: P C C M
;
_chemical_formula_sum "Si O2"
_cell_formula_units_Z 48
_cell_length_a 9.108112
_cell_length_b 30.124524
_cell_length_c 8.356578
_cell_angle_alpha 90.000000
_cell_angle_beta 90.000000
_cell_angle_gamma 90.000000
_cell_volume 2292.857302
_symmetry_space_group_name_H-M "P C C M"
_symmetry_group_IT_number 49
_symmetry_cell_setting 'orthorhombic'
loop_
_space_group_symop_operation_xyz
x,y,z
-x,-y,z
x,-y,1/2-z
-x,y,1/2-z
-x,-y,-z
x,y,-z
-x,y,1/2+z
x,-y,1/2+z
loop_
_atom_site_type_symbol
_atom_site_label
_atom_site_fract_x
_atom_site_fract_y
_atom_site_fract_z
Si Si1 0.657161 0.451884 0.186108
Si Si2 0.836479 0.789071 0.812876
Si Si3 0.661613 0.707498 0.313830
Si Si4 0.840598 0.950754 0.190371
Si Si5 0.336627 0.870834 0.188611
Si Si6 0.840533 0.373279 0.314183
O O1 0.701872 0.500000 0.250000
O O2 0.500000 0.435141 0.250000
O O3 0.784356 0.417623 0.229251
O O4 0.640765 0.455899 0.000000
O O5 0.751217 0.752237 0.712548
O O6 0.766186 0.836799 0.782635
O O7 0.000000 0.790287 0.750000
O O8 0.831579 0.777280 0.000000
O O9 0.500000 0.716149 0.250000
O O10 0.659844 0.695071 0.500000
O O11 0.731650 0.667173 0.216947
O O12 0.716704 0.920065 0.268325
O O13 0.000000 0.934760 0.250000
O O14 0.806727 0.000000 0.250000
O O15 0.833921 0.948461 0.000000
O O16 0.500000 0.863956 0.250000
O O17 0.327885 0.862209 0.000000
O O18 0.849415 0.383256 0.500000
O O19 0.000000 0.360091 0.250000
#
# Coordination Sequence:
#
# PCOD8204635 Si02
#       6
#     8   8   8   8   8   8
#     4  11  22  40  64  93 125 164 208 257 310 369
#     4  12  25  44  67  95 127 165 207 255 308 367
#     4  12  25  44  67  95 127 165 207 255 308 367
#     4  11  22  40  64  93 125 164 208 257 310 369
#     4  12  25  43  64  92 126 165 208 257 310 369
#     4  12  25  43  64  92 126 165 208 257 310 369
#
# _framework density 20.934577000000001
#
# number of rings (size 3 to 8) (size 9 to 14) (size 15 to 20)
#    0.000    0.333    0.000   12.000    0.000    0.667 
#    0.000    3.333    0.000    0.000    0.000    0.000 
#    0.000    0.000    0.000    0.000    0.000    0.000 
#
# Total GULP energy -595639.788199 kJ/mol
# GULP energy per Si atom -12409.162254 kJ/mol
# Density = 2.088693 g / cm^3
# Si number density = 20.934577 Si / 1000 Ang^3
#
#
#
# Elastic Constant Matrix: (Units=GPa)
#
#
# Indices 1 2 3 4 5 6 
#
# 1 143.9298 52.2735 25.5317 0.0000 0.0000 0.0000
# 2 52.2735 98.4207 15.2511 0.0000 0.0000 0.0000
# 3 25.5317 15.2511 136.7652 0.0000 0.0000 0.0000
# 4 0.0000 0.0000 0.0000 42.7734 0.0000 0.0000
# 5 0.0000 0.0000 0.0000 0.0000 37.1754 0.0000
# 6 0.0000 0.0000 0.0000 0.0000 0.0000 68.9991
#
#
#
# Elastic Compliance Matrix: (Units=1/GPa)
#
#
# Indices 1 2 3 4 5 6 
#
# 1 0.008779 -0.004486 -0.001139 0.000000 0.000000 0.000000
# 2 -0.004486 0.012632 -0.000571 0.000000 0.000000 0.000000
# 3 -0.001139 -0.000571 0.007588 0.000000 0.000000 0.000000
# 4 0.000000 0.000000 0.000000 0.023379 0.000000 0.000000
# 5 0.000000 0.000000 0.000000 0.000000 0.026900 0.000000
# 6 0.000000 0.000000 0.000000 0.000000 0.000000 0.014493
#
#
# Mechanical properties :
#
#
# Convention : Reuss Voigt Hill
#
# Bulk Modulus (GPa) = 60.21618 62.80314 61.50966
# Shear Modulus (GPa) = 44.76341 48.86021 46.81181
#
# Velocity S-wave (km/s) = 4.62914 4.83634 4.73387
# Velocity P-wave (km/s) = 7.57617 7.82635 7.70227
#
# Compressibility (1/GPa) = 0.01660683
#
# Stress axis : x y z
#
# Youngs Moduli (GPa) = 113.90538 79.16533 131.78624
#
# Poissons Ratio (x) = 0.35517 0.15006
# Poissons Ratio (y) = 0.51103 0.07526
# Poissons Ratio (z) = 0.12970 0.04521
#
# Static dielectric constant tensor:
#      x y z
#    x 3.836420 0.000000 0.000000 
#    y 0.000000 3.987000 0.000000 
#    z 0.000000 0.000000 4.035160 
# 
# 
# High freq. dielectric constant tensor:
#      x y z
#    x 1.829590 0.000000 0.000000 
#    y 0.000000 1.833720 0.000000 
#    z 0.000000 0.000000 1.845070 
# 
# From -- ./inp_files/2036.got.cif
#   From: 2010.03.12/outbox.cif.g09.slc.cpg/sg49_2_cif.got.tgz:2036.got - 2010.04.14 03:58:27.
