data_PCOD8204348
_publ_section_title
;
Structure prediction by ZEFSAII (Michael W. Deem and Ramdas Pophale) SiO2 
 PCOD8204348
Probable space group: P C C M
;
_chemical_formula_sum "Si O2"
_cell_formula_units_Z 48
_cell_length_a 8.472260
_cell_length_b 15.193375
_cell_length_c 16.881170
_cell_angle_alpha 90.000000
_cell_angle_beta 90.000000
_cell_angle_gamma 90.000000
_cell_volume 2172.981734
_symmetry_space_group_name_H-M "P C C M"
_symmetry_group_IT_number 49
_symmetry_cell_setting 'orthorhombic'
loop_
_space_group_symop_operation_xyz
x,y,z
-x,-y,z
x,-y,1/2-z
-x,y,1/2-z
-x,-y,-z
x,y,-z
-x,y,1/2+z
x,-y,1/2+z
loop_
_atom_site_type_symbol
_atom_site_label
_atom_site_fract_x
_atom_site_fract_y
_atom_site_fract_z
Si Si1 0.403073 0.787787 0.674966
Si Si2 0.612620 0.918072 0.409558
Si Si3 0.894251 0.334919 0.823358
Si Si4 0.327157 0.466739 0.409161
Si Si5 0.168105 0.136345 0.721090
Si Si6 0.806296 0.347230 0.587307
O O1 0.500000 0.753555 0.750000
O O2 0.515612 0.828434 0.607623
O O3 0.285610 0.866606 0.703460
O O4 0.310146 0.702649 0.645996
O O5 0.672659 0.916960 0.500000
O O6 0.765052 0.922324 0.351404
O O7 0.500000 0.000000 0.392702
O O8 0.743022 0.393761 0.848774
O O9 0.833757 0.238543 0.802826
O O10 0.000000 0.374191 0.750000
O O11 0.011201 0.325186 0.897703
O O12 0.500000 0.500000 0.381518
O O13 0.336731 0.430450 0.500000
O O14 0.209451 0.548516 0.403999
O O15 0.000000 0.099134 0.750000
O O16 0.762037 0.314533 0.500000
#
# Coordination Sequence:
#
# PCOD8204348 Si02
#       6
#     8   8   8   8   8   8
#     4  10  21  39  64  91 132 170 220 267 320 392
#     4  10  23  43  69 101 135 172 213 263 328 399
#     4  11  22  41  61  88 127 171 221 276 326 391
#     4  10  24  40  58  89 126 168 224 276 330 391
#     4  10  21  42  67  96 130 169 216 268 327 392
#     4  11  22  38  60  86 124 172 218 273 330 387
#
# _framework density 22.089464
#
# number of rings (size 3 to 8) (size 9 to 14) (size 15 to 20)
#    0.000    1.667    3.333    1.500    4.667    7.000 
#    0.000    2.500    0.000    2.000    0.000    0.000 
#    0.000    0.000    0.000    0.000    0.000    0.000 
#
# Total GULP energy -595062.309999 kJ/mol
# GULP energy per Si atom -12397.131458 kJ/mol
# Density = 2.203919 g / cm^3
# Si number density = 22.089464 Si / 1000 Ang^3
#
#
#
# Elastic Constant Matrix: (Units=GPa)
#
#
# Indices 1 2 3 4 5 6 
#
# 1 132.1720 26.9433 54.7023 0.0000 0.0000 0.0000
# 2 26.9433 66.2415 41.0733 0.0000 0.0000 0.0000
# 3 54.7023 41.0733 122.9790 0.0000 0.0000 0.0000
# 4 0.0000 0.0000 0.0000 27.7178 0.0000 0.0000
# 5 0.0000 0.0000 0.0000 0.0000 40.6172 0.0000
# 6 0.0000 0.0000 0.0000 0.0000 0.0000 31.6434
#
#
#
# Elastic Compliance Matrix: (Units=1/GPa)
#
#
# Indices 1 2 3 4 5 6 
#
# 1 0.009398 -0.001552 -0.003662 0.000000 0.000000 0.000000
# 2 -0.001552 0.019295 -0.005754 0.000000 0.000000 0.000000
# 3 -0.003662 -0.005754 0.011682 0.000000 0.000000 0.000000
# 4 0.000000 0.000000 0.000000 0.036078 0.000000 0.000000
# 5 0.000000 0.000000 0.000000 0.000000 0.024620 0.000000
# 6 0.000000 0.000000 0.000000 0.000000 0.000000 0.031602
#
#
# Mechanical properties :
#
#
# Convention : Reuss Voigt Hill
#
# Bulk Modulus (GPa) = 54.23152 62.98113 58.60633
# Shear Modulus (GPa) = 31.10268 33.24058 32.17163
#
# Velocity S-wave (km/s) = 3.75645 3.88340 3.82045
# Velocity P-wave (km/s) = 6.58928 6.97721 6.78602
#
# Compressibility (1/GPa) = 0.01843946
#
# Stress axis : x y z
#
# Youngs Moduli (GPa) = 106.40759 51.82591 85.60088
#
# Poissons Ratio (x) = 0.08043 0.31346
# Poissons Ratio (y) = 0.16513 0.49256
# Poissons Ratio (z) = 0.38966 0.29821
#
# Static dielectric constant tensor:
#      x y z
#    x 4.223190 0.000000 0.000000 
#    y 0.000000 3.641750 0.000000 
#    z 0.000000 0.000000 4.125370 
# 
# 
# High freq. dielectric constant tensor:
#      x y z
#    x 1.881320 0.000000 0.000000 
#    y 0.000000 1.849480 0.000000 
#    z 0.000000 0.000000 1.869860 
# 
# From -- ./inp_files/16255.got.cif
#   From: 2010.03.12/outbox.cif.g09.slc.cpg/sg49_9_cif.got.tgz:16255.got - 2010.04.14 03:58:27.
