data_PCOD8204249
_publ_section_title
;
Structure prediction by ZEFSAII (Michael W. Deem and Ramdas Pophale) SiO2 
 PCOD8204249
Probable space group: P C C M
;
_chemical_formula_sum "Si O2"
_cell_formula_units_Z 64
_cell_length_a 23.629591
_cell_length_b 15.396092
_cell_length_c 8.746434
_cell_angle_alpha 90.000000
_cell_angle_beta 90.000000
_cell_angle_gamma 90.000000
_cell_volume 3181.982051
_symmetry_space_group_name_H-M "P C C M"
_symmetry_group_IT_number 49
_symmetry_cell_setting 'orthorhombic'
loop_
_space_group_symop_operation_xyz
x,y,z
-x,-y,z
x,-y,1/2-z
-x,y,1/2-z
-x,-y,-z
x,y,-z
-x,y,1/2+z
x,-y,1/2+z
loop_
_atom_site_type_symbol
_atom_site_label
_atom_site_fract_x
_atom_site_fract_y
_atom_site_fract_z
Si Si1 0.061069 0.756801 0.680498
Si Si2 0.754237 0.353661 0.180794
Si Si3 0.360830 0.588002 0.319327
Si Si4 0.128700 0.588852 0.318640
Si Si5 0.859688 0.911368 0.819784
Si Si6 0.624002 0.907486 0.318987
Si Si7 0.560415 0.747232 0.818805
Si Si8 0.748073 0.153599 0.179100
O O1 0.056204 0.761354 0.500000
O O2 0.086497 0.664995 0.734198
O O3 0.102408 0.832125 0.742707
O O4 0.000000 0.771249 0.750000
O O5 0.701694 0.403368 0.252343
O O6 0.809930 0.396265 0.248795
O O7 0.751438 0.253390 0.229464
O O8 0.753374 0.365648 0.000000
O O9 0.388019 0.500000 0.250000
O O10 0.358094 0.580328 0.500000
O O11 0.397859 0.670155 0.267163
O O12 0.103353 0.500000 0.250000
O O13 0.133625 0.583651 0.500000
O O14 0.794975 0.899957 0.769597
O O15 0.884439 0.000000 0.750000
O O16 0.862448 0.917211 0.000000
O O17 0.616926 0.908861 0.500000
O O18 0.581403 0.837514 0.250328
O O19 0.687717 0.883846 0.270086
O O20 0.607121 0.000000 0.250000
O O21 0.500000 0.723632 0.750000
O O22 0.556681 0.755622 0.000000
O O23 0.758882 0.141995 0.000000
#
# Coordination Sequence:
#
# PCOD8204249 Si02
#       8
#     8   8   8   8   8   8   8   8
#     4  10  24  43  63  86 118 158 204 253 304 357
#     4  11  21  37  63  94 126 162 201 246 303 363
#     4  11  24  41  64  93 126 164 204 250 306 364
#     4  11  23  41  62  91 124 160 202 248 303 362
#     4  11  23  40  62  91 124 160 201 249 301 361
#     4  11  23  41  64  94 128 162 204 251 303 365
#     4  11  25  44  66  91 121 162 208 257 308 359
#     4  10  21  37  62  94 125 162 200 244 303 363
#
# _framework density 20.113251000000002
#
# number of rings (size 3 to 8) (size 9 to 14) (size 15 to 20)
#    0.000    1.250    2.500    3.000    0.000    7.000 
#    0.000    5.000    0.000    0.000    0.000    0.000 
#    0.000    0.000    0.000    0.000    0.000    0.000 
#
# Total GULP energy -794032.295624 kJ/mol
# GULP energy per Si atom -12406.754619 kJ/mol
# Density = 2.006747 g / cm^3
# Si number density = 20.113251 Si / 1000 Ang^3
#
#
#
# Elastic Constant Matrix: (Units=GPa)
#
#
# Indices 1 2 3 4 5 6 
#
# 1 90.4888 23.3309 25.3382 0.0000 0.0000 0.0000
# 2 23.3309 137.5618 37.0019 0.0000 0.0000 0.0000
# 3 25.3382 37.0019 63.3683 0.0000 0.0000 0.0000
# 4 0.0000 0.0000 0.0000 33.2714 0.0000 0.0000
# 5 0.0000 0.0000 0.0000 0.0000 33.2057 0.0000
# 6 0.0000 0.0000 0.0000 0.0000 0.0000 11.2075
#
#
#
# Elastic Compliance Matrix: (Units=1/GPa)
#
#
# Indices 1 2 3 4 5 6 
#
# 1 0.012543 -0.000923 -0.004476 0.000000 0.000000 0.000000
# 2 -0.000923 0.008692 -0.004706 0.000000 0.000000 0.000000
# 3 -0.004476 -0.004706 0.020319 0.000000 0.000000 0.000000
# 4 0.000000 0.000000 0.000000 0.030056 0.000000 0.000000
# 5 0.000000 0.000000 0.000000 0.000000 0.030115 0.000000
# 6 0.000000 0.000000 0.000000 0.000000 0.000000 0.089226
#
#
# Mechanical properties :
#
#
# Convention : Reuss Voigt Hill
#
# Bulk Modulus (GPa) = 46.85613 51.41788 49.13700
# Shear Modulus (GPa) = 22.90688 29.25346 26.08017
#
# Velocity S-wave (km/s) = 3.37841 3.81785 3.60483
# Velocity P-wave (km/s) = 6.21007 6.71225 6.46604
#
# Compressibility (1/GPa) = 0.02134193
#
# Stress axis : x y z
#
# Youngs Moduli (GPa) = 79.72890 115.04916 49.21599
#
# Poissons Ratio (x) = 0.10622 0.22030
# Poissons Ratio (y) = 0.07361 0.23162
# Poissons Ratio (z) = 0.35687 0.54145
#
# Static dielectric constant tensor:
#      x y z
#    x 3.617260 0.000000 0.000000 
#    y 0.000000 4.018440 0.000000 
#    z 0.000000 0.000000 3.658380 
# 
# 
# High freq. dielectric constant tensor:
#      x y z
#    x 1.780930 0.000000 0.000000 
#    y 0.000000 1.806510 0.000000 
#    z 0.000000 0.000000 1.790490 
# 
# From -- ./inp_files/4317.got.cif
#   From: 2010.03.12/outbox.cif.g09.slc.cpg/sg49_3_cif.got.tgz:4317.got - 2010.04.14 03:58:27.
