data_PCOD8204649
_publ_section_title
;
Structure prediction by ZEFSAII (Michael W. Deem and Ramdas Pophale) SiO2 
 PCOD8204649
Probable space group: P C C M
;
_chemical_formula_sum "Si O2"
_cell_formula_units_Z 56
_cell_length_a 14.260446
_cell_length_b 11.124427
_cell_length_c 15.273430
_cell_angle_alpha 90.000000
_cell_angle_beta 90.000000
_cell_angle_gamma 90.000000
_cell_volume 2422.966099
_symmetry_space_group_name_H-M "P C C M"
_symmetry_group_IT_number 49
_symmetry_cell_setting 'orthorhombic'
loop_
_space_group_symop_operation_xyz
x,y,z
-x,-y,z
x,-y,1/2-z
-x,y,1/2-z
-x,-y,-z
x,y,-z
-x,y,1/2+z
x,-y,1/2+z
loop_
_atom_site_type_symbol
_atom_site_label
_atom_site_fract_x
_atom_site_fract_y
_atom_site_fract_z
Si Si1 0.408741 0.664101 0.205604
Si Si2 0.249998 0.994035 0.354593
Si Si3 0.908740 0.335899 0.205604
Si Si4 0.939662 0.893404 0.599233
Si Si5 0.439661 0.893404 0.900765
Si Si6 0.250000 0.728623 0.335038
Si Si7 0.250000 0.528339 0.899874
O O1 0.500000 0.599819 0.250000
O O2 0.454691 0.766941 0.146179
O O3 0.342947 0.726918 0.276513
O O4 0.344744 0.570600 0.150126
O O5 0.250001 0.855042 0.386756
O O6 0.249991 0.000000 0.250000
O O7 0.166751 0.067211 0.397019
O O8 0.333248 0.067215 0.397009
O O9 0.954689 0.233059 0.146178
O O10 0.842947 0.273080 0.276513
O O11 0.844742 0.429400 0.150128
O O12 0.000000 0.400180 0.250000
O O13 0.973455 0.874311 0.500000
O O14 0.000000 0.000000 0.644373
O O15 0.500000 0.000000 0.855628
O O16 0.473448 0.874312 0.000000
O O17 0.250000 0.616019 0.401169
O O18 0.249999 0.576164 0.000000
#
# Coordination Sequence:
#
# PCOD8204649 Si02
#       7
#     8   8   8   8   8   8   8
#     4  11  22  42  71  96 129 176 233 280 331 408
#     4  12  21  39  66  96 132 174 220 268 331 399
#     4  11  22  42  71  96 129 176 233 280 331 408
#     4  11  24  39  63  99 137 171 216 278 342 400
#     4  11  24  39  63  99 137 171 216 278 342 400
#     4  11  24  40  65  98 131 176 228 279 323 400
#     4  11  26  47  68  96 139 180 224 281 342 396
#
# _framework density 23.112169999999999
#
# number of rings (size 3 to 8) (size 9 to 14) (size 15 to 20)
#    0.000    0.857    2.857    5.571    0.000    3.429 
#    0.000    4.286    0.000    0.000    0.000    0.000 
#    0.000    0.000    0.000    0.000    0.000    0.000 
#
# Total GULP energy -694350.266280 kJ/mol
# GULP energy per Si atom -12399.111898 kJ/mol
# Density = 2.305957 g / cm^3
# Si number density = 23.112170 Si / 1000 Ang^3
#
#
#
# Elastic Constant Matrix: (Units=GPa)
#
#
# Indices 1 2 3 4 5 6 
#
# 1 140.3940 15.2456 33.4410 0.0000 0.0000 0.0000
# 2 15.2456 135.5482 23.2834 0.0000 0.0000 0.0000
# 3 33.4410 23.2834 81.2361 0.0000 0.0000 0.0000
# 4 0.0000 0.0000 0.0000 28.1813 0.0000 0.0000
# 5 0.0000 0.0000 0.0000 0.0000 37.3864 0.0000
# 6 0.0000 0.0000 0.0000 0.0000 0.0000 -76.6733
#
#
#
# Elastic Compliance Matrix: (Units=1/GPa)
#
#
# Indices 1 2 3 4 5 6 
#
# 1 0.007913 -0.000348 -0.003158 0.000000 0.000000 0.000000
# 2 -0.000348 0.007775 -0.002085 0.000000 0.000000 0.000000
# 3 -0.003158 -0.002085 0.014207 0.000000 0.000000 0.000000
# 4 0.000000 0.000000 0.000000 0.035484 0.000000 0.000000
# 5 0.000000 0.000000 0.000000 0.000000 0.026748 0.000000
# 6 0.000000 0.000000 0.000000 0.000000 0.000000 -0.013042
#
#
# Mechanical properties :
#
#
# Convention : Reuss Voigt Hill
#
# Bulk Modulus (GPa) = 53.43665 55.67982 54.55823
# Shear Modulus (GPa) = 51.81160 16.79277 34.30219
#
# Velocity S-wave (km/s) = 4.73984 2.69843 3.85666
# Velocity P-wave (km/s) = 7.28873 5.81826 6.59461
#
# Compressibility (1/GPa) = 0.01871375
#
# Stress axis : x y z
#
# Youngs Moduli (GPa) = 126.37930 128.62180 70.38625
#
# Poissons Ratio (x) = 0.04471 0.22226
# Poissons Ratio (y) = 0.04393 0.14677
# Poissons Ratio (z) = 0.39906 0.26821
#
# Static dielectric constant tensor:
#      x y z
#    x 4.250670 0.000000 0.000000 
#    y 0.000000 4.220940 0.000000 
#    z 0.000000 0.000000 4.062820 
# 
# 
# High freq. dielectric constant tensor:
#      x y z
#    x 1.924760 0.000000 0.000000 
#    y 0.000000 1.925770 0.000000 
#    z 0.000000 0.000000 1.895520 
# 
# From -- ./inp_files/13598.got.cif
#   From: 2010.03.12/outbox.cif.g09.slc.cpg/sg49_7_cif.got.tgz:13598.got - 2010.04.14 03:58:27.
