data_PCOD8204057
_publ_section_title
;
Structure prediction by ZEFSAII (Michael W. Deem and Ramdas Pophale) SiO2 
 PCOD8204057
Probable space group: P C C M
;
_chemical_formula_sum "Si O2"
_cell_formula_units_Z 58
_cell_length_a 9.918970
_cell_length_b 17.214237
_cell_length_c 17.350097
_cell_angle_alpha 90.000000
_cell_angle_beta 90.000000
_cell_angle_gamma 90.000000
_cell_volume 2962.485694
_symmetry_space_group_name_H-M "P C C M"
_symmetry_group_IT_number 49
_symmetry_cell_setting 'orthorhombic'
loop_
_space_group_symop_operation_xyz
x,y,z
-x,-y,z
x,-y,1/2-z
-x,y,1/2-z
-x,-y,-z
x,y,-z
-x,y,1/2+z
x,-y,1/2+z
loop_
_atom_site_type_symbol
_atom_site_label
_atom_site_fract_x
_atom_site_fract_y
_atom_site_fract_z
Si Si1 0.258012 0.308304 0.090591
Si Si2 0.026032 0.723111 0.159936
Si Si3 0.000000 0.000000 0.250000
Si Si4 0.101445 0.567140 0.911905
Si Si5 0.548456 0.913848 0.415154
Si Si6 0.616281 0.186256 0.305799
Si Si7 0.360639 0.471878 0.912395
Si Si8 0.189533 0.872882 0.178713
O O1 0.361423 0.255461 0.135596
O O2 0.289570 0.395014 0.122242
O O3 0.109044 0.279494 0.110230
O O4 0.280711 0.300089 0.000000
O O5 0.104218 0.644215 0.139487
O O6 0.110048 0.800937 0.138735
O O7 0.000000 0.724026 0.250000
O O8 0.909316 0.944821 0.304189
O O9 0.255130 0.541112 0.906647
O O10 0.000000 0.500000 0.880459
O O11 0.057805 0.586469 0.000000
O O12 0.548695 0.873347 0.500000
O O13 0.436326 0.884088 0.356688
O O14 0.696956 0.904001 0.379171
O O15 0.500000 0.000000 0.427238
O O16 0.500000 0.217095 0.250000
O O17 0.747843 0.158465 0.259099
O O18 0.500000 0.500000 0.870842
O O19 0.397162 0.451068 0.000000
#
# Coordination Sequence:
#
# PCOD8204057 Si02
#       8
#     8   8   2   8   8   8   8   8
#     4  11  21  38  63  88 120 165 210 260 321 382
#     4  12  23  39  59  91 130 160 208 269 318 378
#     4  12  20  40  64  84 118 172 208 248 312 400
#     4  10  20  38  63  88 119 169 218 258 320 398
#     4  10  22  40  62  90 122 157 207 263 320 391
#     4  10  21  39  61  87 121 160 200 256 317 386
#     4   9  19  36  58  86 117 156 212 265 312 378
#     4  11  23  39  63  92 124 164 211 257 319 385
#
# _framework density 19.578154999999999
#
# number of rings (size 3 to 8) (size 9 to 14) (size 15 to 20)
#    0.000    1.517    3.448    1.655    0.000    5.517 
#    0.000    1.724    0.000    0.000    0.000    0.000 
#    0.000    0.000    0.000    0.000    0.000    0.000 
#
# Total GULP energy -718970.812584 kJ/mol
# GULP energy per Si atom -12396.048493 kJ/mol
# Density = 1.953359 g / cm^3
# Si number density = 19.578155 Si / 1000 Ang^3
#
#
#
# Elastic Constant Matrix: (Units=GPa)
#
#
# Indices 1 2 3 4 5 6 
#
# 1 114.2302 61.3855 36.8699 0.0000 0.0000 0.0000
# 2 61.3855 122.6508 34.7073 0.0000 0.0000 0.0000
# 3 36.8699 34.7073 82.2052 0.0000 0.0000 0.0000
# 4 0.0000 0.0000 0.0000 4.2693 0.0000 0.0000
# 5 0.0000 0.0000 0.0000 0.0000 15.0590 0.0000
# 6 0.0000 0.0000 0.0000 0.0000 0.0000 21.1257
#
#
#
# Elastic Compliance Matrix: (Units=1/GPa)
#
#
# Indices 1 2 3 4 5 6 
#
# 1 0.012779 -0.005422 -0.003442 0.000000 0.000000 0.000000
# 2 -0.005422 0.011560 -0.002449 0.000000 0.000000 0.000000
# 3 -0.003442 -0.002449 0.014743 0.000000 0.000000 0.000000
# 4 0.000000 0.000000 0.000000 0.234233 0.000000 0.000000
# 5 0.000000 0.000000 0.000000 0.000000 0.066406 0.000000
# 6 0.000000 0.000000 0.000000 0.000000 0.000000 0.047336
#
#
# Mechanical properties :
#
#
# Convention : Reuss Voigt Hill
#
# Bulk Modulus (GPa) = 60.77077 65.00128 62.88603
# Shear Modulus (GPa) = 12.04338 20.49902 16.27120
#
# Velocity S-wave (km/s) = 2.48290 3.23930 2.88599
# Velocity P-wave (km/s) = 6.27114 6.87487 6.57993
#
# Compressibility (1/GPa) = 0.01645528
#
# Stress axis : x y z
#
# Youngs Moduli (GPa) = 78.25452 86.50787 67.83072
#
# Poissons Ratio (x) = 0.46901 0.23350
# Poissons Ratio (y) = 0.42426 0.16611
# Poissons Ratio (z) = 0.26939 0.21185
#
# Static dielectric constant tensor:
#      x y z
#    x 3.700430 0.000000 0.000000 
#    y 0.000000 3.723240 0.000000 
#    z 0.000000 0.000000 3.731740 
# 
# 
# High freq. dielectric constant tensor:
#      x y z
#    x 1.774610 0.000000 0.000000 
#    y 0.000000 1.768010 0.000000 
#    z 0.000000 0.000000 1.748170 
# 
# From -- ./inp_files/16491.got.cif
#   From: 2010.03.12/outbox.cif.g09.slc.cpg/sg49_9_cif.got.tgz:16491.got - 2010.04.14 03:58:27.
