data_PCOD8204281
_publ_section_title
;
Structure prediction by ZEFSAII (Michael W. Deem and Ramdas Pophale) SiO2 
 PCOD8204281
Probable space group: P C C M
;
_chemical_formula_sum "Si O2"
_cell_formula_units_Z 64
_cell_length_a 12.166418
_cell_length_b 15.729511
_cell_length_c 15.322011
_cell_angle_alpha 90.000000
_cell_angle_beta 90.000000
_cell_angle_gamma 90.000000
_cell_volume 2932.200913
_symmetry_space_group_name_H-M "P C C M"
_symmetry_group_IT_number 49
_symmetry_cell_setting 'orthorhombic'
loop_
_space_group_symop_operation_xyz
x,y,z
-x,-y,z
x,-y,1/2-z
-x,y,1/2-z
-x,-y,-z
x,y,-z
-x,y,1/2+z
x,-y,1/2+z
loop_
_atom_site_type_symbol
_atom_site_label
_atom_site_fract_x
_atom_site_fract_y
_atom_site_fract_z
Si Si1 0.377163 0.779536 0.594664
Si Si2 0.268937 0.134831 0.401216
Si Si3 0.410069 0.699110 0.101715
Si Si4 0.839911 0.289904 0.646907
Si Si5 0.961311 0.591211 0.401114
Si Si6 0.281848 0.948024 0.601343
Si Si7 0.251138 0.405474 0.287683
Si Si8 0.880917 0.119578 0.737127
O O1 0.431797 0.791974 0.500000
O O2 0.465979 0.716413 0.640120
O O3 0.253478 0.743797 0.580953
O O4 0.367197 0.875018 0.635585
O O5 0.221035 0.144768 0.500000
O O6 0.348330 0.212406 0.379213
O O7 0.171838 0.134031 0.331819
O O8 0.331932 0.043261 0.393672
O O9 0.356962 0.620717 0.154880
O O10 0.406647 0.672526 0.000000
O O11 0.759098 0.344564 0.706507
O O12 0.896746 0.212347 0.695397
O O13 0.936962 0.343954 0.603634
O O14 0.919302 0.586335 0.500000
O O15 0.858560 0.615404 0.342599
O O16 0.000000 0.500000 0.366781
O O17 0.246526 0.928198 0.500000
O O18 0.180622 0.943842 0.669923
O O19 0.263521 0.500000 0.250000
O O20 0.000000 0.078706 0.750000
#
# Coordination Sequence:
#
# PCOD8204281 Si02
#       8
#     8   8   8   8   8   8   8   8
#     4   9  20  41  65  89 123 165 210 261 316 382
#     4  10  21  38  60  91 129 168 218 271 323 381
#     4  10  22  42  66  92 126 169 215 266 321 381
#     4  11  22  39  62  91 122 161 208 260 323 382
#     4  11  23  39  64  93 121 158 206 260 316 379
#     4   9  20  38  61  91 126 168 217 271 324 381
#     4  12  23  40  63  91 128 161 204 259 320 384
#     4  11  22  38  59  88 127 174 218 261 323 394
#
# _framework density 21.826606999999999
#
# number of rings (size 3 to 8) (size 9 to 14) (size 15 to 20)
#    0.000    1.625    2.500    2.250    0.000    3.000 
#    0.000    5.000    0.000    3.000    0.000    0.000 
#    0.000    0.000    0.000    0.000    0.000    0.000 
#
# Total GULP energy -792876.059679 kJ/mol
# GULP energy per Si atom -12388.688432 kJ/mol
# Density = 2.177693 g / cm^3
# Si number density = 21.826607 Si / 1000 Ang^3
#
#
#
# Elastic Constant Matrix: (Units=GPa)
#
#
# Indices 1 2 3 4 5 6 
#
# 1 118.1311 31.3122 29.2295 0.0000 0.0000 0.0000
# 2 31.3122 107.5732 16.0160 0.0000 0.0000 0.0000
# 3 29.2295 16.0160 77.9187 0.0000 0.0000 0.0000
# 4 0.0000 0.0000 0.0000 14.0951 0.0000 0.0000
# 5 0.0000 0.0000 0.0000 0.0000 25.2933 0.0000
# 6 0.0000 0.0000 0.0000 0.0000 0.0000 11.4784
#
#
#
# Elastic Compliance Matrix: (Units=1/GPa)
#
#
# Indices 1 2 3 4 5 6 
#
# 1 0.009898 -0.002402 -0.003219 0.000000 0.000000 0.000000
# 2 -0.002402 0.010172 -0.001190 0.000000 0.000000 0.000000
# 3 -0.003219 -0.001190 0.014286 0.000000 0.000000 0.000000
# 4 0.000000 0.000000 0.000000 0.070947 0.000000 0.000000
# 5 0.000000 0.000000 0.000000 0.000000 0.039536 0.000000
# 6 0.000000 0.000000 0.000000 0.000000 0.000000 0.087120
#
#
# Mechanical properties :
#
#
# Convention : Reuss Voigt Hill
#
# Bulk Modulus (GPa) = 48.22900 50.74872 49.48886
# Shear Modulus (GPa) = 19.80248 25.31105 22.55677
#
# Velocity S-wave (km/s) = 3.01535 3.40905 3.21822
# Velocity P-wave (km/s) = 5.85384 6.22871 6.04418
#
# Compressibility (1/GPa) = 0.02073441
#
# Stress axis : x y z
#
# Youngs Moduli (GPa) = 101.02612 98.30630 69.99773
#
# Poissons Ratio (x) = 0.23612 0.22536
# Poissons Ratio (y) = 0.24265 0.08329
# Poissons Ratio (z) = 0.32525 0.11697
#
# Static dielectric constant tensor:
#      x y z
#    x 3.781680 0.000000 0.000000 
#    y 0.000000 3.039730 0.000000 
#    z 0.000000 0.000000 3.982950 
# 
# 
# High freq. dielectric constant tensor:
#      x y z
#    x 1.838360 0.000000 0.000000 
#    y 0.000000 1.869890 0.000000 
#    z 0.000000 0.000000 1.863460 
# 
# From -- ./inp_files/13086.got.cif
#   From: 2010.03.12/outbox.cif.g09.slc.cpg/sg49_7_cif.got.tgz:13086.got - 2010.04.14 03:58:27.
