data_PCOD8204265
_publ_section_title
;
Structure prediction by ZEFSAII (Michael W. Deem and Ramdas Pophale) SiO2 
 PCOD8204265
Probable space group: P C C M
;
_chemical_formula_sum "Si O2"
_cell_formula_units_Z 64
_cell_length_a 24.465320
_cell_length_b 8.930575
_cell_length_c 14.770235
_cell_angle_alpha 90.000000
_cell_angle_beta 90.000000
_cell_angle_gamma 90.000000
_cell_volume 3227.139416
_symmetry_space_group_name_H-M "P C C M"
_symmetry_group_IT_number 49
_symmetry_cell_setting 'orthorhombic'
loop_
_space_group_symop_operation_xyz
x,y,z
-x,-y,z
x,-y,1/2-z
-x,y,1/2-z
-x,-y,-z
x,y,-z
-x,y,1/2+z
x,-y,1/2+z
loop_
_atom_site_type_symbol
_atom_site_label
_atom_site_fract_x
_atom_site_fract_y
_atom_site_fract_z
Si Si1 0.000000 0.321875 0.397760
Si Si2 0.792282 0.321714 0.750000
Si Si3 0.916034 0.322365 0.250000
Si Si4 0.389843 0.664272 0.103853
Si Si5 0.500000 0.834081 0.644125
Si Si6 0.717371 0.173917 0.106626
Si Si7 0.282630 0.826084 0.606626
Si Si8 0.610156 0.664272 0.103853
O O1 0.000000 0.253677 0.500000
O O2 0.053213 0.266215 0.341340
O O3 0.000000 0.500000 0.404233
O O4 0.946788 0.266215 0.341340
O O5 0.788371 0.500000 0.750000
O O6 0.854399 0.262199 0.749998
O O7 0.765081 0.259469 0.841136
O O8 0.765079 0.259471 0.658864
O O9 0.916872 0.500000 0.250000
O O10 0.447028 0.746427 0.112878
O O11 0.340572 0.763050 0.144149
O O12 0.392257 0.500000 0.151227
O O13 0.376592 0.640632 0.000000
O O14 0.500000 0.848299 0.750000
O O15 0.447030 0.746423 0.612876
O O16 0.500000 0.000000 0.600148
O O17 0.719014 0.000000 0.131388
O O18 0.725649 0.200914 0.000000
O O19 0.274353 0.799086 0.500000
O O20 0.340574 0.763053 0.644148
O O21 0.623407 0.640630 0.000000
#
# Coordination Sequence:
#
# PCOD8204265 Si02
#       8
#     8   8   8   8   8   8   8   8
#     4   8  13  25  46  71 107 152 188 224 272 326
#     4  11  22  35  56  85 119 154 187 236 289 336
#     4   8  16  28  43  74 113 147 187 226 273 333
#     4  10  21  38  59  81 105 135 176 229 285 338
#     4  11  24  37  52  78 110 143 178 219 271 339
#     4  10  22  40  60  81 109 149 194 237 284 343
#     4  10  22  40  60  81 109 149 194 237 284 343
#     4  10  21  38  59  81 105 135 176 229 285 338
#
# _framework density 19.831804999999999
#
# number of rings (size 3 to 8) (size 9 to 14) (size 15 to 20)
#    0.000    2.250    0.000    3.375    1.750    6.500 
#    0.000    2.500    0.000    0.000    0.000    7.000 
#    0.000   12.000    0.000    0.000    0.000    0.000 
#
# Total GULP energy -793353.018859 kJ/mol
# GULP energy per Si atom -12396.140920 kJ/mol
# Density = 1.978667 g / cm^3
# Si number density = 19.831805 Si / 1000 Ang^3
#
#
#
# Elastic Constant Matrix: (Units=GPa)
#
#
# Indices 1 2 3 4 5 6 
#
# 1 195.7013 65.9388 56.0112 0.0000 0.0000 0.0000
# 2 65.9388 125.3129 32.6621 0.0000 0.0000 0.0000
# 3 56.0112 32.6621 100.6536 0.0000 0.0000 0.0000
# 4 0.0000 0.0000 0.0000 22.1633 0.0000 0.0000
# 5 0.0000 0.0000 0.0000 0.0000 25.8118 0.0000
# 6 0.0000 0.0000 0.0000 0.0000 0.0000 -0.9833
#
#
#
# Elastic Compliance Matrix: (Units=1/GPa)
#
#
# Indices 1 2 3 4 5 6 
#
# 1 0.006913 -0.002879 -0.002913 0.000000 0.000000 0.000000
# 2 -0.002879 0.009916 -0.001616 0.000000 0.000000 0.000000
# 3 -0.002913 -0.001616 0.012080 0.000000 0.000000 0.000000
# 4 0.000000 0.000000 0.000000 0.045120 0.000000 0.000000
# 5 0.000000 0.000000 0.000000 0.000000 0.038742 0.000000
# 6 0.000000 0.000000 0.000000 0.000000 0.000000 -1.016988
#
#
# Mechanical properties :
#
#
# Convention : Reuss Voigt Hill
#
# Bulk Modulus (GPa) = 70.94804 81.21023 76.07913
# Shear Modulus (GPa) = -5.65161 27.20208 10.77523
#
# Velocity S-wave (km/s) = -1.68996 3.70758 2.33347
# Velocity P-wave (km/s) = 5.66079 7.70497 6.76059
#
# Compressibility (1/GPa) = 0.01409482
#
# Stress axis : x y z
#
# Youngs Moduli (GPa) = 144.64541 100.84864 82.77826
#
# Poissons Ratio (x) = 0.29030 0.24114
# Poissons Ratio (y) = 0.41637 0.13376
# Poissons Ratio (z) = 0.42136 0.16296
#
# Static dielectric constant tensor:
#      x y z
#    x 3.746260 0.000000 0.000000 
#    y 0.000000 3.693310 0.000000 
#    z 0.000000 0.000000 3.710230 
# 
# 
# High freq. dielectric constant tensor:
#      x y z
#    x 1.772880 0.000000 0.000000 
#    y 0.000000 1.760110 0.000000 
#    z 0.000000 0.000000 1.778400 
# 
# From -- ./inp_files/14542.got.cif
#   From: 2010.03.12/outbox.cif.g09.slc.cpg/sg49_8_cif.got.tgz:14542.got - 2010.04.14 03:58:27.
