data_PCOD8204104
_publ_section_title
;
Structure prediction by ZEFSAII (Michael W. Deem and Ramdas Pophale) SiO2 
 PCOD8204104
Probable space group: P C C M
;
_chemical_formula_sum "Si O2"
_cell_formula_units_Z 48
_cell_length_a 15.405617
_cell_length_b 8.458172
_cell_length_c 17.051956
_cell_angle_alpha 90.000000
_cell_angle_beta 90.000000
_cell_angle_gamma 90.000000
_cell_volume 2221.927133
_symmetry_space_group_name_H-M "P C C M"
_symmetry_group_IT_number 49
_symmetry_cell_setting 'orthorhombic'
loop_
_space_group_symop_operation_xyz
x,y,z
-x,-y,z
x,-y,1/2-z
-x,y,1/2-z
-x,-y,-z
x,y,-z
-x,y,1/2+z
x,-y,1/2+z
loop_
_atom_site_type_symbol
_atom_site_label
_atom_site_fract_x
_atom_site_fract_y
_atom_site_fract_z
Si Si1 0.418780 0.386848 0.089918
Si Si2 0.983237 0.677545 0.840882
Si Si3 0.149480 0.200415 0.588791
Si Si4 0.828393 0.900276 0.174543
Si Si5 0.634052 0.167798 0.720112
Si Si6 0.711068 0.404233 0.175117
O O1 0.500000 0.500000 0.103637
O O2 0.425227 0.236752 0.149390
O O3 0.331187 0.483771 0.109404
O O4 0.414783 0.326678 0.000000
O O5 0.886798 0.750029 0.851486
O O6 0.000000 0.500000 0.873590
O O7 0.000000 0.682255 0.750000
O O8 0.048627 0.788688 0.888573
O O9 0.166233 0.248911 0.500000
O O10 0.205014 0.316916 0.642677
O O11 0.178102 0.019714 0.601452
O O12 0.732879 0.838593 0.191269
O O13 0.865090 0.000000 0.250000
O O14 0.635226 0.284294 0.795291
O O15 0.597050 0.000000 0.750000
O O16 0.745996 0.500000 0.250000
#
# Coordination Sequence:
#
# PCOD8204104 Si02
#       6
#     8   8   8   8   8   8
#     4  10  23  43  67  99 140 177 209 266 345 407
#     4  11  24  37  62  89 122 170 220 270 325 393
#     4  12  25  39  62  94 128 167 218 282 336 383
#     4  11  21  41  63  88 126 172 219 269 327 393
#     4  10  20  40  70  98 125 169 225 269 319 393
#     4  10  21  39  68  93 130 173 223 267 321 402
#
# _framework density 21.602868000000001
#
# number of rings (size 3 to 8) (size 9 to 14) (size 15 to 20)
#    0.000    1.333    5.000    1.000    7.000    5.333 
#    0.000    1.667    0.000    2.000    0.000    0.000 
#    0.000    0.000    0.000    0.000    0.000    0.000 
#
# Total GULP energy -595116.882573 kJ/mol
# GULP energy per Si atom -12398.268387 kJ/mol
# Density = 2.155370 g / cm^3
# Si number density = 21.602868 Si / 1000 Ang^3
#
#
#
# Elastic Constant Matrix: (Units=GPa)
#
#
# Indices 1 2 3 4 5 6 
#
# 1 79.8198 27.6273 30.0024 0.0000 0.0000 0.0000
# 2 27.6273 125.3831 47.1861 0.0000 0.0000 0.0000
# 3 30.0024 47.1861 125.0699 0.0000 0.0000 0.0000
# 4 0.0000 0.0000 0.0000 31.9591 0.0000 0.0000
# 5 0.0000 0.0000 0.0000 0.0000 22.0162 0.0000
# 6 0.0000 0.0000 0.0000 0.0000 0.0000 30.7211
#
#
#
# Elastic Compliance Matrix: (Units=1/GPa)
#
#
# Indices 1 2 3 4 5 6 
#
# 1 0.014255 -0.002161 -0.002604 0.000000 0.000000 0.000000
# 2 -0.002161 0.009623 -0.003112 0.000000 0.000000 0.000000
# 3 -0.002604 -0.003112 0.009794 0.000000 0.000000 0.000000
# 4 0.000000 0.000000 0.000000 0.031290 0.000000 0.000000
# 5 0.000000 0.000000 0.000000 0.000000 0.045421 0.000000
# 6 0.000000 0.000000 0.000000 0.000000 0.000000 0.032551
#
#
# Mechanical properties :
#
#
# Convention : Reuss Voigt Hill
#
# Bulk Modulus (GPa) = 55.81091 59.98939 57.90015
# Shear Modulus (GPa) = 30.36530 31.96975 31.16753
#
# Velocity S-wave (km/s) = 3.75322 3.85110 3.80247
# Velocity P-wave (km/s) = 6.68381 6.89957 6.79255
#
# Compressibility (1/GPa) = 0.01791764
#
# Stress axis : x y z
#
# Youngs Moduli (GPa) = 70.15052 103.91866 102.09904
#
# Poissons Ratio (x) = 0.22456 0.26590
# Poissons Ratio (y) = 0.15159 0.31775
# Poissons Ratio (z) = 0.18269 0.32341
#
# Static dielectric constant tensor:
#      x y z
#    x 3.697900 0.000000 0.000000 
#    y 0.000000 4.311650 0.000000 
#    z 0.000000 0.000000 3.803070 
# 
# 
# High freq. dielectric constant tensor:
#      x y z
#    x 1.838060 0.000000 0.000000 
#    y 0.000000 1.858790 0.000000 
#    z 0.000000 0.000000 1.830290 
# 
# From -- ./inp_files/16293.got.cif
#   From: 2010.03.12/outbox.cif.g09.slc.cpg/sg49_9_cif.got.tgz:16293.got - 2010.04.14 03:58:27.
