data_PCOD8204738
_publ_section_title
;
Structure prediction by ZEFSAII (Michael W. Deem and Ramdas Pophale) SiO2 
 PCOD8204738
Probable space group: P B A N
;
_chemical_formula_sum "Si O2"
_cell_formula_units_Z 40
_cell_length_a 5.125263
_cell_length_b 17.700852
_cell_length_c 22.764823
_cell_angle_alpha 90.000000
_cell_angle_beta 90.000000
_cell_angle_gamma 90.000000
_cell_volume 2065.259387
_symmetry_space_group_name_H-M "P B A N"
_symmetry_group_IT_number 50
_space_group.IT_coordinate_system_code '2'
_symmetry_cell_setting 'orthorhombic'
loop_
_space_group_symop_operation_xyz
x,y,z
1/2-x,1/2-y,z
x,1/2-y,-z
1/2-x,y,-z
-x,-y,-z
1/2+x,1/2+y,-z
-x,1/2+y,z
1/2+x,-y,z
loop_
_atom_site_type_symbol
_atom_site_label
_atom_site_fract_x
_atom_site_fract_y
_atom_site_fract_z
Si Si1 0.436362 0.548817 0.338963
Si Si2 0.755231 0.338097 0.241789
Si Si3 0.004067 0.583760 0.526461
Si Si4 0.763983 0.548274 0.933110
Si Si5 0.749329 0.661995 0.831298
O O1 0.725862 0.517279 0.326604
O O2 0.343127 0.618613 0.299947
O O3 0.456187 0.581011 0.404284
O O4 0.750000 0.250000 0.257841
O O5 0.472050 0.361261 0.216378
O O6 0.967972 0.359877 0.193030
O O7 0.250000 0.628769 0.500000
O O8 0.750000 0.626190 0.500000
O O9 0.000000 0.500000 0.500000
O O10 0.550995 0.483765 0.920319
O O11 0.702131 0.618856 0.891813
O O12 0.750000 0.577352 0.000000
O O13 0.750000 0.750000 0.846232
#
# Coordination Sequence:
#
# PCOD8204738 Si02
#       5
#     8   8   8   8   8
#     4  12  21  32  55  85 104 136 187 226 264 327
#     4  10  23  39  53  77 114 149 179 226 285 324
#     4  10  16  30  48  74 109 132 161 218 264 307
#     4  10  21  36  57  85 115 144 177 228 286 325
#     4  10  21  39  58  76 107 151 189 223 268 329
#
# _framework density 19.368027999999999
#
# number of rings (size 3 to 8) (size 9 to 14) (size 15 to 20)
#    0.000    1.600    4.000    2.400    0.000    5.200 
#    0.000    0.000    0.000    7.800    0.000    2.800 
#    0.000    0.000    0.000    0.000    0.000    0.000 
#
# Total GULP energy -495739.240703 kJ/mol
# GULP energy per Si atom -12393.481018 kJ/mol
# Density = 1.932395 g / cm^3
# Si number density = 19.368028 Si / 1000 Ang^3
#
#
#
# Elastic Constant Matrix: (Units=GPa)
#
#
# Indices 1 2 3 4 5 6 
#
# 1 132.6942 24.9559 34.1990 0.0000 0.0000 0.0000
# 2 24.9559 51.2684 66.0438 0.0000 0.0000 0.0000
# 3 34.1990 66.0438 138.2659 0.0000 0.0000 0.0000
# 4 0.0000 0.0000 0.0000 6.8172 0.0000 0.0000
# 5 0.0000 0.0000 0.0000 0.0000 30.7195 0.0000
# 6 0.0000 0.0000 0.0000 0.0000 0.0000 14.2498
#
#
#
# Elastic Compliance Matrix: (Units=1/GPa)
#
#
# Indices 1 2 3 4 5 6 
#
# 1 0.008301 -0.003628 -0.000320 0.000000 0.000000 0.000000
# 2 -0.003628 0.052291 -0.024080 0.000000 0.000000 0.000000
# 3 -0.000320 -0.024080 0.018813 0.000000 0.000000 0.000000
# 4 0.000000 0.000000 0.000000 0.146688 0.000000 0.000000
# 5 0.000000 0.000000 0.000000 0.000000 0.032553 0.000000
# 6 0.000000 0.000000 0.000000 0.000000 0.000000 0.070176
#
#
# Mechanical properties :
#
#
# Convention : Reuss Voigt Hill
#
# Bulk Modulus (GPa) = 42.82835 63.62507 53.22671
# Shear Modulus (GPa) = 12.73365 23.49264 18.11314
#
# Velocity S-wave (km/s) = 2.56687 3.48654 3.06144
# Velocity P-wave (km/s) = 5.56292 7.00926 6.32755
#
# Compressibility (1/GPa) = 0.02334902
#
# Stress axis : x y z
#
# Youngs Moduli (GPa) = 120.46737 19.12389 53.15362
#
# Poissons Ratio (x) = 0.06939 0.01701
# Poissons Ratio (y) = 0.43710 1.27992
# Poissons Ratio (z) = 0.03856 0.46049
#
# Static dielectric constant tensor:
#      x y z
#    x 3.729250 0.000000 0.000000 
#    y 0.000000 3.095740 0.000000 
#    z 0.000000 0.000000 3.764750 
# 
# 
# High freq. dielectric constant tensor:
#      x y z
#    x 1.787610 0.000000 0.000000 
#    y 0.000000 1.711420 0.000000 
#    z 0.000000 0.000000 1.758280 
# 
# From -- ./inp_files/28060.got.cif
#   From: 2010.03.12/outbox.cif.g09.slc.cpg/sg50_15_cif.got.tgz:28060.got - 2010.04.16 13:23:21.
