data_PCOD8204957
_publ_section_title
;
Structure prediction by ZEFSAII (Michael W. Deem and Ramdas Pophale) SiO2 
 PCOD8204957
Probable space group: P B A N
;
_chemical_formula_sum "Si O2"
_cell_formula_units_Z 34
_cell_length_a 8.853863
_cell_length_b 20.562155
_cell_length_c 9.266266
_cell_angle_alpha 90.000000
_cell_angle_beta 90.000000
_cell_angle_gamma 90.000000
_cell_volume 1686.965455
_symmetry_space_group_name_H-M "P B A N"
_symmetry_group_IT_number 50
_space_group.IT_coordinate_system_code '2'
_symmetry_cell_setting 'orthorhombic'
loop_
_space_group_symop_operation_xyz
x,y,z
1/2-x,1/2-y,z
x,1/2-y,-z
1/2-x,y,-z
-x,-y,-z
1/2+x,1/2+y,-z
-x,1/2+y,z
1/2+x,-y,z
loop_
_atom_site_type_symbol
_atom_site_label
_atom_site_fract_x
_atom_site_fract_y
_atom_site_fract_z
Si Si1 0.250000 0.750000 0.500000
Si Si2 0.260228 0.325594 0.159273
Si Si3 0.538307 0.142839 0.643401
Si Si4 0.755323 0.038821 0.664777
Si Si5 0.427968 0.087128 0.343251
O O1 0.358358 0.795568 0.402537
O O2 0.250000 0.250000 0.141112
O O3 0.416052 0.337424 0.240227
O O4 0.115966 0.350423 0.249990
O O5 0.250000 0.358295 0.000000
O O6 0.637239 0.089765 0.733160
O O7 0.451675 0.109488 0.507768
O O8 0.750000 0.062132 0.500000
O O9 0.924502 0.050981 0.722474
O O10 0.710234 0.963551 0.676601
#
# Coordination Sequence:
#
# PCOD8204957 Si02
#       5
#     2   8   8   8   8
#     4  12  20  36  66 102 124 156 216 274 312 364
#     4  11  25  42  60  84 124 168 210 254 313 375
#     4  11  21  37  63  93 124 155 206 257 308 371
#     4  10  19  34  62  95 127 153 199 255 314 365
#     4  11  20  39  63  96 122 164 204 258 311 369
#
# _framework density 20.154533000000001
#
# number of rings (size 3 to 8) (size 9 to 14) (size 15 to 20)
#    0.000    1.176    3.529    7.765    0.000    0.941 
#    0.000    5.882    0.000    0.000    0.000    0.000 
#    0.000    0.000    0.000    0.000    0.000    0.000 
#
# Total GULP energy -421370.989377 kJ/mol
# GULP energy per Si atom -12393.264393 kJ/mol
# Density = 2.010866 g / cm^3
# Si number density = 20.154533 Si / 1000 Ang^3
#
#
#
# Elastic Constant Matrix: (Units=GPa)
#
#
# Indices 1 2 3 4 5 6 
#
# 1 133.8186 45.6551 59.5847 0.0000 0.0000 0.0000
# 2 45.6551 100.1214 32.1234 0.0000 0.0000 0.0000
# 3 59.5847 32.1234 85.2106 0.0000 0.0000 0.0000
# 4 0.0000 0.0000 0.0000 12.8876 0.0000 0.0000
# 5 0.0000 0.0000 0.0000 0.0000 3.5225 0.0000
# 6 0.0000 0.0000 0.0000 0.0000 0.0000 49.6274
#
#
#
# Elastic Compliance Matrix: (Units=1/GPa)
#
#
# Indices 1 2 3 4 5 6 
#
# 1 0.011622 -0.003063 -0.006972 0.000000 0.000000 0.000000
# 2 -0.003063 0.012169 -0.002446 0.000000 0.000000 0.000000
# 3 -0.006972 -0.002446 0.017533 0.000000 0.000000 0.000000
# 4 0.000000 0.000000 0.000000 0.077594 0.000000 0.000000
# 5 0.000000 0.000000 0.000000 0.000000 0.283892 0.000000
# 6 0.000000 0.000000 0.000000 0.000000 0.000000 0.020150
#
#
# Mechanical properties :
#
#
# Convention : Reuss Voigt Hill
#
# Bulk Modulus (GPa) = 61.11521 65.98632 63.55077
# Shear Modulus (GPa) = 11.02833 25.32666 18.17750
#
# Velocity S-wave (km/s) = 2.34174 3.54873 3.00643
# Velocity P-wave (km/s) = 6.14010 7.04291 6.60695
#
# Compressibility (1/GPa) = 0.01636254
#
# Stress axis : x y z
#
# Youngs Moduli (GPa) = 86.04157 82.17442 57.03410
#
# Poissons Ratio (x) = 0.25167 0.39767
# Poissons Ratio (y) = 0.26352 0.13951
# Poissons Ratio (z) = 0.59992 0.20100
#
# Static dielectric constant tensor:
#      x y z
#    x 4.105590 0.000000 0.000000 
#    y 0.000000 3.812500 0.000000 
#    z 0.000000 0.000000 3.396690 
# 
# 
# High freq. dielectric constant tensor:
#      x y z
#    x 1.810450 0.000000 0.000000 
#    y 0.000000 1.806450 0.000000 
#    z 0.000000 0.000000 1.730360 
# 
# From -- ./inp_files/9212.got.cif
#   From: 2010.03.12/outbox.cif.g09.slc.cpg/sg50_5_cif.got.tgz:9212.got - 2010.04.16 13:23:21.
