data_PCOD8204184
_publ_section_title
;
Structure prediction by ZEFSAII (Michael W. Deem and Ramdas Pophale) SiO2 
 PCOD8204184
Probable space group: P C C M
;
_chemical_formula_sum "Si O2"
_cell_formula_units_Z 64
_cell_length_a 14.280432
_cell_length_b 12.006242
_cell_length_c 17.634863
_cell_angle_alpha 90.000000
_cell_angle_beta 90.000000
_cell_angle_gamma 90.000000
_cell_volume 3023.573487
_symmetry_space_group_name_H-M "P C C M"
_symmetry_group_IT_number 49
_symmetry_cell_setting 'orthorhombic'
loop_
_space_group_symop_operation_xyz
x,y,z
-x,-y,z
x,-y,1/2-z
-x,y,1/2-z
-x,-y,-z
x,y,-z
-x,y,1/2+z
x,-y,1/2+z
loop_
_atom_site_type_symbol
_atom_site_label
_atom_site_fract_x
_atom_site_fract_y
_atom_site_fract_z
Si Si1 0.285112 0.023080 0.415014
Si Si2 0.768616 0.435885 0.176837
Si Si3 0.073777 0.085643 0.416061
Si Si4 0.266246 0.170991 0.802103
Si Si5 0.366129 0.759354 0.840642
Si Si6 0.259521 0.358909 0.084856
Si Si7 0.901202 0.754056 0.710753
Si Si8 0.519645 0.623620 0.086536
O O1 0.320946 0.987271 0.500000
O O2 0.174418 0.029369 0.418354
O O3 0.336316 0.137707 0.393570
O O4 0.306076 0.934627 0.348017
O O5 0.725250 0.500000 0.250000
O O6 0.698257 0.346765 0.140677
O O7 0.787662 0.525433 0.111000
O O8 0.861463 0.371305 0.204573
O O9 0.037622 0.114758 0.500000
O O10 0.078423 0.201717 0.372882
O O11 0.000000 0.000000 0.377383
O O12 0.352892 0.210139 0.748495
O O13 0.225935 0.261562 0.860412
O O14 0.174025 0.157862 0.748200
O O15 0.470923 0.719122 0.861552
O O16 0.370779 0.358295 0.090433
O O17 0.225016 0.334204 0.000000
O O18 0.000000 0.748741 0.750000
O O19 0.500000 0.500000 0.118704
O O20 0.482272 0.633893 0.000000
#
# Coordination Sequence:
#
# PCOD8204184 Si02
#       8
#     8   8   8   8   8   8   8   8
#     4  11  22  38  63  91 129 175 217 272 329 389
#     4  11  21  41  60  94 128 166 217 267 324 391
#     4  10  21  37  60  96 131 164 217 277 328 385
#     4  11  23  41  59  93 129 174 224 262 330 401
#     4  11  21  37  65  95 129 162 218 270 320 398
#     4  11  23  41  64  89 129 170 210 268 332 401
#     4  11  23  39  66  93 129 176 223 277 329 398
#     4  10  21  36  61  97 127 161 208 263 333 397
#
# _framework density 21.167007000000002
#
# number of rings (size 3 to 8) (size 9 to 14) (size 15 to 20)
#    0.000    1.250    6.250    1.875    0.000    3.000 
#    0.000    2.500    0.000    4.500    0.000    0.000 
#    0.000    0.000    0.000    0.000    0.000    0.000 
#
# Total GULP energy -793304.254818 kJ/mol
# GULP energy per Si atom -12395.378982 kJ/mol
# Density = 2.111883 g / cm^3
# Si number density = 21.167007 Si / 1000 Ang^3
#
#
#
# Elastic Constant Matrix: (Units=GPa)
#
#
# Indices 1 2 3 4 5 6 
#
# 1 51.9725 20.8111 23.7277 0.0000 0.0000 0.0000
# 2 20.8111 115.7034 48.9915 0.0000 0.0000 0.0000
# 3 23.7277 48.9915 127.3034 0.0000 0.0000 0.0000
# 4 0.0000 0.0000 0.0000 182.9058 0.0000 0.0000
# 5 0.0000 0.0000 0.0000 0.0000 20.7830 0.0000
# 6 0.0000 0.0000 0.0000 0.0000 0.0000 15.2194
#
#
#
# Elastic Compliance Matrix: (Units=1/GPa)
#
#
# Indices 1 2 3 4 5 6 
#
# 1 0.021673 -0.002614 -0.003034 0.000000 0.000000 0.000000
# 2 -0.002614 0.010641 -0.003608 0.000000 0.000000 0.000000
# 3 -0.003034 -0.003608 0.009809 0.000000 0.000000 0.000000
# 4 0.000000 0.000000 0.000000 0.005467 0.000000 0.000000
# 5 0.000000 0.000000 0.000000 0.000000 0.048116 0.000000
# 6 0.000000 0.000000 0.000000 0.000000 0.000000 0.065706
#
#
# Mechanical properties :
#
#
# Convention : Reuss Voigt Hill
#
# Bulk Modulus (GPa) = 42.35126 53.56000 47.95563
# Shear Modulus (GPa) = 26.62519 57.21156 41.91838
#
# Velocity S-wave (km/s) = 3.55048 5.20455 4.45496
# Velocity P-wave (km/s) = 6.07120 7.84059 7.01193
#
# Compressibility (1/GPa) = 0.02361205
#
# Stress axis : x y z
#
# Youngs Moduli (GPa) = 46.14138 93.98053 101.94623
#
# Poissons Ratio (x) = 0.24563 0.30927
# Poissons Ratio (y) = 0.12060 0.36780
# Poissons Ratio (z) = 0.13998 0.33906
#
# Static dielectric constant tensor:
#      x y z
#    x 3.608360 0.000000 0.000000 
#    y 0.000000 3.950460 0.000000 
#    z 0.000000 0.000000 4.246520 
# 
# 
# High freq. dielectric constant tensor:
#      x y z
#    x 1.803060 0.000000 0.000000 
#    y 0.000000 1.828140 0.000000 
#    z 0.000000 0.000000 1.842220 
# 
# From -- ./inp_files/17929.got.cif
#   From: 2010.03.12/outbox.cif.g09.slc.cpg/sg49_9_cif.got.tgz:17929.got - 2010.04.14 03:58:27.
