data_PCOD8204482
_publ_section_title
;
Structure prediction by ZEFSAII (Michael W. Deem and Ramdas Pophale) SiO2 
 PCOD8204482
Probable space group: P C C M
;
_chemical_formula_sum "Si O2"
_cell_formula_units_Z 48
_cell_length_a 9.094997
_cell_length_b 12.601076
_cell_length_c 17.953052
_cell_angle_alpha 90.000000
_cell_angle_beta 90.000000
_cell_angle_gamma 90.000000
_cell_volume 2057.540914
_symmetry_space_group_name_H-M "P C C M"
_symmetry_group_IT_number 49
_symmetry_cell_setting 'orthorhombic'
loop_
_space_group_symop_operation_xyz
x,y,z
-x,-y,z
x,-y,1/2-z
-x,y,1/2-z
-x,-y,-z
x,y,-z
-x,y,1/2+z
x,-y,1/2+z
loop_
_atom_site_type_symbol
_atom_site_label
_atom_site_fract_x
_atom_site_fract_y
_atom_site_fract_z
Si Si1 0.856634 0.388144 0.415252
Si Si2 0.519615 0.678061 0.084611
Si Si3 0.274379 0.437223 0.323212
Si Si4 0.598751 0.903900 0.087585
Si Si5 0.168606 0.022909 0.669145
Si Si6 0.922487 0.245360 0.824193
O O1 0.908830 0.406906 0.500000
O O2 0.686772 0.357350 0.412006
O O3 0.852416 0.499743 0.370345
O O4 0.959623 0.295773 0.381381
O O5 0.418429 0.596373 0.130117
O O6 0.525358 0.796622 0.120115
O O7 0.459177 0.677629 0.000000
O O8 0.326822 0.500000 0.250000
O O9 0.192483 0.332450 0.295975
O O10 0.500000 0.000000 0.115828
O O11 0.761147 0.936409 0.113626
O O12 0.605800 0.888934 0.000000
O O13 0.174983 0.147362 0.642627
O O14 0.240479 0.000000 0.750000
O O15 0.000000 0.000000 0.669182
O O16 0.000000 0.200067 0.750000
#
# Coordination Sequence:
#
# PCOD8204482 Si02
#       6
#     8   8   8   8   8   8
#     4  11  25  44  68  97 134 181 231 281 341 404
#     4  10  23  44  67  97 137 176 227 287 340 408
#     4  12  25  41  66  98 136 183 231 282 341 407
#     4  10  22  42  67  98 132 171 220 278 337 401
#     4  11  23  41  67  94 132 172 217 274 337 406
#     4  12  24  44  65  97 137 177 225 285 343 403
#
# _framework density 23.328818999999999
#
# number of rings (size 3 to 8) (size 9 to 14) (size 15 to 20)
#    0.000    1.000    3.333    3.500    0.000    6.000 
#    0.000    1.667    0.000    0.000    0.000    0.000 
#    0.000    0.000    0.000    0.000    0.000    0.000 
#
# Total GULP energy -594911.963781 kJ/mol
# GULP energy per Si atom -12393.999245 kJ/mol
# Density = 2.327572 g / cm^3
# Si number density = 23.328819 Si / 1000 Ang^3
#
#
#
# Elastic Constant Matrix: (Units=GPa)
#
#
# Indices 1 2 3 4 5 6 
#
# 1 76.1807 35.8718 35.4058 0.0000 0.0000 0.0000
# 2 35.8718 163.9860 48.9685 0.0000 0.0000 0.0000
# 3 35.4058 48.9685 87.0709 0.0000 0.0000 0.0000
# 4 0.0000 0.0000 0.0000 29.7386 0.0000 0.0000
# 5 0.0000 0.0000 0.0000 0.0000 22.1220 0.0000
# 6 0.0000 0.0000 0.0000 0.0000 0.0000 18.1693
#
#
#
# Elastic Compliance Matrix: (Units=1/GPa)
#
#
# Indices 1 2 3 4 5 6 
#
# 1 0.016690 -0.001952 -0.005689 0.000000 0.000000 0.000000
# 2 -0.001952 0.007557 -0.003456 0.000000 0.000000 0.000000
# 3 -0.005689 -0.003456 0.015742 0.000000 0.000000 0.000000
# 4 0.000000 0.000000 0.000000 0.033626 0.000000 0.000000
# 5 0.000000 0.000000 0.000000 0.000000 0.045204 0.000000
# 6 0.000000 0.000000 0.000000 0.000000 0.000000 0.055038
#
#
# Mechanical properties :
#
#
# Convention : Reuss Voigt Hill
#
# Bulk Modulus (GPa) = 56.19709 63.08110 59.63909
# Shear Modulus (GPa) = 24.75456 27.80542 26.27999
#
# Velocity S-wave (km/s) = 3.26101 3.45612 3.35998
# Velocity P-wave (km/s) = 6.19034 6.55935 6.37752
#
# Compressibility (1/GPa) = 0.01779452
#
# Stress axis : x y z
#
# Youngs Moduli (GPa) = 59.91682 132.32358 63.52450
#
# Poissons Ratio (x) = 0.25832 0.36137
# Poissons Ratio (y) = 0.11697 0.21956
# Poissons Ratio (z) = 0.34085 0.45736
#
# Static dielectric constant tensor:
#      x y z
#    x 4.007090 0.000000 0.000000 
#    y 0.000000 7.947550 0.000000 
#    z 0.000000 0.000000 4.253910 
# 
# 
# High freq. dielectric constant tensor:
#      x y z
#    x 1.925720 0.000000 0.000000 
#    y 0.000000 1.952440 0.000000 
#    z 0.000000 0.000000 1.904480 
# 
# From -- ./inp_files/16291.got.cif
#   From: 2010.03.12/outbox.cif.g09.slc.cpg/sg49_9_cif.got.tgz:16291.got - 2010.04.14 03:58:27.
