data_PCOD8204913
_publ_section_title
;
Structure prediction by ZEFSAII (Michael W. Deem and Ramdas Pophale) SiO2 
 PCOD8204913
Probable space group: P B A N
;
_chemical_formula_sum "Si O2"
_cell_formula_units_Z 58
_cell_length_a 34.313667
_cell_length_b 17.022018
_cell_length_c 5.237207
_cell_angle_alpha 90.000000
_cell_angle_beta 90.000000
_cell_angle_gamma 90.000000
_cell_volume 3058.989015
_symmetry_space_group_name_H-M "P B A N"
_symmetry_group_IT_number 50
_space_group.IT_coordinate_system_code '2'
_symmetry_cell_setting 'orthorhombic'
loop_
_space_group_symop_operation_xyz
x,y,z
1/2-x,1/2-y,z
x,1/2-y,-z
1/2-x,y,-z
-x,-y,-z
1/2+x,1/2+y,-z
-x,1/2+y,z
1/2+x,-y,z
loop_
_atom_site_type_symbol
_atom_site_label
_atom_site_fract_x
_atom_site_fract_y
_atom_site_fract_z
Si Si1 0.588575 0.837012 0.490137
Si Si2 0.205710 0.656674 0.499783
Si Si3 0.454046 0.001798 0.491330
Si Si4 0.750000 0.750000 0.500000
Si Si5 0.340627 0.656697 0.000527
Si Si6 0.588241 0.047522 0.999053
Si Si7 0.210829 0.163389 0.106633
Si Si8 0.370841 0.386552 0.983582
O O1 0.568954 0.750000 0.500000
O O2 0.620807 0.843042 0.715295
O O3 0.557231 0.906119 0.530261
O O4 0.607408 0.842603 0.211978
O O5 0.207463 0.750000 0.500000
O O6 0.250000 0.623248 0.500000
O O7 0.182906 0.626540 0.750770
O O8 0.182587 0.626659 0.249717
O O9 0.436494 0.960303 0.741695
O O10 0.500000 0.000000 0.500000
O O11 0.440494 0.952070 0.244529
O O12 0.780331 0.814510 0.605332
O O13 0.384965 0.624876 0.004817
O O14 0.344195 0.750000 0.000000
O O15 0.617597 0.976257 0.964550
O O16 0.203981 0.250000 0.000000
O O17 0.250000 0.122434 0.000000
O O18 0.174609 0.108370 0.049358
#
# Coordination Sequence:
#
# PCOD8204913 Si02
#       8
#     8   8   8   2   8   8   8   8
#     4  10  20  34  55  83 104 131 177 217 254 302
#     4   9  17  30  51  78 106 142 184 227 272 311
#     4  10  21  39  60  80 109 143 168 210 273 335
#     4   8  18  28  44  66  96 132 178 218 250 304
#     4  10  19  33  55  79 110 143 183 233 266 319
#     4  10  21  38  56  80 107 139 180 214 271 333
#     4   9  18  29  44  68  96 134 176 211 257 297
#     4  10  21  33  53  73 105 142 172 222 261 302
#
# _framework density 18.960512999999999
#
# number of rings (size 3 to 8) (size 9 to 14) (size 15 to 20)
#    0.000    2.483    0.000    2.897    4.828    1.655 
#    0.000    2.759    1.517    0.000    0.000    0.000 
#    0.000    0.000    0.000    0.000    0.000    0.000 
#
# Total GULP energy -718547.981135 kJ/mol
# GULP energy per Si atom -12388.758295 kJ/mol
# Density = 1.891736 g / cm^3
# Si number density = 18.960513 Si / 1000 Ang^3
#
#
#
# Elastic Constant Matrix: (Units=GPa)
#
#
# Indices 1 2 3 4 5 6 
#
# 1 150.9078 33.4766 54.6051 0.0000 0.0000 0.0000
# 2 33.4766 44.0776 23.8702 0.0000 0.0000 0.0000
# 3 54.6051 23.8702 145.4380 0.0000 0.0000 0.0000
# 4 0.0000 0.0000 0.0000 15.8465 0.0000 0.0000
# 5 0.0000 0.0000 0.0000 0.0000 34.4712 0.0000
# 6 0.0000 0.0000 0.0000 0.0000 0.0000 20.9156
#
#
#
# Elastic Compliance Matrix: (Units=1/GPa)
#
#
# Indices 1 2 3 4 5 6 
#
# 1 0.008662 -0.005288 -0.002384 0.000000 0.000000 0.000000
# 2 -0.005288 0.028128 -0.002631 0.000000 0.000000 0.000000
# 3 -0.002384 -0.002631 0.008203 0.000000 0.000000 0.000000
# 4 0.000000 0.000000 0.000000 0.063105 0.000000 0.000000
# 5 0.000000 0.000000 0.000000 0.000000 0.029010 0.000000
# 6 0.000000 0.000000 0.000000 0.000000 0.000000 0.047811
#
#
# Mechanical properties :
#
#
# Convention : Reuss Voigt Hill
#
# Bulk Modulus (GPa) = 41.00621 62.70301 51.85461
# Shear Modulus (GPa) = 23.40217 29.47810 26.44014
#
# Velocity S-wave (km/s) = 3.51701 3.94726 3.73833
# Velocity P-wave (km/s) = 6.17791 7.34279 6.78540
#
# Compressibility (1/GPa) = 0.02438655
#
# Stress axis : x y z
#
# Youngs Moduli (GPa) = 115.44204 35.55152 121.90808
#
# Poissons Ratio (x) = 0.18799 0.29068
# Poissons Ratio (y) = 0.61042 0.32078
# Poissons Ratio (z) = 0.27527 0.09355
#
# Static dielectric constant tensor:
#      x y z
#    x 3.219160 0.000000 0.000000 
#    y 0.000000 3.190600 0.000000 
#    z 0.000000 0.000000 3.917280 
# 
# 
# High freq. dielectric constant tensor:
#      x y z
#    x 1.727450 0.000000 0.000000 
#    y 0.000000 1.707200 0.000000 
#    z 0.000000 0.000000 1.760730 
# 
# From -- ./inp_files/7277.got.cif
#   From: 2010.03.12/outbox.cif.g09.slc.cpg/sg50_4_cif.got.tgz:7277.got - 2010.04.16 13:23:21.
