data_PCOD8204131
_publ_section_title
;
Structure prediction by ZEFSAII (Michael W. Deem and Ramdas Pophale) SiO2 
 PCOD8204131
Probable space group: P C C M
;
_chemical_formula_sum "Si O2"
_cell_formula_units_Z 64
_cell_length_a 25.753111
_cell_length_b 9.262399
_cell_length_c 14.643564
_cell_angle_alpha 90.000000
_cell_angle_beta 90.000000
_cell_angle_gamma 90.000000
_cell_volume 3493.011172
_symmetry_space_group_name_H-M "P C C M"
_symmetry_group_IT_number 49
_symmetry_cell_setting 'orthorhombic'
loop_
_space_group_symop_operation_xyz
x,y,z
-x,-y,z
x,-y,1/2-z
-x,y,1/2-z
-x,-y,-z
x,y,-z
-x,y,1/2+z
x,-y,1/2+z
loop_
_atom_site_type_symbol
_atom_site_label
_atom_site_fract_x
_atom_site_fract_y
_atom_site_fract_z
Si Si1 0.819365 0.829992 0.750000
Si Si2 0.373726 0.331592 0.106142
Si Si3 0.000000 0.664140 0.642595
Si Si4 0.101250 0.162049 0.398463
Si Si5 0.561258 0.166498 0.250000
Si Si6 0.898750 0.162049 0.601537
Si Si7 0.626274 0.331592 0.106142
Si Si8 0.287011 0.335387 0.750000
O O1 0.852305 0.776158 0.662996
O O2 0.852305 0.776158 0.837004
O O3 0.763221 0.762013 0.750000
O O4 0.811007 0.000000 0.750000
O O5 0.418225 0.241402 0.157374
O O6 0.388285 0.500000 0.113867
O O7 0.319731 0.300863 0.158451
O O8 0.369169 0.283698 0.000000
O O9 0.949226 0.739593 0.603980
O O10 0.000000 0.500000 0.608346
O O11 0.000000 0.676079 0.750000
O O12 0.050774 0.739593 0.603980
O O13 0.123742 0.160659 0.500000
O O14 0.085846 1.000000 0.366252
O O15 0.500000 0.181949 0.250000
O O16 0.581775 0.241402 0.157374
O O17 0.579045 0.000000 0.250000
O O18 0.876258 0.160659 0.500000
O O19 0.680269 0.300863 0.158451
O O20 0.630831 0.283698 0.000000
O O21 0.268698 0.500000 0.750000
#
# Coordination Sequence:
#
# PCOD8204131 Si02
#       8
#     8   8   8   8   8   8   8   8
#     4  10  21  36  53  76 106 136 171 215 259 309
#     4   9  19  37  59  81 107 145 191 231 269 320
#     4  11  22  35  54  79 105 132 165 208 259 311
#     4  10  21  37  56  76 100 135 174 208 251 310
#     4  10  21  35  52  81 120 153 182 224 277 325
#     4  10  21  37  56  76 100 135 174 208 251 310
#     4   9  19  37  59  81 107 145 191 231 269 320
#     4   9  19  35  55  79 107 137 175 224 273 318
#
# _framework density 18.322299999999998
#
# number of rings (size 3 to 8) (size 9 to 14) (size 15 to 20)
#    0.000    2.250    1.250    1.875    0.000    8.500 
#    0.000    2.500    0.000    0.000    0.000    0.000 
#    0.000    0.000    0.000    0.000    0.000    0.000 
#
# Total GULP energy -793576.208784 kJ/mol
# GULP energy per Si atom -12399.628262 kJ/mol
# Density = 1.828060 g / cm^3
# Si number density = 18.322300 Si / 1000 Ang^3
#
#
#
# Elastic Constant Matrix: (Units=GPa)
#
#
# Indices 1 2 3 4 5 6 
#
# 1 125.5085 61.3074 63.9155 0.0000 0.0000 0.0000
# 2 61.3074 83.0573 50.8466 0.0000 0.0000 0.0000
# 3 63.9155 50.8466 157.8014 0.0000 0.0000 0.0000
# 4 0.0000 0.0000 0.0000 18.2712 0.0000 0.0000
# 5 0.0000 0.0000 0.0000 0.0000 27.1116 0.0000
# 6 0.0000 0.0000 0.0000 0.0000 0.0000 51.3481
#
#
#
# Elastic Compliance Matrix: (Units=1/GPa)
#
#
# Indices 1 2 3 4 5 6 
#
# 1 0.013376 -0.008168 -0.002786 0.000000 0.000000 0.000000
# 2 -0.008168 0.019986 -0.003132 0.000000 0.000000 0.000000
# 3 -0.002786 -0.003132 0.008475 0.000000 0.000000 0.000000
# 4 0.000000 0.000000 0.000000 0.054731 0.000000 0.000000
# 5 0.000000 0.000000 0.000000 0.000000 0.036885 0.000000
# 6 0.000000 0.000000 0.000000 0.000000 0.000000 0.019475
#
#
# Mechanical properties :
#
#
# Convention : Reuss Voigt Hill
#
# Bulk Modulus (GPa) = 73.17521 79.83403 76.50462
# Shear Modulus (GPa) = 26.93194 32.03270 29.48232
#
# Velocity S-wave (km/s) = 3.83809 4.18579 4.01570
# Velocity P-wave (km/s) = 7.72436 8.18705 7.95907
#
# Compressibility (1/GPa) = 0.01366583
#
# Stress axis : x y z
#
# Youngs Moduli (GPa) = 74.76011 50.03520 118.00016
#
# Poissons Ratio (x) = 0.40868 0.32875
# Poissons Ratio (y) = 0.61063 0.36953
# Poissons Ratio (z) = 0.20828 0.15669
#
# Static dielectric constant tensor:
#      x y z
#    x 3.185660 0.000000 0.000000 
#    y 0.000000 3.422630 0.000000 
#    z 0.000000 0.000000 3.733760 
# 
# 
# High freq. dielectric constant tensor:
#      x y z
#    x 1.700220 0.000000 0.000000 
#    y 0.000000 1.707610 0.000000 
#    z 0.000000 0.000000 1.725330 
# 
# From -- ./inp_files/14526.got.cif
#   From: 2010.03.12/outbox.cif.g09.slc.cpg/sg49_8_cif.got.tgz:14526.got - 2010.04.14 03:58:27.
