data_PCOD8204650
_publ_section_title
;
Structure prediction by ZEFSAII (Michael W. Deem and Ramdas Pophale) SiO2 
 PCOD8204650
Probable space group: P C C M
;
_chemical_formula_sum "Si O2"
_cell_formula_units_Z 40
_cell_length_a 16.877448
_cell_length_b 8.846335
_cell_length_c 13.899841
_cell_angle_alpha 90.000000
_cell_angle_beta 90.000000
_cell_angle_gamma 90.000000
_cell_volume 2075.295730
_symmetry_space_group_name_H-M "P C C M"
_symmetry_group_IT_number 49
_symmetry_cell_setting 'orthorhombic'
loop_
_space_group_symop_operation_xyz
x,y,z
-x,-y,z
x,-y,1/2-z
-x,y,1/2-z
-x,-y,-z
x,y,-z
-x,y,1/2+z
x,-y,1/2+z
loop_
_atom_site_type_symbol
_atom_site_label
_atom_site_fract_x
_atom_site_fract_y
_atom_site_fract_z
Si Si1 0.511770 0.179297 0.605984
Si Si2 0.046449 0.734803 0.500000
Si Si3 0.080098 0.835948 0.294527
Si Si4 0.875141 0.407296 0.000000
Si Si5 0.786880 0.651625 0.300838
Si Si6 0.371199 0.177772 0.737536
O O1 0.516347 0.249429 0.500000
O O2 0.433679 0.238645 0.659177
O O3 0.592890 0.231553 0.659499
O O4 0.500000 0.000000 0.604425
O O5 0.069950 0.839652 0.409608
O O6 0.097363 0.580976 0.500000
O O7 0.952581 0.699543 0.500000
O O8 0.147536 0.719603 0.268812
O O9 0.000000 0.768677 0.250000
O O10 0.098627 0.000000 0.250000
O O11 0.820855 0.371243 0.907718
O O12 0.758194 0.500000 0.250000
O O13 0.712222 0.761192 0.298144
O O14 0.362191 0.000000 0.750000
#
# Coordination Sequence:
#
# PCOD8204650 Si02
#       6
#     8   4   8   4   8   8
#     4   8  15  33  60  87 116 157 201 244 308 374
#     4  11  22  44  67  90 118 168 218 254 314 377
#     4  11  24  41  65  91 125 157 203 268 315 366
#     4  11  24  39  68  89 119 172 216 246 310 384
#     4  12  24  41  60  90 125 166 207 251 310 373
#     4   9  19  36  60  89 123 154 198 260 306 357
#
# _framework density 19.274363000000001
#
# number of rings (size 3 to 8) (size 9 to 14) (size 15 to 20)
#    0.000    1.800    4.000    1.800    1.400    2.800 
#    3.600    2.000    0.000    1.200    0.000    0.000 
#    0.000    0.000    0.000    0.000    0.000    0.000 
#
# Total GULP energy -495726.588196 kJ/mol
# GULP energy per Si atom -12393.164705 kJ/mol
# Density = 1.923049 g / cm^3
# Si number density = 19.274363 Si / 1000 Ang^3
#
#
#
# Elastic Constant Matrix: (Units=GPa)
#
#
# Indices 1 2 3 4 5 6 
#
# 1 111.5646 21.9383 54.3111 0.0000 0.0000 0.0000
# 2 21.9383 53.8508 35.3803 0.0000 0.0000 0.0000
# 3 54.3111 35.3803 190.6425 0.0000 0.0000 0.0000
# 4 0.0000 0.0000 0.0000 26.0321 0.0000 0.0000
# 5 0.0000 0.0000 0.0000 0.0000 22.9530 0.0000
# 6 0.0000 0.0000 0.0000 0.0000 0.0000 -57.1287
#
#
#
# Elastic Compliance Matrix: (Units=1/GPa)
#
#
# Indices 1 2 3 4 5 6 
#
# 1 0.010739 -0.002693 -0.002560 0.000000 0.000000 0.000000
# 2 -0.002693 0.021824 -0.003283 0.000000 0.000000 0.000000
# 3 -0.002560 -0.003283 0.006584 0.000000 0.000000 0.000000
# 4 0.000000 0.000000 0.000000 0.038414 0.000000 0.000000
# 5 0.000000 0.000000 0.000000 0.000000 0.043567 0.000000
# 6 0.000000 0.000000 0.000000 0.000000 0.000000 -0.017504
#
#
# Mechanical properties :
#
#
# Convention : Reuss Voigt Hill
#
# Bulk Modulus (GPa) = 45.29956 64.36860 54.83408
# Shear Modulus (GPa) = 39.04606 14.66651 26.85628
#
# Velocity S-wave (km/s) = 4.50577 2.76149 3.73683
# Velocity P-wave (km/s) = 7.11497 6.60578 6.86510
#
# Compressibility (1/GPa) = 0.02207527
#
# Stress axis : x y z
#
# Youngs Moduli (GPa) = 93.11805 45.82124 151.88683
#
# Poissons Ratio (x) = 0.12341 0.38876
# Poissons Ratio (y) = 0.25080 0.49863
# Poissons Ratio (z) = 0.23834 0.15043
#
# Static dielectric constant tensor:
#      x y z
#    x 3.526780 0.000000 0.000000 
#    y 0.000000 3.237980 0.000000 
#    z 0.000000 0.000000 3.828480 
# 
# 
# High freq. dielectric constant tensor:
#      x y z
#    x 1.753070 0.000000 0.000000 
#    y 0.000000 1.726010 0.000000 
#    z 0.000000 0.000000 1.764680 
# 
# From -- ./inp_files/11626.got.cif
#   From: 2010.03.12/outbox.cif.g09.slc.cpg/sg49_6_cif.got.tgz:11626.got - 2010.04.14 03:58:27.
