data_PCOD8204126
_publ_section_title
;
Structure prediction by ZEFSAII (Michael W. Deem and Ramdas Pophale) SiO2 
 PCOD8204126
Probable space group: P C C M
;
_chemical_formula_sum "Si O2"
_cell_formula_units_Z 64
_cell_length_a 15.936586
_cell_length_b 12.600957
_cell_length_c 15.594391
_cell_angle_alpha 90.000000
_cell_angle_beta 90.000000
_cell_angle_gamma 90.000000
_cell_volume 3131.606886
_symmetry_space_group_name_H-M "P C C M"
_symmetry_group_IT_number 49
_symmetry_cell_setting 'orthorhombic'
loop_
_space_group_symop_operation_xyz
x,y,z
-x,-y,z
x,-y,1/2-z
-x,y,1/2-z
-x,-y,-z
x,y,-z
-x,y,1/2+z
x,-y,1/2+z
loop_
_atom_site_type_symbol
_atom_site_label
_atom_site_fract_x
_atom_site_fract_y
_atom_site_fract_z
Si Si1 0.713214 0.690706 0.595342
Si Si2 0.959874 0.601323 0.901424
Si Si3 0.000263 0.173071 0.100829
Si Si4 0.598948 0.376142 0.749954
Si Si5 0.181370 0.882560 0.154090
Si Si6 0.686447 0.703816 0.902649
Si Si7 0.791612 0.484906 0.349892
Si Si8 0.185043 0.119952 0.149875
O O1 0.673526 0.683221 0.500000
O O2 0.639457 0.677995 0.665256
O O3 0.764510 0.800729 0.598999
O O4 0.783969 0.599890 0.606912
O O5 0.861113 0.589560 0.893321
O O6 0.000000 0.500000 0.853455
O O7 0.993648 0.708789 0.858575
O O8 0.987453 0.604148 0.000000
O O9 0.919031 0.116319 0.139211
O O10 0.087876 0.116737 0.122090
O O11 0.989047 0.174935 0.000000
O O12 0.633594 0.500000 0.750000
O O13 0.500000 0.382061 0.750000
O O14 0.615928 0.290952 0.671558
O O15 0.194963 0.849310 0.251718
O O16 0.217102 0.999949 0.133300
O O17 0.712112 0.585318 0.873467
O O18 0.757623 0.795319 0.900529
O O19 0.650544 0.701851 0.000000
O O20 0.808953 0.500000 0.250000
#
# Coordination Sequence:
#
# PCOD8204126 Si02
#       8
#     8   8   8   8   8   8   8   8
#     4  12  23  40  66  94 130 169 206 257 317 374
#     4  10  21  35  50  76 116 163 214 263 311 365
#     4  11  22  36  56  85 123 167 218 274 317 360
#     4  11  24  44  69 101 136 164 200 249 308 385
#     4  11  24  41  61  87 125 171 222 269 316 367
#     4  12  22  40  68  95 128 166 207 255 309 374
#     4  12  21  37  59  86 123 166 211 254 310 372
#     4  11  23  41  63  88 122 172 222 269 315 367
#
# _framework density 20.436792000000001
#
# number of rings (size 3 to 8) (size 9 to 14) (size 15 to 20)
#    0.000    0.750    5.000    3.375    0.000    5.250 
#    2.250    1.250    0.000    1.500    0.000    1.750 
#    0.000    0.000    0.000    0.000    0.000    0.000 
#
# Total GULP energy -792949.624752 kJ/mol
# GULP energy per Si atom -12389.837887 kJ/mol
# Density = 2.039028 g / cm^3
# Si number density = 20.436792 Si / 1000 Ang^3
#
#
#
# Elastic Constant Matrix: (Units=GPa)
#
#
# Indices 1 2 3 4 5 6 
#
# 1 64.3991 24.6131 22.5273 0.0000 0.0000 0.0000
# 2 24.6131 103.6493 43.1482 0.0000 0.0000 0.0000
# 3 22.5273 43.1482 118.5197 0.0000 0.0000 0.0000
# 4 0.0000 0.0000 0.0000 16.2638 0.0000 0.0000
# 5 0.0000 0.0000 0.0000 0.0000 14.7091 0.0000
# 6 0.0000 0.0000 0.0000 0.0000 0.0000 13.7704
#
#
#
# Elastic Compliance Matrix: (Units=1/GPa)
#
#
# Indices 1 2 3 4 5 6 
#
# 1 0.017527 -0.003271 -0.002141 0.000000 0.000000 0.000000
# 2 -0.003271 0.011982 -0.003740 0.000000 0.000000 0.000000
# 3 -0.002141 -0.003740 0.010206 0.000000 0.000000 0.000000
# 4 0.000000 0.000000 0.000000 0.061486 0.000000 0.000000
# 5 0.000000 0.000000 0.000000 0.000000 0.067985 0.000000
# 6 0.000000 0.000000 0.000000 0.000000 0.000000 0.072619
#
#
# Mechanical properties :
#
#
# Convention : Reuss Voigt Hill
#
# Bulk Modulus (GPa) = 46.70488 51.90501 49.30494
# Shear Modulus (GPa) = 18.70933 22.03397 20.37165
#
# Velocity S-wave (km/s) = 3.02896 3.28708 3.16066
# Velocity P-wave (km/s) = 5.92754 6.31344 6.12353
#
# Compressibility (1/GPa) = 0.02141104
#
# Stress axis : x y z
#
# Youngs Moduli (GPa) = 57.05444 83.46040 97.98166
#
# Poissons Ratio (x) = 0.27300 0.20974
# Poissons Ratio (y) = 0.18662 0.36648
# Poissons Ratio (z) = 0.12213 0.31217
#
# Static dielectric constant tensor:
#      x y z
#    x 3.556640 0.000000 0.000000 
#    y 0.000000 4.012630 0.000000 
#    z 0.000000 0.000000 3.832020 
# 
# 
# High freq. dielectric constant tensor:
#      x y z
#    x 1.764430 0.000000 0.000000 
#    y 0.000000 1.806830 0.000000 
#    z 0.000000 0.000000 1.806930 
# 
# From -- ./inp_files/14185.got.cif
#   From: 2010.03.12/outbox.cif.g09.slc.cpg/sg49_8_cif.got.tgz:14185.got - 2010.04.14 03:58:27.
