data_PCOD8204682
_publ_section_title
;
Structure prediction by ZEFSAII (Michael W. Deem and Ramdas Pophale) SiO2 
 PCOD8204682
Probable space group: P C C M
;
_chemical_formula_sum "Si O2"
_cell_formula_units_Z 64
_cell_length_a 25.904546
_cell_length_b 9.128800
_cell_length_c 14.702122
_cell_angle_alpha 90.000000
_cell_angle_beta 90.000000
_cell_angle_gamma 90.000000
_cell_volume 3476.719872
_symmetry_space_group_name_H-M "P C C M"
_symmetry_group_IT_number 49
_symmetry_cell_setting 'orthorhombic'
loop_
_space_group_symop_operation_xyz
x,y,z
-x,-y,z
x,-y,1/2-z
-x,y,1/2-z
-x,-y,-z
x,y,-z
-x,y,1/2+z
x,-y,1/2+z
loop_
_atom_site_type_symbol
_atom_site_label
_atom_site_fract_x
_atom_site_fract_y
_atom_site_fract_z
Si Si1 0.242571 0.832175 0.894431
Si Si2 0.581853 0.826547 0.250000
Si Si3 0.941394 0.327193 0.250000
Si Si4 0.242571 0.832174 0.605569
Si Si5 0.500000 0.826998 0.397683
Si Si6 0.690942 0.326792 0.250000
Si Si7 0.875573 0.167557 0.394768
Si Si8 0.875573 0.167557 0.105232
O O1 0.279377 0.724928 0.839684
O O2 0.183470 0.791739 0.872194
O O3 0.253509 0.000000 0.866244
O O4 0.254497 0.809075 0.000000
O O5 0.550554 0.779164 0.340782
O O6 0.550554 0.779164 0.159218
O O7 0.634328 0.738946 0.250000
O O8 0.592415 0.000000 0.250000
O O9 0.939048 0.500000 0.250000
O O10 0.913485 0.271038 0.340004
O O11 0.913485 0.271037 0.159996
O O12 0.000000 0.269817 0.250000
O O13 0.254496 0.809075 0.500000
O O14 0.279377 0.724928 0.660315
O O15 0.183470 0.791739 0.627807
O O16 0.500000 0.757552 0.500000
O O17 0.500000 0.000000 0.406017
O O18 0.687368 0.500000 0.250000
O O19 0.887384 0.193074 0.500000
O O20 0.885978 0.000000 0.367144
O O21 0.887385 0.193074 0.000000
#
# Coordination Sequence:
#
# PCOD8204682 Si02
#       8
#     8   8   8   8   8   8   8   8
#     4   9  19  37  59  80 103 136 179 222 264 313
#     4   9  18  33  53  77 103 134 176 219 260 309
#     4  11  24  37  50  75 110 144 175 209 258 320
#     4   9  19  37  59  80 103 136 179 222 264 313
#     4   8  15  31  56  80  98 124 172 229 270 301
#     4  12  24  34  49  79 119 151 175 212 259 312
#     4   9  19  37  60  82 102 130 174 225 270 312
#     4   9  19  37  60  82 102 130 174 225 270 312
#
# _framework density 18.408156000000002
#
# number of rings (size 3 to 8) (size 9 to 14) (size 15 to 20)
#    0.000    2.500    0.000    4.500    0.000    7.500 
#    0.000    8.750    0.000    0.750    0.000    0.000 
#    0.000    0.000    0.000    0.000    0.000    0.000 
#
# Total GULP energy -793589.915194 kJ/mol
# GULP energy per Si atom -12399.842425 kJ/mol
# Density = 1.836626 g / cm^3
# Si number density = 18.408156 Si / 1000 Ang^3
#
#
#
# Elastic Constant Matrix: (Units=GPa)
#
#
# Indices 1 2 3 4 5 6 
#
# 1 148.4724 70.4121 77.4124 0.0000 0.0000 0.0000
# 2 70.4121 84.1694 48.6254 0.0000 0.0000 0.0000
# 3 77.4124 48.6254 128.1983 0.0000 0.0000 0.0000
# 4 0.0000 0.0000 0.0000 -2.4419 0.0000 0.0000
# 5 0.0000 0.0000 0.0000 0.0000 52.5696 0.0000
# 6 0.0000 0.0000 0.0000 0.0000 0.0000 -68.8802
#
#
#
# Elastic Compliance Matrix: (Units=1/GPa)
#
#
# Indices 1 2 3 4 5 6 
#
# 1 0.013142 -0.008208 -0.004823 0.000000 0.000000 0.000000
# 2 -0.008208 0.020341 -0.002759 0.000000 0.000000 0.000000
# 3 -0.004823 -0.002759 0.011759 0.000000 0.000000 0.000000
# 4 0.000000 0.000000 0.000000 -0.409521 0.000000 0.000000
# 5 0.000000 0.000000 0.000000 0.000000 0.019022 0.000000
# 6 0.000000 0.000000 0.000000 0.000000 0.000000 -0.014518
#
#
# Mechanical properties :
#
#
# Convention : Reuss Voigt Hill
#
# Bulk Modulus (GPa) = 73.18961 83.74888 78.46924
# Shear Modulus (GPa) = -15.44926 7.20885 -4.12021
#
# Velocity S-wave (km/s) = -2.90014 1.98107 -1.49770
# Velocity P-wave (km/s) = 5.35081 7.12931 6.30311
#
# Compressibility (1/GPa) = 0.01366314
#
# Stress axis : x y z
#
# Youngs Moduli (GPa) = 76.08904 49.16122 85.04106
#
# Poissons Ratio (x) = 0.40353 0.41013
# Poissons Ratio (y) = 0.62456 0.23461
# Poissons Ratio (z) = 0.36696 0.13563
#
# Static dielectric constant tensor:
#      x y z
#    x 3.400170 0.000000 0.000000 
#    y 0.000000 3.126430 0.000000 
#    z 0.000000 0.000000 3.610530 
# 
# 
# High freq. dielectric constant tensor:
#      x y z
#    x 1.715800 0.000000 0.000000 
#    y 0.000000 1.689280 0.000000 
#    z 0.000000 0.000000 1.728930 
# 
# From -- ./inp_files/14528.got.cif
#   From: 2010.03.12/outbox.cif.g09.slc.cpg/sg49_8_cif.got.tgz:14528.got - 2010.04.14 03:58:27.
