data_PCOD8204975
_publ_section_title
;
Structure prediction by ZEFSAII (Michael W. Deem and Ramdas Pophale) SiO2 
 PCOD8204975
Probable space group: P B A N
;
_chemical_formula_sum "Si O2"
_cell_formula_units_Z 64
_cell_length_a 33.350570
_cell_length_b 10.644485
_cell_length_c 9.257962
_cell_angle_alpha 90.000000
_cell_angle_beta 90.000000
_cell_angle_gamma 90.000000
_cell_volume 3286.573197
_symmetry_space_group_name_H-M "P B A N"
_symmetry_group_IT_number 50
_space_group.IT_coordinate_system_code '2'
_symmetry_cell_setting 'orthorhombic'
loop_
_space_group_symop_operation_xyz
x,y,z
1/2-x,1/2-y,z
x,1/2-y,-z
1/2-x,y,-z
-x,-y,-z
1/2+x,1/2+y,-z
-x,1/2+y,z
1/2+x,-y,z
loop_
_atom_site_type_symbol
_atom_site_label
_atom_site_fract_x
_atom_site_fract_y
_atom_site_fract_z
Si Si1 0.795686 0.396516 0.982258
Si Si2 0.795763 0.882853 0.522092
Si Si3 0.610412 0.743377 0.168183
Si Si4 0.157971 0.488683 0.757253
Si Si5 0.156419 0.492239 0.277585
Si Si6 0.976037 0.021073 0.642150
Si Si7 0.529457 0.746828 0.327003
Si Si8 0.106834 0.893339 0.478533
O O1 0.818200 0.421971 0.831791
O O2 0.791490 0.250000 0.000000
O O3 0.750000 0.453672 0.000000
O O4 0.827195 0.448063 0.097926
O O5 0.818659 0.750000 0.500000
O O6 0.750000 0.862304 0.500000
O O7 0.811783 0.977303 0.404144
O O8 0.802808 0.928525 0.684570
O O9 0.643626 0.636133 0.197862
O O10 0.571016 0.703544 0.256307
O O11 0.625354 0.880506 0.215408
O O12 0.600053 0.750000 0.000000
O O13 0.141304 0.590255 0.642254
O O14 0.118422 0.555399 0.360724
O O15 0.930523 0.036706 0.592917
O O16 0.994902 0.145293 0.720950
O O17 0.980482 0.889131 0.731732
O O18 0.000000 0.000000 0.500000
O O19 0.534302 0.750000 0.500000
O O20 0.095288 0.750000 0.500000
#
# Coordination Sequence:
#
# PCOD8204975 Si02
#       8
#     8   8   8   8   8   8   8   8
#     4  11  24  43  62  84 123 170 210 251 303 369
#     4  10  20  33  55  87 120 149 190 251 310 363
#     4  12  23  39  59  89 121 164 200 257 306 369
#     4  11  22  39  60  87 125 157 207 251 311 364
#     4  11  22  37  60  89 118 157 206 247 311 362
#     4  10  19  35  59  92 119 152 201 251 313 367
#     4  10  21  37  64  88 123 160 203 258 315 375
#     4  11  22  37  63  91 121 154 205 259 304 363
#
# _framework density 19.473172000000002
#
# number of rings (size 3 to 8) (size 9 to 14) (size 15 to 20)
#    0.000    1.250    3.750    4.125    1.750    0.000 
#    0.000    1.250    0.000    6.000    0.000    0.000 
#    0.000    0.000    0.000    0.000    0.000    0.000 
#
# Total GULP energy -792938.255622 kJ/mol
# GULP energy per Si atom -12389.660244 kJ/mol
# Density = 1.942885 g / cm^3
# Si number density = 19.473172 Si / 1000 Ang^3
#
#
#
# Elastic Constant Matrix: (Units=GPa)
#
#
# Indices 1 2 3 4 5 6 
#
# 1 95.1079 31.1994 27.2622 0.0000 0.0000 0.0000
# 2 31.1994 111.4927 22.0872 0.0000 0.0000 0.0000
# 3 27.2622 22.0872 89.4491 0.0000 0.0000 0.0000
# 4 0.0000 0.0000 0.0000 18.0060 0.0000 0.0000
# 5 0.0000 0.0000 0.0000 0.0000 12.9379 0.0000
# 6 0.0000 0.0000 0.0000 0.0000 0.0000 18.0045
#
#
#
# Elastic Compliance Matrix: (Units=1/GPa)
#
#
# Indices 1 2 3 4 5 6 
#
# 1 0.012322 -0.002843 -0.003054 0.000000 0.000000 0.000000
# 2 -0.002843 0.010087 -0.001624 0.000000 0.000000 0.000000
# 3 -0.003054 -0.001624 0.012511 0.000000 0.000000 0.000000
# 4 0.000000 0.000000 0.000000 0.055537 0.000000 0.000000
# 5 0.000000 0.000000 0.000000 0.000000 0.077292 0.000000
# 6 0.000000 0.000000 0.000000 0.000000 0.000000 0.055542
#
#
# Mechanical properties :
#
#
# Convention : Reuss Voigt Hill
#
# Bulk Modulus (GPa) = 50.30580 50.79416 50.54998
# Shear Modulus (GPa) = 20.41158 24.15641 22.28400
#
# Velocity S-wave (km/s) = 3.24109 3.52589 3.38648
# Velocity P-wave (km/s) = 6.31630 6.53580 6.42699
#
# Compressibility (1/GPa) = 0.01987842
#
# Stress axis : x y z
#
# Youngs Moduli (GPa) = 81.15322 99.14163 79.92834
#
# Poissons Ratio (x) = 0.28189 0.24406
# Poissons Ratio (y) = 0.23074 0.12981
# Poissons Ratio (z) = 0.24780 0.16101
#
# Static dielectric constant tensor:
#      x y z
#    x 3.785850 0.000000 0.000000 
#    y 0.000000 4.618530 0.000000 
#    z 0.000000 0.000000 3.502810 
# 
# 
# High freq. dielectric constant tensor:
#      x y z
#    x 1.761480 0.000000 0.000000 
#    y 0.000000 1.768040 0.000000 
#    z 0.000000 0.000000 1.740630 
# 
# From -- ./inp_files/17095.got.cif
#   From: 2010.03.12/outbox.cif.g09.slc.cpg/sg50_9_cif.got.tgz:17095.got - 2010.04.16 13:23:21.
