data_PCOD8204027
_publ_section_title
;
Structure prediction by ZEFSAII (Michael W. Deem and Ramdas Pophale) SiO2 
 PCOD8204027
Probable space group: P C C M
;
_chemical_formula_sum "Si O2"
_cell_formula_units_Z 48
_cell_length_a 17.186006
_cell_length_b 8.642113
_cell_length_c 15.177376
_cell_angle_alpha 90.000000
_cell_angle_beta 90.000000
_cell_angle_gamma 90.000000
_cell_volume 2254.195576
_symmetry_space_group_name_H-M "P C C M"
_symmetry_group_IT_number 49
_symmetry_cell_setting 'orthorhombic'
loop_
_space_group_symop_operation_xyz
x,y,z
-x,-y,z
x,-y,1/2-z
-x,y,1/2-z
-x,-y,-z
x,y,-z
-x,y,1/2+z
x,-y,1/2+z
loop_
_atom_site_type_symbol
_atom_site_label
_atom_site_fract_x
_atom_site_fract_y
_atom_site_fract_z
Si Si1 0.163969 0.646807 0.856239
Si Si2 0.191305 0.290020 0.833966
Si Si3 0.888019 0.136427 0.500000
Si Si4 0.358892 0.820644 0.730777
Si Si5 0.063256 0.783998 0.000000
Si Si6 0.667192 0.331621 0.903907
Si Si7 0.430590 0.613979 0.401305
O O1 0.183458 0.466005 0.864185
O O2 0.144798 0.714391 0.759161
O O3 0.242978 0.719784 0.894942
O O4 0.089973 0.691043 0.913982
O O5 0.277852 0.234036 0.811909
O O6 0.157223 0.180694 0.910453
O O7 0.970669 0.220965 0.500000
O O8 0.899692 0.953478 0.500000
O O9 0.379582 0.746020 0.824748
O O10 0.425155 0.762342 0.662940
O O11 0.361308 0.000000 0.750000
O O12 0.650489 0.516143 0.896635
O O13 0.637398 0.273258 0.000000
O O14 0.500000 0.500000 0.372120
O O15 0.445214 0.676426 0.500000
#
# Coordination Sequence:
#
# PCOD8204027 Si02
#       7
#     8   8   4   8   4   8   8
#     4  10  20  39  66  89 121 172 225 273 320 404
#     4  10  23  39  62  96 128 167 221 283 330 393
#     4  11  27  41  59  97 133 170 212 284 356 406
#     4  11  24  38  63 102 135 171 219 276 341 401
#     4  11  25  43  63  89 129 178 220 264 356 423
#     4  10  20  37  62  92 124 172 221 266 315 393
#     4  10  22  42  68  97 134 179 222 269 329 396
#
# _framework density 21.293627000000001
#
# number of rings (size 3 to 8) (size 9 to 14) (size 15 to 20)
#    0.000    1.667    2.500    1.000    5.833    4.000 
#    0.000    5.000    0.000    3.000    0.000    0.000 
#    0.000    0.000    0.000    0.000    0.000    0.000 
#
# Total GULP energy -594810.747834 kJ/mol
# GULP energy per Si atom -12391.890580 kJ/mol
# Density = 2.124516 g / cm^3
# Si number density = 21.293627 Si / 1000 Ang^3
#
#
#
# Elastic Constant Matrix: (Units=GPa)
#
#
# Indices 1 2 3 4 5 6 
#
# 1 74.7421 31.2755 51.1138 0.0000 0.0000 0.0000
# 2 31.2755 114.1554 75.5493 0.0000 0.0000 0.0000
# 3 51.1138 75.5493 176.1838 0.0000 0.0000 0.0000
# 4 0.0000 0.0000 0.0000 22.7166 0.0000 0.0000
# 5 0.0000 0.0000 0.0000 0.0000 16.4258 0.0000
# 6 0.0000 0.0000 0.0000 0.0000 0.0000 26.8616
#
#
#
# Elastic Compliance Matrix: (Units=1/GPa)
#
#
# Indices 1 2 3 4 5 6 
#
# 1 0.016995 -0.001945 -0.004096 0.000000 0.000000 0.000000
# 2 -0.001945 0.012454 -0.004776 0.000000 0.000000 0.000000
# 3 -0.004096 -0.004776 0.008912 0.000000 0.000000 0.000000
# 4 0.000000 0.000000 0.000000 0.044021 0.000000 0.000000
# 5 0.000000 0.000000 0.000000 0.000000 0.060880 0.000000
# 6 0.000000 0.000000 0.000000 0.000000 0.000000 0.037228
#
#
# Mechanical properties :
#
#
# Convention : Reuss Voigt Hill
#
# Bulk Modulus (GPa) = 59.78777 75.66206 67.72491
# Shear Modulus (GPa) = 24.07328 27.01030 25.54179
#
# Velocity S-wave (km/s) = 3.36600 3.56542 3.46714
# Velocity P-wave (km/s) = 6.57612 7.24979 6.92116
#
# Compressibility (1/GPa) = 0.01672583
#
# Stress axis : x y z
#
# Youngs Moduli (GPa) = 58.84216 80.29766 112.20463
#
# Poissons Ratio (x) = 0.15618 0.45963
# Poissons Ratio (y) = 0.11445 0.53588
# Poissons Ratio (z) = 0.24104 0.38350
#
# Static dielectric constant tensor:
#      x y z
#    x 3.678730 0.000000 0.000000 
#    y 0.000000 3.621480 0.000000 
#    z 0.000000 0.000000 4.154790 
# 
# 
# High freq. dielectric constant tensor:
#      x y z
#    x 1.821090 0.000000 0.000000 
#    y 0.000000 1.813130 0.000000 
#    z 0.000000 0.000000 1.858060 
# 
# From -- ./inp_files/14060.got.cif
#   From: 2010.03.12/outbox.cif.g09.slc.cpg/sg49_8_cif.got.tgz:14060.got - 2010.04.14 03:58:27.
