data_PCOD8204927
_publ_section_title
;
Structure prediction by ZEFSAII (Michael W. Deem and Ramdas Pophale) SiO2 
 PCOD8204927
Probable space group: P B A N
;
_chemical_formula_sum "Si O2"
_cell_formula_units_Z 64
_cell_length_a 14.539789
_cell_length_b 16.693924
_cell_length_c 14.026075
_cell_angle_alpha 90.000000
_cell_angle_beta 90.000000
_cell_angle_gamma 90.000000
_cell_volume 3404.494939
_symmetry_space_group_name_H-M "P B A N"
_symmetry_group_IT_number 50
_space_group.IT_coordinate_system_code '2'
_symmetry_cell_setting 'orthorhombic'
loop_
_space_group_symop_operation_xyz
x,y,z
1/2-x,1/2-y,z
x,1/2-y,-z
1/2-x,y,-z
-x,-y,-z
1/2+x,1/2+y,-z
-x,1/2+y,z
1/2+x,-y,z
loop_
_atom_site_type_symbol
_atom_site_label
_atom_site_fract_x
_atom_site_fract_y
_atom_site_fract_z
Si Si1 0.588422 0.396383 0.197220
Si Si2 0.750000 0.843423 0.106497
Si Si3 0.588422 0.103617 0.197220
Si Si4 0.646900 0.342738 1.000000
Si Si5 0.750000 0.517728 0.609354
Si Si6 0.613026 0.927573 0.238799
Si Si7 0.113026 0.427573 0.238799
Si Si8 0.750000 0.339685 0.679605
O O1 0.583991 0.365386 0.089842
O O2 0.490389 0.394910 0.251772
O O3 0.621531 0.487259 0.187338
O O4 0.659251 0.341948 0.255533
O O5 0.750000 0.750000 0.093456
O O6 0.661410 0.866407 0.167973
O O7 0.838590 0.866407 0.167973
O O8 0.750000 0.882625 0.000000
O O9 0.490389 0.105090 0.251772
O O10 0.659251 0.158052 0.255533
O O11 0.621531 0.012741 0.187338
O O12 0.583991 0.134614 0.089842
O O13 0.663915 0.250000 0.000000
O O14 0.750000 0.383105 0.000000
O O15 0.750000 0.543631 0.500000
O O16 0.660755 0.559029 0.658055
O O17 0.839245 0.559029 0.658055
O O18 0.750000 0.419464 0.613044
O O19 0.750000 0.250000 0.629313
#
# Coordination Sequence:
#
# PCOD8204927 Si02
#       8
#     8   8   8   8   8   8   8   8
#     4  10  20  34  53  79 113 153 191 227 264 318
#     4  10  22  35  49  74 109 145 180 226 279 331
#     4  10  20  34  53  79 113 153 191 227 264 318
#     4  11  22  31  48  83 119 160 194 217 258 319
#     4   9  19  40  65  84 104 139 189 240 287 339
#     4   9  21  37  55  80 106 145 189 232 283 324
#     4   9  21  37  55  80 106 145 189 232 283 324
#     4  10  19  34  54  83 121 149 176 224 284 337
#
# _framework density 18.798676
#
# number of rings (size 3 to 8) (size 9 to 14) (size 15 to 20)
#    0.000    2.250    1.250    1.500    3.500    3.250 
#    0.000   10.000    0.000    6.000    0.000    0.000 
#    0.000    0.000    0.000    0.000    0.000    0.000 
#
# Total GULP energy -793064.490017 kJ/mol
# GULP energy per Si atom -12391.632657 kJ/mol
# Density = 1.875589 g / cm^3
# Si number density = 18.798676 Si / 1000 Ang^3
#
#
#
# Elastic Constant Matrix: (Units=GPa)
#
#
# Indices 1 2 3 4 5 6 
#
# 1 131.9748 36.9283 53.6619 0.0000 0.0000 0.0000
# 2 36.9283 64.9001 31.9186 0.0000 0.0000 0.0000
# 3 53.6619 31.9186 135.7243 0.0000 0.0000 0.0000
# 4 0.0000 0.0000 0.0000 14.1483 0.0000 0.0000
# 5 0.0000 0.0000 0.0000 0.0000 17.5970 0.0000
# 6 0.0000 0.0000 0.0000 0.0000 0.0000 -200.6858
#
#
#
# Elastic Compliance Matrix: (Units=1/GPa)
#
#
# Indices 1 2 3 4 5 6 
#
# 1 0.009954 -0.004216 -0.002944 0.000000 0.000000 0.000000
# 2 -0.004216 0.019209 -0.002851 0.000000 0.000000 0.000000
# 3 -0.002944 -0.002851 0.009202 0.000000 0.000000 0.000000
# 4 0.000000 0.000000 0.000000 0.070680 0.000000 0.000000
# 5 0.000000 0.000000 0.000000 0.000000 0.056828 0.000000
# 6 0.000000 0.000000 0.000000 0.000000 0.000000 -0.004983
#
#
# Mechanical properties :
#
#
# Convention : Reuss Voigt Hill
#
# Bulk Modulus (GPa) = 54.51312 64.17964 59.34638
# Shear Modulus (GPa) = 26.73424 -19.78208 3.47608
#
# Velocity S-wave (km/s) = 3.77521 -3.24746 1.36129
# Velocity P-wave (km/s) = 6.93284 4.48925 5.84027
#
# Compressibility (1/GPa) = 0.01834421
#
# Stress axis : x y z
#
# Youngs Moduli (GPa) = 100.46270 52.05862 108.66883
#
# Poissons Ratio (x) = 0.21947 0.31993
# Poissons Ratio (y) = 0.42354 0.30977
# Poissons Ratio (z) = 0.29577 0.14840
#
# Static dielectric constant tensor:
#      x y z
#    x 3.550470 0.000000 0.000000 
#    y 0.000000 3.396950 0.000000 
#    z 0.000000 0.000000 3.150510 
# 
# 
# High freq. dielectric constant tensor:
#      x y z
#    x 1.735750 0.000000 0.000000 
#    y 0.000000 1.728100 0.000000 
#    z 0.000000 0.000000 1.701660 
# 
# From -- ./inp_files/26629.got.cif
#   From: 2010.03.12/outbox.cif.g09.slc.cpg/sg50_14_cif.got.tgz:26629.got - 2010.04.16 13:23:21.
