data_PCOD8204902
_publ_section_title
;
Structure prediction by ZEFSAII (Michael W. Deem and Ramdas Pophale) SiO2 
 PCOD8204902
Probable space group: P B A N
;
_chemical_formula_sum "Si O2"
_cell_formula_units_Z 36
_cell_length_a 19.538617
_cell_length_b 8.832620
_cell_length_c 10.717341
_cell_angle_alpha 90.000000
_cell_angle_beta 90.000000
_cell_angle_gamma 90.000000
_cell_volume 1849.568479
_symmetry_space_group_name_H-M "P B A N"
_symmetry_group_IT_number 50
_space_group.IT_coordinate_system_code '2'
_symmetry_cell_setting 'orthorhombic'
loop_
_space_group_symop_operation_xyz
x,y,z
1/2-x,1/2-y,z
x,1/2-y,-z
1/2-x,y,-z
-x,-y,-z
1/2+x,1/2+y,-z
-x,1/2+y,z
1/2+x,-y,z
loop_
_atom_site_type_symbol
_atom_site_label
_atom_site_fract_x
_atom_site_fract_y
_atom_site_fract_z
Si Si1 0.678642 0.001348 0.157569
Si Si2 0.250000 0.250000 0.000000
Si Si3 0.443377 0.413571 0.332652
Si Si4 0.729689 0.925388 0.635108
Si Si5 0.423646 0.066692 0.382046
Si Si6 0.750000 0.250000 0.000000
O O1 0.602561 0.980503 0.218382
O O2 0.728673 0.028645 0.272239
O O3 0.693940 0.148663 0.074153
O O4 0.698851 0.849600 0.083451
O O5 0.443461 0.234781 0.342979
O O6 0.420347 0.471867 0.469854
O O7 0.522193 0.460964 0.310473
O O8 0.750000 0.750000 0.650378
O O9 0.750000 0.983169 0.500000
O O10 0.651701 0.959190 0.670349
#
# Coordination Sequence:
#
# PCOD8204902 Si02
#       6
#     8   2   8   8   8   2
#     4  11  20  40  59  85 116 161 204 261 287 361
#     4  10  20  34  66  84 104 170 232 238 280 342
#     4  10  19  34  56  83 128 152 184 238 314 362
#     4  11  17  32  64  94 115 143 202 255 302 361
#     4  10  19  32  56  96 118 153 181 241 312 389
#     4  10  28  38  58  84 124 166 222 248 300 318
#
# _framework density 19.463999000000001
#
# number of rings (size 3 to 8) (size 9 to 14) (size 15 to 20)
#    0.000    1.556    5.556    1.333    0.000    1.778 
#    0.000    0.556    0.000   22.667    0.000    0.000 
#    0.000    0.000    0.000    0.000    0.000    0.000 
#
# Total GULP energy -445976.980535 kJ/mol
# GULP energy per Si atom -12388.249459 kJ/mol
# Density = 1.941970 g / cm^3
# Si number density = 19.463999 Si / 1000 Ang^3
#
#
#
# Elastic Constant Matrix: (Units=GPa)
#
#
# Indices 1 2 3 4 5 6 
#
# 1 165.7135 40.1126 45.1345 0.0000 0.0000 0.0000
# 2 40.1126 68.2785 45.8042 0.0000 0.0000 0.0000
# 3 45.1345 45.8042 101.4377 0.0000 0.0000 0.0000
# 4 0.0000 0.0000 0.0000 13.5345 0.0000 0.0000
# 5 0.0000 0.0000 0.0000 0.0000 21.0830 0.0000
# 6 0.0000 0.0000 0.0000 0.0000 0.0000 31.0787
#
#
#
# Elastic Compliance Matrix: (Units=1/GPa)
#
#
# Indices 1 2 3 4 5 6 
#
# 1 0.007275 -0.003016 -0.001875 0.000000 0.000000 0.000000
# 2 -0.003016 0.022261 -0.008710 0.000000 0.000000 0.000000
# 3 -0.001875 -0.008710 0.014626 0.000000 0.000000 0.000000
# 4 0.000000 0.000000 0.000000 0.073885 0.000000 0.000000
# 5 0.000000 0.000000 0.000000 0.000000 0.047432 0.000000
# 6 0.000000 0.000000 0.000000 0.000000 0.000000 0.032176
#
#
# Mechanical properties :
#
#
# Convention : Reuss Voigt Hill
#
# Bulk Modulus (GPa) = 58.96476 66.39249 62.67862
# Shear Modulus (GPa) = 21.69103 26.76448 24.22776
#
# Velocity S-wave (km/s) = 3.34191 3.71222 3.53192
# Velocity P-wave (km/s) = 6.72690 7.24973 6.99320
#
# Compressibility (1/GPa) = 0.01695928
#
# Stress axis : x y z
#
# Youngs Moduli (GPa) = 137.45052 44.92206 68.37359
#
# Poissons Ratio (x) = 0.13549 0.12821
# Poissons Ratio (y) = 0.41458 0.59552
# Poissons Ratio (z) = 0.25774 0.39126
#
# Static dielectric constant tensor:
#      x y z
#    x 3.832260 0.000000 0.000000 
#    y 0.000000 3.408590 0.000000 
#    z 0.000000 0.000000 7.002620 
# 
# 
# High freq. dielectric constant tensor:
#      x y z
#    x 1.760950 0.000000 0.000000 
#    y 0.000000 1.741410 0.000000 
#    z 0.000000 0.000000 1.748000 
# 
# From -- ./inp_files/22195.got.cif
#   From: 2010.03.12/outbox.cif.g09.slc.cpg/sg50_12_cif.got.tgz:22195.got - 2010.04.16 13:23:21.
