data_PCOD8204494
_publ_section_title
;
Structure prediction by ZEFSAII (Michael W. Deem and Ramdas Pophale) SiO2 
 PCOD8204494
Probable space group: P C C M
;
_chemical_formula_sum "Si O2"
_cell_formula_units_Z 64
_cell_length_a 11.762656
_cell_length_b 15.676639
_cell_length_c 17.138009
_cell_angle_alpha 90.000000
_cell_angle_beta 90.000000
_cell_angle_gamma 90.000000
_cell_volume 3160.230210
_symmetry_space_group_name_H-M "P C C M"
_symmetry_group_IT_number 49
_symmetry_cell_setting 'orthorhombic'
loop_
_space_group_symop_operation_xyz
x,y,z
-x,-y,z
x,-y,1/2-z
-x,y,1/2-z
-x,-y,-z
x,y,-z
-x,y,1/2+z
x,-y,1/2+z
loop_
_atom_site_type_symbol
_atom_site_label
_atom_site_fract_x
_atom_site_fract_y
_atom_site_fract_z
Si Si1 0.732005 0.136214 0.409057
Si Si2 0.501604 0.403062 0.158461
Si Si3 0.502356 0.904280 0.342887
Si Si4 0.710563 0.287284 0.315671
Si Si5 0.728710 0.181055 0.156493
Si Si6 0.121462 0.402947 0.731185
Si Si7 0.741572 0.648413 0.410848
Si Si8 0.124167 0.015711 0.339580
O O1 0.746695 0.128895 0.500000
O O2 0.601989 0.145377 0.380802
O O3 0.777981 0.227900 0.378681
O O4 0.787306 0.052498 0.372530
O O5 0.500000 0.500000 0.122085
O O6 0.500000 0.413924 0.250000
O O7 0.399447 0.334315 0.143954
O O8 0.616647 0.363011 0.125704
O O9 0.500000 0.900402 0.250000
O O10 0.616653 0.863816 0.375949
O O11 0.500000 0.000000 0.373880
O O12 0.695822 0.225305 0.239660
O O13 0.788794 0.364958 0.290976
O O14 0.767838 0.251043 0.093813
O O15 0.830801 0.112379 0.154644
O O16 0.110438 0.500000 0.750000
O O17 0.161564 0.396836 0.641121
O O18 0.000000 0.358159 0.750000
O O19 0.748517 0.615661 0.500000
O O20 0.109674 0.000000 0.250000
O O21 0.000000 0.000000 0.379934
#
# Coordination Sequence:
#
# PCOD8204494 Si02
#       8
#     8   8   8   8   8   8   8   8
#     4  12  26  40  59  95 133 165 211 270 326 373
#     4  11  21  38  67 101 137 175 212 254 325 417
#     4  11  20  35  62  84 119 163 210 256 306 375
#     4  11  22  38  64  96 131 172 210 264 317 397
#     4  11  21  38  63  90 123 171 216 259 318 387
#     4  10  22  44  72  98 122 173 228 262 319 407
#     4  11  25  41  65 102 139 168 214 280 334 381
#     4  11  23  43  67  88 118 172 230 271 318 385
#
# _framework density 20.25169
#
# number of rings (size 3 to 8) (size 9 to 14) (size 15 to 20)
#    0.000    1.000    6.250    1.500    0.000    5.250 
#    0.000    5.000    0.000    0.000    0.000    0.000 
#    0.000    0.000    0.000    0.000    0.000    0.000 
#
# Total GULP energy -792860.291764 kJ/mol
# GULP energy per Si atom -12388.442059 kJ/mol
# Density = 2.020560 g / cm^3
# Si number density = 20.251690 Si / 1000 Ang^3
#
#
#
# Elastic Constant Matrix: (Units=GPa)
#
#
# Indices 1 2 3 4 5 6 
#
# 1 127.2153 40.2201 39.3169 0.0000 0.0000 0.0000
# 2 40.2201 120.8041 25.5125 0.0000 0.0000 0.0000
# 3 39.3169 25.5125 91.4504 0.0000 0.0000 0.0000
# 4 0.0000 0.0000 0.0000 15.5691 0.0000 0.0000
# 5 0.0000 0.0000 0.0000 0.0000 -99.1957 0.0000
# 6 0.0000 0.0000 0.0000 0.0000 0.0000 23.0053
#
#
#
# Elastic Compliance Matrix: (Units=1/GPa)
#
#
# Indices 1 2 3 4 5 6 
#
# 1 0.009729 -0.002503 -0.003484 0.000000 0.000000 0.000000
# 2 -0.002503 0.009440 -0.001557 0.000000 0.000000 0.000000
# 3 -0.003484 -0.001557 0.012867 0.000000 0.000000 0.000000
# 4 0.000000 0.000000 0.000000 0.064230 0.000000 0.000000
# 5 0.000000 0.000000 0.000000 0.000000 -0.010081 0.000000
# 6 0.000000 0.000000 0.000000 0.000000 0.000000 0.043468
#
#
# Mechanical properties :
#
#
# Convention : Reuss Voigt Hill
#
# Bulk Modulus (GPa) = 59.00920 61.06320 60.03620
# Shear Modulus (GPa) = 33.24633 3.50375 18.37504
#
# Velocity S-wave (km/s) = 4.05613 1.31676 3.01547
# Velocity P-wave (km/s) = 7.15105 5.70346 6.46788
#
# Compressibility (1/GPa) = 0.01694651
#
# Stress axis : x y z
#
# Youngs Moduli (GPa) = 102.78552 105.93004 77.71583
#
# Poissons Ratio (x) = 0.26517 0.27079
# Poissons Ratio (y) = 0.25730 0.12103
# Poissons Ratio (z) = 0.35815 0.16497
#
# Static dielectric constant tensor:
#      x y z
#    x 3.825630 0.000000 0.000000 
#    y 0.000000 3.846310 0.000000 
#    z 0.000000 0.000000 3.682740 
# 
# 
# High freq. dielectric constant tensor:
#      x y z
#    x 1.786690 0.000000 0.000000 
#    y 0.000000 1.814450 0.000000 
#    z 0.000000 0.000000 1.757570 
# 
# From -- ./inp_files/17316.got.cif
#   From: 2010.03.12/outbox.cif.g09.slc.cpg/sg49_9_cif.got.tgz:17316.got - 2010.04.14 03:58:27.
