data_PCOD8204040
_publ_section_title
;
Structure prediction by ZEFSAII (Michael W. Deem and Ramdas Pophale) SiO2 
 PCOD8204040
Probable space group: P C C M
;
_chemical_formula_sum "Si O2"
_cell_formula_units_Z 64
_cell_length_a 14.790174
_cell_length_b 9.143096
_cell_length_c 24.020646
_cell_angle_alpha 90.000000
_cell_angle_beta 90.000000
_cell_angle_gamma 90.000000
_cell_volume 3248.263455
_symmetry_space_group_name_H-M "P C C M"
_symmetry_group_IT_number 49
_symmetry_cell_setting 'orthorhombic'
loop_
_space_group_symop_operation_xyz
x,y,z
-x,-y,z
x,-y,1/2-z
-x,y,1/2-z
-x,-y,-z
x,y,-z
-x,y,1/2+z
x,-y,1/2+z
loop_
_atom_site_type_symbol
_atom_site_label
_atom_site_fract_x
_atom_site_fract_y
_atom_site_fract_z
Si Si1 0.828011 0.635232 0.560271
Si Si2 0.043297 0.864640 0.904186
Si Si3 0.694071 0.232465 0.136389
Si Si4 0.890995 0.667316 0.064279
Si Si5 0.281247 0.754656 0.372110
Si Si6 0.397317 0.504984 0.184504
Si Si7 0.175190 0.990566 0.813766
Si Si8 0.606051 0.010704 0.435409
O O1 0.781994 0.612008 0.500000
O O2 0.879255 0.790928 0.559385
O O3 0.754685 0.640620 0.608321
O O4 0.901784 0.507978 0.571293
O O5 0.086859 0.938282 0.848588
O O6 0.961902 0.747527 0.894309
O O7 0.000000 0.000000 0.938268
O O8 0.623879 0.327016 0.170289
O O9 0.748380 0.132947 0.179693
O O10 0.650512 0.136981 0.087497
O O11 0.786820 0.696900 0.080582
O O12 0.908131 0.715139 0.000000
O O13 0.332539 0.621079 0.341255
O O14 0.358134 0.849852 0.401903
O O15 0.219233 0.854115 0.331345
O O16 0.500000 0.500000 0.163129
O O17 0.388737 0.500000 0.250000
O O18 0.144498 0.000000 0.750000
O O19 0.631669 0.025991 0.500000
O O20 0.500000 0.000000 0.425782
#
# Coordination Sequence:
#
# PCOD8204040 Si02
#       8
#     8   8   8   8   8   8   8   8
#     4  10  21  37  59  83 117 155 189 233 289 353
#     4  11  22  38  56  89 115 151 195 244 287 341
#     4  10  20  38  60  86 118 155 200 244 296 358
#     4  11  22  38  58  85 121 156 191 235 295 357
#     4  11  21  40  61  87 120 157 198 246 299 355
#     4  11  23  39  63  91 118 153 200 255 307 357
#     4  10  22  40  62  84 114 160 201 247 298 349
#     4  10  21  37  58  87 123 159 196 243 300 363
#
# _framework density 19.702836000000001
#
# number of rings (size 3 to 8) (size 9 to 14) (size 15 to 20)
#    0.000    1.500    2.500    3.000    0.000    2.250 
#    0.000    0.000    0.000    9.000    3.250    0.000 
#    0.000    0.000    0.000    0.000    0.000    0.000 
#
# Total GULP energy -793026.962472 kJ/mol
# GULP energy per Si atom -12391.046289 kJ/mol
# Density = 1.965799 g / cm^3
# Si number density = 19.702836 Si / 1000 Ang^3
#
#
#
# Elastic Constant Matrix: (Units=GPa)
#
#
# Indices 1 2 3 4 5 6 
#
# 1 92.8864 32.0257 33.0497 0.0000 0.0000 0.0000
# 2 32.0257 107.9414 38.1835 0.0000 0.0000 0.0000
# 3 33.0497 38.1835 83.1678 0.0000 0.0000 0.0000
# 4 0.0000 0.0000 0.0000 15.4373 0.0000 0.0000
# 5 0.0000 0.0000 0.0000 0.0000 47.8640 0.0000
# 6 0.0000 0.0000 0.0000 0.0000 0.0000 28.1972
#
#
#
# Elastic Compliance Matrix: (Units=1/GPa)
#
#
# Indices 1 2 3 4 5 6 
#
# 1 0.013053 -0.002433 -0.004070 0.000000 0.000000 0.000000
# 2 -0.002433 0.011514 -0.004319 0.000000 0.000000 0.000000
# 3 -0.004070 -0.004319 0.015624 0.000000 0.000000 0.000000
# 4 0.000000 0.000000 0.000000 0.064778 0.000000 0.000000
# 5 0.000000 0.000000 0.000000 0.000000 0.020893 0.000000
# 6 0.000000 0.000000 0.000000 0.000000 0.000000 0.035465
#
#
# Mechanical properties :
#
#
# Convention : Reuss Voigt Hill
#
# Bulk Modulus (GPa) = 53.91869 54.50149 54.21009
# Shear Modulus (GPa) = 26.43355 30.34881 28.39118
#
# Velocity S-wave (km/s) = 3.66678 3.92896 3.80013
# Velocity P-wave (km/s) = 6.73442 6.95011 6.84311
#
# Compressibility (1/GPa) = 0.01854644
#
# Stress axis : x y z
#
# Youngs Moduli (GPa) = 76.61176 86.84994 64.00262
#
# Poissons Ratio (x) = 0.21130 0.26049
# Poissons Ratio (y) = 0.18640 0.27646
# Poissons Ratio (z) = 0.31181 0.37514
#
# Static dielectric constant tensor:
#      x y z
#    x 3.726190 0.000000 0.000000 
#    y 0.000000 3.827750 0.000000 
#    z 0.000000 0.000000 3.369180 
# 
# 
# High freq. dielectric constant tensor:
#      x y z
#    x 1.776060 0.000000 0.000000 
#    y 0.000000 1.788120 0.000000 
#    z 0.000000 0.000000 1.749260 
# 
# From -- ./inp_files/23209.got.cif
#   From: 2010.03.12/outbox.cif.g09.slc.cpg/sg49_12_cif.got.tgz:23209.got - 2010.04.14 03:58:27.
