data_PCOD8204889
_publ_section_title
;
Structure prediction by ZEFSAII (Michael W. Deem and Ramdas Pophale) SiO2 
 PCOD8204889
Probable space group: P B A N
;
_chemical_formula_sum "Si O2"
_cell_formula_units_Z 34
_cell_length_a 13.329556
_cell_length_b 5.152385
_cell_length_c 20.697036
_cell_angle_alpha 90.000000
_cell_angle_beta 90.000000
_cell_angle_gamma 90.000000
_cell_volume 1421.451826
_symmetry_space_group_name_H-M "P B A N"
_symmetry_group_IT_number 50
_space_group.IT_coordinate_system_code '2'
_symmetry_cell_setting 'orthorhombic'
loop_
_space_group_symop_operation_xyz
x,y,z
1/2-x,1/2-y,z
x,1/2-y,-z
1/2-x,y,-z
-x,-y,-z
1/2+x,1/2+y,-z
-x,1/2+y,z
1/2+x,-y,z
loop_
_atom_site_type_symbol
_atom_site_label
_atom_site_fract_x
_atom_site_fract_y
_atom_site_fract_z
Si Si1 0.067309 0.896356 0.080540
Si Si2 0.362611 0.745114 0.358256
Si Si3 0.630125 0.749672 0.426801
Si Si4 0.059673 0.599030 0.772127
Si Si5 0.750000 0.250000 0.000000
O O1 0.100403 0.875278 0.155245
O O2 0.173797 0.922870 0.043395
O O3 0.005545 0.635522 0.062420
O O4 0.250000 0.750000 0.383126
O O5 0.416680 0.505157 0.393642
O O6 0.361055 0.696972 0.280912
O O7 0.413078 0.010779 0.383613
O O8 0.750000 0.750000 0.424832
O O9 0.590244 0.750000 0.500000
O O10 0.033946 0.296094 0.761888
#
# Coordination Sequence:
#
# PCOD8204889 Si02
#       5
#     8   8   8   8   2
#     4  10  24  43  64  97 133 168 215 259 310 378
#     4  10  19  31  55  80 105 142 196 242 281 351
#     4   9  17  30  49  79 111 142 182 241 299 342
#     4  10  21  39  58  80 117 156 189 240 298 349
#     4  12  24  42  76  96 132 178 202 266 312 372
#
# _framework density 23.919207
#
# number of rings (size 3 to 8) (size 9 to 14) (size 15 to 20)
#    0.000    2.118    0.000    2.824    1.647    4.706 
#    0.000    0.000    0.000   14.118    0.000    0.000 
#    0.000    0.000    0.000    0.000    0.000    0.000 
#
# Total GULP energy -421290.847099 kJ/mol
# GULP energy per Si atom -12390.907268 kJ/mol
# Density = 2.386477 g / cm^3
# Si number density = 23.919207 Si / 1000 Ang^3
#
#
#
# Elastic Constant Matrix: (Units=GPa)
#
#
# Indices 1 2 3 4 5 6 
#
# 1 92.4288 22.7224 45.9488 0.0000 0.0000 0.0000
# 2 22.7224 185.3222 60.0405 0.0000 0.0000 0.0000
# 3 45.9488 60.0405 142.6450 0.0000 0.0000 0.0000
# 4 0.0000 0.0000 0.0000 35.2792 0.0000 0.0000
# 5 0.0000 0.0000 0.0000 0.0000 42.7341 0.0000
# 6 0.0000 0.0000 0.0000 0.0000 0.0000 -16.8143
#
#
#
# Elastic Compliance Matrix: (Units=1/GPa)
#
#
# Indices 1 2 3 4 5 6 
#
# 1 0.012894 -0.000272 -0.004039 0.000000 0.000000 0.000000
# 2 -0.000272 0.006254 -0.002545 0.000000 0.000000 0.000000
# 3 -0.004039 -0.002545 0.009382 0.000000 0.000000 0.000000
# 4 0.000000 0.000000 0.000000 0.028345 0.000000 0.000000
# 5 0.000000 0.000000 0.000000 0.000000 0.023400 0.000000
# 6 0.000000 0.000000 0.000000 0.000000 0.000000 -0.059473
#
#
# Mechanical properties :
#
#
# Convention : Reuss Voigt Hill
#
# Bulk Modulus (GPa) = 67.48239 75.31326 71.39783
# Shear Modulus (GPa) = 126.73165 31.68544 79.20854
#
# Velocity S-wave (km/s) = 7.28685 3.64357 5.76081
# Velocity P-wave (km/s) = 9.95347 7.01824 8.61183
#
# Compressibility (1/GPa) = 0.01481868
#
# Stress axis : x y z
#
# Youngs Moduli (GPa) = 77.55635 159.90333 106.58310
#
# Poissons Ratio (x) = 0.04357 0.43045
# Poissons Ratio (y) = 0.02113 0.27120
# Poissons Ratio (z) = 0.31323 0.40687
#
# Static dielectric constant tensor:
#      x y z
#    x 3.716920 0.000000 0.000000 
#    y 0.000000 4.640110 0.000000 
#    z 0.000000 0.000000 4.537980 
# 
# 
# High freq. dielectric constant tensor:
#      x y z
#    x 1.928120 0.000000 0.000000 
#    y 0.000000 1.956660 0.000000 
#    z 0.000000 0.000000 1.967710 
# 
# From -- ./inp_files/30917.got.cif
#   From: 2010.03.12/outbox.cif.g09.slc.cpg/sg50_16_cif.got.tgz:30917.got - 2010.04.16 13:23:21.
