data_PCOD8204847
_publ_section_title
;
Structure prediction by ZEFSAII (Michael W. Deem and Ramdas Pophale) SiO2 
 PCOD8204847
Probable space group: P B A N
;
_chemical_formula_sum "Si O2"
_cell_formula_units_Z 64
_cell_length_a 9.416282
_cell_length_b 14.156580
_cell_length_c 24.778510
_cell_angle_alpha 90.000000
_cell_angle_beta 90.000000
_cell_angle_gamma 90.000000
_cell_volume 3303.033599
_symmetry_space_group_name_H-M "P B A N"
_symmetry_group_IT_number 50
_space_group.IT_coordinate_system_code '2'
_symmetry_cell_setting 'orthorhombic'
loop_
_space_group_symop_operation_xyz
x,y,z
1/2-x,1/2-y,z
x,1/2-y,-z
1/2-x,y,-z
-x,-y,-z
1/2+x,1/2+y,-z
-x,1/2+y,z
1/2+x,-y,z
loop_
_atom_site_type_symbol
_atom_site_label
_atom_site_fract_x
_atom_site_fract_y
_atom_site_fract_z
Si Si1 0.092866 0.266691 0.192302
Si Si2 0.900537 0.570231 0.727137
Si Si3 0.916975 0.402984 0.999424
Si Si4 0.004381 0.605602 0.611376
Si Si5 0.424541 0.391661 0.280226
Si Si6 0.583600 0.250453 0.914177
Si Si7 0.395631 0.201038 0.611048
Si Si8 0.272144 0.026260 0.561501
O O1 0.250000 0.250000 0.168837
O O2 0.071966 0.369012 0.219071
O O3 0.064134 0.192599 0.238918
O O4 0.985762 0.252843 0.143909
O O5 0.987296 0.611651 0.676060
O O6 0.732851 0.564186 0.715337
O O7 0.960140 0.466810 0.739532
O O8 0.961714 0.342590 0.051834
O O9 0.750000 0.423841 0.000000
O O10 0.960918 0.344291 0.946141
O O11 0.000000 0.500000 0.000000
O O12 0.996275 0.714097 0.589242
O O13 0.880669 0.539320 0.588146
O O14 0.152425 0.559342 0.593467
O O15 0.467422 0.354321 0.339414
O O16 0.750000 0.250000 0.905322
O O17 0.250000 0.250000 0.632419
O O18 0.362116 0.124547 0.564198
O O19 0.250000 0.996243 0.500000
#
# Coordination Sequence:
#
# PCOD8204847 Si02
#       8
#     8   8   8   8   8   8   8   8
#     4  10  22  37  58  84 120 157 203 247 290 352
#     4  11  20  36  60  84 111 158 196 239 292 355
#     4   9  19  37  62  86 117 161 203 244 300 357
#     4  11  20  38  63  83 116 153 191 238 293 354
#     4  11  20  37  58  83 115 149 201 240 289 350
#     4   9  20  39  58  84 122 159 198 250 300 348
#     4  10  18  35  62  81 109 153 193 227 287 361
#     4  11  23  38  61  91 116 147 192 243 294 352
#
# _framework density 19.376125999999999
#
# number of rings (size 3 to 8) (size 9 to 14) (size 15 to 20)
#    0.000    1.750    5.000    1.500    0.000    5.250 
#    0.000    6.875    0.000    0.750    0.000    0.000 
#    0.000    0.000    0.000    0.000    0.000    0.000 
#
# Total GULP energy -793599.457926 kJ/mol
# GULP energy per Si atom -12399.991530 kJ/mol
# Density = 1.933203 g / cm^3
# Si number density = 19.376126 Si / 1000 Ang^3
#
#
#
# Elastic Constant Matrix: (Units=GPa)
#
#
# Indices 1 2 3 4 5 6 
#
# 1 55.7542 48.0723 37.0543 0.0000 0.0000 0.0000
# 2 48.0723 112.0253 16.2878 0.0000 0.0000 0.0000
# 3 37.0543 16.2878 87.7769 0.0000 0.0000 0.0000
# 4 0.0000 0.0000 0.0000 13.7610 0.0000 0.0000
# 5 0.0000 0.0000 0.0000 0.0000 31.3044 0.0000
# 6 0.0000 0.0000 0.0000 0.0000 0.0000 32.6310
#
#
#
# Elastic Compliance Matrix: (Units=1/GPa)
#
#
# Indices 1 2 3 4 5 6 
#
# 1 0.040746 -0.015400 -0.014343 0.000000 0.000000 0.000000
# 2 -0.015400 0.014994 0.003719 0.000000 0.000000 0.000000
# 3 -0.014343 0.003719 0.016757 0.000000 0.000000 0.000000
# 4 0.000000 0.000000 0.000000 0.072669 0.000000 0.000000
# 5 0.000000 0.000000 0.000000 0.000000 0.031944 0.000000
# 6 0.000000 0.000000 0.000000 0.000000 0.000000 0.030646
#
#
# Mechanical properties :
#
#
# Convention : Reuss Voigt Hill
#
# Bulk Modulus (GPa) = 48.90150 50.93169 49.91660
# Shear Modulus (GPa) = 18.75314 25.81539 22.28427
#
# Velocity S-wave (km/s) = 3.11440 3.65407 3.39498
# Velocity P-wave (km/s) = 6.18267 6.64423 6.41760
#
# Compressibility (1/GPa) = 0.02044927
#
# Stress axis : x y z
#
# Youngs Moduli (GPa) = 24.54218 66.69256 59.67529
#
# Poissons Ratio (x) = 1.02704 0.85593
# Poissons Ratio (y) = 0.37794 -0.22190
# Poissons Ratio (z) = 0.35201 -0.24800
#
# Static dielectric constant tensor:
#      x y z
#    x 4.993160 0.000000 0.000000 
#    y 0.000000 3.711090 0.000000 
#    z 0.000000 0.000000 3.415060 
# 
# 
# High freq. dielectric constant tensor:
#      x y z
#    x 1.738260 0.000000 0.000000 
#    y 0.000000 1.763470 0.000000 
#    z 0.000000 0.000000 1.745950 
# 
# From -- ./inp_files/31619.got.cif
#   From: 2010.03.12/outbox.cif.g09.slc.cpg/sg50_16_cif.got.tgz:31619.got - 2010.04.16 13:23:21.
