data_PCOD8204083
_publ_section_title
;
Structure prediction by ZEFSAII (Michael W. Deem and Ramdas Pophale) SiO2 
 PCOD8204083
Probable space group: P C C M
;
_chemical_formula_sum "Si O2"
_cell_formula_units_Z 64
_cell_length_a 14.596171
_cell_length_b 13.391112
_cell_length_c 16.865855
_cell_angle_alpha 90.000000
_cell_angle_beta 90.000000
_cell_angle_gamma 90.000000
_cell_volume 3296.582488
_symmetry_space_group_name_H-M "P C C M"
_symmetry_group_IT_number 49
_symmetry_cell_setting 'orthorhombic'
loop_
_space_group_symop_operation_xyz
x,y,z
-x,-y,z
x,-y,1/2-z
-x,y,1/2-z
-x,-y,-z
x,y,-z
-x,y,1/2+z
x,-y,1/2+z
loop_
_atom_site_type_symbol
_atom_site_label
_atom_site_fract_x
_atom_site_fract_y
_atom_site_fract_z
Si Si1 0.722995 0.612608 0.408440
Si Si2 0.777005 0.387392 0.591560
Si Si3 0.643037 0.111492 0.262978
Si Si4 0.555243 0.706768 0.324259
Si Si5 0.055243 0.293232 0.824260
Si Si6 0.614752 0.236448 0.410142
Si Si7 0.114752 0.236448 0.589858
Si Si8 0.143037 0.111492 0.262978
O O1 0.693913 0.626631 0.500000
O O2 0.750000 0.500000 0.389966
O O3 0.638842 0.637843 0.350862
O O4 0.808836 0.682139 0.387090
O O5 0.806087 0.373369 0.500000
O O6 0.861158 0.362157 0.649138
O O7 0.691164 0.317862 0.612910
O O8 0.591100 0.184127 0.202126
O O9 0.624161 0.140871 0.353888
O O10 0.750000 0.118177 0.250000
O O11 0.605513 0.000000 0.250000
O O12 0.500000 0.658008 0.250000
O O13 0.485740 0.715916 0.398045
O O14 0.091099 0.184127 0.797874
O O15 0.000000 0.341992 0.750000
O O16 0.985740 0.284085 0.898045
O O17 0.625945 0.200010 0.500000
O O18 0.125945 0.200010 0.500000
O O19 0.124161 0.140871 0.646112
O O20 0.105513 0.000000 0.250000
#
# Coordination Sequence:
#
# PCOD8204083 Si02
#       8
#     8   8   8   8   8   8   8   8
#     4  10  21  39  61  84 119 159 195 241 295 346
#     4  10  21  39  61  84 119 159 195 241 295 346
#     4  10  20  39  62  84 116 157 193 238 295 350
#     4  10  21  37  60  86 118 154 194 246 291 345
#     4  10  21  37  60  86 118 154 194 246 291 345
#     4  10  21  38  61  89 117 151 198 241 287 350
#     4  10  21  38  61  89 117 151 198 241 287 350
#     4  10  20  39  62  84 116 157 193 238 295 350
#
# _framework density 19.414044000000001
#
# number of rings (size 3 to 8) (size 9 to 14) (size 15 to 20)
#    0.000    2.000    2.500    0.750    0.000    5.500 
#    0.000   23.750    0.000    0.000    0.000    0.000 
#    0.000    0.000    0.000    0.000    0.000    0.000 
#
# Total GULP energy -793587.884211 kJ/mol
# GULP energy per Si atom -12399.810691 kJ/mol
# Density = 1.936986 g / cm^3
# Si number density = 19.414044 Si / 1000 Ang^3
#
#
#
# Elastic Constant Matrix: (Units=GPa)
#
#
# Indices 1 2 3 4 5 6 
#
# 1 137.8513 58.6534 62.6941 0.0000 0.0000 0.0000
# 2 58.6534 127.0338 71.5118 0.0000 0.0000 0.0000
# 3 62.6941 71.5118 105.3254 0.0000 0.0000 0.0000
# 4 0.0000 0.0000 0.0000 42.1119 0.0000 0.0000
# 5 0.0000 0.0000 0.0000 0.0000 33.1279 0.0000
# 6 0.0000 0.0000 0.0000 0.0000 0.0000 15.4469
#
#
#
# Elastic Compliance Matrix: (Units=1/GPa)
#
#
# Indices 1 2 3 4 5 6 
#
# 1 0.010284 -0.002108 -0.004690 0.000000 0.000000 0.000000
# 2 -0.002108 0.013174 -0.007690 0.000000 0.000000 0.000000
# 3 -0.004690 -0.007690 0.017507 0.000000 0.000000 0.000000
# 4 0.000000 0.000000 0.000000 0.023746 0.000000 0.000000
# 5 0.000000 0.000000 0.000000 0.000000 0.030186 0.000000
# 6 0.000000 0.000000 0.000000 0.000000 0.000000 0.064738
#
#
# Mechanical properties :
#
#
# Convention : Reuss Voigt Hill
#
# Bulk Modulus (GPa) = 83.40831 83.99212 83.70022
# Shear Modulus (GPa) = 25.95929 29.96075 27.96002
#
# Velocity S-wave (km/s) = 3.66066 3.93269 3.79911
# Velocity P-wave (km/s) = 7.80534 7.99868 7.90260
#
# Compressibility (1/GPa) = 0.01198921
#
# Stress axis : x y z
#
# Youngs Moduli (GPa) = 97.23580 75.90607 57.11846
#
# Poissons Ratio (x) = 0.16001 0.26791
# Poissons Ratio (y) = 0.20498 0.43924
# Poissons Ratio (z) = 0.45607 0.58372
#
# Static dielectric constant tensor:
#      x y z
#    x 3.832690 0.000000 0.000000 
#    y 0.000000 3.443040 0.000000 
#    z 0.000000 0.000000 3.836150 
# 
# 
# High freq. dielectric constant tensor:
#      x y z
#    x 1.780760 0.000000 0.000000 
#    y 0.000000 1.737870 0.000000 
#    z 0.000000 0.000000 1.755250 
# 
# From -- ./inp_files/17955.got.cif
#   From: 2010.03.12/outbox.cif.g09.slc.cpg/sg49_9_cif.got.tgz:17955.got - 2010.04.14 03:58:27.
