data_PCOD8204780
_publ_section_title
;
Structure prediction by ZEFSAII (Michael W. Deem and Ramdas Pophale) SiO2 
 PCOD8204780
Probable space group: P B A N
;
_chemical_formula_sum "Si O2"
_cell_formula_units_Z 48
_cell_length_a 21.588237
_cell_length_b 7.838151
_cell_length_c 15.032230
_cell_angle_alpha 90.000000
_cell_angle_beta 90.000000
_cell_angle_gamma 90.000000
_cell_volume 2543.631620
_symmetry_space_group_name_H-M "P B A N"
_symmetry_group_IT_number 50
_space_group.IT_coordinate_system_code '2'
_symmetry_cell_setting 'orthorhombic'
loop_
_space_group_symop_operation_xyz
x,y,z
1/2-x,1/2-y,z
x,1/2-y,-z
1/2-x,y,-z
-x,-y,-z
1/2+x,1/2+y,-z
-x,1/2+y,z
1/2+x,-y,z
loop_
_atom_site_type_symbol
_atom_site_label
_atom_site_fract_x
_atom_site_fract_y
_atom_site_fract_z
Si Si1 0.678370 0.243267 0.784033
Si Si2 0.115989 0.075400 0.699039
Si Si3 0.929560 0.948860 0.490786
Si Si4 0.001413 0.032149 0.209098
Si Si5 0.569579 0.201447 0.100340
Si Si6 0.881715 0.541771 0.326071
O O1 0.750000 0.250000 0.807756
O O2 0.641996 0.272352 0.877588
O O3 0.660924 0.401106 0.720351
O O4 0.664348 0.057423 0.742369
O O5 0.097983 0.992810 0.603728
O O6 0.145856 0.265443 0.688063
O O7 0.054529 0.093698 0.760416
O O8 0.926046 0.750000 0.500000
O O9 0.886847 0.019579 0.571322
O O10 0.000000 0.000000 0.500000
O O11 0.967487 0.204029 0.179770
O O12 0.047803 0.050106 0.291230
O O13 0.041455 0.984568 0.119913
O O14 0.554933 0.250000 0.000000
#
# Coordination Sequence:
#
# PCOD8204780 Si02
#       6
#     8   8   8   8   8   8
#     4  10  24  40  58  76 103 156 200 225 270 321
#     4  10  20  35  54  83 116 146 182 224 272 328
#     4  10  20  28  52  85 117 146 172 220 278 325
#     4  10  17  31  54  82 114 144 168 211 295 342
#     4  10  20  33  55  83 111 136 175 232 284 340
#     4  10  20  35  54  83 116 146 182 224 272 328
#
# _framework density 18.870657999999999
#
# number of rings (size 3 to 8) (size 9 to 14) (size 15 to 20)
#    0.000    2.000    3.333    0.500    2.333    1.000 
#    0.000    1.667    0.000    3.000    0.000    4.667 
#    0.000    0.000    0.000    0.000    0.000    0.000 
#
# Total GULP energy -594684.058243 kJ/mol
# GULP energy per Si atom -12389.251213 kJ/mol
# Density = 1.882771 g / cm^3
# Si number density = 18.870658 Si / 1000 Ang^3
#
#
#
# Elastic Constant Matrix: (Units=GPa)
#
#
# Indices 1 2 3 4 5 6 
#
# 1 92.6645 17.5292 16.6572 0.0000 0.0000 0.0000
# 2 17.5292 58.3629 3.2013 0.0000 0.0000 0.0000
# 3 16.6572 3.2013 88.1939 0.0000 0.0000 0.0000
# 4 0.0000 0.0000 0.0000 20.1976 0.0000 0.0000
# 5 0.0000 0.0000 0.0000 0.0000 14.8784 0.0000
# 6 0.0000 0.0000 0.0000 0.0000 0.0000 20.8928
#
#
#
# Elastic Compliance Matrix: (Units=1/GPa)
#
#
# Indices 1 2 3 4 5 6 
#
# 1 0.011820 -0.003435 -0.002108 0.000000 0.000000 0.000000
# 2 -0.003435 0.018166 -0.000011 0.000000 0.000000 0.000000
# 3 -0.002108 -0.000011 0.011737 0.000000 0.000000 0.000000
# 4 0.000000 0.000000 0.000000 0.049511 0.000000 0.000000
# 5 0.000000 0.000000 0.000000 0.000000 0.067211 0.000000
# 6 0.000000 0.000000 0.000000 0.000000 0.000000 0.047863
#
#
# Mechanical properties :
#
#
# Convention : Reuss Voigt Hill
#
# Bulk Modulus (GPa) = 32.66108 34.88853 33.77481
# Shear Modulus (GPa) = 21.96630 24.64933 23.30781
#
# Velocity S-wave (km/s) = 3.41551 3.61809 3.51826
# Velocity P-wave (km/s) = 5.73583 5.99854 5.86866
#
# Compressibility (1/GPa) = 0.03061748
#
# Stress axis : x y z
#
# Youngs Moduli (GPa) = 84.60070 55.04688 85.19959
#
# Poissons Ratio (x) = 0.18906 0.17959
# Poissons Ratio (y) = 0.29057 0.00091
# Poissons Ratio (z) = 0.17832 0.00059
#
# Static dielectric constant tensor:
#      x y z
#    x 3.152280 0.000000 0.000000 
#    y 0.000000 3.563390 0.000000 
#    z 0.000000 0.000000 4.173350 
# 
# 
# High freq. dielectric constant tensor:
#      x y z
#    x 1.699080 0.000000 0.000000 
#    y 0.000000 1.740630 0.000000 
#    z 0.000000 0.000000 1.729860 
# 
# From -- ./inp_files/25117.got.cif
#   From: 2010.03.12/outbox.cif.g09.slc.cpg/sg50_13_cif.got.tgz:25117.got - 2010.04.16 13:23:21.
