data_PCOD8204983
_publ_section_title
;
Structure prediction by ZEFSAII (Michael W. Deem and Ramdas Pophale) SiO2 
 PCOD8204983
Probable space group: P B A N
;
_chemical_formula_sum "Si O2"
_cell_formula_units_Z 64
_cell_length_a 24.835864
_cell_length_b 15.100114
_cell_length_c 9.294530
_cell_angle_alpha 90.000000
_cell_angle_beta 90.000000
_cell_angle_gamma 90.000000
_cell_volume 3485.675329
_symmetry_space_group_name_H-M "P B A N"
_symmetry_group_IT_number 50
_space_group.IT_coordinate_system_code '2'
_symmetry_cell_setting 'orthorhombic'
loop_
_space_group_symop_operation_xyz
x,y,z
1/2-x,1/2-y,z
x,1/2-y,-z
1/2-x,y,-z
-x,-y,-z
1/2+x,1/2+y,-z
-x,1/2+y,z
1/2+x,-y,z
loop_
_atom_site_type_symbol
_atom_site_label
_atom_site_fract_x
_atom_site_fract_y
_atom_site_fract_z
Si Si1 0.925052 0.748843 0.164698
Si Si2 0.687649 0.082039 0.164673
Si Si3 0.993408 0.477129 0.334588
Si Si4 0.648534 0.253241 0.329703
Si Si5 0.189460 0.579211 0.165827
Si Si6 0.899092 0.560752 0.166450
Si Si7 0.027722 0.774887 0.338240
Si Si8 0.098374 0.055113 0.832435
O O1 0.885318 0.665096 0.192511
O O2 0.896307 0.840768 0.210880
O O3 0.981131 0.731136 0.244845
O O4 0.942033 0.750000 0.000000
O O5 0.674269 0.165921 0.261871
O O6 0.748847 0.051189 0.187762
O O7 0.651579 0.998466 0.212972
O O8 0.677489 0.107819 0.998429
O O9 0.950669 0.541956 0.263562
O O10 0.970543 0.379379 0.314526
O O11 0.000000 0.500000 0.500000
O O12 0.050523 0.490026 0.256652
O O13 0.657232 0.250000 0.500000
O O14 0.678199 0.338471 0.268385
O O15 0.585602 0.262379 0.290109
O O16 0.153584 0.494296 0.209595
O O17 0.914398 0.543535 0.000632
O O18 0.014105 0.750000 0.500000
#
# Coordination Sequence:
#
# PCOD8204983 Si02
#       8
#     8   8   8   8   8   8   8   8
#     4   9  19  35  55  79 109 141 176 218 268 322
#     4  10  21  40  55  82 107 145 191 221 275 325
#     4  11  21  33  55  79 110 142 179 222 270 325
#     4  11  23  36  54  80 113 145 183 228 273 322
#     4  10  22  37  60  76 110 148 183 232 268 324
#     4  10  19  36  57  78 110 142 177 225 269 321
#     4  10  21  35  48  79 113 141 179 216 264 328
#     4   9  21  36  54  82 107 140 183 221 270 323
#
# _framework density 18.360861
#
# number of rings (size 3 to 8) (size 9 to 14) (size 15 to 20)
#    0.000    2.000    1.250    1.875    5.250    3.000 
#    0.000    0.625    0.000    3.750    0.000    0.000 
#    0.000    5.000    0.000    0.000    0.000    0.000 
#
# Total GULP energy -793628.044524 kJ/mol
# GULP energy per Si atom -12400.438196 kJ/mol
# Density = 1.831907 g / cm^3
# Si number density = 18.360861 Si / 1000 Ang^3
#
#
#
# Elastic Constant Matrix: (Units=GPa)
#
#
# Indices 1 2 3 4 5 6 
#
# 1 122.3350 76.4435 51.8771 0.0000 0.0000 0.0000
# 2 76.4435 112.8773 45.5307 0.0000 0.0000 0.0000
# 3 51.8771 45.5307 67.7795 0.0000 0.0000 0.0000
# 4 0.0000 0.0000 0.0000 21.3593 0.0000 0.0000
# 5 0.0000 0.0000 0.0000 0.0000 -49.9360 0.0000
# 6 0.0000 0.0000 0.0000 0.0000 0.0000 25.5208
#
#
#
# Elastic Compliance Matrix: (Units=1/GPa)
#
#
# Indices 1 2 3 4 5 6 
#
# 1 0.016233 -0.008205 -0.006912 0.000000 0.000000 0.000000
# 2 -0.008205 0.016299 -0.004669 0.000000 0.000000 0.000000
# 3 -0.006912 -0.004669 0.023181 0.000000 0.000000 0.000000
# 4 0.000000 0.000000 0.000000 0.046818 0.000000 0.000000
# 5 0.000000 0.000000 0.000000 0.000000 -0.020026 0.000000
# 6 0.000000 0.000000 0.000000 0.000000 0.000000 0.039184
#
#
# Mechanical properties :
#
#
# Convention : Reuss Voigt Hill
#
# Bulk Modulus (GPa) = 61.95903 72.29937 67.12920
# Shear Modulus (GPa) = 30.00461 7.99818 19.00140
#
# Velocity S-wave (km/s) = 4.04686 2.08939 3.22045
# Velocity P-wave (km/s) = 7.46020 6.72927 7.10414
#
# Compressibility (1/GPa) = 0.01613970
#
# Stress axis : x y z
#
# Youngs Moduli (GPa) = 61.60467 61.35333 43.13921
#
# Poissons Ratio (x) = 0.50340 0.29820
# Poissons Ratio (y) = 0.50546 0.20142
# Poissons Ratio (z) = 0.42584 0.28646
#
# Static dielectric constant tensor:
#      x y z
#    x 3.365980 0.000000 0.000000 
#    y 0.000000 3.612620 0.000000 
#    z 0.000000 0.000000 3.402080 
# 
# 
# High freq. dielectric constant tensor:
#      x y z
#    x 1.701470 0.000000 0.000000 
#    y 0.000000 1.721420 0.000000 
#    z 0.000000 0.000000 1.711140 
# 
# From -- ./inp_files/16116.got.cif
#   From: 2010.03.12/outbox.cif.g09.slc.cpg/sg50_9_cif.got.tgz:16116.got - 2010.04.16 13:23:21.
