data_PCOD8204301
_publ_section_title
;
Structure prediction by ZEFSAII (Michael W. Deem and Ramdas Pophale) SiO2 
 PCOD8204301
Probable space group: P C C M
;
_chemical_formula_sum "Si O2"
_cell_formula_units_Z 48
_cell_length_a 19.543414
_cell_length_b 8.734738
_cell_length_c 14.602111
_cell_angle_alpha 90.000000
_cell_angle_beta 90.000000
_cell_angle_gamma 90.000000
_cell_volume 2492.676735
_symmetry_space_group_name_H-M "P C C M"
_symmetry_group_IT_number 49
_symmetry_cell_setting 'orthorhombic'
loop_
_space_group_symop_operation_xyz
x,y,z
-x,-y,z
x,-y,1/2-z
-x,y,1/2-z
-x,-y,-z
x,y,-z
-x,y,1/2+z
x,-y,1/2+z
loop_
_atom_site_type_symbol
_atom_site_label
_atom_site_fract_x
_atom_site_fract_y
_atom_site_fract_z
Si Si1 0.352972 0.318060 0.104134
Si Si2 0.500000 0.331971 0.391415
Si Si3 0.647029 0.318060 0.895866
Si Si4 0.099706 0.818206 0.750000
Si Si5 1.000000 0.318008 0.893094
Si Si6 0.256775 0.179670 0.250000
O O1 0.427961 0.251899 0.137440
O O2 0.352786 0.500000 0.116459
O O3 0.292107 0.244765 0.160112
O O4 0.339399 0.270867 0.000000
O O5 0.500000 0.500000 0.346912
O O6 0.500000 0.348818 0.500000
O O7 0.427961 0.251900 0.362560
O O8 0.707893 0.244765 0.839888
O O9 0.660601 0.270868 0.000000
O O10 0.066563 0.749498 0.657728
O O11 0.178376 0.768196 0.750000
O O12 0.066563 0.749498 0.842271
O O13 0.089466 0.000000 0.750000
O O14 0.000000 0.500000 0.883326
O O15 1.000000 0.268525 0.000000
O O16 0.263806 0.000000 0.250000
#
# Coordination Sequence:
#
# PCOD8204301 Si02
#       6
#     8   8   8   8   8   8
#     4   9  18  34  56  78 101 136 183 231 275 318
#     4   7  12  27  51  76  99 127 174 232 277 315
#     4   9  18  34  56  78 101 136 183 231 275 318
#     4  10  22  39  57  79 111 149 182 210 246 306
#     4  10  21  38  63  91 112 132 165 215 268 309
#     4  11  24  37  50  76 114 149 178 213 260 314
#
# _framework density 19.256408
#
# number of rings (size 3 to 8) (size 9 to 14) (size 15 to 20)
#    0.000    2.667    0.000    4.500    0.000    6.667 
#    0.000   10.833    0.000    3.000    0.000    0.000 
#    0.000    0.000    0.000    0.000    0.000    0.000 
#
# Total GULP energy -594738.617570 kJ/mol
# GULP energy per Si atom -12390.387866 kJ/mol
# Density = 1.921258 g / cm^3
# Si number density = 19.256408 Si / 1000 Ang^3
#
#
#
# Elastic Constant Matrix: (Units=GPa)
#
#
# Indices 1 2 3 4 5 6 
#
# 1 210.1428 57.2931 93.7380 0.0000 0.0000 0.0000
# 2 57.2931 58.4316 44.9332 0.0000 0.0000 0.0000
# 3 93.7380 44.9332 142.4693 0.0000 0.0000 0.0000
# 4 0.0000 0.0000 0.0000 29.8758 0.0000 0.0000
# 5 0.0000 0.0000 0.0000 0.0000 24.4604 0.0000
# 6 0.0000 0.0000 0.0000 0.0000 0.0000 40.5129
#
#
#
# Elastic Compliance Matrix: (Units=1/GPa)
#
#
# Indices 1 2 3 4 5 6 
#
# 1 0.007628 -0.004779 -0.003512 0.000000 0.000000 0.000000
# 2 -0.004779 0.025588 -0.004926 0.000000 0.000000 0.000000
# 3 -0.003512 -0.004926 0.010883 0.000000 0.000000 0.000000
# 4 0.000000 0.000000 0.000000 0.033472 0.000000 0.000000
# 5 0.000000 0.000000 0.000000 0.000000 0.040882 0.000000
# 6 0.000000 0.000000 0.000000 0.000000 0.000000 0.024684
#
#
# Mechanical properties :
#
#
# Convention : Reuss Voigt Hill
#
# Bulk Modulus (GPa) = 56.60558 89.21914 72.91236
# Shear Modulus (GPa) = 28.49683 33.30845 30.90264
#
# Velocity S-wave (km/s) = 3.85107 4.16352 4.01034
# Velocity P-wave (km/s) = 7.01668 8.33942 7.70648
#
# Compressibility (1/GPa) = 0.01766610
#
# Stress axis : x y z
#
# Youngs Moduli (GPa) = 131.09530 39.08119 91.88584
#
# Poissons Ratio (x) = 0.18677 0.32267
# Poissons Ratio (y) = 0.62650 0.45261
# Poissons Ratio (z) = 0.46036 0.19250
#
# Static dielectric constant tensor:
#      x y z
#    x 3.884410 0.000000 0.000000 
#    y 0.000000 3.272700 0.000000 
#    z 0.000000 0.000000 3.684040 
# 
# 
# High freq. dielectric constant tensor:
#      x y z
#    x 1.761710 0.000000 0.000000 
#    y 0.000000 1.722460 0.000000 
#    z 0.000000 0.000000 1.751970 
# 
# From -- ./inp_files/14025.got.cif
#   From: 2010.03.12/outbox.cif.g09.slc.cpg/sg49_8_cif.got.tgz:14025.got - 2010.04.14 03:58:27.
