data_PCOD8204648
_publ_section_title
;
Structure prediction by ZEFSAII (Michael W. Deem and Ramdas Pophale) SiO2 
 PCOD8204648
Probable space group: P C C M
;
_chemical_formula_sum "Si O2"
_cell_formula_units_Z 18
_cell_length_a 7.139048
_cell_length_b 11.595585
_cell_length_c 8.878546
_cell_angle_alpha 90.000000
_cell_angle_beta 90.000000
_cell_angle_gamma 90.000000
_cell_volume 734.978804
_symmetry_space_group_name_H-M "P C C M"
_symmetry_group_IT_number 49
_symmetry_cell_setting 'orthorhombic'
loop_
_space_group_symop_operation_xyz
x,y,z
-x,-y,z
x,-y,1/2-z
-x,y,1/2-z
-x,-y,-z
x,y,-z
-x,y,1/2+z
x,-y,1/2+z
loop_
_atom_site_type_symbol
_atom_site_label
_atom_site_fract_x
_atom_site_fract_y
_atom_site_fract_z
Si Si1 0.000000 0.500000 0.750000
Si Si2 0.327156 0.658830 0.168579
Si Si3 0.796357 0.114124 0.320681
O O1 0.861755 0.417832 0.845020
O O2 0.500000 0.591119 0.250000
O O3 0.310733 0.771563 0.272250
O O4 0.382158 0.694621 0.000000
O O5 0.807070 0.104394 0.500000
O O6 0.000000 0.123940 0.250000
O O7 0.697661 0.000000 0.250000
#
# Coordination Sequence:
#
# PCOD8204648 Si02
#       3
#     2   8   8
#     4  12  28  48  78 100 142 188 244 294 362 414
#     4  12  27  47  73 107 144 187 240 294 355 423
#     4  11  22  41  71 106 144 187 233 287 353 424
#
# _framework density 24.490501999999999
#
# number of rings (size 3 to 8) (size 9 to 14) (size 15 to 20)
#    0.000    0.444    2.222    8.000    0.000    8.000 
#    0.000    4.444    0.000    0.000    0.000    0.000 
#    0.000    0.000    0.000    0.000    0.000    0.000 
#
# Total GULP energy -223069.326658 kJ/mol
# GULP energy per Si atom -12392.740370 kJ/mol
# Density = 2.443476 g / cm^3
# Si number density = 24.490502 Si / 1000 Ang^3
#
#
#
# Elastic Constant Matrix: (Units=GPa)
#
#
# Indices 1 2 3 4 5 6 
#
# 1 138.6175 41.8105 55.8635 0.0000 0.0000 0.0000
# 2 41.8105 145.2320 61.3890 0.0000 0.0000 0.0000
# 3 55.8635 61.3890 261.2092 0.0000 0.0000 0.0000
# 4 0.0000 0.0000 0.0000 75.0353 0.0000 0.0000
# 5 0.0000 0.0000 0.0000 0.0000 31.7168 0.0000
# 6 0.0000 0.0000 0.0000 0.0000 0.0000 -6.9013
#
#
#
# Elastic Compliance Matrix: (Units=1/GPa)
#
#
# Indices 1 2 3 4 5 6 
#
# 1 0.008307 -0.001821 -0.001348 0.000000 0.000000 0.000000
# 2 -0.001821 0.008044 -0.001501 0.000000 0.000000 0.000000
# 3 -0.001348 -0.001501 0.004470 0.000000 0.000000 0.000000
# 4 0.000000 0.000000 0.000000 0.013327 0.000000 0.000000
# 5 0.000000 0.000000 0.000000 0.000000 0.031529 0.000000
# 6 0.000000 0.000000 0.000000 0.000000 0.000000 -0.144900
#
#
# Mechanical properties :
#
#
# Convention : Reuss Voigt Hill
#
# Bulk Modulus (GPa) = 87.11651 95.90940 91.51295
# Shear Modulus (GPa) = -75.69411 45.70322 -14.99544
#
# Velocity S-wave (km/s) = -5.56549 4.32460 -2.47715
# Velocity P-wave (km/s) = 2.37713 8.01143 5.40982
#
# Compressibility (1/GPa) = 0.01147888
#
# Stress axis : x y z
#
# Youngs Moduli (GPa) = 120.38123 124.31020 223.73797
#
# Poissons Ratio (x) = 0.22643 0.30171
# Poissons Ratio (y) = 0.21927 0.33584
# Poissons Ratio (z) = 0.16233 0.18659
#
# Static dielectric constant tensor:
#      x y z
#    x 4.605200 0.000000 0.000000 
#    y 0.000000 5.112370 0.000000 
#    z 0.000000 0.000000 4.134490 
# 
# 
# High freq. dielectric constant tensor:
#      x y z
#    x 1.983950 0.000000 0.000000 
#    y 0.000000 1.993150 0.000000 
#    z 0.000000 0.000000 1.973560 
# 
# From -- ./inp_files/947.got.cif
#   From: 2010.03.12/outbox.cif.g09.slc.cpg/sg49_1_cif.got.tgz:947.got - 2010.04.14 03:58:27.
