data_PCOD8204363
_publ_section_title
;
Structure prediction by ZEFSAII (Michael W. Deem and Ramdas Pophale) SiO2 
 PCOD8204363
Probable space group: P C C M
;
_chemical_formula_sum "Si O2"
_cell_formula_units_Z 56
_cell_length_a 8.578750
_cell_length_b 16.043450
_cell_length_c 19.515752
_cell_angle_alpha 90.000000
_cell_angle_beta 90.000000
_cell_angle_gamma 90.000000
_cell_volume 2686.006551
_symmetry_space_group_name_H-M "P C C M"
_symmetry_group_IT_number 49
_symmetry_cell_setting 'orthorhombic'
loop_
_space_group_symop_operation_xyz
x,y,z
-x,-y,z
x,-y,1/2-z
-x,y,1/2-z
-x,-y,-z
x,y,-z
-x,y,1/2+z
x,-y,1/2+z
loop_
_atom_site_type_symbol
_atom_site_label
_atom_site_fract_x
_atom_site_fract_y
_atom_site_fract_z
Si Si1 0.824849 0.273198 0.241404
Si Si2 0.915155 0.418549 0.155282
Si Si3 0.178770 0.003229 0.168117
Si Si4 0.198595 0.686411 0.611963
Si Si5 0.337581 0.516078 0.577466
Si Si6 0.595653 0.855490 0.320622
Si Si7 0.324157 0.147838 0.922162
O O1 0.835530 0.369160 0.217062
O O2 0.740991 0.281819 0.314123
O O3 0.716885 0.219112 0.192476
O O4 0.000000 0.233586 0.250000
O O5 0.791730 0.452910 0.102614
O O6 0.000000 0.500000 0.185971
O O7 0.023602 0.350593 0.116128
O O8 0.298194 0.929833 0.148598
O O9 0.181222 0.000000 0.250000
O O10 0.242457 0.085222 0.130987
O O11 0.000000 0.000000 0.142055
O O12 0.304953 0.613655 0.583099
O O13 0.217338 0.769399 0.566470
O O14 0.500000 0.500000 0.617068
O O15 0.356182 0.489461 0.500000
O O16 0.500000 0.878394 0.250000
O O17 0.486832 0.829328 0.384525
O O18 0.349459 0.111806 0.000000
#
# Coordination Sequence:
#
# PCOD8204363 Si02
#       7
#     8   8   8   8   8   8   8
#     4  10  22  39  68  98 132 166 225 282 331 393
#     4   9  21  38  63  94 128 173 223 280 337 397
#     4  11  25  43  73 102 134 177 228 278 331 406
#     4  10  21  40  64  90 127 172 216 272 329 402
#     4  10  22  38  57  85 127 174 220 270 335 403
#     4  12  24  42  71 101 135 177 224 273 340 409
#     4  12  27  46  69 102 141 179 223 284 345 411
#
# _framework density 20.848794999999999
#
# number of rings (size 3 to 8) (size 9 to 14) (size 15 to 20)
#    0.000    1.429    2.857    0.857    8.000   11.143 
#    0.000    0.714    0.000    0.000    0.000    0.000 
#    0.000    0.000    0.000    0.000    0.000    0.000 
#
# Total GULP energy -693745.513410 kJ/mol
# GULP energy per Si atom -12388.312739 kJ/mol
# Density = 2.080134 g / cm^3
# Si number density = 20.848795 Si / 1000 Ang^3
#
#
#
# Elastic Constant Matrix: (Units=GPa)
#
#
# Indices 1 2 3 4 5 6 
#
# 1 107.1969 68.2914 42.6925 0.0000 0.0000 0.0000
# 2 68.2914 123.0794 27.4402 0.0000 0.0000 0.0000
# 3 42.6925 27.4402 93.5756 0.0000 0.0000 0.0000
# 4 0.0000 0.0000 0.0000 32.5675 0.0000 0.0000
# 5 0.0000 0.0000 0.0000 0.0000 128.4124 0.0000
# 6 0.0000 0.0000 0.0000 0.0000 0.0000 -7.4805
#
#
#
# Elastic Compliance Matrix: (Units=1/GPa)
#
#
# Indices 1 2 3 4 5 6 
#
# 1 0.016480 -0.007990 -0.005176 0.000000 0.000000 0.000000
# 2 -0.007990 0.012567 -0.000040 0.000000 0.000000 0.000000
# 3 -0.005176 -0.000040 0.013060 0.000000 0.000000 0.000000
# 4 0.000000 0.000000 0.000000 0.030706 0.000000 0.000000
# 5 0.000000 0.000000 0.000000 0.000000 0.007787 0.000000
# 6 0.000000 0.000000 0.000000 0.000000 0.000000 -0.133681
#
#
# Mechanical properties :
#
#
# Convention : Reuss Voigt Hill
#
# Bulk Modulus (GPa) = 63.71317 66.74448 65.22883
# Shear Modulus (GPa) = -233.23946 43.06171 -95.08887
#
# Velocity S-wave (km/s) = -10.58843 4.54963 -6.76076
# Velocity P-wave (km/s) = 10.90231 7.72541 5.43960
#
# Compressibility (1/GPa) = 0.01569534
#
# Stress axis : x y z
#
# Youngs Moduli (GPa) = 60.67857 79.57254 76.57206
#
# Poissons Ratio (x) = 0.63581 0.39632
# Poissons Ratio (y) = 0.48484 0.00305
# Poissons Ratio (z) = 0.31406 0.00316
#
# Static dielectric constant tensor:
#      x y z
#    x 4.250150 0.000000 0.000000 
#    y 0.000000 3.876790 0.000000 
#    z 0.000000 0.000000 3.680260 
# 
# 
# High freq. dielectric constant tensor:
#      x y z
#    x 1.821340 0.000000 0.000000 
#    y 0.000000 1.823570 0.000000 
#    z 0.000000 0.000000 1.801390 
# 
# From -- ./inp_files/19888.got.cif
#   From: 2010.03.12/outbox.cif.g09.slc.cpg/sg49_10_cif.got.tgz:19888.got - 2010.04.14 03:58:27.
