data_PCOD8204220
_publ_section_title
;
Structure prediction by ZEFSAII (Michael W. Deem and Ramdas Pophale) SiO2 
 PCOD8204220
Probable space group: P C C M
;
_chemical_formula_sum "Si O2"
_cell_formula_units_Z 40
_cell_length_a 25.841652
_cell_length_b 9.241594
_cell_length_c 8.827738
_cell_angle_alpha 90.000000
_cell_angle_beta 90.000000
_cell_angle_gamma 90.000000
_cell_volume 2108.223229
_symmetry_space_group_name_H-M "P C C M"
_symmetry_group_IT_number 49
_symmetry_cell_setting 'orthorhombic'
loop_
_space_group_symop_operation_xyz
x,y,z
-x,-y,z
x,-y,1/2-z
-x,y,1/2-z
-x,-y,-z
x,y,-z
-x,y,1/2+z
x,-y,1/2+z
loop_
_atom_site_type_symbol
_atom_site_label
_atom_site_fract_x
_atom_site_fract_y
_atom_site_fract_z
Si Si1 0.348732 0.156581 0.322572
Si Si2 0.258580 0.657140 0.320153
Si Si3 0.446372 0.349691 0.323339
Si Si4 0.162721 0.844508 0.676879
Si Si5 0.049200 0.157056 0.176989
O O1 0.335932 0.146922 0.500000
O O2 0.306125 0.251452 0.240225
O O3 0.404383 0.226880 0.291966
O O4 0.348860 0.000000 0.250000
O O5 0.260978 0.500000 0.250000
O O6 0.261864 0.645777 0.500000
O O7 0.205432 0.732098 0.264557
O O8 0.427412 0.500000 0.250000
O O9 0.500000 0.296681 0.250000
O O10 0.454973 0.376788 0.500000
O O11 0.168704 0.871452 0.500000
O O12 0.105807 0.775603 0.713643
O O13 0.171909 0.000000 0.750000
O O14 0.000000 0.244265 0.250000
O O15 0.049942 0.000000 0.250000
O O16 0.039406 0.145584 0.000000
#
# Coordination Sequence:
#
# PCOD8204220 Si02
#       5
#     8   8   8   8   8
#     4  11  24  40  59  85 114 146 182 226 275 323
#     4  11  23  39  58  80 107 142 182 225 272 327
#     4  10  21  37  59  85 114 148 186 224 267 317
#     4   9  19  33  51  76 106 137 173 218 266 316
#     4   9  15  25  42  68 100 132 167 209 257 310
#
# _framework density 18.973323000000001
#
# number of rings (size 3 to 8) (size 9 to 14) (size 15 to 20)
#    0.000    2.000    0.000    4.800    0.000    9.200 
#    0.000    2.000    0.000    0.600    0.000    4.200 
#    0.000    0.000    0.000    0.000    0.000    0.000 
#
# Total GULP energy -495857.049733 kJ/mol
# GULP energy per Si atom -12396.426243 kJ/mol
# Density = 1.893014 g / cm^3
# Si number density = 18.973323 Si / 1000 Ang^3
#
#
#
# Elastic Constant Matrix: (Units=GPa)
#
#
# Indices 1 2 3 4 5 6 
#
# 1 155.5697 80.4443 69.7035 0.0000 0.0000 0.0000
# 2 80.4443 124.5374 52.3946 0.0000 0.0000 0.0000
# 3 69.7035 52.3946 102.7500 0.0000 0.0000 0.0000
# 4 0.0000 0.0000 0.0000 29.7403 0.0000 0.0000
# 5 0.0000 0.0000 0.0000 0.0000 30.4764 0.0000
# 6 0.0000 0.0000 0.0000 0.0000 0.0000 -2.6358
#
#
#
# Elastic Compliance Matrix: (Units=1/GPa)
#
#
# Indices 1 2 3 4 5 6 
#
# 1 0.011406 -0.005235 -0.005068 0.000000 0.000000 0.000000
# 2 -0.005235 0.012626 -0.002887 0.000000 0.000000 0.000000
# 3 -0.005068 -0.002887 0.014642 0.000000 0.000000 0.000000
# 4 0.000000 0.000000 0.000000 0.033624 0.000000 0.000000
# 5 0.000000 0.000000 0.000000 0.000000 0.032812 0.000000
# 6 0.000000 0.000000 0.000000 0.000000 0.000000 -0.379392
#
#
# Mechanical properties :
#
#
# Convention : Reuss Voigt Hill
#
# Bulk Modulus (GPa) = 81.33907 87.54911 84.44409
# Shear Modulus (GPa) = -20.50832 23.53717 1.51443
#
# Velocity S-wave (km/s) = -3.29128 3.52595 0.89438
# Velocity P-wave (km/s) = 5.34041 7.92590 6.75795
#
# Compressibility (1/GPa) = 0.01229422
#
# Stress axis : x y z
#
# Youngs Moduli (GPa) = 87.67413 79.20167 68.29557
#
# Poissons Ratio (x) = 0.41466 0.34611
# Poissons Ratio (y) = 0.45901 0.19715
# Poissons Ratio (z) = 0.44432 0.22863
#
# Static dielectric constant tensor:
#      x y z
#    x 4.529540 0.000000 0.000000 
#    y 0.000000 3.234940 0.000000 
#    z 0.000000 0.000000 3.654540 
# 
# 
# High freq. dielectric constant tensor:
#      x y z
#    x 1.765630 0.000000 0.000000 
#    y 0.000000 1.706330 0.000000 
#    z 0.000000 0.000000 1.752020 
# 
# From -- ./inp_files/1705.got.cif
#   From: 2010.03.12/outbox.cif.g09.slc.cpg/sg49_1_cif.got.tgz:1705.got - 2010.04.14 03:58:27.
