data_PCOD8204444
_publ_section_title
;
Structure prediction by ZEFSAII (Michael W. Deem and Ramdas Pophale) SiO2 
 PCOD8204444
Probable space group: P C C M
;
_chemical_formula_sum "Si O2"
_cell_formula_units_Z 64
_cell_length_a 15.424776
_cell_length_b 23.768138
_cell_length_c 8.598482
_cell_angle_alpha 90.000000
_cell_angle_beta 90.000000
_cell_angle_gamma 90.000000
_cell_volume 3152.360033
_symmetry_space_group_name_H-M "P C C M"
_symmetry_group_IT_number 49
_symmetry_cell_setting 'orthorhombic'
loop_
_space_group_symop_operation_xyz
x,y,z
-x,-y,z
x,-y,1/2-z
-x,y,1/2-z
-x,-y,-z
x,y,-z
-x,y,1/2+z
x,-y,1/2+z
loop_
_atom_site_type_symbol
_atom_site_label
_atom_site_fract_x
_atom_site_fract_y
_atom_site_fract_z
Si Si1 0.088435 0.639917 0.683775
Si Si2 0.091647 0.129478 0.316800
Si Si3 0.651167 0.742058 0.817166
Si Si4 0.247773 0.439204 0.183166
Si Si5 0.744368 0.061406 0.815994
Si Si6 0.839877 0.250008 0.816933
Si Si7 0.410153 0.141857 0.684630
Si Si8 0.408849 0.374095 0.683407
O O1 0.083238 0.649173 0.500000
O O2 0.167960 0.600387 0.731213
O O3 0.097425 0.699316 0.771397
O O4 0.000000 0.612322 0.750000
O O5 0.087144 0.125631 0.500000
O O6 0.165874 0.087684 0.252271
O O7 0.113434 0.192755 0.263918
O O8 0.000000 0.109615 0.250000
O O9 0.752071 0.743785 0.778469
O O10 0.603292 0.797307 0.758505
O O11 0.606848 0.689585 0.734658
O O12 0.638672 0.735083 0.000000
O O13 0.226795 0.500000 0.250000
O O14 0.335178 0.415378 0.255127
O O15 0.259028 0.442337 0.000000
O O16 0.665924 0.100669 0.758500
O O17 0.729904 0.000000 0.750000
O O18 0.745558 0.058590 0.000000
O O19 0.818541 0.249549 0.000000
O O20 0.500000 0.116777 0.750000
O O21 0.412112 0.147265 0.500000
O O22 0.500000 0.395870 0.750000
O O23 0.410612 0.377487 0.500000
#
# Coordination Sequence:
#
# PCOD8204444 Si02
#       8
#     8   8   8   8   8   8   8   8
#     4  11  24  41  64  95 131 167 212 261 314 376
#     4  10  22  40  61  90 124 161 203 252 306 367
#     4  12  23  38  63  96 130 165 207 252 310 378
#     4  11  25  45  67  94 127 167 217 267 316 373
#     4  10  23  43  63  86 121 161 207 258 310 366
#     4  11  21  38  64  92 128 167 205 253 317 375
#     4  11  23  42  64  91 126 162 205 255 310 372
#     4  12  25  43  68  96 130 169 209 259 316 374
#
# _framework density 20.302247999999999
#
# number of rings (size 3 to 8) (size 9 to 14) (size 15 to 20)
#    0.000    1.000    2.500    4.500    0.000    6.000 
#    0.000    5.000    0.000    0.000    0.000    0.000 
#    0.000    0.000    0.000    0.000    0.000    0.000 
#
# Total GULP energy -794001.279999 kJ/mol
# GULP energy per Si atom -12406.270000 kJ/mol
# Density = 2.025604 g / cm^3
# Si number density = 20.302248 Si / 1000 Ang^3
#
#
#
# Elastic Constant Matrix: (Units=GPa)
#
#
# Indices 1 2 3 4 5 6 
#
# 1 142.2405 24.6841 32.1542 0.0000 0.0000 0.0000
# 2 24.6841 92.0111 20.3363 0.0000 0.0000 0.0000
# 3 32.1542 20.3363 66.9660 0.0000 0.0000 0.0000
# 4 0.0000 0.0000 0.0000 31.8781 0.0000 0.0000
# 5 0.0000 0.0000 0.0000 0.0000 37.3355 0.0000
# 6 0.0000 0.0000 0.0000 0.0000 0.0000 6.6428
#
#
#
# Elastic Compliance Matrix: (Units=1/GPa)
#
#
# Indices 1 2 3 4 5 6 
#
# 1 0.008051 -0.001399 -0.003441 0.000000 0.000000 0.000000
# 2 -0.001399 0.011893 -0.002940 0.000000 0.000000 0.000000
# 3 -0.003441 -0.002940 0.017478 0.000000 0.000000 0.000000
# 4 0.000000 0.000000 0.000000 0.031370 0.000000 0.000000
# 5 0.000000 0.000000 0.000000 0.000000 0.026784 0.000000
# 6 0.000000 0.000000 0.000000 0.000000 0.000000 0.150539
#
#
# Mechanical properties :
#
#
# Convention : Reuss Voigt Hill
#
# Bulk Modulus (GPa) = 45.74107 50.61856 48.17981
# Shear Modulus (GPa) = 18.58992 30.10746 24.34869
#
# Velocity S-wave (km/s) = 3.02927 3.85510 3.46686
# Velocity P-wave (km/s) = 5.90036 6.69346 6.30938
#
# Compressibility (1/GPa) = 0.02186219
#
# Stress axis : x y z
#
# Youngs Moduli (GPa) = 124.20820 84.07993 57.21523
#
# Poissons Ratio (x) = 0.11766 0.19687
# Poissons Ratio (y) = 0.17382 0.16821
# Poissons Ratio (z) = 0.42737 0.24719
#
# Static dielectric constant tensor:
#      x y z
#    x 4.068770 0.000000 0.000000 
#    y 0.000000 3.960420 0.000000 
#    z 0.000000 0.000000 3.620260 
# 
# 
# High freq. dielectric constant tensor:
#      x y z
#    x 1.813370 0.000000 0.000000 
#    y 0.000000 1.791010 0.000000 
#    z 0.000000 0.000000 1.799470 
# 
# From -- ./inp_files/4320.got.cif
#   From: 2010.03.12/outbox.cif.g09.slc.cpg/sg49_3_cif.got.tgz:4320.got - 2010.04.14 03:58:27.
