data_PCOD8204466
_publ_section_title
;
Structure prediction by ZEFSAII (Michael W. Deem and Ramdas Pophale) SiO2 
 PCOD8204466
Probable space group: P C C M
;
_chemical_formula_sum "Si O2"
_cell_formula_units_Z 56
_cell_length_a 15.248958
_cell_length_b 9.262308
_cell_length_c 19.318282
_cell_angle_alpha 90.000000
_cell_angle_beta 90.000000
_cell_angle_gamma 90.000000
_cell_volume 2728.524691
_symmetry_space_group_name_H-M "P C C M"
_symmetry_group_IT_number 49
_symmetry_cell_setting 'orthorhombic'
loop_
_space_group_symop_operation_xyz
x,y,z
-x,-y,z
x,-y,1/2-z
-x,y,1/2-z
-x,-y,-z
x,y,-z
-x,y,1/2+z
x,-y,1/2+z
loop_
_atom_site_type_symbol
_atom_site_label
_atom_site_fract_x
_atom_site_fract_y
_atom_site_fract_z
Si Si1 0.491135 0.828633 0.328753
Si Si2 0.652019 0.186023 0.079136
Si Si3 0.950756 0.360501 0.179557
Si Si4 0.238212 0.919669 0.579631
Si Si5 0.748421 0.629229 0.677489
Si Si6 0.308579 0.308113 0.175435
Si Si7 0.922032 0.891318 0.575799
O O1 0.500000 0.777972 0.250000
O O2 0.567366 0.764387 0.377194
O O3 0.400142 0.757159 0.352447
O O4 0.500000 0.000000 0.335612
O O5 0.735723 0.273716 0.109284
O O6 0.672194 0.014711 0.085266
O O7 0.636936 0.231017 0.000000
O O8 0.849721 0.400906 0.194135
O O9 0.956163 0.232853 0.125508
O O10 0.000000 0.500000 0.148183
O O11 0.000000 0.314015 0.250000
O O12 0.222514 0.870904 0.500000
O O13 0.238320 0.779982 0.629162
O O14 0.160467 0.022517 0.606926
O O15 0.706804 0.717202 0.742588
O O16 0.699166 0.478556 0.662743
O O17 0.896423 0.827421 0.500000
O O18 0.000000 0.000000 0.566200
#
# Coordination Sequence:
#
# PCOD8204466 Si02
#       7
#     8   8   8   8   8   8   8
#     4  11  22  39  64  96 123 163 221 265 317 381
#     4  11  23  43  66  94 132 172 213 270 329 385
#     4  11  24  43  65  94 134 169 222 272 330 390
#     4  10  22  41  66  94 129 170 215 271 327 394
#     4  11  25  43  64  96 129 177 213 271 325 395
#     4  11  23  41  67  90 131 168 220 263 327 382
#     4  10  23  42  64  95 130 167 217 272 333 395
#
# _framework density 20.523911999999999
#
# number of rings (size 3 to 8) (size 9 to 14) (size 15 to 20)
#    0.000    1.286    4.286    1.714    4.000    3.143 
#    0.000    0.714    0.000    0.000    0.000    0.000 
#    0.000    0.000    0.000    0.000    0.000    0.000 
#
# Total GULP energy -694246.605293 kJ/mol
# GULP energy per Si atom -12397.260809 kJ/mol
# Density = 2.047720 g / cm^3
# Si number density = 20.523912 Si / 1000 Ang^3
#
#
#
# Elastic Constant Matrix: (Units=GPa)
#
#
# Indices 1 2 3 4 5 6 
#
# 1 115.5574 35.9377 41.9432 0.0000 0.0000 0.0000
# 2 35.9377 109.1970 73.9387 0.0000 0.0000 0.0000
# 3 41.9432 73.9387 133.6367 0.0000 0.0000 0.0000
# 4 0.0000 0.0000 0.0000 79.5290 0.0000 0.0000
# 5 0.0000 0.0000 0.0000 0.0000 32.4589 0.0000
# 6 0.0000 0.0000 0.0000 0.0000 0.0000 31.7125
#
#
#
# Elastic Compliance Matrix: (Units=1/GPa)
#
#
# Indices 1 2 3 4 5 6 
#
# 1 0.009998 -0.001864 -0.002107 0.000000 0.000000 0.000000
# 2 -0.001864 0.014991 -0.007709 0.000000 0.000000 0.000000
# 3 -0.002107 -0.007709 0.012410 0.000000 0.000000 0.000000
# 4 0.000000 0.000000 0.000000 0.012574 0.000000 0.000000
# 5 0.000000 0.000000 0.000000 0.000000 0.030808 0.000000
# 6 0.000000 0.000000 0.000000 0.000000 0.000000 0.031533
#
#
# Mechanical properties :
#
#
# Convention : Reuss Voigt Hill
#
# Bulk Modulus (GPa) = 71.23064 73.55894 72.39479
# Shear Modulus (GPa) = 35.62409 42.51149 39.06779
#
# Velocity S-wave (km/s) = 4.17074 4.55611 4.36767
# Velocity P-wave (km/s) = 7.61413 7.97470 7.79650
#
# Compressibility (1/GPa) = 0.01403890
#
# Stress axis : x y z
#
# Youngs Moduli (GPa) = 100.01953 66.70506 80.58239
#
# Poissons Ratio (x) = 0.12434 0.16976
# Poissons Ratio (y) = 0.18644 0.62124
# Poissons Ratio (z) = 0.21071 0.51426
#
# Static dielectric constant tensor:
#      x y z
#    x 3.823130 0.000000 0.000000 
#    y 0.000000 3.458290 0.000000 
#    z 0.000000 0.000000 3.698920 
# 
# 
# High freq. dielectric constant tensor:
#      x y z
#    x 1.813650 0.000000 0.000000 
#    y 0.000000 1.790900 0.000000 
#    z 0.000000 0.000000 1.799860 
# 
# From -- ./inp_files/20876.got.cif
#   From: 2010.03.12/outbox.cif.g09.slc.cpg/sg49_11_cif.got.tgz:20876.got - 2010.04.14 03:58:27.
