data_PCOD8204459
_publ_section_title
;
Structure prediction by ZEFSAII (Michael W. Deem and Ramdas Pophale) SiO2 
 PCOD8204459
Probable space group: P C C M
;
_chemical_formula_sum "Si O2"
_cell_formula_units_Z 40
_cell_length_a 8.457985
_cell_length_b 9.782504
_cell_length_c 22.063044
_cell_angle_alpha 90.000000
_cell_angle_beta 90.000000
_cell_angle_gamma 90.000000
_cell_volume 1825.502264
_symmetry_space_group_name_H-M "P C C M"
_symmetry_group_IT_number 49
_symmetry_cell_setting 'orthorhombic'
loop_
_space_group_symop_operation_xyz
x,y,z
-x,-y,z
x,-y,1/2-z
-x,y,1/2-z
-x,-y,-z
x,y,-z
-x,y,1/2+z
x,-y,1/2+z
loop_
_atom_site_type_symbol
_atom_site_label
_atom_site_fract_x
_atom_site_fract_y
_atom_site_fract_z
Si Si1 0.177150 0.938965 0.886073
Si Si2 0.828512 0.839525 0.739859
Si Si3 0.170167 0.548262 0.430011
Si Si4 0.368001 0.282219 0.433037
Si Si5 0.669970 0.217443 0.359429
O O1 0.209483 0.830365 0.831046
O O2 0.233382 0.837492 0.939422
O O3 0.295248 0.065466 0.882566
O O4 0.000000 0.000000 0.891738
O O5 0.697358 0.776017 0.785966
O O6 0.000000 0.769468 0.750000
O O7 0.844879 0.000000 0.750000
O O8 0.166351 0.592494 0.500000
O O9 0.295668 0.429144 0.417972
O O10 0.208879 0.679369 0.390178
O O11 0.000000 0.500000 0.407826
O O12 0.449169 0.288998 0.500000
O O13 0.492680 0.251639 0.379636
#
# Coordination Sequence:
#
# PCOD8204459 Si02
#       5
#     8   8   8   8   8
#     4  11  21  39  66  92 128 167 218 269 321 383
#     4   9  17  36  63  90 120 156 210 262 316 378
#     4  10  22  41  64  90 125 173 223 266 319 385
#     4  11  25  41  60  95 137 171 214 271 330 383
#     4  11  21  37  66  92 125 169 212 270 325 386
#
# _framework density 21.911778000000002
#
# number of rings (size 3 to 8) (size 9 to 14) (size 15 to 20)
#    0.000    1.600    4.000    3.000    0.000    5.200 
#    0.000    4.000    0.000    2.400    0.000    0.000 
#    0.000    0.000    0.000    0.000    0.000    0.000 
#
# Total GULP energy -495564.022607 kJ/mol
# GULP energy per Si atom -12389.100565 kJ/mol
# Density = 2.186191 g / cm^3
# Si number density = 21.911778 Si / 1000 Ang^3
#
#
#
# Elastic Constant Matrix: (Units=GPa)
#
#
# Indices 1 2 3 4 5 6 
#
# 1 108.6417 13.6088 56.1328 0.0000 0.0000 0.0000
# 2 13.6088 71.4773 40.6016 0.0000 0.0000 0.0000
# 3 56.1328 40.6016 84.3241 0.0000 0.0000 0.0000
# 4 0.0000 0.0000 0.0000 39.5995 0.0000 0.0000
# 5 0.0000 0.0000 0.0000 0.0000 88.5592 0.0000
# 6 0.0000 0.0000 0.0000 0.0000 0.0000 35.2046
#
#
#
# Elastic Compliance Matrix: (Units=1/GPa)
#
#
# Indices 1 2 3 4 5 6 
#
# 1 0.014748 0.003811 -0.011652 0.000000 0.000000 0.000000
# 2 0.003811 0.020242 -0.012283 0.000000 0.000000 0.000000
# 3 -0.011652 -0.012283 0.025530 0.000000 0.000000 0.000000
# 4 0.000000 0.000000 0.000000 0.025253 0.000000 0.000000
# 5 0.000000 0.000000 0.000000 0.000000 0.011292 0.000000
# 6 0.000000 0.000000 0.000000 0.000000 0.000000 0.028405
#
#
# Mechanical properties :
#
#
# Convention : Reuss Voigt Hill
#
# Bulk Modulus (GPa) = 49.33232 53.90329 51.61781
# Shear Modulus (GPa) = 28.98951 42.94597 35.96774
#
# Velocity S-wave (km/s) = 3.64127 4.43193 4.05591
# Velocity P-wave (km/s) = 6.34361 7.13042 6.74849
#
# Compressibility (1/GPa) = 0.02027069
#
# Stress axis : x y z
#
# Youngs Moduli (GPa) = 67.80771 49.40144 39.16959
#
# Poissons Ratio (x) = -0.18827 0.45641
# Poissons Ratio (y) = -0.25841 0.48114
# Poissons Ratio (z) = 0.79010 0.60682
#
# Static dielectric constant tensor:
#      x y z
#    x 3.886000 0.000000 0.000000 
#    y 0.000000 3.784310 0.000000 
#    z 0.000000 0.000000 5.086060 
# 
# 
# High freq. dielectric constant tensor:
#      x y z
#    x 1.864240 0.000000 0.000000 
#    y 0.000000 1.849550 0.000000 
#    z 0.000000 0.000000 1.858410 
# 
# From -- ./inp_files/22183.got.cif
#   From: 2010.03.12/outbox.cif.g09.slc.cpg/sg49_12_cif.got.tgz:22183.got - 2010.04.14 03:58:27.
