data_PCOD8204534
_publ_section_title
;
Structure prediction by ZEFSAII (Michael W. Deem and Ramdas Pophale) SiO2 
 PCOD8204534
Probable space group: P C C M
;
_chemical_formula_sum "Si O2"
_cell_formula_units_Z 24
_cell_length_a 15.402147
_cell_length_b 7.081961
_cell_length_c 9.630664
_cell_angle_alpha 90.000000
_cell_angle_beta 90.000000
_cell_angle_gamma 90.000000
_cell_volume 1050.487831
_symmetry_space_group_name_H-M "P C C M"
_symmetry_group_IT_number 49
_symmetry_cell_setting 'orthorhombic'
loop_
_space_group_symop_operation_xyz
x,y,z
-x,-y,z
x,-y,1/2-z
-x,y,1/2-z
-x,-y,-z
x,y,-z
-x,y,1/2+z
x,-y,1/2+z
loop_
_atom_site_type_symbol
_atom_site_label
_atom_site_fract_x
_atom_site_fract_y
_atom_site_fract_z
Si Si1 0.223099 0.173178 0.500000
Si Si2 0.500000 0.500000 0.750000
Si Si3 0.867889 0.291230 0.272151
Si Si4 0.000000 0.000000 0.750000
Si Si5 0.612829 0.430162 0.000000
Si Si6 0.731780 0.246351 0.500000
O O1 0.160133 0.190163 0.369653
O O2 0.294838 0.333660 0.500000
O O3 0.277163 0.978750 0.500000
O O4 0.559614 0.621488 0.641676
O O5 0.908029 0.500000 0.250000
O O6 0.783852 0.316846 0.366247
O O7 0.939627 0.147479 0.338793
O O8 0.636398 0.655890 0.000000
#
# Coordination Sequence:
#
# PCOD8204534 Si02
#       6
#     4   2   8   2   4   4
#     4  12  23  43  70  97 129 177 226 266 321 404
#     4  10  24  42  70 106 128 174 192 282 342 382
#     4  12  24  42  64  95 132 180 226 276 332 378
#     4  12  26  42  64  96 148 160 238 290 328 364
#     4  11  22  44  70  95 140 162 220 261 334 400
#     4  12  23  43  70  97 129 177 226 266 321 404
#
# _framework density 22.846529
#
# number of rings (size 3 to 8) (size 9 to 14) (size 15 to 20)
#    0.000    0.333    6.667    2.500    0.000    2.667 
#    0.000    8.333    0.000    0.000    0.000    0.000 
#    0.000    0.000    0.000    0.000    0.000    0.000 
#
# Total GULP energy -297373.213171 kJ/mol
# GULP energy per Si atom -12390.550549 kJ/mol
# Density = 2.279453 g / cm^3
# Si number density = 22.846529 Si / 1000 Ang^3
#
#
#
# Elastic Constant Matrix: (Units=GPa)
#
#
# Indices 1 2 3 4 5 6 
#
# 1 102.2237 39.0448 33.3737 0.0000 0.0000 0.0000
# 2 39.0448 156.8899 16.9673 0.0000 0.0000 0.0000
# 3 33.3737 16.9673 146.5622 0.0000 0.0000 0.0000
# 4 0.0000 0.0000 0.0000 22.9383 0.0000 0.0000
# 5 0.0000 0.0000 0.0000 0.0000 -6.0511 0.0000
# 6 0.0000 0.0000 0.0000 0.0000 0.0000 19.8391
#
#
#
# Elastic Compliance Matrix: (Units=1/GPa)
#
#
# Indices 1 2 3 4 5 6 
#
# 1 0.011543 -0.002621 -0.002325 0.000000 0.000000 0.000000
# 2 -0.002621 0.007050 -0.000219 0.000000 0.000000 0.000000
# 3 -0.002325 -0.000219 0.007378 0.000000 0.000000 0.000000
# 4 0.000000 0.000000 0.000000 0.043595 0.000000 0.000000
# 5 0.000000 0.000000 0.000000 0.000000 -0.165258 0.000000
# 6 0.000000 0.000000 0.000000 0.000000 0.000000 0.050405
#
#
# Mechanical properties :
#
#
# Convention : Reuss Voigt Hill
#
# Bulk Modulus (GPa) = 63.94000 64.93860 64.43930
# Shear Modulus (GPa) = -168.10706 28.43125 -69.83790
#
# Velocity S-wave (km/s) = -8.58724 3.53150 -5.53486
# Velocity P-wave (km/s) = 8.38293 6.71671 3.54678
#
# Compressibility (1/GPa) = 0.01563966
#
# Stress axis : x y z
#
# Youngs Moduli (GPa) = 86.63506 141.84536 135.54098
#
# Poissons Ratio (x) = 0.37180 0.31512
# Poissons Ratio (y) = 0.22708 0.02972
# Poissons Ratio (z) = 0.20142 0.03111
#
# Static dielectric constant tensor:
#      x y z
#    x 4.069830 0.000000 0.000000 
#    y 0.000000 4.279330 0.000000 
#    z 0.000000 0.000000 3.974100 
# 
# 
# High freq. dielectric constant tensor:
#      x y z
#    x 1.902340 0.000000 0.000000 
#    y 0.000000 1.902670 0.000000 
#    z 0.000000 0.000000 1.893900 
# 
# From -- ./inp_files/4599.got.cif
#   From: 2010.03.12/outbox.cif.g09.slc.cpg/sg49_3_cif.got.tgz:4599.got - 2010.04.14 03:58:27.
