data_PCOD8204130
_publ_section_title
;
Structure prediction by ZEFSAII (Michael W. Deem and Ramdas Pophale) SiO2 
 PCOD8204130
Probable space group: P C C M
;
_chemical_formula_sum "Si O2"
_cell_formula_units_Z 56
_cell_length_a 23.638031
_cell_length_b 9.078281
_cell_length_c 14.444526
_cell_angle_alpha 90.000000
_cell_angle_beta 90.000000
_cell_angle_gamma 90.000000
_cell_volume 3099.689657
_symmetry_space_group_name_H-M "P C C M"
_symmetry_group_IT_number 49
_symmetry_cell_setting 'orthorhombic'
loop_
_space_group_symop_operation_xyz
x,y,z
-x,-y,z
x,-y,1/2-z
-x,y,1/2-z
-x,-y,-z
x,y,-z
-x,y,1/2+z
x,-y,1/2+z
loop_
_atom_site_type_symbol
_atom_site_label
_atom_site_fract_x
_atom_site_fract_y
_atom_site_fract_z
Si Si1 0.857719 0.174232 0.393537
Si Si2 0.639551 0.174223 0.250000
Si Si3 0.142281 0.174232 0.606463
Si Si4 0.765521 0.173101 0.250000
Si Si5 0.933520 0.670880 0.250000
Si Si6 0.564115 0.332092 0.607644
Si Si7 0.435885 0.332092 0.392356
O O1 0.854350 0.225449 0.500000
O O2 0.799687 0.221981 0.342051
O O3 0.909657 0.254241 0.343104
O O4 0.867483 1.000000 0.385175
O O5 0.702901 0.243225 0.250000
O O6 0.607525 0.226827 0.341212
O O7 0.607525 0.226827 0.158788
O O8 0.641111 0.000000 0.250000
O O9 0.145650 0.225449 0.500000
O O10 0.200313 0.221981 0.657949
O O11 0.090343 0.254241 0.656896
O O12 0.758381 0.000000 0.250000
O O13 0.916656 0.500000 0.250000
O O14 0.000000 0.694917 0.250000
O O15 0.575823 0.313699 0.500000
O O16 0.573991 0.500000 0.639080
O O17 0.500000 0.285228 0.632003
O O18 0.424177 0.313699 0.500000
#
# Coordination Sequence:
#
# PCOD8204130 Si02
#       7
#     8   8   8   8   8   8   8
#     4   9  18  35  58  77  96 131 176 214 245 283
#     4  11  21  31  50  79 105 129 159 203 258 305
#     4   9  18  35  58  77  96 131 176 214 245 283
#     4   8  17  33  50  73 104 133 163 202 250 302
#     4  10  21  35  51  76 111 142 164 196 248 304
#     4   9  19  36  54  70  94 132 172 206 245 298
#     4   9  19  36  54  70  94 132 172 206 245 298
#
# _framework density 18.066324999999999
#
# number of rings (size 3 to 8) (size 9 to 14) (size 15 to 20)
#    0.000    2.714    0.000    3.000    0.000    6.286 
#    0.000   12.857    0.000    0.000    0.000    0.000 
#    0.000    0.000    0.000    0.000    0.000    0.000 
#
# Total GULP energy -694324.035534 kJ/mol
# GULP energy per Si atom -12398.643492 kJ/mol
# Density = 1.802521 g / cm^3
# Si number density = 18.066325 Si / 1000 Ang^3
#
#
#
# Elastic Constant Matrix: (Units=GPa)
#
#
# Indices 1 2 3 4 5 6 
#
# 1 140.2687 51.3746 74.6320 0.0000 0.0000 0.0000
# 2 51.3746 58.7794 44.2541 0.0000 0.0000 0.0000
# 3 74.6320 44.2541 153.8283 0.0000 0.0000 0.0000
# 4 0.0000 0.0000 0.0000 23.7319 0.0000 0.0000
# 5 0.0000 0.0000 0.0000 0.0000 50.0149 0.0000
# 6 0.0000 0.0000 0.0000 0.0000 0.0000 2.6466
#
#
#
# Elastic Compliance Matrix: (Units=1/GPa)
#
#
# Indices 1 2 3 4 5 6 
#
# 1 0.011815 -0.007673 -0.003525 0.000000 0.000000 0.000000
# 2 -0.007673 0.026699 -0.003958 0.000000 0.000000 0.000000
# 3 -0.003525 -0.003958 0.009350 0.000000 0.000000 0.000000
# 4 0.000000 0.000000 0.000000 0.042137 0.000000 0.000000
# 5 0.000000 0.000000 0.000000 0.000000 0.019994 0.000000
# 6 0.000000 0.000000 0.000000 0.000000 0.000000 0.377839
#
#
# Mechanical properties :
#
#
# Convention : Reuss Voigt Hill
#
# Bulk Modulus (GPa) = 56.97437 77.04420 67.00928
# Shear Modulus (GPa) = 9.54205 27.45307 18.49756
#
# Velocity S-wave (km/s) = 2.30068 3.90240 3.20327
# Velocity P-wave (km/s) = 6.21789 7.93994 7.13109
#
# Compressibility (1/GPa) = 0.01755175
#
# Stress axis : x y z
#
# Youngs Moduli (GPa) = 84.63988 37.45449 106.95600
#
# Poissons Ratio (x) = 0.28737 0.37700
# Poissons Ratio (y) = 0.64941 0.42338
# Poissons Ratio (z) = 0.29834 0.14826
#
# Static dielectric constant tensor:
#      x y z
#    x 3.484530 0.000000 0.000000 
#    y 0.000000 3.169390 0.000000 
#    z 0.000000 0.000000 3.472740 
# 
# 
# High freq. dielectric constant tensor:
#      x y z
#    x 1.700750 0.000000 0.000000 
#    y 0.000000 1.682330 0.000000 
#    z 0.000000 0.000000 1.709150 
# 
# From -- ./inp_files/14359.got.cif
#   From: 2010.03.12/outbox.cif.g09.slc.cpg/sg49_8_cif.got.tgz:14359.got - 2010.04.14 03:58:27.
