data_PCOD8204416
_publ_section_title
;
Structure prediction by ZEFSAII (Michael W. Deem and Ramdas Pophale) SiO2 
 PCOD8204416
Probable space group: P C C M
;
_chemical_formula_sum "Si O2"
_cell_formula_units_Z 56
_cell_length_a 23.128958
_cell_length_b 7.989730
_cell_length_c 15.182883
_cell_angle_alpha 90.000000
_cell_angle_beta 90.000000
_cell_angle_gamma 90.000000
_cell_volume 2805.707649
_symmetry_space_group_name_H-M "P C C M"
_symmetry_group_IT_number 49
_symmetry_cell_setting 'orthorhombic'
loop_
_space_group_symop_operation_xyz
x,y,z
-x,-y,z
x,-y,1/2-z
-x,y,1/2-z
-x,-y,-z
x,y,-z
-x,y,1/2+z
x,-y,1/2+z
loop_
_atom_site_type_symbol
_atom_site_label
_atom_site_fract_x
_atom_site_fract_y
_atom_site_fract_z
Si Si1 0.563142 0.804353 0.096477
Si Si2 0.856830 0.191653 0.397605
Si Si3 0.764661 0.810219 0.250000
Si Si4 0.935951 0.500000 0.396260
Si Si5 0.639732 0.687099 0.250000
Si Si6 0.143170 0.808347 0.102395
Si Si7 0.436858 0.195647 0.403523
O O1 0.614860 0.768887 0.162481
O O2 0.500000 0.735292 0.128555
O O3 0.557908 0.000000 0.087216
O O4 0.577928 0.727656 0.000000
O O5 0.840054 0.217780 0.500000
O O6 0.800898 0.226272 0.338334
O O7 0.904139 0.328474 0.366683
O O8 0.879604 0.000000 0.382098
O O9 0.708947 0.693472 0.250000
O O10 0.800898 0.773728 0.338334
O O11 0.742582 0.000000 0.250000
O O12 0.941174 0.500000 0.500000
O O13 0.904139 0.671526 0.366683
O O14 0.000000 0.500000 0.353627
O O15 0.618048 0.500000 0.250000
O O16 0.614860 0.768887 0.337519
O O17 0.159946 0.782221 0.000000
O O18 0.422072 0.272344 0.500000
#
# Coordination Sequence:
#
# PCOD8204416 Si02
#       7
#     8   8   8   8   8   8   8
#     4   9  19  38  62  83 107 145 189 231 278 334
#     4   9  19  36  57  80 109 147 186 229 281 330
#     4  10  22  39  57  77 104 144 193 232 266 320
#     4   9  18  33  57  87 114 145 183 224 276 336
#     4  12  25  35  52  85 117 147 183 230 287 340
#     4   9  19  36  57  80 109 147 186 229 281 330
#     4   9  19  38  62  83 107 145 189 231 278 334
#
# _framework density 19.959315
#
# number of rings (size 3 to 8) (size 9 to 14) (size 15 to 20)
#    0.000    2.429    0.000    2.571    2.000    4.571 
#    0.000    8.571    0.000    2.571    0.000    0.000 
#    0.000    0.000    0.000    0.000    0.000    0.000 
#
# Total GULP energy -694018.968227 kJ/mol
# GULP energy per Si atom -12393.195861 kJ/mol
# Density = 1.991389 g / cm^3
# Si number density = 19.959315 Si / 1000 Ang^3
#
#
#
# Elastic Constant Matrix: (Units=GPa)
#
#
# Indices 1 2 3 4 5 6 
#
# 1 139.6886 53.0950 63.9922 0.0000 0.0000 0.0000
# 2 53.0950 92.3211 33.5888 0.0000 0.0000 0.0000
# 3 63.9922 33.5888 108.2658 0.0000 0.0000 0.0000
# 4 0.0000 0.0000 0.0000 34.7412 0.0000 0.0000
# 5 0.0000 0.0000 0.0000 0.0000 17.6161 0.0000
# 6 0.0000 0.0000 0.0000 0.0000 0.0000 -23.8794
#
#
#
# Elastic Compliance Matrix: (Units=1/GPa)
#
#
# Indices 1 2 3 4 5 6 
#
# 1 0.011316 -0.004593 -0.005263 0.000000 0.000000 0.000000
# 2 -0.004593 0.014074 -0.001652 0.000000 0.000000 0.000000
# 3 -0.005263 -0.001652 0.012860 0.000000 0.000000 0.000000
# 4 0.000000 0.000000 0.000000 0.028784 0.000000 0.000000
# 5 0.000000 0.000000 0.000000 0.000000 0.056766 0.000000
# 6 0.000000 0.000000 0.000000 0.000000 0.000000 -0.041877
#
#
# Mechanical properties :
#
#
# Convention : Reuss Voigt Hill
#
# Bulk Modulus (GPa) = 65.64344 71.29194 68.46769
# Shear Modulus (GPa) = 45.44742 18.33554 31.89148
#
# Velocity S-wave (km/s) = 4.77697 3.03421 4.00162
# Velocity P-wave (km/s) = 7.96153 6.93335 7.46516
#
# Compressibility (1/GPa) = 0.01523382
#
# Stress axis : x y z
#
# Youngs Moduli (GPa) = 88.37280 71.05250 77.76045
#
# Poissons Ratio (x) = 0.32633 0.40929
# Poissons Ratio (y) = 0.40588 0.12844
# Poissons Ratio (z) = 0.46514 0.11736
#
# Static dielectric constant tensor:
#      x y z
#    x 3.523970 0.000000 0.000000 
#    y 0.000000 3.706190 0.000000 
#    z 0.000000 0.000000 3.540200 
# 
# 
# High freq. dielectric constant tensor:
#      x y z
#    x 1.763280 0.000000 0.000000 
#    y 0.000000 1.779130 0.000000 
#    z 0.000000 0.000000 1.783970 
# 
# From -- ./inp_files/14411.got.cif
#   From: 2010.03.12/outbox.cif.g09.slc.cpg/sg49_8_cif.got.tgz:14411.got - 2010.04.14 03:58:27.
