data_PCOD8204417
_publ_section_title
;
Structure prediction by ZEFSAII (Michael W. Deem and Ramdas Pophale) SiO2 
 PCOD8204417
Probable space group: P C C M
;
_chemical_formula_sum "Si O2"
_cell_formula_units_Z 64
_cell_length_a 9.208130
_cell_length_b 17.241939
_cell_length_c 20.846169
_cell_angle_alpha 90.000000
_cell_angle_beta 90.000000
_cell_angle_gamma 90.000000
_cell_volume 3309.663196
_symmetry_space_group_name_H-M "P C C M"
_symmetry_group_IT_number 49
_symmetry_cell_setting 'orthorhombic'
loop_
_space_group_symop_operation_xyz
x,y,z
-x,-y,z
x,-y,1/2-z
-x,y,1/2-z
-x,-y,-z
x,y,-z
-x,y,1/2+z
x,-y,1/2+z
loop_
_atom_site_type_symbol
_atom_site_label
_atom_site_fract_x
_atom_site_fract_y
_atom_site_fract_z
Si Si1 0.001281 0.258885 0.425846
Si Si2 0.500142 0.698471 0.676548
Si Si3 0.280109 0.182162 0.625404
Si Si4 0.577596 0.418620 0.572638
Si Si5 0.168739 0.914781 0.763066
Si Si6 0.908742 0.428257 0.424386
Si Si7 0.470582 0.915762 0.427072
Si Si8 0.744511 0.185522 0.648797
O O1 0.956322 0.249755 0.500000
O O2 0.987167 0.348373 0.404019
O O3 0.897863 0.205929 0.382700
O O4 0.165511 0.231157 0.415719
O O5 0.500000 0.666799 0.750000
O O6 0.631952 0.759261 0.671348
O O7 0.516641 0.630970 0.623520
O O8 0.348026 0.737138 0.657323
O O9 0.201355 0.114092 0.665299
O O10 0.390059 0.140003 0.577296
O O11 0.500000 0.500000 0.568611
O O12 0.577454 0.381457 0.500000
O O13 0.741785 0.428415 0.599228
O O14 0.239882 0.850880 0.718288
O O15 0.000000 0.918797 0.750000
O O16 0.236943 0.000000 0.750000
O O17 0.908062 0.438637 0.500000
O O18 0.000000 0.500000 0.393570
O O19 0.426508 0.927838 0.500000
O O20 0.331645 0.878351 0.394596
O O21 0.500000 0.000000 0.395242
#
# Coordination Sequence:
#
# PCOD8204417 Si02
#       8
#     8   8   8   8   8   8   8   8
#     4  11  22  37  61  91 121 157 199 252 307 361
#     4  11  23  39  62  91 124 162 200 251 309 361
#     4  11  23  38  59  90 118 154 201 250 303 362
#     4  10  22  39  62  91 123 162 207 250 300 366
#     4  11  22  38  61  87 115 152 202 255 299 353
#     4   9  19  36  58  87 120 153 197 247 296 350
#     4  10  22  39  57  81 118 157 194 246 307 366
#     4  11  21  39  61  84 116 157 202 245 301 367
#
# _framework density 19.337313999999999
#
# number of rings (size 3 to 8) (size 9 to 14) (size 15 to 20)
#    0.000    1.500    3.750    1.500    1.750    2.750 
#    0.000    1.875    0.000    3.000    0.000    0.000 
#    0.000    0.000    0.000    0.000    0.000    0.000 
#
# Total GULP energy -793608.478418 kJ/mol
# GULP energy per Si atom -12400.132475 kJ/mol
# Density = 1.929330 g / cm^3
# Si number density = 19.337314 Si / 1000 Ang^3
#
#
#
# Elastic Constant Matrix: (Units=GPa)
#
#
# Indices 1 2 3 4 5 6 
#
# 1 74.4466 25.0730 1.7213 0.0000 0.0000 0.0000
# 2 25.0730 100.5300 25.2200 0.0000 0.0000 0.0000
# 3 1.7213 25.2200 73.6123 0.0000 0.0000 0.0000
# 4 0.0000 0.0000 0.0000 32.3102 0.0000 0.0000
# 5 0.0000 0.0000 0.0000 0.0000 23.6809 0.0000
# 6 0.0000 0.0000 0.0000 0.0000 0.0000 23.5213
#
#
#
# Elastic Compliance Matrix: (Units=1/GPa)
#
#
# Indices 1 2 3 4 5 6 
#
# 1 0.014731 -0.003925 0.001000 0.000000 0.000000 0.000000
# 2 -0.003925 0.011928 -0.003995 0.000000 0.000000 0.000000
# 3 0.001000 -0.003995 0.014930 0.000000 0.000000 0.000000
# 4 0.000000 0.000000 0.000000 0.030950 0.000000 0.000000
# 5 0.000000 0.000000 0.000000 0.000000 0.042228 0.000000
# 6 0.000000 0.000000 0.000000 0.000000 0.000000 0.042515
#
#
# Mechanical properties :
#
#
# Convention : Reuss Voigt Hill
#
# Bulk Modulus (GPa) = 36.03574 39.17970 37.60772
# Shear Modulus (GPa) = 27.72051 29.00747 28.36399
#
# Velocity S-wave (km/s) = 3.79030 3.87728 3.83404
# Velocity P-wave (km/s) = 6.15069 6.35214 6.25222
#
# Compressibility (1/GPa) = 0.02775023
#
# Stress axis : x y z
#
# Youngs Moduli (GPa) = 67.88293 83.83328 66.97924
#
# Poissons Ratio (x) = 0.32905 -0.06700
# Poissons Ratio (y) = 0.26644 0.26758
# Poissons Ratio (z) = -0.06790 0.33491
#
# Static dielectric constant tensor:
#      x y z
#    x 3.500310 0.000000 0.000000 
#    y 0.000000 3.663270 0.000000 
#    z 0.000000 0.000000 3.225660 
# 
# 
# High freq. dielectric constant tensor:
#      x y z
#    x 1.756260 0.000000 0.000000 
#    y 0.000000 1.758080 0.000000 
#    z 0.000000 0.000000 1.737630 
# 
# From -- ./inp_files/19997.got.cif
#   From: 2010.03.12/outbox.cif.g09.slc.cpg/sg49_10_cif.got.tgz:19997.got - 2010.04.14 03:58:27.
