data_PCOD8204298
_publ_section_title
;
Structure prediction by ZEFSAII (Michael W. Deem and Ramdas Pophale) SiO2 
 PCOD8204298
Probable space group: P C C M
;
_chemical_formula_sum "Si O2"
_cell_formula_units_Z 64
_cell_length_a 15.448913
_cell_length_b 23.760717
_cell_length_c 8.496475
_cell_angle_alpha 90.000000
_cell_angle_beta 90.000000
_cell_angle_gamma 90.000000
_cell_volume 3118.862676
_symmetry_space_group_name_H-M "P C C M"
_symmetry_group_IT_number 49
_symmetry_cell_setting 'orthorhombic'
loop_
_space_group_symop_operation_xyz
x,y,z
-x,-y,z
x,-y,1/2-z
-x,y,1/2-z
-x,-y,-z
x,y,-z
-x,y,1/2+z
x,-y,1/2+z
loop_
_atom_site_type_symbol
_atom_site_label
_atom_site_fract_x
_atom_site_fract_y
_atom_site_fract_z
Si Si1 0.757498 0.938806 0.315000
Si Si2 0.344166 0.245278 0.686970
Si Si3 0.408576 0.126305 0.686675
Si Si4 0.909968 0.135397 0.683877
Si Si5 0.247609 0.562121 0.812769
Si Si6 0.147117 0.750921 0.185636
Si Si7 0.409238 0.636711 0.185827
Si Si8 0.909116 0.367502 0.686132
O O1 0.753615 0.942259 0.500000
O O2 0.665850 0.915519 0.249632
O O3 0.831896 0.895936 0.268270
O O4 0.777811 0.000000 0.250000
O O5 0.344415 0.245764 0.500000
O O6 0.390381 0.189212 0.752805
O O7 0.245665 0.247034 0.745972
O O8 0.393398 0.300235 0.753107
O O9 0.500000 0.104065 0.750000
O O10 0.409396 0.127092 0.500000
O O11 0.904783 0.124005 0.500000
O O12 0.905713 0.201533 0.722048
O O13 0.000000 0.110859 0.750000
O O14 0.261844 0.500000 0.750000
O O15 0.331487 0.597054 0.757103
O O16 0.163517 0.587595 0.730843
O O17 0.235807 0.563751 0.000000
O O18 0.107129 0.691054 0.226197
O O19 0.139761 0.762174 0.000000
O O20 0.500000 0.613115 0.250000
O O21 0.412744 0.637512 0.000000
O O22 0.911482 0.358416 0.500000
O O23 0.000000 0.391703 0.750000
#
# Coordination Sequence:
#
# PCOD8204298 Si02
#       8
#     8   8   8   8   8   8   8   8
#     4  11  24  44  66  90 123 165 211 264 316 368
#     4   9  17  35  61  89 123 163 199 246 308 369
#     4  10  21  38  62  91 125 164 205 252 311 370
#     4  12  25  42  65  96 128 164 209 255 311 375
#     4  11  24  44  66  90 123 165 211 264 316 368
#     4  11  20  39  66  93 130 168 206 253 312 371
#     4  10  21  38  62  91 125 164 205 252 311 370
#     4  12  25  42  65  96 128 164 209 255 311 375
#
# _framework density 20.520299999999999
#
# number of rings (size 3 to 8) (size 9 to 14) (size 15 to 20)
#    0.000    1.250    2.500    4.125    0.000    3.000 
#    0.000    5.000    0.000    0.000    0.000    0.000 
#    0.000    0.000    0.000    0.000    0.000    0.000 
#
# Total GULP energy -793888.398600 kJ/mol
# GULP energy per Si atom -12404.506228 kJ/mol
# Density = 2.047359 g / cm^3
# Si number density = 20.520300 Si / 1000 Ang^3
#
#
#
# Elastic Constant Matrix: (Units=GPa)
#
#
# Indices 1 2 3 4 5 6 
#
# 1 142.6490 19.2660 24.1306 0.0000 0.0000 0.0000
# 2 19.2660 86.6761 13.7188 0.0000 0.0000 0.0000
# 3 24.1306 13.7188 45.3216 0.0000 0.0000 0.0000
# 4 0.0000 0.0000 0.0000 22.9477 0.0000 0.0000
# 5 0.0000 0.0000 0.0000 0.0000 32.9008 0.0000
# 6 0.0000 0.0000 0.0000 0.0000 0.0000 7.3073
#
#
#
# Elastic Compliance Matrix: (Units=1/GPa)
#
#
# Indices 1 2 3 4 5 6 
#
# 1 0.007808 -0.001132 -0.003815 0.000000 0.000000 0.000000
# 2 -0.001132 0.012282 -0.003115 0.000000 0.000000 0.000000
# 3 -0.003815 -0.003115 0.025039 0.000000 0.000000 0.000000
# 4 0.000000 0.000000 0.000000 0.043577 0.000000 0.000000
# 5 0.000000 0.000000 0.000000 0.000000 0.030394 0.000000
# 6 0.000000 0.000000 0.000000 0.000000 0.000000 0.136849
#
#
# Mechanical properties :
#
#
# Convention : Reuss Voigt Hill
#
# Bulk Modulus (GPa) = 34.47636 43.20860 38.84248
# Shear Modulus (GPa) = 17.74679 27.13324 22.44002
#
# Velocity S-wave (km/s) = 2.94401 3.64024 3.31048
# Velocity P-wave (km/s) = 5.32858 6.22661 5.79502
#
# Compressibility (1/GPa) = 0.02900538
#
# Stress axis : x y z
#
# Youngs Moduli (GPa) = 128.06733 81.42111 39.93832
#
# Poissons Ratio (x) = 0.09215 0.15236
# Poissons Ratio (y) = 0.14495 0.12441
# Poissons Ratio (z) = 0.48855 0.25363
#
# Static dielectric constant tensor:
#      x y z
#    x 4.082540 0.000000 0.000000 
#    y 0.000000 4.162300 0.000000 
#    z 0.000000 0.000000 3.554800 
# 
# 
# High freq. dielectric constant tensor:
#      x y z
#    x 1.820910 0.000000 0.000000 
#    y 0.000000 1.800760 0.000000 
#    z 0.000000 0.000000 1.792350 
# 
# From -- ./inp_files/4322.got.cif
#   From: 2010.03.12/outbox.cif.g09.slc.cpg/sg49_3_cif.got.tgz:4322.got - 2010.04.14 03:58:27.
