data_PCOD8204718
_publ_section_title
;
Structure prediction by ZEFSAII (Michael W. Deem and Ramdas Pophale) SiO2 
 PCOD8204718
Probable space group: P B A N
;
_chemical_formula_sum "Si O2"
_cell_formula_units_Z 40
_cell_length_a 5.103459
_cell_length_b 15.261924
_cell_length_c 24.264424
_cell_angle_alpha 90.000000
_cell_angle_beta 90.000000
_cell_angle_gamma 90.000000
_cell_volume 1889.922098
_symmetry_space_group_name_H-M "P B A N"
_symmetry_group_IT_number 50
_space_group.IT_coordinate_system_code '2'
_symmetry_cell_setting 'orthorhombic'
loop_
_space_group_symop_operation_xyz
x,y,z
1/2-x,1/2-y,z
x,1/2-y,-z
1/2-x,y,-z
-x,-y,-z
1/2+x,1/2+y,-z
-x,1/2+y,z
1/2+x,-y,z
loop_
_atom_site_type_symbol
_atom_site_label
_atom_site_fract_x
_atom_site_fract_y
_atom_site_fract_z
Si Si1 0.999082 0.400352 0.975468
Si Si2 0.016078 0.942331 0.735792
Si Si3 0.584409 0.054147 0.856265
Si Si4 0.723983 0.947574 0.435102
Si Si5 0.006917 0.194433 0.357164
O O1 0.992958 0.389132 0.909366
O O2 0.750000 0.350212 0.000000
O O3 0.250000 0.350837 0.000000
O O4 0.000000 0.500000 0.000000
O O5 0.037111 0.899321 0.797135
O O6 0.083456 0.869067 0.691466
O O7 0.224006 0.020714 0.727520
O O8 0.390826 0.970180 0.859327
O O9 0.750000 0.934533 0.500000
O O10 0.629005 0.856232 0.409694
O O11 0.511876 0.021149 0.415564
O O12 0.750000 0.250000 0.375299
O O13 0.250000 0.250000 0.333743
#
# Coordination Sequence:
#
# PCOD8204718 Si02
#       5
#     8   8   8   8   8
#     4  10  14  20  34  56  94 130 154 209 282 348
#     4  10  21  36  56  78 111 151 194 238 282 345
#     4  10  16  25  40  65  94 137 172 216 277 340
#     4  10  21  40  65  90 118 152 190 229 280 341
#     4  12  24  39  60  87 120 155 195 238 284 334
#
# _framework density 21.164895000000001
#
# number of rings (size 3 to 8) (size 9 to 14) (size 15 to 20)
#    0.000    1.600    4.000    3.600    0.000    0.400 
#    0.000    1.000    0.000    0.000    0.000    0.000 
#    0.000    4.800    0.000    0.000    0.000    0.000 
#
# Total GULP energy -495604.671820 kJ/mol
# GULP energy per Si atom -12390.116795 kJ/mol
# Density = 2.111672 g / cm^3
# Si number density = 21.164895 Si / 1000 Ang^3
#
#
#
# Elastic Constant Matrix: (Units=GPa)
#
#
# Indices 1 2 3 4 5 6 
#
# 1 148.3246 21.3129 45.7553 0.0000 0.0000 0.0000
# 2 21.3129 49.1286 45.3799 0.0000 0.0000 0.0000
# 3 45.7553 45.3799 118.4205 0.0000 0.0000 0.0000
# 4 0.0000 0.0000 0.0000 3.3003 0.0000 0.0000
# 5 0.0000 0.0000 0.0000 0.0000 32.5425 0.0000
# 6 0.0000 0.0000 0.0000 0.0000 0.0000 26.7429
#
#
#
# Elastic Compliance Matrix: (Units=1/GPa)
#
#
# Indices 1 2 3 4 5 6 
#
# 1 0.007681 -0.000915 -0.002617 0.000000 0.000000 0.000000
# 2 -0.000915 0.031616 -0.011762 0.000000 0.000000 0.000000
# 3 -0.002617 -0.011762 0.013963 0.000000 0.000000 0.000000
# 4 0.000000 0.000000 0.000000 0.303002 0.000000 0.000000
# 5 0.000000 0.000000 0.000000 0.000000 0.030729 0.000000
# 6 0.000000 0.000000 0.000000 0.000000 0.000000 0.037393
#
#
# Mechanical properties :
#
#
# Convention : Reuss Voigt Hill
#
# Bulk Modulus (GPa) = 44.10721 60.08556 52.09638
# Shear Modulus (GPa) = 10.81011 26.07884 18.44448
#
# Velocity S-wave (km/s) = 2.26244 3.51404 2.95526
# Velocity P-wave (km/s) = 5.26402 6.70191 6.02600
#
# Compressibility (1/GPa) = 0.02267203
#
# Stress axis : x y z
#
# Youngs Moduli (GPa) = 130.19567 31.62930 71.61700
#
# Poissons Ratio (x) = 0.02893 0.18744
# Poissons Ratio (y) = 0.11907 0.84238
# Poissons Ratio (z) = 0.34075 0.37203
#
# Static dielectric constant tensor:
#      x y z
#    x 1.926420 0.000000 0.000000 
#    y 0.000000 3.176600 0.000000 
#    z 0.000000 0.000000 4.073290 
# 
# 
# High freq. dielectric constant tensor:
#      x y z
#    x 1.866020 0.000000 0.000000 
#    y 0.000000 1.753580 0.000000 
#    z 0.000000 0.000000 1.846470 
# 
# From -- ./inp_files/31401.got.cif
#   From: 2010.03.12/outbox.cif.g09.slc.cpg/sg50_16_cif.got.tgz:31401.got - 2010.04.16 13:23:21.
