data_PCOD8204070
_publ_section_title
;
Structure prediction by ZEFSAII (Michael W. Deem and Ramdas Pophale) SiO2 
 PCOD8204070
Probable space group: P C C M
;
_chemical_formula_sum "Si O2"
_cell_formula_units_Z 64
_cell_length_a 17.477237
_cell_length_b 11.305174
_cell_length_c 14.765098
_cell_angle_alpha 90.000000
_cell_angle_beta 90.000000
_cell_angle_gamma 90.000000
_cell_volume 2917.335390
_symmetry_space_group_name_H-M "P C C M"
_symmetry_group_IT_number 49
_symmetry_cell_setting 'orthorhombic'
loop_
_space_group_symop_operation_xyz
x,y,z
-x,-y,z
x,-y,1/2-z
-x,y,1/2-z
-x,-y,-z
x,y,-z
-x,y,1/2+z
x,-y,1/2+z
loop_
_atom_site_type_symbol
_atom_site_label
_atom_site_fract_x
_atom_site_fract_y
_atom_site_fract_z
Si Si1 0.834095 0.484195 0.605615
Si Si2 0.541704 0.878752 0.103027
Si Si3 0.658480 0.542742 0.103438
Si Si4 0.079538 0.253911 0.895537
Si Si5 0.899863 0.272805 0.105049
Si Si6 0.825035 0.133880 0.740455
Si Si7 0.596645 0.290337 0.898210
Si Si8 0.664226 0.231098 0.282972
O O1 0.849926 0.480445 0.500000
O O2 0.744680 0.495066 0.629014
O O3 0.876068 0.368437 0.645167
O O4 0.873759 0.600918 0.645111
O O5 0.488109 0.762515 0.115894
O O6 0.614010 0.870497 0.169431
O O7 0.500000 0.000000 0.129824
O O8 0.571107 0.885757 0.000000
O O9 0.600090 0.432672 0.115440
O O10 0.635664 0.646260 0.171973
O O11 0.654997 0.590337 0.000000
O O12 0.108557 0.144348 0.835178
O O13 0.989997 0.266231 0.880730
O O14 0.100018 0.229876 0.000000
O O15 0.855888 0.173811 0.161855
O O16 0.877111 0.255899 0.000000
O O17 0.753436 0.208830 0.702218
O O18 0.798175 0.000000 0.750000
O O19 0.651507 0.229648 0.825003
O O20 0.626112 0.259310 0.000000
#
# Coordination Sequence:
#
# PCOD8204070 Si02
#       8
#     8   8   8   8   8   8   8   8
#     4   9  17  35  63  97 131 164 211 270 334 401
#     4  10  24  46  70  98 130 169 223 279 327 385
#     4  10  20  38  65  98 137 171 210 270 336 399
#     4  10  21  41  67  94 128 172 220 273 333 396
#     4  10  22  41  66  93 129 175 219 270 333 393
#     4  12  28  43  60  94 131 172 226 278 324 391
#     4  10  23  41  64  97 132 170 212 266 324 390
#     4  12  24  41  69  93 128 175 218 265 337 398
#
# _framework density 21.937828
#
# number of rings (size 3 to 8) (size 9 to 14) (size 15 to 20)
#    0.000    1.625    1.250    2.625    1.750    6.500 
#    0.000    5.625    0.000    0.000    0.000    0.000 
#    0.000    0.000    0.000    0.000    0.000    0.000 
#
# Total GULP energy -793637.591310 kJ/mol
# GULP energy per Si atom -12400.587364 kJ/mol
# Density = 2.188790 g / cm^3
# Si number density = 21.937828 Si / 1000 Ang^3
#
#
#
# Elastic Constant Matrix: (Units=GPa)
#
#
# Indices 1 2 3 4 5 6 
#
# 1 93.3581 37.9144 48.9786 0.0000 0.0000 0.0000
# 2 37.9144 98.0607 43.2604 0.0000 0.0000 0.0000
# 3 48.9786 43.2604 117.4136 0.0000 0.0000 0.0000
# 4 0.0000 0.0000 0.0000 27.9121 0.0000 0.0000
# 5 0.0000 0.0000 0.0000 0.0000 28.0035 0.0000
# 6 0.0000 0.0000 0.0000 0.0000 0.0000 32.9588
#
#
#
# Elastic Compliance Matrix: (Units=1/GPa)
#
#
# Indices 1 2 3 4 5 6 
#
# 1 0.014680 -0.003552 -0.004815 0.000000 0.000000 0.000000
# 2 -0.003552 0.013036 -0.003322 0.000000 0.000000 0.000000
# 3 -0.004815 -0.003322 0.011749 0.000000 0.000000 0.000000
# 4 0.000000 0.000000 0.000000 0.035827 0.000000 0.000000
# 5 0.000000 0.000000 0.000000 0.000000 0.035710 0.000000
# 6 0.000000 0.000000 0.000000 0.000000 0.000000 0.030341
#
#
# Mechanical properties :
#
#
# Convention : Reuss Voigt Hill
#
# Bulk Modulus (GPa) = 62.15464 63.23770 62.69617
# Shear Modulus (GPa) = 29.39742 29.68681 29.54212
#
# Velocity S-wave (km/s) = 3.66462 3.68261 3.67363
# Velocity P-wave (km/s) = 6.80438 6.85351 6.82899
#
# Compressibility (1/GPa) = 0.01608890
#
# Stress axis : x y z
#
# Youngs Moduli (GPa) = 68.11984 76.70860 85.11121
#
# Poissons Ratio (x) = 0.27244 0.40982
# Poissons Ratio (y) = 0.24194 0.28271
# Poissons Ratio (z) = 0.32800 0.25480
#
# Static dielectric constant tensor:
#      x y z
#    x 3.801930 0.000000 0.000000 
#    y 0.000000 3.895200 0.000000 
#    z 0.000000 0.000000 4.018660 
# 
# 
# High freq. dielectric constant tensor:
#      x y z
#    x 1.857960 0.000000 0.000000 
#    y 0.000000 1.851750 0.000000 
#    z 0.000000 0.000000 1.872170 
# 
# From -- ./inp_files/14190.got.cif
#   From: 2010.03.12/outbox.cif.g09.slc.cpg/sg49_8_cif.got.tgz:14190.got - 2010.04.14 03:58:27.
