data_PCOD8204189
_publ_section_title
;
Structure prediction by ZEFSAII (Michael W. Deem and Ramdas Pophale) SiO2 
 PCOD8204189
Probable space group: P C C M
;
_chemical_formula_sum "Si O2"
_cell_formula_units_Z 48
_cell_length_a 31.009623
_cell_length_b 9.190661
_cell_length_c 8.730295
_cell_angle_alpha 90.000000
_cell_angle_beta 90.000000
_cell_angle_gamma 90.000000
_cell_volume 2488.124757
_symmetry_space_group_name_H-M "P C C M"
_symmetry_group_IT_number 49
_symmetry_cell_setting 'orthorhombic'
loop_
_space_group_symop_operation_xyz
x,y,z
-x,-y,z
x,-y,1/2-z
-x,y,1/2-z
-x,-y,-z
x,y,-z
-x,y,1/2+z
x,-y,1/2+z
loop_
_atom_site_type_symbol
_atom_site_label
_atom_site_fract_x
_atom_site_fract_y
_atom_site_fract_z
Si Si1 0.864123 0.657994 0.679669
Si Si2 0.041429 0.658916 0.821092
Si Si3 0.380057 0.843047 0.181801
Si Si4 0.453152 0.652618 0.682826
Si Si5 0.702862 0.658187 0.679928
Si Si6 0.215959 0.841692 0.181695
O O1 0.857110 0.500000 0.750000
O O2 0.858818 0.636596 0.500000
O O3 0.911534 0.726807 0.718418
O O4 0.828147 0.768262 0.743037
O O5 0.041759 0.500000 0.750000
O O6 0.000000 0.746121 0.750000
O O7 0.034042 0.648617 0.000000
O O8 0.422593 0.781962 0.262775
O O9 0.340219 0.741771 0.228850
O O10 0.370066 0.000000 0.250000
O O11 0.386837 0.851106 0.000000
O O12 0.435587 0.500000 0.750000
O O13 0.500000 0.686566 0.750000
O O14 0.455055 0.643727 0.500000
O O15 0.702153 0.500000 0.750000
O O16 0.706014 0.641432 0.500000
O O17 0.744091 0.746186 0.742514
O O18 0.220265 0.000000 0.250000
O O19 0.216331 0.853954 0.000000
#
# Coordination Sequence:
#
# PCOD8204189 Si02
#       6
#     8   8   8   8   8   8
#     4   9  18  31  49  73 102 132 170 214 259 309
#     4   9  15  24  40  65  95 127 161 206 255 304
#     4  11  23  39  58  85 117 151 188 228 274 327
#     4  11  22  39  62  88 117 152 192 236 280 327
#     4  10  22  38  59  84 111 141 179 222 267 318
#     4  10  21  37  54  77 106 138 174 216 262 314
#
# _framework density 19.291637000000001
#
# number of rings (size 3 to 8) (size 9 to 14) (size 15 to 20)
#    0.000    2.000    0.000    5.000    0.000    5.000 
#    0.000    1.667    0.000    0.500    0.000    3.500 
#    0.000    0.000    0.000    0.000    0.000    0.000 
#
# Total GULP energy -595094.791861 kJ/mol
# GULP energy per Si atom -12397.808164 kJ/mol
# Density = 1.924773 g / cm^3
# Si number density = 19.291637 Si / 1000 Ang^3
#
#
#
# Elastic Constant Matrix: (Units=GPa)
#
#
# Indices 1 2 3 4 5 6 
#
# 1 155.0988 80.0925 53.7531 0.0000 0.0000 0.0000
# 2 80.0925 137.0698 42.2236 0.0000 0.0000 0.0000
# 3 53.7531 42.2236 80.0843 0.0000 0.0000 0.0000
# 4 0.0000 0.0000 0.0000 31.6485 0.0000 0.0000
# 5 0.0000 0.0000 0.0000 0.0000 27.6763 0.0000
# 6 0.0000 0.0000 0.0000 0.0000 0.0000 15.7919
#
#
#
# Elastic Compliance Matrix: (Units=1/GPa)
#
#
# Indices 1 2 3 4 5 6 
#
# 1 0.010450 -0.004711 -0.004531 0.000000 0.000000 0.000000
# 2 -0.004711 0.010834 -0.002550 0.000000 0.000000 0.000000
# 3 -0.004531 -0.002550 0.016872 0.000000 0.000000 0.000000
# 4 0.000000 0.000000 0.000000 0.031597 0.000000 0.000000
# 5 0.000000 0.000000 0.000000 0.000000 0.036132 0.000000
# 6 0.000000 0.000000 0.000000 0.000000 0.000000 0.063324
#
#
# Mechanical properties :
#
#
# Convention : Reuss Voigt Hill
#
# Bulk Modulus (GPa) = 68.61792 80.48794 74.55293
# Shear Modulus (GPa) = 25.29731 28.10226 26.69978
#
# Velocity S-wave (km/s) = 3.62513 3.82082 3.72426
# Velocity P-wave (km/s) = 7.29164 7.82797 7.56456
#
# Compressibility (1/GPa) = 0.01457345
#
# Stress axis : x y z
#
# Youngs Moduli (GPa) = 95.69134 92.30530 59.26854
#
# Poissons Ratio (x) = 0.43482 0.26853
# Poissons Ratio (y) = 0.45077 0.15114
# Poissons Ratio (z) = 0.43354 0.23539
#
# Static dielectric constant tensor:
#      x y z
#    x 4.359170 0.000000 0.000000 
#    y 0.000000 3.309290 0.000000 
#    z 0.000000 0.000000 3.569690 
# 
# 
# High freq. dielectric constant tensor:
#      x y z
#    x 1.777940 0.000000 0.000000 
#    y 0.000000 1.727140 0.000000 
#    z 0.000000 0.000000 1.752680 
# 
# From -- ./inp_files/2061.got.cif
#   From: 2010.03.12/outbox.cif.g09.slc.cpg/sg49_2_cif.got.tgz:2061.got - 2010.04.14 03:58:27.
