data_PCOD8204019
_publ_section_title
;
Structure prediction by ZEFSAII (Michael W. Deem and Ramdas Pophale) SiO2 
 PCOD8204019
Probable space group: P C C M
;
_chemical_formula_sum "Si O2"
_cell_formula_units_Z 50
_cell_length_a 7.899846
_cell_length_b 20.697428
_cell_length_c 14.386052
_cell_angle_alpha 90.000000
_cell_angle_beta 90.000000
_cell_angle_gamma 90.000000
_cell_volume 2352.212922
_symmetry_space_group_name_H-M "P C C M"
_symmetry_group_IT_number 49
_symmetry_cell_setting 'orthorhombic'
loop_
_space_group_symop_operation_xyz
x,y,z
-x,-y,z
x,-y,1/2-z
-x,y,1/2-z
-x,-y,-z
x,y,-z
-x,y,1/2+z
x,-y,1/2+z
loop_
_atom_site_type_symbol
_atom_site_label
_atom_site_fract_x
_atom_site_fract_y
_atom_site_fract_z
Si Si1 0.000000 0.500000 0.250000
Si Si2 0.836400 0.173870 0.604422
Si Si3 0.770721 0.828600 0.603207
Si Si4 0.252349 0.687494 0.610038
Si Si5 0.300109 0.927318 0.748481
Si Si6 0.375725 0.697378 0.889937
Si Si7 0.072741 0.394165 0.611513
O O1 0.106077 0.456554 0.323565
O O2 0.769640 0.161337 0.500000
O O3 0.763066 0.239621 0.649168
O O4 0.780306 0.111704 0.662816
O O5 0.033784 0.189635 0.604020
O O6 0.704041 0.842084 0.500000
O O7 0.754838 0.895188 0.656340
O O8 0.661345 0.769814 0.648359
O O9 0.234978 0.691296 0.500000
O O10 0.442752 0.667543 0.642642
O O11 0.107445 0.637544 0.643295
O O12 0.500000 0.927140 0.750000
O O13 0.227746 0.000000 0.750000
O O14 0.224585 0.651939 0.856515
O O15 0.370306 0.701983 0.000000
O O16 0.076964 0.410136 0.500000
#
# Coordination Sequence:
#
# PCOD8204019 Si02
#       7
#     2   8   8   8   8   8   8
#     4  12  26  40  62  86 116 166 200 228 278 338
#     4  10  20  37  62  90 117 147 194 253 305 357
#     4  10  20  37  62  90 117 147 194 253 305 357
#     4   9  17  34  63  92 117 149 190 242 300 348
#     4  11  25  40  53  77 117 164 207 244 293 360
#     4   9  17  34  63  92 117 149 190 242 300 348
#     4  10  21  41  61  86 121 153 191 238 285 342
#
# _framework density 21.256578999999999
#
# number of rings (size 3 to 8) (size 9 to 14) (size 15 to 20)
#    0.000    2.080    1.600    1.680    0.000    5.120 
#    0.000    7.200    0.000    3.840    0.000    0.000 
#    0.000    0.000    0.000    0.000    0.000    0.000 
#
# Total GULP energy -619546.342699 kJ/mol
# GULP energy per Si atom -12390.926854 kJ/mol
# Density = 2.120820 g / cm^3
# Si number density = 21.256579 Si / 1000 Ang^3
#
#
#
# Elastic Constant Matrix: (Units=GPa)
#
#
# Indices 1 2 3 4 5 6 
#
# 1 120.9781 47.7578 25.3342 0.0000 0.0000 0.0000
# 2 47.7578 142.0103 54.7479 0.0000 0.0000 0.0000
# 3 25.3342 54.7479 76.3714 0.0000 0.0000 0.0000
# 4 0.0000 0.0000 0.0000 16.8047 0.0000 0.0000
# 5 0.0000 0.0000 0.0000 0.0000 12.5193 0.0000
# 6 0.0000 0.0000 0.0000 0.0000 0.0000 -11.4111
#
#
#
# Elastic Compliance Matrix: (Units=1/GPa)
#
#
# Indices 1 2 3 4 5 6 
#
# 1 0.009611 -0.002768 -0.001204 0.000000 0.000000 0.000000
# 2 -0.002768 0.010528 -0.006629 0.000000 0.000000 0.000000
# 3 -0.001204 -0.006629 0.018245 0.000000 0.000000 0.000000
# 4 0.000000 0.000000 0.000000 0.059507 0.000000 0.000000
# 5 0.000000 0.000000 0.000000 0.000000 0.079876 0.000000
# 6 0.000000 0.000000 0.000000 0.000000 0.000000 -0.087634
#
#
# Mechanical properties :
#
#
# Convention : Reuss Voigt Hill
#
# Bulk Modulus (GPa) = 58.19859 66.11551 62.15705
# Shear Modulus (GPa) = 42.71185 17.68392 30.19788
#
# Velocity S-wave (km/s) = 4.48744 2.88744 3.77322
# Velocity P-wave (km/s) = 7.36804 6.50289 6.94894
#
# Compressibility (1/GPa) = 0.01718255
#
# Stress axis : x y z
#
# Youngs Moduli (GPa) = 104.05014 94.98235 54.80815
#
# Poissons Ratio (x) = 0.26291 0.06598
# Poissons Ratio (y) = 0.28801 0.36333
# Poissons Ratio (z) = 0.12526 0.62965
#
# Static dielectric constant tensor:
#      x y z
#    x 3.974200 0.000000 0.000000 
#    y 0.000000 3.877820 0.000000 
#    z 0.000000 0.000000 3.780460 
# 
# 
# High freq. dielectric constant tensor:
#      x y z
#    x 1.838080 0.000000 0.000000 
#    y 0.000000 1.817010 0.000000 
#    z 0.000000 0.000000 1.834250 
# 
# From -- ./inp_files/11866.got.cif
#   From: 2010.03.12/outbox.cif.g09.slc.cpg/sg49_6_cif.got.tgz:11866.got - 2010.04.14 03:58:27.
