data_PCOD8204418
_publ_section_title
;
Structure prediction by ZEFSAII (Michael W. Deem and Ramdas Pophale) SiO2 
 PCOD8204418
Probable space group: P C C M
;
_chemical_formula_sum "Si O2"
_cell_formula_units_Z 64
_cell_length_a 11.940703
_cell_length_b 15.257281
_cell_length_c 17.091751
_cell_angle_alpha 90.000000
_cell_angle_beta 90.000000
_cell_angle_gamma 90.000000
_cell_volume 3113.820678
_symmetry_space_group_name_H-M "P C C M"
_symmetry_group_IT_number 49
_symmetry_cell_setting 'orthorhombic'
loop_
_space_group_symop_operation_xyz
x,y,z
-x,-y,z
x,-y,1/2-z
-x,y,1/2-z
-x,-y,-z
x,y,-z
-x,y,1/2+z
x,-y,1/2+z
loop_
_atom_site_type_symbol
_atom_site_label
_atom_site_fract_x
_atom_site_fract_y
_atom_site_fract_z
Si Si1 0.939988 0.090238 0.907759
Si Si2 0.504276 0.403069 0.661477
Si Si3 0.265651 0.176270 0.339398
Si Si4 0.673474 0.757805 0.165388
Si Si5 0.050954 0.588005 0.906535
Si Si6 0.281289 0.651307 0.088670
Si Si7 0.496864 0.902223 0.157281
Si Si8 0.911277 0.748124 0.091299
O O1 0.832478 0.103665 0.849983
O O2 0.031438 0.161953 0.883669
O O3 0.906292 0.093827 0.000000
O O4 0.000000 0.000000 0.886298
O O5 0.500000 0.500000 0.617395
O O6 0.500000 0.428683 0.750000
O O7 0.607928 0.335091 0.651751
O O8 0.391653 0.352763 0.640254
O O9 0.285958 0.218339 0.253342
O O10 0.230346 0.251709 0.400531
O O11 0.380052 0.136051 0.371590
O O12 0.597957 0.837820 0.131120
O O13 0.782580 0.748073 0.114174
O O14 0.181943 0.587725 0.881914
O O15 0.000000 0.500000 0.871090
O O16 0.980177 0.668037 0.869353
O O17 0.044521 0.591274 0.000000
O O18 0.314625 0.631766 0.000000
O O19 0.500000 0.908170 0.250000
O O20 0.500000 0.000000 0.120653
O O21 0.916504 0.734540 0.000000
#
# Coordination Sequence:
#
# PCOD8204418 Si02
#       8
#     8   8   8   8   8   8   8   8
#     4  10  22  41  63  89 125 164 202 254 316 368
#     4  11  23  41  61  87 123 162 196 247 320 371
#     4  11  20  39  64  86 120 155 205 251 301 367
#     4  11  22  39  60  88 122 160 196 251 307 368
#     4   9  19  37  60  85 114 151 199 255 306 352
#     4  11  21  38  65  89 115 159 211 254 301 372
#     4   9  19  36  59  83 114 152 192 242 299 349
#     4  10  22  39  57  83 122 161 197 248 310 366
#
# _framework density 20.553528
#
# number of rings (size 3 to 8) (size 9 to 14) (size 15 to 20)
#    0.000    1.750    3.750    0.750    3.500    1.250 
#    0.000    0.625    0.000    2.625    0.000    0.000 
#    0.000    0.000    0.000    0.000    0.000    0.000 
#
# Total GULP energy -792879.306360 kJ/mol
# GULP energy per Si atom -12388.739162 kJ/mol
# Density = 2.050675 g / cm^3
# Si number density = 20.553528 Si / 1000 Ang^3
#
#
#
# Elastic Constant Matrix: (Units=GPa)
#
#
# Indices 1 2 3 4 5 6 
#
# 1 155.3564 66.0963 29.4692 0.0000 0.0000 0.0000
# 2 66.0963 150.5105 28.7364 0.0000 0.0000 0.0000
# 3 29.4692 28.7364 18.5495 0.0000 0.0000 0.0000
# 4 0.0000 0.0000 0.0000 13.7335 0.0000 0.0000
# 5 0.0000 0.0000 0.0000 0.0000 28.5466 0.0000
# 6 0.0000 0.0000 0.0000 0.0000 0.0000 40.1782
#
#
#
# Elastic Compliance Matrix: (Units=1/GPa)
#
#
# Indices 1 2 3 4 5 6 
#
# 1 0.009561 -0.001844 -0.012332 0.000000 0.000000 0.000000
# 2 -0.001844 0.009790 -0.012237 0.000000 0.000000 0.000000
# 3 -0.012332 -0.012237 0.092459 0.000000 0.000000 0.000000
# 4 0.000000 0.000000 0.000000 0.072815 0.000000 0.000000
# 5 0.000000 0.000000 0.000000 0.000000 0.035030 0.000000
# 6 0.000000 0.000000 0.000000 0.000000 0.000000 0.024889
#
#
# Mechanical properties :
#
#
# Convention : Reuss Voigt Hill
#
# Bulk Modulus (GPa) = 16.95400 63.66893 40.31146
# Shear Modulus (GPa) = 15.77132 29.83264 22.80198
#
# Velocity S-wave (km/s) = 2.77308 3.81394 3.33437
# Velocity P-wave (km/s) = 4.30347 7.10206 5.87193
#
# Compressibility (1/GPa) = 0.05898313
#
# Stress axis : x y z
#
# Youngs Moduli (GPa) = 104.59641 102.14227 10.81564
#
# Poissons Ratio (x) = 0.18835 0.13338
# Poissons Ratio (y) = 0.19288 0.13235
# Poissons Ratio (z) = 1.28987 1.24994
#
# Static dielectric constant tensor:
#      x y z
#    x 3.982270 0.000000 0.000000 
#    y 0.000000 4.158810 0.000000 
#    z 0.000000 0.000000 3.255150 
# 
# 
# High freq. dielectric constant tensor:
#      x y z
#    x 1.817280 0.000000 0.000000 
#    y 0.000000 1.820950 0.000000 
#    z 0.000000 0.000000 1.760190 
# 
# From -- ./inp_files/17323.got.cif
#   From: 2010.03.12/outbox.cif.g09.slc.cpg/sg49_9_cif.got.tgz:17323.got - 2010.04.14 03:58:27.
