data_PCOD8204948
_publ_section_title
;
Structure prediction by ZEFSAII (Michael W. Deem and Ramdas Pophale) SiO2 
 PCOD8204948
Probable space group: P B A N
;
_chemical_formula_sum "Si O2"
_cell_formula_units_Z 56
_cell_length_a 22.218156
_cell_length_b 13.916361
_cell_length_c 8.865806
_cell_angle_alpha 90.000000
_cell_angle_beta 90.000000
_cell_angle_gamma 90.000000
_cell_volume 2741.270685
_symmetry_space_group_name_H-M "P B A N"
_symmetry_group_IT_number 50
_space_group.IT_coordinate_system_code '2'
_symmetry_cell_setting 'orthorhombic'
loop_
_space_group_symop_operation_xyz
x,y,z
1/2-x,1/2-y,z
x,1/2-y,-z
1/2-x,y,-z
-x,-y,-z
1/2+x,1/2+y,-z
-x,1/2+y,z
1/2+x,-y,z
loop_
_atom_site_type_symbol
_atom_site_label
_atom_site_fract_x
_atom_site_fract_y
_atom_site_fract_z
Si Si1 0.364303 0.655690 0.675443
Si Si2 0.012411 0.621221 0.158648
Si Si3 0.738843 0.026323 0.666267
Si Si4 0.520236 0.404440 0.821111
Si Si5 0.933087 0.764121 0.323269
Si Si6 0.856020 0.125341 0.669394
Si Si7 0.802179 0.694018 0.660368
O O1 0.427164 0.657491 0.762143
O O2 0.314623 0.584712 0.750409
O O3 0.374450 0.614114 0.506510
O O4 0.337888 0.763069 0.688031
O O5 0.008602 0.508334 0.175463
O O6 0.953875 0.668387 0.236334
O O7 0.014584 0.648554 0.982335
O O8 0.750000 0.070449 0.500000
O O9 0.804028 0.053395 0.736194
O O10 0.720229 0.915499 0.652591
O O11 0.481672 0.346580 0.700329
O O12 0.588798 0.406922 0.771857
O O13 0.929433 0.750000 0.500000
O O14 0.867383 0.797258 0.260988
O O15 0.750000 0.750000 0.755037
O O16 0.806255 0.750000 0.500000
#
# Coordination Sequence:
#
# PCOD8204948 Si02
#       7
#     8   8   8   8   8   8   8
#     4  10  20  37  59  91 123 160 201 259 313 369
#     4  11  24  40  62  86 128 171 207 257 316 373
#     4  10  19  34  58  86 127 163 196 259 312 370
#     4  11  24  41  59  90 125 171 213 253 314 377
#     4  11  23  38  65  94 123 161 208 265 312 368
#     4  10  21  35  61  91 123 158 209 254 314 372
#     4  10  20  35  56  90 126 158 203 249 316 370
#
# _framework density 20.428481999999999
#
# number of rings (size 3 to 8) (size 9 to 14) (size 15 to 20)
#    0.000    1.571    2.857    2.571    2.000    5.143 
#    0.000    0.714    0.000    3.429    0.000    0.000 
#    0.000    0.000    0.000    0.000    0.000    0.000 
#
# Total GULP energy -693945.629029 kJ/mol
# GULP energy per Si atom -12391.886233 kJ/mol
# Density = 2.038199 g / cm^3
# Si number density = 20.428482 Si / 1000 Ang^3
#
#
#
# Elastic Constant Matrix: (Units=GPa)
#
#
# Indices 1 2 3 4 5 6 
#
# 1 158.6385 59.4412 39.7745 0.0000 0.0000 0.0000
# 2 59.4412 98.0336 18.1585 0.0000 0.0000 0.0000
# 3 39.7745 18.1585 59.2939 0.0000 0.0000 0.0000
# 4 0.0000 0.0000 0.0000 20.5035 0.0000 0.0000
# 5 0.0000 0.0000 0.0000 0.0000 4.8976 0.0000
# 6 0.0000 0.0000 0.0000 0.0000 0.0000 41.5211
#
#
#
# Elastic Compliance Matrix: (Units=1/GPa)
#
#
# Indices 1 2 3 4 5 6 
#
# 1 0.009276 -0.004741 -0.004771 0.000000 0.000000 0.000000
# 2 -0.004741 0.013237 -0.000874 0.000000 0.000000 0.000000
# 3 -0.004771 -0.000874 0.020333 0.000000 0.000000 0.000000
# 4 0.000000 0.000000 0.000000 0.048772 0.000000 0.000000
# 5 0.000000 0.000000 0.000000 0.000000 0.204183 0.000000
# 6 0.000000 0.000000 0.000000 0.000000 0.000000 0.024084
#
#
# Mechanical properties :
#
#
# Convention : Reuss Voigt Hill
#
# Bulk Modulus (GPa) = 45.29843 61.19049 53.24446
# Shear Modulus (GPa) = 14.36726 26.62388 20.49557
#
# Velocity S-wave (km/s) = 2.65485 3.61400 3.17090
# Velocity P-wave (km/s) = 5.62316 6.88718 6.28702
#
# Compressibility (1/GPa) = 0.02207582
#
# Stress axis : x y z
#
# Youngs Moduli (GPa) = 107.80417 75.54639 49.18168
#
# Poissons Ratio (x) = 0.35815 0.23462
# Poissons Ratio (y) = 0.51107 0.04297
# Poissons Ratio (z) = 0.51429 0.06600
#
# Static dielectric constant tensor:
#      x y z
#    x 4.303340 0.000000 0.000000 
#    y 0.000000 3.752380 0.000000 
#    z 0.000000 0.000000 3.439530 
# 
# 
# High freq. dielectric constant tensor:
#      x y z
#    x 1.819460 0.000000 0.000000 
#    y 0.000000 1.812960 0.000000 
#    z 0.000000 0.000000 1.753210 
# 
# From -- ./inp_files/15338.got.cif
#   From: 2010.03.12/outbox.cif.g09.slc.cpg/sg50_8_cif.got.tgz:15338.got - 2010.04.16 13:23:21.
