data_PCOD8204062
_publ_section_title
;
Structure prediction by ZEFSAII (Michael W. Deem and Ramdas Pophale) SiO2 
 PCOD8204062
Probable space group: P C C M
;
_chemical_formula_sum "Si O2"
_cell_formula_units_Z 64
_cell_length_a 23.645649
_cell_length_b 15.386827
_cell_length_c 8.608500
_cell_angle_alpha 90.000000
_cell_angle_beta 90.000000
_cell_angle_gamma 90.000000
_cell_volume 3132.043558
_symmetry_space_group_name_H-M "P C C M"
_symmetry_group_IT_number 49
_symmetry_cell_setting 'orthorhombic'
loop_
_space_group_symop_operation_xyz
x,y,z
-x,-y,z
x,-y,1/2-z
-x,y,1/2-z
-x,-y,-z
x,y,-z
-x,y,1/2+z
x,-y,1/2+z
loop_
_atom_site_type_symbol
_atom_site_label
_atom_site_fract_x
_atom_site_fract_y
_atom_site_fract_z
Si Si1 0.640542 0.908618 0.682261
Si Si2 0.120127 0.093126 0.681792
Si Si3 0.366320 0.590455 0.184282
Si Si4 0.939281 0.257315 0.316767
Si Si5 0.561922 0.754938 0.316663
Si Si6 0.865864 0.410554 0.817710
Si Si7 0.752763 0.354968 0.318379
Si Si8 0.758875 0.831759 0.319045
O O1 0.633481 0.912712 0.500000
O O2 0.600736 0.832661 0.750721
O O3 0.705425 0.890302 0.728544
O O4 0.620450 0.000000 0.750000
O O5 0.108193 0.094179 0.500000
O O6 0.079162 0.162646 0.760148
O O7 0.185388 0.113504 0.719541
O O8 0.104194 0.000000 0.750000
O O9 0.390579 0.500000 0.250000
O O10 0.410921 0.663781 0.235179
O O11 0.307155 0.609320 0.265358
O O12 0.357938 0.587788 0.000000
O O13 0.941963 0.258168 0.500000
O O14 0.894643 0.328036 0.260531
O O15 0.000000 0.282299 0.250000
O O16 0.500000 0.764257 0.250000
O O17 0.558966 0.760880 0.500000
O O18 0.891791 0.500000 0.750000
O O19 0.799578 0.407242 0.778425
O O20 0.876368 0.406769 0.000000
O O21 0.761805 0.372823 0.500000
O O22 0.758176 0.253074 0.286149
O O23 0.756146 0.803749 0.500000
#
# Coordination Sequence:
#
# PCOD8204062 Si02
#       8
#     8   8   8   8   8   8   8   8
#     4  10  21  39  61  90 123 163 204 251 309 367
#     4  11  23  40  66  97 131 172 211 262 319 378
#     4  11  23  42  64  90 125 162 203 255 312 373
#     4  12  26  46  69  96 128 168 218 267 319 378
#     4  10  23  42  63  85 120 162 206 258 311 366
#     4  12  25  44  68  97 132 170 211 260 316 375
#     4  12  23  37  63  97 129 166 208 253 310 376
#     4  10  20  38  63  90 129 168 204 252 315 375
#
# _framework density 20.433941999999998
#
# number of rings (size 3 to 8) (size 9 to 14) (size 15 to 20)
#    0.000    1.000    2.500    4.875    0.000    3.500 
#    0.000    5.000    0.000    0.000    0.000    0.000 
#    0.000    0.000    0.000    0.000    0.000    0.000 
#
# Total GULP energy -794003.058438 kJ/mol
# GULP energy per Si atom -12406.297788 kJ/mol
# Density = 2.038743 g / cm^3
# Si number density = 20.433942 Si / 1000 Ang^3
#
#
#
# Elastic Constant Matrix: (Units=GPa)
#
#
# Indices 1 2 3 4 5 6 
#
# 1 83.8850 16.2890 22.0059 0.0000 0.0000 0.0000
# 2 16.2890 135.2575 39.4843 0.0000 0.0000 0.0000
# 3 22.0059 39.4843 91.5863 0.0000 0.0000 0.0000
# 4 0.0000 0.0000 0.0000 37.4009 0.0000 0.0000
# 5 0.0000 0.0000 0.0000 0.0000 32.2493 0.0000
# 6 0.0000 0.0000 0.0000 0.0000 0.0000 13.4053
#
#
#
# Elastic Compliance Matrix: (Units=1/GPa)
#
#
# Indices 1 2 3 4 5 6 
#
# 1 0.012787 -0.000736 -0.002755 0.000000 0.000000 0.000000
# 2 -0.000736 0.008500 -0.003488 0.000000 0.000000 0.000000
# 3 -0.002755 -0.003488 0.013084 0.000000 0.000000 0.000000
# 4 0.000000 0.000000 0.000000 0.026737 0.000000 0.000000
# 5 0.000000 0.000000 0.000000 0.000000 0.031008 0.000000
# 6 0.000000 0.000000 0.000000 0.000000 0.000000 0.074598
#
#
# Mechanical properties :
#
#
# Convention : Reuss Voigt Hill
#
# Bulk Modulus (GPa) = 48.98615 51.80968 50.39791
# Shear Modulus (GPa) = 26.67006 32.14106 29.40556
#
# Velocity S-wave (km/s) = 3.61665 3.97031 3.79760
# Velocity P-wave (km/s) = 6.43935 6.81378 6.62921
#
# Compressibility (1/GPa) = 0.02041394
#
# Stress axis : x y z
#
# Youngs Moduli (GPa) = 78.20626 117.64647 76.42748
#
# Poissons Ratio (x) = 0.08654 0.21057
# Poissons Ratio (y) = 0.05753 0.26656
# Poissons Ratio (z) = 0.21547 0.41032
#
# Static dielectric constant tensor:
#      x y z
#    x 5.246020 0.000000 0.000000 
#    y 0.000000 4.128250 0.000000 
#    z 0.000000 0.000000 3.682380 
# 
# 
# High freq. dielectric constant tensor:
#      x y z
#    x 1.798040 0.000000 0.000000 
#    y 0.000000 1.815250 0.000000 
#    z 0.000000 0.000000 1.801450 
# 
# From -- ./inp_files/4416.got.cif
#   From: 2010.03.12/outbox.cif.g09.slc.cpg/sg49_3_cif.got.tgz:4416.got - 2010.04.14 03:58:27.
