data_PCOD8204692
_publ_section_title
;
Structure prediction by ZEFSAII (Michael W. Deem and Ramdas Pophale) SiO2 
 PCOD8204692
Probable space group: P C C M
;
_chemical_formula_sum "Si O2"
_cell_formula_units_Z 48
_cell_length_a 12.188796
_cell_length_b 11.801049
_cell_length_c 14.562547
_cell_angle_alpha 90.000000
_cell_angle_beta 90.000000
_cell_angle_gamma 90.000000
_cell_volume 2094.685190
_symmetry_space_group_name_H-M "P C C M"
_symmetry_group_IT_number 49
_symmetry_cell_setting 'orthorhombic'
loop_
_space_group_symop_operation_xyz
x,y,z
-x,-y,z
x,-y,1/2-z
-x,y,1/2-z
-x,-y,-z
x,y,-z
-x,y,1/2+z
x,-y,1/2+z
loop_
_atom_site_type_symbol
_atom_site_label
_atom_site_fract_x
_atom_site_fract_y
_atom_site_fract_z
Si Si1 0.335148 0.970264 0.108504
Si Si2 0.904947 0.918294 0.609885
Si Si3 0.468832 0.814793 0.390960
Si Si4 0.958604 0.673998 0.390718
Si Si5 0.838898 0.540588 0.104519
Si Si6 0.405724 0.430122 0.844375
O O1 0.213252 0.956832 0.148750
O O2 0.409953 0.861326 0.134731
O O3 0.384241 0.089026 0.144867
O O4 0.334892 0.978984 0.000000
O O5 0.902670 0.919347 0.500000
O O6 0.929270 0.794887 0.651958
O O7 0.000000 0.000000 0.647572
O O8 0.456912 0.790809 0.500000
O O9 0.445460 0.699661 0.334693
O O10 0.953849 0.686848 0.500000
O O11 0.868875 0.582417 0.352689
O O12 0.080452 0.637589 0.354746
O O13 0.711899 0.571200 0.108321
O O14 0.875456 0.530821 0.000000
O O15 0.500000 0.500000 0.901135
O O16 0.393330 0.500000 0.750000
#
# Coordination Sequence:
#
# PCOD8204692 Si02
#       6
#     8   8   8   8   8   8
#     4   8  16  30  51  86 119 145 181 227 287 349
#     4   9  16  24  42  77 120 149 166 211 282 341
#     4   9  18  34  57  83 114 149 188 236 285 338
#     4   8  16  30  49  80 115 143 177 228 281 337
#     4   9  18  34  56  80 108 145 189 231 282 339
#     4  11  25  39  52  76 112 149 195 242 284 334
#
# _framework density 22.915139
#
# number of rings (size 3 to 8) (size 9 to 14) (size 15 to 20)
#    0.000    3.000    0.000    2.500    4.667    1.333 
#    0.000    1.667    0.000    8.000    0.000    0.000 
#    0.000    0.000    0.000    0.000    0.000    0.000 
#
# Total GULP energy -594668.724711 kJ/mol
# GULP energy per Si atom -12388.931765 kJ/mol
# Density = 2.286298 g / cm^3
# Si number density = 22.915139 Si / 1000 Ang^3
#
#
#
# Elastic Constant Matrix: (Units=GPa)
#
#
# Indices 1 2 3 4 5 6 
#
# 1 221.9367 98.4204 -5.3651 0.0000 0.0000 0.0000
# 2 98.4204 210.1552 12.5190 0.0000 0.0000 0.0000
# 3 -5.3651 12.5190 22.9272 0.0000 0.0000 0.0000
# 4 0.0000 0.0000 0.0000 9.4374 0.0000 0.0000
# 5 0.0000 0.0000 0.0000 0.0000 -9.2903 0.0000
# 6 0.0000 0.0000 0.0000 0.0000 0.0000 33.4727
#
#
#
# Elastic Compliance Matrix: (Units=1/GPa)
#
#
# Indices 1 2 3 4 5 6 
#
# 1 0.005877 -0.002929 0.002975 0.000000 0.000000 0.000000
# 2 -0.002929 0.006379 -0.004168 0.000000 0.000000 0.000000
# 3 0.002975 -0.004168 0.046589 0.000000 0.000000 0.000000
# 4 0.000000 0.000000 0.000000 0.105962 0.000000 0.000000
# 5 0.000000 0.000000 0.000000 0.000000 -0.107639 0.000000
# 6 0.000000 0.000000 0.000000 0.000000 0.000000 0.029875
#
#
# Mechanical properties :
#
#
# Convention : Reuss Voigt Hill
#
# Bulk Modulus (GPa) = 19.76369 74.01862 46.89116
# Shear Modulus (GPa) = 44.58164 30.02028 37.30096
#
# Velocity S-wave (km/s) = 4.41558 3.62341 4.03896
# Velocity P-wave (km/s) = 5.88557 7.06235 6.50064
#
# Compressibility (1/GPa) = 0.05059784
#
# Stress axis : x y z
#
# Youngs Moduli (GPa) = 170.16071 156.77344 21.46446
#
# Poissons Ratio (x) = 0.45926 -0.06385
# Poissons Ratio (y) = 0.49848 0.08947
# Poissons Ratio (z) = -0.50619 0.65351
#
# Static dielectric constant tensor:
#      x y z
#    x 4.753510 0.000000 0.000000 
#    y 0.000000 4.293430 0.000000 
#    z 0.000000 0.000000 3.456680 
# 
# 
# High freq. dielectric constant tensor:
#      x y z
#    x 1.911710 0.000000 0.000000 
#    y 0.000000 1.910830 0.000000 
#    z 0.000000 0.000000 1.863860 
# 
# From -- ./inp_files/17102.got.cif
#   From: 2010.03.12/outbox.cif.g09.slc.cpg/sg49_9_cif.got.tgz:17102.got - 2010.04.14 03:58:27.
