data_PCOD8204154
_publ_section_title
;
Structure prediction by ZEFSAII (Michael W. Deem and Ramdas Pophale) SiO2 
 PCOD8204154
Probable space group: P C C M
;
_chemical_formula_sum "Si O2"
_cell_formula_units_Z 48
_cell_length_a 10.085956
_cell_length_b 29.339203
_cell_length_c 8.619493
_cell_angle_alpha 90.000000
_cell_angle_beta 90.000000
_cell_angle_gamma 90.000000
_cell_volume 2550.627880
_symmetry_space_group_name_H-M "P C C M"
_symmetry_group_IT_number 49
_symmetry_cell_setting 'orthorhombic'
loop_
_space_group_symop_operation_xyz
x,y,z
-x,-y,z
x,-y,1/2-z
-x,y,1/2-z
-x,-y,-z
x,y,-z
-x,y,1/2+z
x,-y,1/2+z
loop_
_atom_site_type_symbol
_atom_site_label
_atom_site_fract_x
_atom_site_fract_y
_atom_site_fract_z
Si Si1 0.360596 0.388670 0.820937
Si Si2 0.858623 0.218833 0.182678
Si Si3 0.858076 0.121829 0.316535
Si Si4 0.639393 0.281592 0.679136
Si Si5 0.641144 0.951182 0.183562
Si Si6 0.142254 0.451785 0.317275
O O1 0.500000 0.404548 0.750000
O O2 0.339960 0.335131 0.799033
O O3 0.244931 0.412826 0.726850
O O4 0.355660 0.403186 0.000000
O O5 0.812465 0.170590 0.251866
O O6 0.754252 0.257328 0.225817
O O7 0.000000 0.233855 0.250000
O O8 0.871143 0.214050 0.000000
O O9 0.868558 0.124978 0.500000
O O10 0.750566 0.084993 0.262172
O O11 0.000000 0.106917 0.250000
O O12 0.500000 0.265755 0.750000
O O13 0.644845 0.267060 0.500000
O O14 0.500000 0.935230 0.250000
O O15 0.683597 0.000000 0.250000
O O16 0.630519 0.954606 0.000000
O O17 0.191275 0.500000 0.250000
O O18 0.130168 0.456073 0.500000
O O19 0.000000 0.437867 0.250000
#
# Coordination Sequence:
#
# PCOD8204154 Si02
#       6
#     8   8   8   8   8   8
#     4  10  21  38  59  84 113 146 184 227 275 326
#     4  11  22  37  58  82 111 146 184 228 275 325
#     4  10  21  37  56  80 109 142 181 224 271 323
#     4  10  21  38  59  83 113 146 183 227 274 327
#     4  10  21  36  56  80 108 141 178 221 267 320
#     4  11  22  38  59  83 113 147 185 229 276 327
#
# _framework density 18.818895000000001
#
# number of rings (size 3 to 8) (size 9 to 14) (size 15 to 20)
#    0.000    1.667    0.000    7.000    0.000    6.667 
#    0.000    5.000    0.000    0.000    0.000    0.000 
#    0.000    0.000    0.000    0.000    0.000    0.000 
#
# Total GULP energy -595446.431025 kJ/mol
# GULP energy per Si atom -12405.133980 kJ/mol
# Density = 1.877606 g / cm^3
# Si number density = 18.818895 Si / 1000 Ang^3
#
#
#
# Elastic Constant Matrix: (Units=GPa)
#
#
# Indices 1 2 3 4 5 6 
#
# 1 123.4741 67.4773 53.2154 0.0000 0.0000 0.0000
# 2 67.4773 67.6690 40.9252 0.0000 0.0000 0.0000
# 3 53.2154 40.9252 128.1320 0.0000 0.0000 0.0000
# 4 0.0000 0.0000 0.0000 60.4636 0.0000 0.0000
# 5 0.0000 0.0000 0.0000 0.0000 34.8813 0.0000
# 6 0.0000 0.0000 0.0000 0.0000 0.0000 34.4304
#
#
#
# Elastic Compliance Matrix: (Units=1/GPa)
#
#
# Indices 1 2 3 4 5 6 
#
# 1 0.018282 -0.016903 -0.002194 0.000000 0.000000 0.000000
# 2 -0.016903 0.033944 -0.003822 0.000000 0.000000 0.000000
# 3 -0.002194 -0.003822 0.009936 0.000000 0.000000 0.000000
# 4 0.000000 0.000000 0.000000 0.016539 0.000000 0.000000
# 5 0.000000 0.000000 0.000000 0.000000 0.028669 0.000000
# 6 0.000000 0.000000 0.000000 0.000000 0.000000 0.029044
#
#
# Mechanical properties :
#
#
# Convention : Reuss Voigt Hill
#
# Bulk Modulus (GPa) = 61.25561 71.39008 66.32284
# Shear Modulus (GPa) = 26.63927 36.46555 31.55241
#
# Velocity S-wave (km/s) = 3.76647 4.40672 4.09912
# Velocity P-wave (km/s) = 7.17885 7.99437 7.59756
#
# Compressibility (1/GPa) = 0.01632504
#
# Stress axis : x y z
#
# Youngs Moduli (GPa) = 54.69931 29.46003 100.64182
#
# Poissons Ratio (x) = 0.49797 0.22080
# Poissons Ratio (y) = 0.92459 0.38461
# Poissons Ratio (z) = 0.12000 0.11258
#
# Static dielectric constant tensor:
#      x y z
#    x 3.536410 0.000000 0.000000 
#    y 0.000000 3.435790 0.000000 
#    z 0.000000 0.000000 3.637630 
# 
# 
# High freq. dielectric constant tensor:
#      x y z
#    x 1.738630 0.000000 0.000000 
#    y 0.000000 1.729640 0.000000 
#    z 0.000000 0.000000 1.753560 
# 
# From -- ./inp_files/2903.got.cif
#   From: 2010.03.12/outbox.cif.g09.slc.cpg/sg49_2_cif.got.tgz:2903.got - 2010.04.14 03:58:27.
