data_PCOD8204886
_publ_section_title
;
Structure prediction by ZEFSAII (Michael W. Deem and Ramdas Pophale) SiO2 
 PCOD8204886
Probable space group: P B A N
;
_chemical_formula_sum "Si O2"
_cell_formula_units_Z 56
_cell_length_a 10.021997
_cell_length_b 19.827600
_cell_length_c 14.146100
_cell_angle_alpha 90.000000
_cell_angle_beta 90.000000
_cell_angle_gamma 90.000000
_cell_volume 2811.001913
_symmetry_space_group_name_H-M "P B A N"
_symmetry_group_IT_number 50
_space_group.IT_coordinate_system_code '2'
_symmetry_cell_setting 'orthorhombic'
loop_
_space_group_symop_operation_xyz
x,y,z
1/2-x,1/2-y,z
x,1/2-y,-z
1/2-x,y,-z
-x,-y,-z
1/2+x,1/2+y,-z
-x,1/2+y,z
1/2+x,-y,z
loop_
_atom_site_type_symbol
_atom_site_label
_atom_site_fract_x
_atom_site_fract_y
_atom_site_fract_z
Si Si1 0.996392 0.648837 0.701242
Si Si2 0.732889 0.901367 0.390838
Si Si3 0.929661 0.019015 0.165142
Si Si4 0.393531 0.283897 0.282147
Si Si5 0.583030 0.856948 0.102622
Si Si6 0.884987 0.621285 0.895653
Si Si7 0.170085 0.531227 0.709980
O O1 0.131556 0.607661 0.674040
O O2 0.873576 0.607244 0.659564
O O3 0.991511 0.727716 0.668378
O O4 0.979230 0.651684 0.815099
O O5 0.750000 0.883872 0.500000
O O6 0.620183 0.850738 0.347170
O O7 0.693938 0.979849 0.377051
O O8 0.794303 0.036554 0.220266
O O9 0.975534 0.083767 0.107438
O O10 0.910544 0.958608 0.089808
O O11 0.040902 0.997616 0.239052
O O12 0.250000 0.250000 0.267645
O O13 0.457152 0.299621 0.178498
O O14 0.731146 0.876736 0.137102
O O15 0.588189 0.836251 0.991969
#
# Coordination Sequence:
#
# PCOD8204886 Si02
#       7
#     8   8   8   8   8   8   8
#     4  10  21  38  54  85 122 153 199 246 307 359
#     4  11  21  37  63  88 117 154 204 255 312 361
#     4  11  18  37  57  84 123 155 196 246 302 354
#     4  10  19  37  55  85 121 154 197 250 297 368
#     4  11  19  32  55  85 118 156 199 244 298 356
#     4  10  19  31  53  89 114 154 194 248 298 345
#     4  11  20  38  62  84 122 157 196 255 297 369
#
# _framework density 19.921723
#
# number of rings (size 3 to 8) (size 9 to 14) (size 15 to 20)
#    0.000    1.429    8.571    0.429    0.000    3.714 
#    0.000    0.714    0.000    0.000    0.000    4.000 
#    0.000    0.000    0.000    0.000    0.000    0.000 
#
# Total GULP energy -693844.203766 kJ/mol
# GULP energy per Si atom -12390.075067 kJ/mol
# Density = 1.987638 g / cm^3
# Si number density = 19.921723 Si / 1000 Ang^3
#
#
#
# Elastic Constant Matrix: (Units=GPa)
#
#
# Indices 1 2 3 4 5 6 
#
# 1 55.1484 25.1674 17.9600 0.0000 0.0000 0.0000
# 2 25.1674 102.0956 31.0960 0.0000 0.0000 0.0000
# 3 17.9600 31.0960 87.6451 0.0000 0.0000 0.0000
# 4 0.0000 0.0000 0.0000 12.5976 0.0000 0.0000
# 5 0.0000 0.0000 0.0000 0.0000 9.8345 0.0000
# 6 0.0000 0.0000 0.0000 0.0000 0.0000 29.2005
#
#
#
# Elastic Compliance Matrix: (Units=1/GPa)
#
#
# Indices 1 2 3 4 5 6 
#
# 1 0.021013 -0.004337 -0.002767 0.000000 0.000000 0.000000
# 2 -0.004337 0.011877 -0.003325 0.000000 0.000000 0.000000
# 3 -0.002767 -0.003325 0.013156 0.000000 0.000000 0.000000
# 4 0.000000 0.000000 0.000000 0.079380 0.000000 0.000000
# 5 0.000000 0.000000 0.000000 0.000000 0.101683 0.000000
# 6 0.000000 0.000000 0.000000 0.000000 0.000000 0.034246
#
#
# Mechanical properties :
#
#
# Convention : Reuss Voigt Hill
#
# Bulk Modulus (GPa) = 39.70196 43.70399 41.70297
# Shear Modulus (GPa) = 17.20521 21.70424 19.45472
#
# Velocity S-wave (km/s) = 2.94196 3.30430 3.12838
# Velocity P-wave (km/s) = 5.61360 6.04511 5.83334
#
# Compressibility (1/GPa) = 0.02518767
#
# Stress axis : x y z
#
# Youngs Moduli (GPa) = 47.58872 84.19922 76.00870
#
# Poissons Ratio (x) = 0.36518 0.21033
# Poissons Ratio (y) = 0.20640 0.25273
# Poissons Ratio (z) = 0.13169 0.27996
#
# Static dielectric constant tensor:
#      x y z
#    x 3.691290 0.000000 0.000000 
#    y 0.000000 4.207770 0.000000 
#    z 0.000000 0.000000 3.450810 
# 
# 
# High freq. dielectric constant tensor:
#      x y z
#    x 1.741870 0.000000 0.000000 
#    y 0.000000 1.782890 0.000000 
#    z 0.000000 0.000000 1.755790 
# 
# From -- ./inp_files/25270.got.cif
#   From: 2010.03.12/outbox.cif.g09.slc.cpg/sg50_13_cif.got.tgz:25270.got - 2010.04.16 13:23:21.
