data_PCOD8204507
_publ_section_title
;
Structure prediction by ZEFSAII (Michael W. Deem and Ramdas Pophale) SiO2 
 PCOD8204507
Probable space group: P C C M
;
_chemical_formula_sum "Si O2"
_cell_formula_units_Z 48
_cell_length_a 16.569188
_cell_length_b 15.681595
_cell_length_c 9.540892
_cell_angle_alpha 90.000000
_cell_angle_beta 90.000000
_cell_angle_gamma 90.000000
_cell_volume 2479.022330
_symmetry_space_group_name_H-M "P C C M"
_symmetry_group_IT_number 49
_symmetry_cell_setting 'orthorhombic'
loop_
_space_group_symop_operation_xyz
x,y,z
-x,-y,z
x,-y,1/2-z
-x,y,1/2-z
-x,-y,-z
x,y,-z
-x,y,1/2+z
x,-y,1/2+z
loop_
_atom_site_type_symbol
_atom_site_label
_atom_site_fract_x
_atom_site_fract_y
_atom_site_fract_z
Si Si1 0.179865 0.247809 0.260599
Si Si2 0.261806 0.916235 0.660430
Si Si3 0.841115 0.481969 0.000000
Si Si4 0.656404 0.671503 0.337846
Si Si5 0.925741 0.299659 0.000000
Si Si6 0.280573 0.500000 0.750000
Si Si7 0.424524 0.814730 0.334873
Si Si8 0.109068 0.662998 0.500000
O O1 0.195100 0.152395 0.207007
O O2 0.256668 0.283421 0.343546
O O3 0.103534 0.248641 0.363574
O O4 0.162017 0.310236 0.132340
O O5 0.246764 0.940486 0.500000
O O6 0.351388 0.880219 0.682435
O O7 0.249109 0.000000 0.750000
O O8 0.893692 0.396562 0.000000
O O9 0.779908 0.488991 0.124644
O O10 0.903196 0.561039 0.000000
O O11 0.626779 0.661724 0.500000
O O12 0.660870 0.581928 0.254817
O O13 0.594820 0.726388 0.244451
O O14 0.021854 0.294238 0.000000
O O15 0.500000 0.855192 0.250000
O O16 0.443383 0.798973 0.500000
#
# Coordination Sequence:
#
# PCOD8204507 Si02
#       8
#     8   8   4   8   4   4   8   4
#     4  11  21  39  58  86 121 163 211 253 310 369
#     4  10  23  40  67  97 119 157 201 249 305 361
#     4  12  21  36  54  88 125 160 210 264 307 358
#     4  11  21  36  59  84 117 166 213 252 301 358
#     4  12  23  38  55  92 121 171 209 252 320 366
#     4  12  20  32  56  82 118 158 212 264 302 354
#     4  10  23  41  64  95 129 160 193 237 300 362
#     4  12  23  36  61  82 131 165 205 266 306 374
#
# _framework density 19.362473000000001
#
# number of rings (size 3 to 8) (size 9 to 14) (size 15 to 20)
#    0.000    1.000    5.833    1.250    3.500    1.667 
#    0.000    4.583    0.000    5.000    0.000    0.000 
#    0.000    0.000    0.000    0.000    0.000    0.000 
#
# Total GULP energy -595160.811417 kJ/mol
# GULP energy per Si atom -12399.183571 kJ/mol
# Density = 1.931840 g / cm^3
# Si number density = 19.362473 Si / 1000 Ang^3
#
#
#
# Elastic Constant Matrix: (Units=GPa)
#
#
# Indices 1 2 3 4 5 6 
#
# 1 63.1265 24.8815 25.3660 0.0000 0.0000 0.0000
# 2 24.8815 118.1698 37.1257 0.0000 0.0000 0.0000
# 3 25.3660 37.1257 110.4475 0.0000 0.0000 0.0000
# 4 0.0000 0.0000 0.0000 34.2656 0.0000 0.0000
# 5 0.0000 0.0000 0.0000 0.0000 28.9147 0.0000
# 6 0.0000 0.0000 0.0000 0.0000 0.0000 16.7227
#
#
#
# Elastic Compliance Matrix: (Units=1/GPa)
#
#
# Indices 1 2 3 4 5 6 
#
# 1 0.018258 -0.002825 -0.003244 0.000000 0.000000 0.000000
# 2 -0.002825 0.009899 -0.002678 0.000000 0.000000 0.000000
# 3 -0.003244 -0.002678 0.010699 0.000000 0.000000 0.000000
# 4 0.000000 0.000000 0.000000 0.029184 0.000000 0.000000
# 5 0.000000 0.000000 0.000000 0.000000 0.034584 0.000000
# 6 0.000000 0.000000 0.000000 0.000000 0.000000 0.059799
#
#
# Mechanical properties :
#
#
# Convention : Reuss Voigt Hill
#
# Bulk Modulus (GPa) = 46.81314 51.83225 49.32269
# Shear Modulus (GPa) = 26.73240 29.60531 28.16886
#
# Velocity S-wave (km/s) = 3.71971 3.91449 3.81834
# Velocity P-wave (km/s) = 6.53285 6.87448 6.70584
#
# Compressibility (1/GPa) = 0.02136152
#
# Stress axis : x y z
#
# Youngs Moduli (GPa) = 54.76999 101.02234 93.46360
#
# Poissons Ratio (x) = 0.28542 0.30316
# Poissons Ratio (y) = 0.15474 0.25034
# Poissons Ratio (z) = 0.17765 0.27059
#
# Static dielectric constant tensor:
#      x y z
#    x 3.403940 0.000000 0.000000 
#    y 0.000000 3.588770 0.000000 
#    z 0.000000 0.000000 3.465710 
# 
# 
# High freq. dielectric constant tensor:
#      x y z
#    x 1.737660 0.000000 0.000000 
#    y 0.000000 1.743560 0.000000 
#    z 0.000000 0.000000 1.775570 
# 
# From -- ./inp_files/4923.got.cif
#   From: 2010.03.12/outbox.cif.g09.slc.cpg/sg49_3_cif.got.tgz:4923.got - 2010.04.14 03:58:27.
