data_PCOD8204464
_publ_section_title
;
Structure prediction by ZEFSAII (Michael W. Deem and Ramdas Pophale) SiO2 
 PCOD8204464
Probable space group: P C C M
;
_chemical_formula_sum "Si O2"
_cell_formula_units_Z 32
_cell_length_a 7.120261
_cell_length_b 11.058077
_cell_length_c 17.920351
_cell_angle_alpha 90.000000
_cell_angle_beta 90.000000
_cell_angle_gamma 90.000000
_cell_volume 1410.983824
_symmetry_space_group_name_H-M "P C C M"
_symmetry_group_IT_number 49
_symmetry_cell_setting 'orthorhombic'
loop_
_space_group_symop_operation_xyz
x,y,z
-x,-y,z
x,-y,1/2-z
-x,y,1/2-z
-x,-y,-z
x,y,-z
-x,y,1/2+z
x,-y,1/2+z
loop_
_atom_site_type_symbol
_atom_site_label
_atom_site_fract_x
_atom_site_fract_y
_atom_site_fract_z
Si Si1 0.688083 0.798024 0.414222
Si Si2 0.796907 0.052432 0.418064
Si Si3 0.946433 0.273333 0.664325
Si Si4 0.373750 0.388129 0.913148
O O1 0.743291 0.794242 0.500000
O O2 0.489370 0.735519 0.398041
O O3 0.854662 0.723959 0.376129
O O4 0.669995 0.939065 0.388463
O O5 0.722100 0.101466 0.500000
O O6 0.818778 0.155887 0.355726
O O7 0.000000 0.000000 0.433354
O O8 0.817011 0.385424 0.636293
O O9 0.000000 0.281131 0.750000
O O10 0.500000 0.500000 0.886101
O O11 0.320011 0.402875 0.000000
#
# Coordination Sequence:
#
# PCOD8204464 Si02
#       4
#     8   8   8   8
#     4   9  19  37  61  89 121 159 204 255 307 359
#     4   8  15  31  57  87 118 154 199 246 297 365
#     4  11  22  36  58  88 125 164 196 246 318 382
#     4  10  22  41  65  91 118 157 216 267 299 354
#
# _framework density 22.679210999999999
#
# number of rings (size 3 to 8) (size 9 to 14) (size 15 to 20)
#    0.000    2.500    0.000    3.750    0.000    7.500 
#    0.000   11.250    0.000    9.000    0.000    0.000 
#    0.000    0.000    0.000    0.000    0.000    0.000 
#
# Total GULP energy -396511.342126 kJ/mol
# GULP energy per Si atom -12390.979441 kJ/mol
# Density = 2.262759 g / cm^3
# Si number density = 22.679211 Si / 1000 Ang^3
#
#
#
# Elastic Constant Matrix: (Units=GPa)
#
#
# Indices 1 2 3 4 5 6 
#
# 1 99.5734 23.6503 70.5834 0.0000 0.0000 0.0000
# 2 23.6503 47.1903 40.5454 0.0000 0.0000 0.0000
# 3 70.5834 40.5454 119.2785 0.0000 0.0000 0.0000
# 4 0.0000 0.0000 0.0000 9.9339 0.0000 0.0000
# 5 0.0000 0.0000 0.0000 0.0000 16.9873 0.0000
# 6 0.0000 0.0000 0.0000 0.0000 0.0000 42.0295
#
#
#
# Elastic Compliance Matrix: (Units=1/GPa)
#
#
# Indices 1 2 3 4 5 6 
#
# 1 0.017300 0.000177 -0.010298 0.000000 0.000000 0.000000
# 2 0.000177 0.029935 -0.010280 0.000000 0.000000 0.000000
# 3 -0.010298 -0.010280 0.017972 0.000000 0.000000 0.000000
# 4 0.000000 0.000000 0.000000 0.100665 0.000000 0.000000
# 5 0.000000 0.000000 0.000000 0.000000 0.058867 0.000000
# 6 0.000000 0.000000 0.000000 0.000000 0.000000 0.023793
#
#
# Mechanical properties :
#
#
# Convention : Reuss Voigt Hill
#
# Bulk Modulus (GPa) = 40.97456 59.51115 50.24285
# Shear Modulus (GPa) = 16.80843 22.54101 19.67472
#
# Velocity S-wave (km/s) = 2.72534 3.15605 2.94857
# Velocity P-wave (km/s) = 5.29240 6.29112 5.81325
#
# Compressibility (1/GPa) = 0.02440539
#
# Stress axis : x y z
#
# Youngs Moduli (GPa) = 57.80194 33.40600 55.64184
#
# Poissons Ratio (x) = -0.00593 0.57299
# Poissons Ratio (y) = -0.01025 0.57202
# Poissons Ratio (z) = 0.59524 0.34343
#
# Static dielectric constant tensor:
#      x y z
#    x 4.333450 0.000000 0.000000 
#    y 0.000000 4.928790 0.000000 
#    z 0.000000 0.000000 3.686700 
# 
# 
# High freq. dielectric constant tensor:
#      x y z
#    x 1.910220 0.000000 0.000000 
#    y 0.000000 1.891070 0.000000 
#    z 0.000000 0.000000 1.850140 
# 
# From -- ./inp_files/15887.got.cif
#   From: 2010.03.12/outbox.cif.g09.slc.cpg/sg49_8_cif.got.tgz:15887.got - 2010.04.14 03:58:27.
