data_PCOD8204166
_publ_section_title
;
Structure prediction by ZEFSAII (Michael W. Deem and Ramdas Pophale) SiO2 
 PCOD8204166
Probable space group: P C C M
;
_chemical_formula_sum "Si O2"
_cell_formula_units_Z 56
_cell_length_a 18.229844
_cell_length_b 9.966574
_cell_length_c 15.145732
_cell_angle_alpha 90.000000
_cell_angle_beta 90.000000
_cell_angle_gamma 90.000000
_cell_volume 2751.814253
_symmetry_space_group_name_H-M "P C C M"
_symmetry_group_IT_number 49
_symmetry_cell_setting 'orthorhombic'
loop_
_space_group_symop_operation_xyz
x,y,z
-x,-y,z
x,-y,1/2-z
-x,y,1/2-z
-x,-y,-z
x,y,-z
-x,y,1/2+z
x,-y,1/2+z
loop_
_atom_site_type_symbol
_atom_site_label
_atom_site_fract_x
_atom_site_fract_y
_atom_site_fract_z
Si Si1 0.413846 0.842188 0.252047
Si Si2 0.770149 0.497477 0.148414
Si Si3 0.066711 0.592569 0.895243
Si Si4 0.060612 0.102222 0.605484
Si Si5 0.784049 0.019398 0.104484
Si Si6 0.321334 0.249652 0.400502
Si Si7 0.304485 0.232677 0.898610
O O1 0.500000 0.821129 0.250000
O O2 0.389899 0.760980 0.164621
O O3 0.377293 0.770086 0.337664
O O4 0.393570 0.000000 0.250000
O O5 0.748614 0.500000 0.250000
O O6 0.856424 0.467867 0.138182
O O7 0.719843 0.390455 0.098848
O O8 0.745939 0.636588 0.105470
O O9 0.052372 0.744246 0.860280
O O10 0.000000 0.500000 0.860021
O O11 0.069527 0.591642 0.000000
O O12 0.058616 0.103955 0.500000
O O13 0.135424 0.040278 0.643915
O O14 0.000000 0.000000 0.643438
O O15 0.735489 0.142063 0.137751
O O16 0.749094 0.882336 0.138725
O O17 0.788976 0.020300 0.000000
O O18 0.348078 0.217435 0.500000
O O19 0.329302 0.207433 0.000000
#
# Coordination Sequence:
#
# PCOD8204166 Si02
#       7
#     8   8   8   8   8   8   8
#     4  11  24  42  67 102 135 163 205 260 319 384
#     4  12  24  40  64  91 124 169 218 272 325 379
#     4  10  21  36  56  86 124 166 212 264 324 383
#     4   9  17  30  51  84 121 158 206 261 311 364
#     4   9  18  33  59  87 119 163 214 260 302 368
#     4  11  21  41  66  92 125 171 216 256 316 385
#     4  11  23  40  63  96 131 166 213 264 318 380
#
# _framework density 20.350211999999999
#
# number of rings (size 3 to 8) (size 9 to 14) (size 15 to 20)
#    0.000    1.571    4.286    1.286    2.000    0.857 
#    0.000    2.857    0.000    1.714    0.000    0.000 
#    0.000    0.000    0.000    0.000    0.000    0.000 
#
# Total GULP energy -694275.838778 kJ/mol
# GULP energy per Si atom -12397.782835 kJ/mol
# Density = 2.030389 g / cm^3
# Si number density = 20.350212 Si / 1000 Ang^3
#
#
#
# Elastic Constant Matrix: (Units=GPa)
#
#
# Indices 1 2 3 4 5 6 
#
# 1 136.2204 61.5417 41.9092 0.0000 0.0000 0.0000
# 2 61.5417 136.1865 18.7820 0.0000 0.0000 0.0000
# 3 41.9092 18.7820 84.1145 0.0000 0.0000 0.0000
# 4 0.0000 0.0000 0.0000 21.9432 0.0000 0.0000
# 5 0.0000 0.0000 0.0000 0.0000 28.4177 0.0000
# 6 0.0000 0.0000 0.0000 0.0000 0.0000 29.8185
#
#
#
# Elastic Compliance Matrix: (Units=1/GPa)
#
#
# Indices 1 2 3 4 5 6 
#
# 1 0.010559 -0.004174 -0.004329 0.000000 0.000000 0.000000
# 2 -0.004174 0.009227 0.000020 0.000000 0.000000 0.000000
# 3 -0.004329 0.000020 0.014041 0.000000 0.000000 0.000000
# 4 0.000000 0.000000 0.000000 0.045572 0.000000 0.000000
# 5 0.000000 0.000000 0.000000 0.000000 0.035189 0.000000
# 6 0.000000 0.000000 0.000000 0.000000 0.000000 0.033536
#
#
# Mechanical properties :
#
#
# Convention : Reuss Voigt Hill
#
# Bulk Modulus (GPa) = 59.31446 66.77635 63.04541
# Shear Modulus (GPa) = 29.28935 31.65512 30.47223
#
# Velocity S-wave (km/s) = 3.79788 3.94828 3.87381
# Velocity P-wave (km/s) = 6.96003 7.32599 7.14535
#
# Compressibility (1/GPa) = 0.01685929
#
# Stress axis : x y z
#
# Youngs Moduli (GPa) = 94.70856 108.38289 71.22061
#
# Poissons Ratio (x) = 0.45244 0.30829
# Poissons Ratio (y) = 0.39535 -0.00140
# Poissons Ratio (z) = 0.40996 -0.00213
#
# Static dielectric constant tensor:
#      x y z
#    x 3.682660 0.000000 0.000000 
#    y 0.000000 5.515530 0.000000 
#    z 0.000000 0.000000 3.543120 
# 
# 
# High freq. dielectric constant tensor:
#      x y z
#    x 1.786850 0.000000 0.000000 
#    y 0.000000 1.803280 0.000000 
#    z 0.000000 0.000000 1.786900 
# 
# From -- ./inp_files/14371.got.cif
#   From: 2010.03.12/outbox.cif.g09.slc.cpg/sg49_8_cif.got.tgz:14371.got - 2010.04.14 03:58:27.
