data_PCOD8204969
_publ_section_title
;
Structure prediction by ZEFSAII (Michael W. Deem and Ramdas Pophale) SiO2 
 PCOD8204969
Probable space group: P B A N
;
_chemical_formula_sum "Si O2"
_cell_formula_units_Z 40
_cell_length_a 8.839678
_cell_length_b 27.572139
_cell_length_c 7.991561
_cell_angle_alpha 90.000000
_cell_angle_beta 90.000000
_cell_angle_gamma 90.000000
_cell_volume 1947.773817
_symmetry_space_group_name_H-M "P B A N"
_symmetry_group_IT_number 50
_space_group.IT_coordinate_system_code '2'
_symmetry_cell_setting 'orthorhombic'
loop_
_space_group_symop_operation_xyz
x,y,z
1/2-x,1/2-y,z
x,1/2-y,-z
1/2-x,y,-z
-x,-y,-z
1/2+x,1/2+y,-z
-x,1/2+y,z
1/2+x,-y,z
loop_
_atom_site_type_symbol
_atom_site_label
_atom_site_fract_x
_atom_site_fract_y
_atom_site_fract_z
Si Si1 0.171809 0.638007 0.829034
Si Si2 0.483983 0.551566 0.292799
Si Si3 0.308697 0.043518 0.811403
Si Si4 0.422823 0.698602 0.450062
Si Si5 0.041096 0.604809 0.372687
O O1 0.087105 0.685042 0.748298
O O2 0.297028 0.613472 0.710116
O O3 0.048543 0.594969 0.841475
O O4 0.250000 0.654514 0.000000
O O5 0.401602 0.505179 0.218116
O O6 0.662737 0.542599 0.306682
O O7 0.435638 0.564527 0.482509
O O8 0.416593 0.088729 0.763132
O O9 0.250000 0.047874 0.000000
O O10 0.501119 0.750000 0.500000
O O11 0.250000 0.700957 0.500000
O O12 0.513070 0.655973 0.546181
#
# Coordination Sequence:
#
# PCOD8204969 Si02
#       5
#     8   8   8   8   8
#     4  10  19  35  58  85 114 144 183 234 278 319
#     4  11  22  36  54  79 113 151 187 223 275 333
#     4  12  23  36  55  82 114 146 187 232 273 327
#     4   8  16  33  56  82 111 141 181 227 277 336
#     4  10  21  36  55  79 109 147 185 227 277 336
#
# _framework density 20.536266000000001
#
# number of rings (size 3 to 8) (size 9 to 14) (size 15 to 20)
#    0.000    1.800    0.000    6.600    0.000    1.600 
#    0.000    8.000    0.000    9.600    0.000    5.600 
#    0.000    0.000    0.000    0.000    0.000    0.000 
#
# Total GULP energy -495656.631938 kJ/mol
# GULP energy per Si atom -12391.415798 kJ/mol
# Density = 2.048952 g / cm^3
# Si number density = 20.536266 Si / 1000 Ang^3
#
#
#
# Elastic Constant Matrix: (Units=GPa)
#
#
# Indices 1 2 3 4 5 6 
#
# 1 65.6227 33.5340 13.0789 0.0000 0.0000 0.0000
# 2 33.5340 140.4844 52.4214 0.0000 0.0000 0.0000
# 3 13.0789 52.4214 110.8666 0.0000 0.0000 0.0000
# 4 0.0000 0.0000 0.0000 19.3067 0.0000 0.0000
# 5 0.0000 0.0000 0.0000 0.0000 29.2605 0.0000
# 6 0.0000 0.0000 0.0000 0.0000 0.0000 17.2120
#
#
#
# Elastic Compliance Matrix: (Units=1/GPa)
#
#
# Indices 1 2 3 4 5 6 
#
# 1 0.017357 -0.004103 -0.000108 0.000000 0.000000 0.000000
# 2 -0.004103 0.009613 -0.004061 0.000000 0.000000 0.000000
# 3 -0.000108 -0.004061 0.010953 0.000000 0.000000 0.000000
# 4 0.000000 0.000000 0.000000 0.051796 0.000000 0.000000
# 5 0.000000 0.000000 0.000000 0.000000 0.034176 0.000000
# 6 0.000000 0.000000 0.000000 0.000000 0.000000 0.058099
#
#
# Mechanical properties :
#
#
# Convention : Reuss Voigt Hill
#
# Bulk Modulus (GPa) = 46.77495 57.22692 52.00094
# Shear Modulus (GPa) = 24.31161 27.68512 25.99837
#
# Velocity S-wave (km/s) = 3.44443 3.67564 3.56191
# Velocity P-wave (km/s) = 6.21651 6.77795 6.50329
#
# Compressibility (1/GPa) = 0.02137896
#
# Stress axis : x y z
#
# Youngs Moduli (GPa) = 57.61448 104.02459 91.30011
#
# Poissons Ratio (x) = 0.42681 0.00982
# Poissons Ratio (y) = 0.23639 0.37080
# Poissons Ratio (z) = 0.00620 0.42248
#
# Static dielectric constant tensor:
#      x y z
#    x 3.739040 0.000000 0.000000 
#    y 0.000000 4.335830 0.000000 
#    z 0.000000 0.000000 3.782430 
# 
# 
# High freq. dielectric constant tensor:
#      x y z
#    x 1.783730 0.000000 0.000000 
#    y 0.000000 1.794430 0.000000 
#    z 0.000000 0.000000 1.802970 
# 
# From -- ./inp_files/9740.got.cif
#   From: 2010.03.12/outbox.cif.g09.slc.cpg/sg50_5_cif.got.tgz:9740.got - 2010.04.16 13:23:21.
