data_PCOD8204101
_publ_section_title
;
Structure prediction by ZEFSAII (Michael W. Deem and Ramdas Pophale) SiO2 
 PCOD8204101
Probable space group: P C C M
;
_chemical_formula_sum "Si O2"
_cell_formula_units_Z 48
_cell_length_a 10.003287
_cell_length_b 15.312727
_cell_length_c 15.350345
_cell_angle_alpha 90.000000
_cell_angle_beta 90.000000
_cell_angle_gamma 90.000000
_cell_volume 2351.329051
_symmetry_space_group_name_H-M "P C C M"
_symmetry_group_IT_number 49
_symmetry_cell_setting 'orthorhombic'
loop_
_space_group_symop_operation_xyz
x,y,z
-x,-y,z
x,-y,1/2-z
-x,y,1/2-z
-x,-y,-z
x,y,-z
-x,y,1/2+z
x,-y,1/2+z
loop_
_atom_site_type_symbol
_atom_site_label
_atom_site_fract_x
_atom_site_fract_y
_atom_site_fract_z
Si Si1 0.088430 0.914520 0.500000
Si Si2 0.512238 0.790707 0.148951
Si Si3 0.255413 0.661813 0.332047
Si Si4 0.401864 0.081745 0.000000
Si Si5 0.254851 0.691289 0.131621
Si Si6 0.353224 0.505321 0.904337
Si Si7 0.985565 0.220636 0.354351
O O1 0.244858 0.942008 0.500000
O O2 0.052442 0.864314 0.410287
O O3 0.000000 0.000000 0.500000
O O4 0.500000 0.821702 0.250000
O O5 0.607235 0.706809 0.137965
O O6 0.368487 0.762697 0.112505
O O7 0.568772 0.867295 0.089393
O O8 0.242360 0.666859 0.230550
O O9 0.253449 0.559372 0.354108
O O10 0.129749 0.709565 0.374491
O O11 0.500000 0.000000 0.000000
O O12 0.288801 0.600814 0.084495
O O13 0.117312 0.736493 0.102893
O O14 0.500000 0.500000 0.858225
O O15 0.370882 0.464789 0.000000
O O16 0.000000 0.198216 0.250000
#
# Coordination Sequence:
#
# PCOD8204101 Si02
#       7
#     4   8   8   4   8   8   8
#     4  12  28  48  72  99 132 172 208 270 341 403
#     4  10  22  41  69  97 130 175 219 267 324 385
#     4  10  20  40  62  89 129 179 216 267 318 382
#     4  12  28  46  72 103 133 167 211 271 336 402
#     4  10  22  38  63  92 129 173 223 266 317 374
#     4  11  23  33  54  93 132 170 219 274 320 370
#     4  10  24  45  69  97 131 175 220 264 327 395
#
# _framework density 20.413988
#
# number of rings (size 3 to 8) (size 9 to 14) (size 15 to 20)
#    0.000    1.500    3.333    0.500    7.000    2.000 
#    0.000    5.000    0.000    0.000    0.000    0.000 
#    0.000    0.000    0.000    0.000    0.000    0.000 
#
# Total GULP energy -595017.520202 kJ/mol
# GULP energy per Si atom -12396.198338 kJ/mol
# Density = 2.036752 g / cm^3
# Si number density = 20.413988 Si / 1000 Ang^3
#
#
#
# Elastic Constant Matrix: (Units=GPa)
#
#
# Indices 1 2 3 4 5 6 
#
# 1 156.6630 56.4247 45.8406 0.0000 0.0000 0.0000
# 2 56.4247 114.2557 48.1636 0.0000 0.0000 0.0000
# 3 45.8406 48.1636 60.4468 0.0000 0.0000 0.0000
# 4 0.0000 0.0000 0.0000 39.6067 0.0000 0.0000
# 5 0.0000 0.0000 0.0000 0.0000 21.0227 0.0000
# 6 0.0000 0.0000 0.0000 0.0000 0.0000 26.7653
#
#
#
# Elastic Compliance Matrix: (Units=1/GPa)
#
#
# Indices 1 2 3 4 5 6 
#
# 1 0.008570 -0.002248 -0.004709 0.000000 0.000000 0.000000
# 2 -0.002248 0.013768 -0.009266 0.000000 0.000000 0.000000
# 3 -0.004709 -0.009266 0.027497 0.000000 0.000000 0.000000
# 4 0.000000 0.000000 0.000000 0.025248 0.000000 0.000000
# 5 0.000000 0.000000 0.000000 0.000000 0.047568 0.000000
# 6 0.000000 0.000000 0.000000 0.000000 0.000000 0.037362
#
#
# Mechanical properties :
#
#
# Convention : Reuss Voigt Hill
#
# Bulk Modulus (GPa) = 57.49872 70.24704 63.87288
# Shear Modulus (GPa) = 25.22001 29.54137 27.38069
#
# Velocity S-wave (km/s) = 3.51868 3.80822 3.66631
# Velocity P-wave (km/s) = 6.68847 7.33639 7.01991
#
# Compressibility (1/GPa) = 0.01739169
#
# Stress axis : x y z
#
# Youngs Moduli (GPa) = 116.68070 72.63093 36.36715
#
# Poissons Ratio (x) = 0.16324 0.17124
# Poissons Ratio (y) = 0.26225 0.33698
# Poissons Ratio (z) = 0.54940 0.67299
#
# Static dielectric constant tensor:
#      x y z
#    x 2.782580 0.000000 0.000000 
#    y 0.000000 3.589090 0.000000 
#    z 0.000000 0.000000 3.795890 
# 
# 
# High freq. dielectric constant tensor:
#      x y z
#    x 1.809180 0.000000 0.000000 
#    y 0.000000 1.780880 0.000000 
#    z 0.000000 0.000000 1.806470 
# 
# From -- ./inp_files/16375.got.cif
#   From: 2010.03.12/outbox.cif.g09.slc.cpg/sg49_9_cif.got.tgz:16375.got - 2010.04.14 03:58:27.
