data_PCOD8204996
_publ_section_title
;
Structure prediction by ZEFSAII (Michael W. Deem and Ramdas Pophale) SiO2 
 PCOD8204996
Probable space group: P B A N
;
_chemical_formula_sum "Si O2"
_cell_formula_units_Z 40
_cell_length_a 14.687769
_cell_length_b 15.259351
_cell_length_c 8.514129
_cell_angle_alpha 90.000000
_cell_angle_beta 90.000000
_cell_angle_gamma 90.000000
_cell_volume 1908.236166
_symmetry_space_group_name_H-M "P B A N"
_symmetry_group_IT_number 50
_space_group.IT_coordinate_system_code '2'
_symmetry_cell_setting 'orthorhombic'
loop_
_space_group_symop_operation_xyz
x,y,z
1/2-x,1/2-y,z
x,1/2-y,-z
1/2-x,y,-z
-x,-y,-z
1/2+x,1/2+y,-z
-x,1/2+y,z
1/2+x,-y,z
loop_
_atom_site_type_symbol
_atom_site_label
_atom_site_fract_x
_atom_site_fract_y
_atom_site_fract_z
Si Si1 0.002226 0.736293 0.828011
Si Si2 0.728234 0.479320 0.183161
Si Si3 0.700171 0.828857 0.833300
Si Si4 0.044708 0.919063 0.695719
Si Si5 0.087025 0.926143 0.331445
O O1 0.904619 0.693038 0.853833
O O2 0.995301 0.827249 0.732663
O O3 0.063508 0.669359 0.732044
O O4 0.046200 0.750000 0.000000
O O5 0.710478 0.577524 0.250578
O O6 0.636153 0.423780 0.201532
O O7 0.808114 0.440332 0.288592
O O8 0.750000 0.478268 0.000000
O O9 0.750000 0.750000 0.736147
O O10 0.750000 0.835461 0.000000
O O11 0.074087 0.926267 0.516508
O O12 0.975225 0.996948 0.743641
#
# Coordination Sequence:
#
# PCOD8204996 Si02
#       5
#     8   8   8   8   8
#     4  12  23  40  70 100 133 172 230 281 336 391
#     4  11  23  41  69  98 133 175 232 282 337 395
#     4  10  19  36  62 100 132 164 214 283 338 387
#     4  11  25  44  66  96 142 184 224 274 339 414
#     4  11  25  44  66  96 141 185 224 271 342 412
#
# _framework density 20.961765
#
# number of rings (size 3 to 8) (size 9 to 14) (size 15 to 20)
#    0.000    1.000    4.000    3.600    2.800    2.400 
#    0.000    4.000    0.000    0.000    0.000    0.000 
#    0.000    0.000    0.000    0.000    0.000    0.000 
#
# Total GULP energy -496032.849609 kJ/mol
# GULP energy per Si atom -12400.821240 kJ/mol
# Density = 2.091406 g / cm^3
# Si number density = 20.961765 Si / 1000 Ang^3
#
#
#
# Elastic Constant Matrix: (Units=GPa)
#
#
# Indices 1 2 3 4 5 6 
#
# 1 107.0606 26.7291 13.4466 0.0000 0.0000 0.0000
# 2 26.7291 126.6635 19.5227 0.0000 0.0000 0.0000
# 3 13.4466 19.5227 56.6001 0.0000 0.0000 0.0000
# 4 0.0000 0.0000 0.0000 26.5878 0.0000 0.0000
# 5 0.0000 0.0000 0.0000 0.0000 22.3077 0.0000
# 6 0.0000 0.0000 0.0000 0.0000 0.0000 26.7212
#
#
#
# Elastic Compliance Matrix: (Units=1/GPa)
#
#
# Indices 1 2 3 4 5 6 
#
# 1 0.010020 -0.001846 -0.001744 0.000000 0.000000 0.000000
# 2 -0.001846 0.008678 -0.002555 0.000000 0.000000 0.000000
# 3 -0.001744 -0.002555 0.018963 0.000000 0.000000 0.000000
# 4 0.000000 0.000000 0.000000 0.037611 0.000000 0.000000
# 5 0.000000 0.000000 0.000000 0.000000 0.044828 0.000000
# 6 0.000000 0.000000 0.000000 0.000000 0.000000 0.037424
#
#
# Mechanical properties :
#
#
# Convention : Reuss Voigt Hill
#
# Bulk Modulus (GPa) = 39.41210 45.52457 42.46834
# Shear Modulus (GPa) = 28.04722 30.49839 29.27281
#
# Velocity S-wave (km/s) = 3.66186 3.81852 3.74101
# Velocity P-wave (km/s) = 6.05984 6.41923 6.24212
#
# Compressibility (1/GPa) = 0.02537292
#
# Stress axis : x y z
#
# Youngs Moduli (GPa) = 99.79693 115.23119 52.73335
#
# Poissons Ratio (x) = 0.21269 0.09196
# Poissons Ratio (y) = 0.18420 0.13472
# Poissons Ratio (z) = 0.17404 0.29439
#
# Static dielectric constant tensor:
#      x y z
#    x 3.805150 0.000000 0.000000 
#    y 0.000000 4.441820 0.000000 
#    z 0.000000 0.000000 3.524690 
# 
# 
# High freq. dielectric constant tensor:
#      x y z
#    x 1.827900 0.000000 0.000000 
#    y 0.000000 1.839890 0.000000 
#    z 0.000000 0.000000 1.802790 
# 
# From -- ./inp_files/12564.got.cif
#   From: 2010.03.12/outbox.cif.g09.slc.cpg/sg50_7_cif.got.tgz:12564.got - 2010.04.16 13:23:21.
