data_PCOD8204552
_publ_section_title
;
Structure prediction by ZEFSAII (Michael W. Deem and Ramdas Pophale) SiO2 
 PCOD8204552
Probable space group: P C C M
;
_chemical_formula_sum "Si O2"
_cell_formula_units_Z 64
_cell_length_a 15.906086
_cell_length_b 14.789405
_cell_length_c 14.521034
_cell_angle_alpha 90.000000
_cell_angle_beta 90.000000
_cell_angle_gamma 90.000000
_cell_volume 3415.950514
_symmetry_space_group_name_H-M "P C C M"
_symmetry_group_IT_number 49
_symmetry_cell_setting 'orthorhombic'
loop_
_space_group_symop_operation_xyz
x,y,z
-x,-y,z
x,-y,1/2-z
-x,y,1/2-z
-x,-y,-z
x,y,-z
-x,y,1/2+z
x,-y,1/2+z
loop_
_atom_site_type_symbol
_atom_site_label
_atom_site_fract_x
_atom_site_fract_y
_atom_site_fract_z
Si Si1 0.400746 0.999916 0.397174
Si Si2 0.995132 0.665122 0.855925
Si Si3 0.865293 0.900934 0.755194
Si Si4 0.816091 0.591984 0.893953
Si Si5 0.598819 0.145707 0.749857
Si Si6 0.747335 0.267089 0.257057
Si Si7 0.005613 0.136493 0.397193
Si Si8 0.822393 0.610184 0.604273
O O1 0.359996 0.000249 0.500000
O O2 0.373788 0.089083 0.340499
O O3 0.500000 0.000000 0.405333
O O4 0.374592 0.910111 0.341438
O O5 0.914552 0.603235 0.872773
O O6 0.000000 0.694539 0.750000
O O7 0.986633 0.757660 0.911717
O O8 0.076936 0.610252 0.886127
O O9 0.798087 0.824377 0.779082
O O10 0.907219 0.876288 0.657325
O O11 0.932092 0.910337 0.838420
O O12 0.821458 0.000000 0.750000
O O13 0.758484 0.661811 0.838954
O O14 0.791762 0.489639 0.865426
O O15 0.797150 0.609422 0.000000
O O16 0.500000 0.167988 0.750000
O O17 0.649422 0.240164 0.750886
O O18 0.778413 0.312537 0.163325
O O19 0.011124 0.093675 0.500000
O O20 0.796385 0.630205 0.500000
#
# Coordination Sequence:
#
# PCOD8204552 Si02
#       8
#     8   8   8   8   8   8   8   8
#     4   8  15  33  60  87 113 140 177 226 278 336
#     4  12  19  34  58  84 110 145 181 232 288 337
#     4  11  24  37  50  76 108 147 192 225 264 310
#     4  11  23  38  58  84 113 146 185 232 288 342
#     4   9  20  36  58  86 114 149 187 226 284 345
#     4  12  23  38  58  81 115 145 183 239 283 329
#     4  11  19  36  56  70 104 152 191 225 261 313
#     4  11  23  38  58  84 113 146 185 232 288 342
#
# _framework density 18.735633
#
# number of rings (size 3 to 8) (size 9 to 14) (size 15 to 20)
#    0.000    1.375    5.000    3.375    1.750    3.500 
#    0.000    0.000    0.000    1.500    0.000    1.750 
#    0.000    0.000    0.000    0.000    0.000    0.000 
#
# Total GULP energy -793558.740132 kJ/mol
# GULP energy per Si atom -12399.355315 kJ/mol
# Density = 1.869299 g / cm^3
# Si number density = 18.735633 Si / 1000 Ang^3
#
#
#
# Elastic Constant Matrix: (Units=GPa)
#
#
# Indices 1 2 3 4 5 6 
#
# 1 71.3351 38.2124 23.3635 0.0000 0.0000 0.0000
# 2 38.2124 109.1024 34.5583 0.0000 0.0000 0.0000
# 3 23.3635 34.5583 124.0474 0.0000 0.0000 0.0000
# 4 0.0000 0.0000 0.0000 12.1796 0.0000 0.0000
# 5 0.0000 0.0000 0.0000 0.0000 4.8573 0.0000
# 6 0.0000 0.0000 0.0000 0.0000 0.0000 22.5312
#
#
#
# Elastic Compliance Matrix: (Units=1/GPa)
#
#
# Indices 1 2 3 4 5 6 
#
# 1 0.017596 -0.005608 -0.001752 0.000000 0.000000 0.000000
# 2 -0.005608 0.011840 -0.002242 0.000000 0.000000 0.000000
# 3 -0.001752 -0.002242 0.009016 0.000000 0.000000 0.000000
# 4 0.000000 0.000000 0.000000 0.082105 0.000000 0.000000
# 5 0.000000 0.000000 0.000000 0.000000 0.205877 0.000000
# 6 0.000000 0.000000 0.000000 0.000000 0.000000 0.044383
#
#
# Mechanical properties :
#
#
# Convention : Reuss Voigt Hill
#
# Bulk Modulus (GPa) = 51.95321 55.19481 53.57401
# Shear Modulus (GPa) = 12.61233 21.80366 17.20799
#
# Velocity S-wave (km/s) = 2.59737 3.41508 3.03390
# Velocity P-wave (km/s) = 6.06506 6.71373 6.39762
#
# Compressibility (1/GPa) = 0.01924809
#
# Stress axis : x y z
#
# Youngs Moduli (GPa) = 56.83055 84.45848 110.91335
#
# Poissons Ratio (x) = 0.47365 0.19430
# Poissons Ratio (y) = 0.31871 0.24870
# Poissons Ratio (z) = 0.09955 0.18938
#
# Static dielectric constant tensor:
#      x y z
#    x 3.065360 0.000000 0.000000 
#    y 0.000000 3.443690 0.000000 
#    z 0.000000 0.000000 3.849150 
# 
# 
# High freq. dielectric constant tensor:
#      x y z
#    x 1.681280 0.000000 0.000000 
#    y 0.000000 1.731080 0.000000 
#    z 0.000000 0.000000 1.740760 
# 
# From -- ./inp_files/14257.got.cif
#   From: 2010.03.12/outbox.cif.g09.slc.cpg/sg49_8_cif.got.tgz:14257.got - 2010.04.14 03:58:27.
