data_PCOD8204005
_publ_section_title
;
Structure prediction by ZEFSAII (Michael W. Deem and Ramdas Pophale) SiO2 
 PCOD8204005
Probable space group: P C C M
;
_chemical_formula_sum "Si O2"
_cell_formula_units_Z 40
_cell_length_a 12.181194
_cell_length_b 9.673851
_cell_length_c 16.088459
_cell_angle_alpha 90.000000
_cell_angle_beta 90.000000
_cell_angle_gamma 90.000000
_cell_volume 1895.848817
_symmetry_space_group_name_H-M "P C C M"
_symmetry_group_IT_number 49
_symmetry_cell_setting 'orthorhombic'
loop_
_space_group_symop_operation_xyz
x,y,z
-x,-y,z
x,-y,1/2-z
-x,y,1/2-z
-x,-y,-z
x,y,-z
-x,y,1/2+z
x,-y,1/2+z
loop_
_atom_site_type_symbol
_atom_site_label
_atom_site_fract_x
_atom_site_fract_y
_atom_site_fract_z
Si Si1 0.857042 0.580345 0.594685
Si Si2 0.297352 0.809864 0.094282
Si Si3 0.478489 0.838444 0.658827
Si Si4 0.935404 0.311372 0.336834
Si Si5 0.753572 0.884951 0.900938
O O1 0.827912 0.535223 0.500000
O O2 0.767434 0.683051 0.636247
O O3 0.859524 0.448698 0.656640
O O4 0.972254 0.664414 0.592666
O O5 0.427016 0.777177 0.099419
O O6 0.261081 0.957935 0.133007
O O7 0.258759 0.814356 0.000000
O O8 0.500000 0.775596 0.750000
O O9 0.357089 0.801770 0.625391
O O10 0.500000 0.000000 0.659349
O O11 0.860658 0.177862 0.356026
O O12 0.000000 0.296689 0.250000
O O13 0.766725 0.876691 0.000000
#
# Coordination Sequence:
#
# PCOD8204005 Si02
#       5
#     8   8   8   8   8
#     4  10  20  38  60  80 112 155 196 240 295 361
#     4   9  19  35  60  89 117 151 197 244 291 356
#     4   9  18  33  56  86 123 156 189 235 299 360
#     4  11  23  38  56  82 114 155 200 246 297 351
#     4  10  20  37  61  88 119 157 199 242 295 361
#
# _framework density 21.098728999999999
#
# number of rings (size 3 to 8) (size 9 to 14) (size 15 to 20)
#    0.000    2.200    0.000    4.200    2.800    3.200 
#    0.000    6.000    0.000    4.800    0.000    0.000 
#    0.000    0.000    0.000    0.000    0.000    0.000 
#
# Total GULP energy -495627.196117 kJ/mol
# GULP energy per Si atom -12390.679903 kJ/mol
# Density = 2.105071 g / cm^3
# Si number density = 21.098729 Si / 1000 Ang^3
#
#
#
# Elastic Constant Matrix: (Units=GPa)
#
#
# Indices 1 2 3 4 5 6 
#
# 1 89.1916 40.6808 30.5989 0.0000 0.0000 0.0000
# 2 40.6808 56.3992 30.9263 0.0000 0.0000 0.0000
# 3 30.5989 30.9263 87.1382 0.0000 0.0000 0.0000
# 4 0.0000 0.0000 0.0000 20.5820 0.0000 0.0000
# 5 0.0000 0.0000 0.0000 0.0000 35.1390 0.0000
# 6 0.0000 0.0000 0.0000 0.0000 0.0000 35.3421
#
#
#
# Elastic Compliance Matrix: (Units=1/GPa)
#
#
# Indices 1 2 3 4 5 6 
#
# 1 0.016987 -0.011152 -0.002007 0.000000 0.000000 0.000000
# 2 -0.011152 0.029337 -0.006496 0.000000 0.000000 0.000000
# 3 -0.002007 -0.006496 0.014486 0.000000 0.000000 0.000000
# 4 0.000000 0.000000 0.000000 0.048586 0.000000 0.000000
# 5 0.000000 0.000000 0.000000 0.000000 0.028458 0.000000
# 6 0.000000 0.000000 0.000000 0.000000 0.000000 0.028295
#
#
# Mechanical properties :
#
#
# Convention : Reuss Voigt Hill
#
# Bulk Modulus (GPa) = 46.51169 48.57121 47.54145
# Shear Modulus (GPa) = 23.51549 26.91415 25.21482
#
# Velocity S-wave (km/s) = 3.34210 3.57547 3.46075
# Velocity P-wave (km/s) = 6.08157 6.33374 6.20893
#
# Compressibility (1/GPa) = 0.02149997
#
# Stress axis : x y z
#
# Youngs Moduli (GPa) = 58.86891 34.08698 69.03107
#
# Poissons Ratio (x) = 0.38014 0.13854
# Poissons Ratio (y) = 0.65651 0.44841
# Poissons Ratio (z) = 0.11815 0.22142
#
# Static dielectric constant tensor:
#      x y z
#    x 4.037310 0.000000 0.000000 
#    y 0.000000 3.749670 0.000000 
#    z 0.000000 0.000000 3.721130 
# 
# 
# High freq. dielectric constant tensor:
#      x y z
#    x 1.830710 0.000000 0.000000 
#    y 0.000000 1.794920 0.000000 
#    z 0.000000 0.000000 1.820650 
# 
# From -- ./inp_files/16857.got.cif
#   From: 2010.03.12/outbox.cif.g09.slc.cpg/sg49_9_cif.got.tgz:16857.got - 2010.04.14 03:58:27.
