data_PCOD8204324
_publ_section_title
;
Structure prediction by ZEFSAII (Michael W. Deem and Ramdas Pophale) SiO2 
 PCOD8204324
Probable space group: P C C M
;
_chemical_formula_sum "Si O2"
_cell_formula_units_Z 58
_cell_length_a 17.884937
_cell_length_b 16.814883
_cell_length_c 9.128841
_cell_angle_alpha 90.000000
_cell_angle_beta 90.000000
_cell_angle_gamma 90.000000
_cell_volume 2745.344864
_symmetry_space_group_name_H-M "P C C M"
_symmetry_group_IT_number 49
_symmetry_cell_setting 'orthorhombic'
loop_
_space_group_symop_operation_xyz
x,y,z
-x,-y,z
x,-y,1/2-z
-x,y,1/2-z
-x,-y,-z
x,y,-z
-x,y,1/2+z
x,-y,1/2+z
loop_
_atom_site_type_symbol
_atom_site_label
_atom_site_fract_x
_atom_site_fract_y
_atom_site_fract_z
Si Si1 0.077985 0.417660 0.676124
Si Si2 0.230436 0.151868 0.169041
Si Si3 0.635613 0.892061 0.343024
Si Si4 0.500000 0.000000 0.750000
Si Si5 0.927909 0.914981 0.824627
Si Si6 0.348522 0.418732 0.167580
Si Si7 0.200833 0.328387 0.165983
Si Si8 0.572187 0.278119 0.165402
O O1 0.105343 0.500000 0.750000
O O2 0.071244 0.426249 0.500000
O O3 0.136072 0.348519 0.718087
O O4 0.000000 0.393364 0.750000
O O5 0.295624 0.093494 0.232288
O O6 0.147362 0.130118 0.222169
O O7 0.240195 0.245063 0.209250
O O8 0.238940 0.136158 0.000000
O O9 0.668472 0.915011 0.500000
O O10 0.624674 0.798040 0.333176
O O11 0.557881 0.941362 0.331516
O O12 0.000000 0.871111 0.750000
O O13 0.922438 0.000000 0.750000
O O14 0.937874 0.920366 0.000000
O O15 0.364692 0.500000 0.250000
O O16 0.261162 0.398453 0.175133
O O17 0.394372 0.351137 0.247469
O O18 0.375634 0.425755 0.000000
O O19 0.168204 0.322415 0.000000
O O20 0.500000 0.248528 0.250000
O O21 0.554249 0.305350 0.000000
#
# Coordination Sequence:
#
# PCOD8204324 Si02
#       8
#     8   8   8   2   8   8   8   8
#     4  11  22  37  58  85 121 164 211 265 318 377
#     4  10  23  42  65  93 130 168 209 261 322 382
#     4  11  25  43  67  98 133 173 219 265 318 387
#     4  12  26  48  68 106 138 176 216 262 326 384
#     4  10  21  39  63  91 125 166 210 261 316 377
#     4  11  23  40  64  92 125 165 209 262 316 379
#     4  10  21  39  61  88 122 163 206 255 315 378
#     4  11  23  42  66  93 126 166 210 260 317 377
#
# _framework density 21.126671999999999
#
# number of rings (size 3 to 8) (size 9 to 14) (size 15 to 20)
#    0.000    1.379    2.069    3.931    0.966    6.345 
#    0.000    2.759    0.000    0.000    0.000    0.000 
#    0.000    0.000    0.000    0.000    0.000    0.000 
#
# Total GULP energy -718719.054576 kJ/mol
# GULP energy per Si atom -12391.707838 kJ/mol
# Density = 2.107859 g / cm^3
# Si number density = 21.126672 Si / 1000 Ang^3
#
#
#
# Elastic Constant Matrix: (Units=GPa)
#
#
# Indices 1 2 3 4 5 6 
#
# 1 116.6095 24.7583 60.0954 0.0000 0.0000 0.0000
# 2 24.7583 73.4673 36.9553 0.0000 0.0000 0.0000
# 3 60.0954 36.9553 151.6611 0.0000 0.0000 0.0000
# 4 0.0000 0.0000 0.0000 14.2350 0.0000 0.0000
# 5 0.0000 0.0000 0.0000 0.0000 35.9316 0.0000
# 6 0.0000 0.0000 0.0000 0.0000 0.0000 30.9641
#
#
#
# Elastic Compliance Matrix: (Units=1/GPa)
#
#
# Indices 1 2 3 4 5 6 
#
# 1 0.010964 -0.001720 -0.003925 0.000000 0.000000 0.000000
# 2 -0.001720 0.015783 -0.003164 0.000000 0.000000 0.000000
# 3 -0.003925 -0.003164 0.008920 0.000000 0.000000 0.000000
# 4 0.000000 0.000000 0.000000 0.070250 0.000000 0.000000
# 5 0.000000 0.000000 0.000000 0.000000 0.027831 0.000000
# 6 0.000000 0.000000 0.000000 0.000000 0.000000 0.032295
#
#
# Mechanical properties :
#
#
# Convention : Reuss Voigt Hill
#
# Bulk Modulus (GPa) = 55.40986 65.03957 60.22471
# Shear Modulus (GPa) = 26.36054 30.88805 28.62430
#
# Velocity S-wave (km/s) = 3.53616 3.82781 3.68487
# Velocity P-wave (km/s) = 6.55416 7.09849 6.83175
#
# Compressibility (1/GPa) = 0.01804733
#
# Stress axis : x y z
#
# Youngs Moduli (GPa) = 91.20973 63.35982 112.10773
#
# Poissons Ratio (x) = 0.10900 0.44004
# Poissons Ratio (y) = 0.15691 0.35472
# Poissons Ratio (z) = 0.35801 0.20048
#
# Static dielectric constant tensor:
#      x y z
#    x 4.281950 0.000000 0.000000 
#    y 0.000000 3.791920 0.000000 
#    z 0.000000 0.000000 3.942880 
# 
# 
# High freq. dielectric constant tensor:
#      x y z
#    x 1.835170 0.000000 0.000000 
#    y 0.000000 1.825750 0.000000 
#    z 0.000000 0.000000 1.832290 
# 
# From -- ./inp_files/5126.got.cif
#   From: 2010.03.12/outbox.cif.g09.slc.cpg/sg49_3_cif.got.tgz:5126.got - 2010.04.14 03:58:27.
