data_PCOD8204557
_publ_section_title
;
Structure prediction by ZEFSAII (Michael W. Deem and Ramdas Pophale) SiO2 
 PCOD8204557
Probable space group: P C C M
;
_chemical_formula_sum "Si O2"
_cell_formula_units_Z 64
_cell_length_a 20.463082
_cell_length_b 19.611589
_cell_length_c 8.642559
_cell_angle_alpha 90.000000
_cell_angle_beta 90.000000
_cell_angle_gamma 90.000000
_cell_volume 3468.376067
_symmetry_space_group_name_H-M "P C C M"
_symmetry_group_IT_number 49
_symmetry_cell_setting 'orthorhombic'
loop_
_space_group_symop_operation_xyz
x,y,z
-x,-y,z
x,-y,1/2-z
-x,y,1/2-z
-x,-y,-z
x,y,-z
-x,y,1/2+z
x,-y,1/2+z
loop_
_atom_site_type_symbol
_atom_site_label
_atom_site_fract_x
_atom_site_fract_y
_atom_site_fract_z
Si Si1 0.734779 0.933596 0.669373
Si Si2 0.569561 0.427126 0.682793
Si Si3 0.109509 0.068236 0.326594
Si Si4 0.185584 0.573730 0.683385
Si Si5 0.688917 0.645426 0.680427
Si Si6 0.066928 0.342953 0.682149
Si Si7 0.110185 0.209589 0.819190
Si Si8 0.250227 0.212225 0.681782
O O1 0.705195 0.938081 0.500000
O O2 0.812700 0.937274 0.671344
O O3 0.715557 0.858922 0.738481
O O4 0.703886 0.000000 0.750000
O O5 0.591329 0.500000 0.750000
O O6 0.500000 0.404110 0.750000
O O7 0.564426 0.432771 0.500000
O O8 0.622324 0.371106 0.731222
O O9 0.082038 0.075377 0.500000
O O10 0.087720 0.133645 0.227387
O O11 0.079685 0.000000 0.250000
O O12 0.168979 0.500000 0.750000
O O13 0.191678 0.570815 0.500000
O O14 0.253197 0.599695 0.753437
O O15 0.127786 0.623653 0.731716
O O16 0.681730 0.628865 0.500000
O O17 0.701031 0.725465 0.710032
O O18 0.071748 0.356293 0.500000
O O19 0.067278 0.262568 0.720518
O O20 0.000000 0.374904 0.750000
O O21 0.185749 0.224182 0.781656
O O22 0.097707 0.221155 0.000000
O O23 0.230211 0.205929 0.500000
#
# Coordination Sequence:
#
# PCOD8204557 Si02
#       8
#     8   8   8   8   8   8   8   8
#     4   8  14  24  38  62  95 135 174 214 260 312
#     4  11  22  38  58  82 113 149 190 230 271 325
#     4   9  16  27  44  69 100 134 173 217 266 319
#     4  12  25  42  62  87 112 141 178 222 273 330
#     4  11  21  36  58  84 115 151 186 228 275 321
#     4  12  25  43  62  82 106 137 177 226 278 333
#     4  11  20  32  52  77 105 138 177 220 270 328
#     4   9  18  31  49  72 105 143 181 222 271 320
#
# _framework density 18.452439999999999
#
# number of rings (size 3 to 8) (size 9 to 14) (size 15 to 20)
#    0.000    1.625    1.250    6.750    0.000    3.750 
#    0.000    1.250    0.000    0.375    0.000    2.625 
#    0.000    0.500    0.000    5.750    0.000    1.875 
#
# Total GULP energy -793553.112032 kJ/mol
# GULP energy per Si atom -12399.267376 kJ/mol
# Density = 1.841044 g / cm^3
# Si number density = 18.452440 Si / 1000 Ang^3
#
#
#
# Elastic Constant Matrix: (Units=GPa)
#
#
# Indices 1 2 3 4 5 6 
#
# 1 67.3587 25.2599 22.2163 0.0000 0.0000 0.0000
# 2 25.2599 98.0058 25.7707 0.0000 0.0000 0.0000
# 3 22.2163 25.7707 104.8230 0.0000 0.0000 0.0000
# 4 0.0000 0.0000 0.0000 32.4443 0.0000 0.0000
# 5 0.0000 0.0000 0.0000 0.0000 24.4708 0.0000
# 6 0.0000 0.0000 0.0000 0.0000 0.0000 -1.4888
#
#
#
# Elastic Compliance Matrix: (Units=1/GPa)
#
#
# Indices 1 2 3 4 5 6 
#
# 1 0.017131 -0.003700 -0.002721 0.000000 0.000000 0.000000
# 2 -0.003700 0.011708 -0.002094 0.000000 0.000000 0.000000
# 3 -0.002721 -0.002094 0.010631 0.000000 0.000000 0.000000
# 4 0.000000 0.000000 0.000000 0.030822 0.000000 0.000000
# 5 0.000000 0.000000 0.000000 0.000000 0.040865 0.000000
# 6 0.000000 0.000000 0.000000 0.000000 0.000000 -0.671704
#
#
# Mechanical properties :
#
#
# Convention : Reuss Voigt Hill
#
# Bulk Modulus (GPa) = 44.56365 46.29790 45.43077
# Shear Modulus (GPa) = -9.32773 24.21465 7.44346
#
# Velocity S-wave (km/s) = -2.25077 3.62646 2.01063
# Velocity P-wave (km/s) = 4.17712 6.53298 5.48307
#
# Compressibility (1/GPa) = 0.02243982
#
# Stress axis : x y z
#
# Youngs Moduli (GPa) = 58.37433 85.41374 94.06039
#
# Poissons Ratio (x) = 0.31601 0.25595
# Poissons Ratio (y) = 0.21597 0.19698
# Poissons Ratio (z) = 0.15884 0.17887
#
# Static dielectric constant tensor:
#      x y z
#    x 3.031040 0.000000 0.000000 
#    y 0.000000 3.727240 0.000000 
#    z 0.000000 0.000000 3.532210 
# 
# 
# High freq. dielectric constant tensor:
#      x y z
#    x 1.666760 0.000000 0.000000 
#    y 0.000000 1.730160 0.000000 
#    z 0.000000 0.000000 1.728690 
# 
# From -- ./inp_files/6012.got.cif
#   From: 2010.03.12/outbox.cif.g09.slc.cpg/sg49_4_cif.got.tgz:6012.got - 2010.04.14 03:58:27.
