data_PCOD8204351
_publ_section_title
;
Structure prediction by ZEFSAII (Michael W. Deem and Ramdas Pophale) SiO2 
 PCOD8204351
Probable space group: P C C M
;
_chemical_formula_sum "Si O2"
_cell_formula_units_Z 34
_cell_length_a 9.551084
_cell_length_b 8.673078
_cell_length_c 19.267908
_cell_angle_alpha 90.000000
_cell_angle_beta 90.000000
_cell_angle_gamma 90.000000
_cell_volume 1596.101408
_symmetry_space_group_name_H-M "P C C M"
_symmetry_group_IT_number 49
_symmetry_cell_setting 'orthorhombic'
loop_
_space_group_symop_operation_xyz
x,y,z
-x,-y,z
x,-y,1/2-z
-x,y,1/2-z
-x,-y,-z
x,y,-z
-x,y,1/2+z
x,-y,1/2+z
loop_
_atom_site_type_symbol
_atom_site_label
_atom_site_fract_x
_atom_site_fract_y
_atom_site_fract_z
Si Si1 0.694964 0.845958 0.139645
Si Si2 0.192534 0.158872 0.417252
Si Si3 0.500000 0.000000 0.250000
Si Si4 0.540287 0.661940 0.579101
Si Si5 0.966130 0.322281 0.328371
O O1 0.588636 0.779978 0.082505
O O2 0.802209 0.710756 0.160546
O O3 0.780712 0.984965 0.106217
O O4 0.601689 0.891707 0.205544
O O5 0.175675 0.165904 0.500000
O O6 0.320773 0.262578 0.387928
O O7 0.051541 0.217718 0.382036
O O8 0.500000 0.500000 0.616644
O O9 0.577392 0.627289 0.500000
O O10 0.000000 0.500000 0.343223
O O11 0.000000 0.273797 0.250000
#
# Coordination Sequence:
#
# PCOD8204351 Si02
#       5
#     8   8   2   8   8
#     4  12  23  41  66  92 130 170 220 276 322 403
#     4  11  23  42  68 100 134 173 223 274 335 397
#     4  12  24  40  66 100 128 176 236 270 348 396
#     4  10  21  39  64  94 129 166 210 269 329 388
#     4  11  26  45  65  94 134 177 221 274 335 399
#
# _framework density 21.301904
#
# number of rings (size 3 to 8) (size 9 to 14) (size 15 to 20)
#    0.000    0.941    2.353    4.235    0.000    6.118 
#    0.000    0.000    0.000    0.000    0.000    0.000 
#    0.000    0.000    0.000    0.000    0.000    0.000 
#
# Total GULP energy -421685.109744 kJ/mol
# GULP energy per Si atom -12402.503228 kJ/mol
# Density = 2.125342 g / cm^3
# Si number density = 21.301904 Si / 1000 Ang^3
#
#
#
# Elastic Constant Matrix: (Units=GPa)
#
#
# Indices 1 2 3 4 5 6 
#
# 1 135.7127 46.1596 35.1216 0.0000 0.0000 0.0000
# 2 46.1596 116.9821 31.7262 0.0000 0.0000 0.0000
# 3 35.1216 31.7262 85.5001 0.0000 0.0000 0.0000
# 4 0.0000 0.0000 0.0000 14.8465 0.0000 0.0000
# 5 0.0000 0.0000 0.0000 0.0000 35.0132 0.0000
# 6 0.0000 0.0000 0.0000 0.0000 0.0000 50.8877
#
#
#
# Elastic Compliance Matrix: (Units=1/GPa)
#
#
# Indices 1 2 3 4 5 6 
#
# 1 0.009021 -0.002840 -0.002652 0.000000 0.000000 0.000000
# 2 -0.002840 0.010399 -0.002692 0.000000 0.000000 0.000000
# 3 -0.002652 -0.002692 0.013784 0.000000 0.000000 0.000000
# 4 0.000000 0.000000 0.000000 0.067356 0.000000 0.000000
# 5 0.000000 0.000000 0.000000 0.000000 0.028561 0.000000
# 6 0.000000 0.000000 0.000000 0.000000 0.000000 0.019651
#
#
# Mechanical properties :
#
#
# Convention : Reuss Voigt Hill
#
# Bulk Modulus (GPa) = 59.39631 62.68996 61.04314
# Shear Modulus (GPa) = 29.28225 35.16197 32.22211
#
# Velocity S-wave (km/s) = 3.71162 4.06723 3.89349
# Velocity P-wave (km/s) = 6.80528 7.17980 6.99505
#
# Compressibility (1/GPa) = 0.01683606
#
# Stress axis : x y z
#
# Youngs Moduli (GPa) = 110.85486 96.16143 72.54776
#
# Poissons Ratio (x) = 0.27313 0.19237
# Poissons Ratio (y) = 0.31487 0.19530
# Poissons Ratio (z) = 0.29394 0.25887
#
# Static dielectric constant tensor:
#      x y z
#    x 4.002190 0.000000 0.000000 
#    y 0.000000 4.163120 0.000000 
#    z 0.000000 0.000000 3.675930 
# 
# 
# High freq. dielectric constant tensor:
#      x y z
#    x 1.852200 0.000000 0.000000 
#    y 0.000000 1.846280 0.000000 
#    z 0.000000 0.000000 1.824040 
# 
# From -- ./inp_files/19421.got.cif
#   From: 2010.03.12/outbox.cif.g09.slc.cpg/sg49_10_cif.got.tgz:19421.got - 2010.04.14 03:58:27.
