data_PCOD8204700
_publ_section_title
;
Structure prediction by ZEFSAII (Michael W. Deem and Ramdas Pophale) SiO2 
 PCOD8204700
Probable space group: P C C M
;
_chemical_formula_sum "Si O2"
_cell_formula_units_Z 32
_cell_length_a 13.668985
_cell_length_b 11.220925
_cell_length_c 9.827044
_cell_angle_alpha 90.000000
_cell_angle_beta 90.000000
_cell_angle_gamma 90.000000
_cell_volume 1507.258796
_symmetry_space_group_name_H-M "P C C M"
_symmetry_group_IT_number 49
_symmetry_cell_setting 'orthorhombic'
loop_
_space_group_symop_operation_xyz
x,y,z
-x,-y,z
x,-y,1/2-z
-x,y,1/2-z
-x,-y,-z
x,y,-z
-x,y,1/2+z
x,-y,1/2+z
loop_
_atom_site_type_symbol
_atom_site_label
_atom_site_fract_x
_atom_site_fract_y
_atom_site_fract_z
Si Si1 0.216998 0.639986 0.268118
Si Si2 0.674370 0.000000 0.750000
Si Si3 0.182407 0.010583 0.000000
Si Si4 0.086949 0.264168 0.000000
Si Si5 0.586578 0.762294 0.840058
Si Si6 0.136059 0.749395 0.000000
O O1 0.217061 0.500000 0.250000
O O2 0.129291 0.675608 0.366220
O O3 0.319293 0.677852 0.334433
O O4 0.199856 0.707554 0.127327
O O5 0.745599 0.989113 0.875285
O O6 0.605476 0.114966 0.741637
O O7 0.118979 0.891187 0.000000
O O8 0.109247 0.122760 0.000000
O O9 0.973334 0.300463 0.000000
O O10 0.500000 0.701858 0.750000
O O11 0.558480 0.780907 0.000000
#
# Coordination Sequence:
#
# PCOD8204700 Si02
#       6
#     8   4   4   4   8   4
#     4  12  26  47  69  98 143 187 231 284 336 406
#     4  12  21  42  71  96 142 182 219 284 351 412
#     4  12  21  42  71 102 138 180 223 284 357 404
#     4  12  24  48  67 103 145 179 229 293 345 398
#     4  12  27  46  71 103 139 179 228 288 350 412
#     4  12  26  40  77 105 131 187 237 277 347 416
#
# _framework density 21.230594
#
# number of rings (size 3 to 8) (size 9 to 14) (size 15 to 20)
#    0.000    0.000    7.500    2.250    3.500    4.500 
#    0.000    5.000    0.000    0.000    0.000    0.000 
#    0.000    0.000    0.000    0.000    0.000    0.000 
#
# Total GULP energy -396842.727800 kJ/mol
# GULP energy per Si atom -12401.335244 kJ/mol
# Density = 2.118227 g / cm^3
# Si number density = 21.230594 Si / 1000 Ang^3
#
#
#
# Elastic Constant Matrix: (Units=GPa)
#
#
# Indices 1 2 3 4 5 6 
#
# 1 94.4775 -0.6971 14.3452 0.0000 0.0000 0.0000
# 2 -0.6971 129.6325 1.5687 0.0000 0.0000 0.0000
# 3 14.3452 1.5687 114.2161 0.0000 0.0000 0.0000
# 4 0.0000 0.0000 0.0000 31.1412 0.0000 0.0000
# 5 0.0000 0.0000 0.0000 0.0000 36.5319 0.0000
# 6 0.0000 0.0000 0.0000 0.0000 0.0000 9.8816
#
#
#
# Elastic Compliance Matrix: (Units=1/GPa)
#
#
# Indices 1 2 3 4 5 6 
#
# 1 0.010791 0.000074 -0.001356 0.000000 0.000000 0.000000
# 2 0.000074 0.007716 -0.000115 0.000000 0.000000 0.000000
# 3 -0.001356 -0.000115 0.008927 0.000000 0.000000 0.000000
# 4 0.000000 0.000000 0.000000 0.032112 0.000000 0.000000
# 5 0.000000 0.000000 0.000000 0.000000 0.027373 0.000000
# 6 0.000000 0.000000 0.000000 0.000000 0.000000 0.101198
#
#
# Mechanical properties :
#
#
# Convention : Reuss Voigt Hill
#
# Bulk Modulus (GPa) = 40.58481 40.97329 40.77905
# Shear Modulus (GPa) = 25.10988 37.05158 31.08073
#
# Velocity S-wave (km/s) = 3.44280 4.18209 3.83032
# Velocity P-wave (km/s) = 5.91283 6.53153 6.22986
#
# Compressibility (1/GPa) = 0.02463976
#
# Stress axis : x y z
#
# Youngs Moduli (GPa) = 92.66965 129.60234 112.01632
#
# Poissons Ratio (x) = -0.00965 0.15193
# Poissons Ratio (y) = -0.00690 0.01292
# Poissons Ratio (z) = 0.12569 0.01495
#
# Static dielectric constant tensor:
#      x y z
#    x 3.871540 0.000000 0.000000 
#    y 0.000000 4.004210 0.000000 
#    z 0.000000 0.000000 3.975840 
# 
# 
# High freq. dielectric constant tensor:
#      x y z
#    x 1.840560 0.000000 0.000000 
#    y 0.000000 1.830720 0.000000 
#    z 0.000000 0.000000 1.852910 
# 
# From -- ./inp_files/2586.got.cif
#   From: 2010.03.12/outbox.cif.g09.slc.cpg/sg49_2_cif.got.tgz:2586.got - 2010.04.14 03:58:27.
