data_PCOD8204558
_publ_section_title
;
Structure prediction by ZEFSAII (Michael W. Deem and Ramdas Pophale) SiO2 
 PCOD8204558
Probable space group: P C C M
;
_chemical_formula_sum "Si O2"
_cell_formula_units_Z 56
_cell_length_a 12.003094
_cell_length_b 12.136895
_cell_length_c 19.662885
_cell_angle_alpha 90.000000
_cell_angle_beta 90.000000
_cell_angle_gamma 90.000000
_cell_volume 2864.494820
_symmetry_space_group_name_H-M "P C C M"
_symmetry_group_IT_number 49
_symmetry_cell_setting 'orthorhombic'
loop_
_space_group_symop_operation_xyz
x,y,z
-x,-y,z
x,-y,1/2-z
-x,y,1/2-z
-x,-y,-z
x,y,-z
-x,y,1/2+z
x,-y,1/2+z
loop_
_atom_site_type_symbol
_atom_site_label
_atom_site_fract_x
_atom_site_fract_y
_atom_site_fract_z
Si Si1 0.368628 0.377621 0.248671
Si Si2 0.386128 0.193418 0.924797
Si Si3 0.367883 0.235748 0.377895
Si Si4 0.631726 0.000940 0.826811
Si Si5 0.237858 0.632927 0.381170
Si Si6 0.998818 0.370053 0.673504
Si Si7 0.804766 0.387500 0.075232
O O1 0.315808 0.500000 0.250000
O O2 0.500000 0.382524 0.250000
O O3 0.331766 0.303412 0.310964
O O4 0.317538 0.327740 0.180822
O O5 0.502058 0.243412 0.896114
O O6 0.293809 0.289325 0.937905
O O7 0.334147 0.102660 0.873385
O O8 0.409224 0.141874 0.000000
O O9 0.329416 0.110273 0.366508
O O10 0.293467 0.297265 0.434317
O O11 0.500000 0.000000 0.819407
O O12 0.683214 0.000000 0.750000
O O13 0.111668 0.668927 0.365691
O O14 0.246202 0.504216 0.399909
O O15 0.000000 0.500000 0.680662
O O16 0.000000 0.318358 0.750000
O O17 0.104411 0.337197 0.627425
O O18 0.857918 0.405235 0.000000
#
# Coordination Sequence:
#
# PCOD8204558 Si02
#       7
#     8   8   8   8   8   8   8
#     4  11  20  32  54  84 118 151 188 234 293 340
#     4  11  23  37  55  83 119 157 192 238 297 355
#     4  11  21  36  56  82 116 152 194 237 291 356
#     4   9  20  36  57  81 109 148 199 245 284 340
#     4  11  21  36  56  82 116 152 194 237 291 356
#     4   9  20  36  57  81 109 148 199 245 284 340
#     4  11  23  37  55  83 119 157 192 238 297 355
#
# _framework density 19.549693999999999
#
# number of rings (size 3 to 8) (size 9 to 14) (size 15 to 20)
#    0.000    1.571    2.857    2.571    4.000    6.857 
#    0.000    1.429    0.000    0.857    0.000    4.000 
#    0.000    0.000    0.000    0.000    0.000    0.000 
#
# Total GULP energy -693921.350496 kJ/mol
# GULP energy per Si atom -12391.452687 kJ/mol
# Density = 1.950520 g / cm^3
# Si number density = 19.549694 Si / 1000 Ang^3
#
#
#
# Elastic Constant Matrix: (Units=GPa)
#
#
# Indices 1 2 3 4 5 6 
#
# 1 92.6861 47.1374 35.0328 0.0000 0.0000 0.0000
# 2 47.1374 103.7210 33.5921 0.0000 0.0000 0.0000
# 3 35.0328 33.5921 127.7968 0.0000 0.0000 0.0000
# 4 0.0000 0.0000 0.0000 17.1799 0.0000 0.0000
# 5 0.0000 0.0000 0.0000 0.0000 18.4416 0.0000
# 6 0.0000 0.0000 0.0000 0.0000 0.0000 13.2870
#
#
#
# Elastic Compliance Matrix: (Units=1/GPa)
#
#
# Indices 1 2 3 4 5 6 
#
# 1 0.014723 -0.005885 -0.002489 0.000000 0.000000 0.000000
# 2 -0.005885 0.012891 -0.001775 0.000000 0.000000 0.000000
# 3 -0.002489 -0.001775 0.008974 0.000000 0.000000 0.000000
# 4 0.000000 0.000000 0.000000 0.058208 0.000000 0.000000
# 5 0.000000 0.000000 0.000000 0.000000 0.054225 0.000000
# 6 0.000000 0.000000 0.000000 0.000000 0.000000 0.075262
#
#
# Mechanical properties :
#
#
# Convention : Reuss Voigt Hill
#
# Bulk Modulus (GPa) = 61.39074 61.74760 61.56917
# Shear Modulus (GPa) = 19.99923 23.67780 21.83851
#
# Velocity S-wave (km/s) = 3.20190 3.48395 3.34590
# Velocity P-wave (km/s) = 6.71864 6.91646 6.81827
#
# Compressibility (1/GPa) = 0.01628910
#
# Stress axis : x y z
#
# Youngs Moduli (GPa) = 67.92214 77.57593 111.43478
#
# Poissons Ratio (x) = 0.45652 0.27737
# Poissons Ratio (y) = 0.39971 0.19782
# Poissons Ratio (z) = 0.16906 0.13771
#
# Static dielectric constant tensor:
#      x y z
#    x 3.451590 0.000000 0.000000 
#    y 0.000000 3.530800 0.000000 
#    z 0.000000 0.000000 3.824190 
# 
# 
# High freq. dielectric constant tensor:
#      x y z
#    x 1.734050 0.000000 0.000000 
#    y 0.000000 1.737450 0.000000 
#    z 0.000000 0.000000 1.778490 
# 
# From -- ./inp_files/20521.got.cif
#   From: 2010.03.12/outbox.cif.g09.slc.cpg/sg49_11_cif.got.tgz:20521.got - 2010.04.14 03:58:27.
