data_PCOD8204757
_publ_section_title
;
Structure prediction by ZEFSAII (Michael W. Deem and Ramdas Pophale) SiO2 
 PCOD8204757
Probable space group: P B A N
;
_chemical_formula_sum "Si O2"
_cell_formula_units_Z 48
_cell_length_a 15.086948
_cell_length_b 16.674461
_cell_length_c 8.675810
_cell_angle_alpha 90.000000
_cell_angle_beta 90.000000
_cell_angle_gamma 90.000000
_cell_volume 2182.545117
_symmetry_space_group_name_H-M "P B A N"
_symmetry_group_IT_number 50
_space_group.IT_coordinate_system_code '2'
_symmetry_cell_setting 'orthorhombic'
loop_
_space_group_symop_operation_xyz
x,y,z
1/2-x,1/2-y,z
x,1/2-y,-z
1/2-x,y,-z
-x,-y,-z
1/2+x,1/2+y,-z
-x,1/2+y,z
1/2+x,-y,z
loop_
_atom_site_type_symbol
_atom_site_label
_atom_site_fract_x
_atom_site_fract_y
_atom_site_fract_z
Si Si1 0.750000 0.576512 0.500000
Si Si2 0.625420 0.512638 0.245443
Si Si3 0.250000 0.072033 0.000000
Si Si4 0.628579 0.605788 0.755646
Si Si5 0.937417 0.423622 0.197370
Si Si6 0.554332 0.355853 0.149467
Si Si7 0.852603 0.272665 0.330612
O O1 0.697830 0.523250 0.377431
O O2 0.671966 0.625569 0.588303
O O3 0.674065 0.518107 0.080200
O O4 0.540376 0.572632 0.253527
O O5 0.592302 0.422219 0.266103
O O6 0.294562 0.129803 0.874920
O O7 0.605210 0.511468 0.783013
O O8 0.545951 0.661517 0.794985
O O9 0.876763 0.365792 0.302876
O O10 0.938381 0.389433 0.023294
O O11 0.603962 0.273380 0.184669
O O12 0.750000 0.250000 0.324115
O O13 0.890495 0.250000 0.500000
#
# Coordination Sequence:
#
# PCOD8204757 Si02
#       7
#     4   8   4   8   8   8   8
#     4  10  24  32  60 100 124 162 192 262 310 360
#     4  10  21  36  64  95 126 156 205 255 307 361
#     4  10  16  36  60  96 124 146 196 270 294 364
#     4  10  21  36  64  95 126 156 205 255 307 361
#     4  11  22  41  63  91 122 167 206 253 309 355
#     4  11  22  41  63  91 122 167 206 253 309 355
#     4  11  29  43  61  88 129 168 201 246 307 375
#
# _framework density 21.992673
#
# number of rings (size 3 to 8) (size 9 to 14) (size 15 to 20)
#    0.000    1.500    3.333    1.500    9.333    2.667 
#    0.000    0.000    0.000    6.000    0.000    0.000 
#    0.000    0.000    0.000    0.000    0.000    0.000 
#
# Total GULP energy -594684.146724 kJ/mol
# GULP energy per Si atom -12389.253057 kJ/mol
# Density = 2.194262 g / cm^3
# Si number density = 21.992673 Si / 1000 Ang^3
#
#
#
# Elastic Constant Matrix: (Units=GPa)
#
#
# Indices 1 2 3 4 5 6 
#
# 1 122.3159 19.1147 35.1614 0.0000 0.0000 0.0000
# 2 19.1147 53.3914 6.1615 0.0000 0.0000 0.0000
# 3 35.1614 6.1615 104.1791 0.0000 0.0000 0.0000
# 4 0.0000 0.0000 0.0000 18.3070 0.0000 0.0000
# 5 0.0000 0.0000 0.0000 0.0000 37.1155 0.0000
# 6 0.0000 0.0000 0.0000 0.0000 0.0000 13.8579
#
#
#
# Elastic Compliance Matrix: (Units=1/GPa)
#
#
# Indices 1 2 3 4 5 6 
#
# 1 0.009526 -0.003060 -0.003034 0.000000 0.000000 0.000000
# 2 -0.003060 0.019841 -0.000141 0.000000 0.000000 0.000000
# 3 -0.003034 -0.000141 0.010631 0.000000 0.000000 0.000000
# 4 0.000000 0.000000 0.000000 0.054624 0.000000 0.000000
# 5 0.000000 0.000000 0.000000 0.000000 0.026943 0.000000
# 6 0.000000 0.000000 0.000000 0.000000 0.000000 0.072161
#
#
# Mechanical properties :
#
#
# Convention : Reuss Voigt Hill
#
# Bulk Modulus (GPa) = 36.32582 44.52909 40.42746
# Shear Modulus (GPa) = 23.21558 28.48601 25.85080
#
# Velocity S-wave (km/s) = 3.25253 3.60286 3.43217
# Velocity P-wave (km/s) = 5.53700 6.13178 5.84196
#
# Compressibility (1/GPa) = 0.02752863
#
# Stress axis : x y z
#
# Youngs Moduli (GPa) = 104.97602 50.39959 94.06268
#
# Poissons Ratio (x) = 0.15424 0.28540
# Poissons Ratio (y) = 0.32125 0.01323
# Poissons Ratio (z) = 0.31851 0.00709
#
# Static dielectric constant tensor:
#      x y z
#    x 4.363230 0.000000 0.000000 
#    y 0.000000 3.480100 0.000000 
#    z 0.000000 0.000000 4.223050 
# 
# 
# High freq. dielectric constant tensor:
#      x y z
#    x 1.888830 0.000000 0.000000 
#    y 0.000000 1.812240 0.000000 
#    z 0.000000 0.000000 1.876620 
# 
# From -- ./inp_files/12996.got.cif
#   From: 2010.03.12/outbox.cif.g09.slc.cpg/sg50_7_cif.got.tgz:12996.got - 2010.04.16 13:23:21.
