data_PCOD8204321
_publ_section_title
;
Structure prediction by ZEFSAII (Michael W. Deem and Ramdas Pophale) SiO2 
 PCOD8204321
Probable space group: P C C M
;
_chemical_formula_sum "Si O2"
_cell_formula_units_Z 64
_cell_length_a 11.864404
_cell_length_b 18.371624
_cell_length_c 14.691987
_cell_angle_alpha 90.000000
_cell_angle_beta 90.000000
_cell_angle_gamma 90.000000
_cell_volume 3202.388448
_symmetry_space_group_name_H-M "P C C M"
_symmetry_group_IT_number 49
_symmetry_cell_setting 'orthorhombic'
loop_
_space_group_symop_operation_xyz
x,y,z
-x,-y,z
x,-y,1/2-z
-x,y,1/2-z
-x,-y,-z
x,y,-z
-x,y,1/2+z
x,-y,1/2+z
loop_
_atom_site_type_symbol
_atom_site_label
_atom_site_fract_x
_atom_site_fract_y
_atom_site_fract_z
Si Si1 0.673519 0.307493 0.105591
Si Si2 0.175296 0.824617 0.099430
Si Si3 0.466263 0.219721 0.105619
Si Si4 0.634763 0.584437 0.248175
Si Si5 0.802050 0.077749 0.268964
Si Si6 0.058977 0.791316 0.657970
Si Si7 0.742452 0.310854 0.394537
Si Si8 0.588485 0.937516 0.893781
O O1 0.778237 0.254967 0.125272
O O2 0.564885 0.267090 0.150995
O O3 0.688992 0.381909 0.160589
O O4 0.660796 0.328078 0.000000
O O5 0.219629 0.883813 0.171397
O O6 0.040732 0.814174 0.089949
O O7 0.221951 0.848805 0.000000
O O8 0.342408 0.246335 0.133536
O O9 0.477793 0.135953 0.132412
O O10 0.487028 0.230904 0.000000
O O11 0.664201 0.500000 0.250000
O O12 0.500000 0.597157 0.250000
O O13 0.702432 0.618898 0.162493
O O14 0.873752 0.133269 0.329516
O O15 0.692085 0.054661 0.325470
O O16 0.864465 0.000000 0.250000
O O17 0.134055 0.723226 0.624142
O O18 0.000000 0.764852 0.750000
O O19 0.734092 0.333348 0.500000
O O20 0.500000 0.000000 0.873760
O O21 0.628458 0.936445 0.000000
#
# Coordination Sequence:
#
# PCOD8204321 Si02
#       8
#     8   8   8   8   8   8   8   8
#     4  10  21  39  61  87 123 162 201 253 307 364
#     4  10  23  41  64  90 117 159 211 259 307 363
#     4   9  18  34  59  87 114 155 205 251 304 363
#     4  11  23  37  58  93 131 166 201 240 299 372
#     4  11  24  39  56  85 119 158 201 253 314 366
#     4  10  21  40  65  90 119 156 210 264 309 364
#     4  11  21  39  65  93 122 158 205 258 311 366
#     4  10  22  39  58  86 123 160 202 252 310 371
#
# _framework density 19.985082999999999
#
# number of rings (size 3 to 8) (size 9 to 14) (size 15 to 20)
#    0.000    1.750    2.500    1.875    1.750    4.000 
#    0.000    1.875    0.000    3.750    0.000    5.250 
#    0.000    0.000    0.000    0.000    0.000    0.000 
#
# Total GULP energy -793174.326951 kJ/mol
# GULP energy per Si atom -12393.348859 kJ/mol
# Density = 1.993960 g / cm^3
# Si number density = 19.985083 Si / 1000 Ang^3
#
#
#
# Elastic Constant Matrix: (Units=GPa)
#
#
# Indices 1 2 3 4 5 6 
#
# 1 97.2562 47.1790 45.7137 0.0000 0.0000 0.0000
# 2 47.1790 157.6651 67.8545 0.0000 0.0000 0.0000
# 3 45.7137 67.8545 108.5551 0.0000 0.0000 0.0000
# 4 0.0000 0.0000 0.0000 27.2829 0.0000 0.0000
# 5 0.0000 0.0000 0.0000 0.0000 28.4448 0.0000
# 6 0.0000 0.0000 0.0000 0.0000 0.0000 21.7730
#
#
#
# Elastic Compliance Matrix: (Units=1/GPa)
#
#
# Indices 1 2 3 4 5 6 
#
# 1 0.013333 -0.002152 -0.004269 0.000000 0.000000 0.000000
# 2 -0.002152 0.009024 -0.004734 0.000000 0.000000 0.000000
# 3 -0.004269 -0.004734 0.013969 0.000000 0.000000 0.000000
# 4 0.000000 0.000000 0.000000 0.036653 0.000000 0.000000
# 5 0.000000 0.000000 0.000000 0.000000 0.035156 0.000000
# 6 0.000000 0.000000 0.000000 0.000000 0.000000 0.045929
#
#
# Mechanical properties :
#
#
# Convention : Reuss Voigt Hill
#
# Bulk Modulus (GPa) = 71.35616 76.10788 73.73202
# Shear Modulus (GPa) = 27.61718 29.01541 28.31629
#
# Velocity S-wave (km/s) = 3.72141 3.81445 3.76822
# Velocity P-wave (km/s) = 7.36528 7.58717 7.47705
#
# Compressibility (1/GPa) = 0.01401421
#
# Stress axis : x y z
#
# Youngs Moduli (GPa) = 75.00230 110.81386 71.58674
#
# Poissons Ratio (x) = 0.23851 0.30562
# Poissons Ratio (y) = 0.16143 0.33892
# Poissons Ratio (z) = 0.32021 0.52463
#
# Static dielectric constant tensor:
#      x y z
#    x 3.727490 0.000000 0.000000 
#    y 0.000000 3.520130 0.000000 
#    z 0.000000 0.000000 3.688570 
# 
# 
# High freq. dielectric constant tensor:
#      x y z
#    x 1.773460 0.000000 0.000000 
#    y 0.000000 1.763830 0.000000 
#    z 0.000000 0.000000 1.790310 
# 
# From -- ./inp_files/13094.got.cif
#   From: 2010.03.12/outbox.cif.g09.slc.cpg/sg49_7_cif.got.tgz:13094.got - 2010.04.14 03:58:27.
