data_PCOD8204986
_publ_section_title
;
Structure prediction by ZEFSAII (Michael W. Deem and Ramdas Pophale) SiO2 
 PCOD8204986
Probable space group: P B A N
;
_chemical_formula_sum "Si O2"
_cell_formula_units_Z 48
_cell_length_a 14.965296
_cell_length_b 17.248138
_cell_length_c 8.955187
_cell_angle_alpha 90.000000
_cell_angle_beta 90.000000
_cell_angle_gamma 90.000000
_cell_volume 2311.544128
_symmetry_space_group_name_H-M "P B A N"
_symmetry_group_IT_number 50
_space_group.IT_coordinate_system_code '2'
_symmetry_cell_setting 'orthorhombic'
loop_
_space_group_symop_operation_xyz
x,y,z
1/2-x,1/2-y,z
x,1/2-y,-z
1/2-x,y,-z
-x,-y,-z
1/2+x,1/2+y,-z
-x,1/2+y,z
1/2+x,-y,z
loop_
_atom_site_type_symbol
_atom_site_label
_atom_site_fract_x
_atom_site_fract_y
_atom_site_fract_z
Si Si1 0.801496 0.111740 0.857098
Si Si2 0.007014 0.873816 0.641904
Si Si3 0.444437 0.004969 0.849344
Si Si4 0.036265 0.774584 0.171164
Si Si5 0.563503 0.603269 0.327025
Si Si6 0.181099 0.967743 0.630794
O O1 0.873475 0.175301 0.805458
O O2 0.724474 0.094879 0.739532
O O3 0.846600 0.027483 0.889404
O O4 0.750000 0.144874 0.000000
O O5 0.044669 0.794040 0.708859
O O6 0.088482 0.927448 0.583761
O O7 0.947854 0.909091 0.779264
O O8 0.944448 0.864513 0.496711
O O9 0.481856 0.952933 0.714744
O O10 0.500000 0.000000 0.000000
O O11 0.946878 0.824004 0.213442
O O12 0.026611 0.750000 0.000000
O O13 0.655257 0.553650 0.304188
O O14 0.250000 0.983616 0.500000
#
# Coordination Sequence:
#
# PCOD8204986 Si02
#       6
#     8   8   8   8   8   8
#     4  11  22  36  57  88 122 152 188 238 296 348
#     4  11  21  37  60  84 118 159 197 240 287 348
#     4  10  19  36  58  83 114 156 202 236 278 346
#     4  11  23  39  59  87 121 159 198 239 291 356
#     4  10  21  38  57  83 113 155 205 236 280 348
#     4  11  21  36  59  87 118 149 190 245 294 342
#
# _framework density 20.765339000000001
#
# number of rings (size 3 to 8) (size 9 to 14) (size 15 to 20)
#    0.000    1.333    0.000   10.500    0.000    2.333 
#    0.000    0.833    0.000    7.000    0.000   10.500 
#    0.000    0.000    0.000    0.000    0.000    0.000 
#
# Total GULP energy -594663.314772 kJ/mol
# GULP energy per Si atom -12388.819058 kJ/mol
# Density = 2.071808 g / cm^3
# Si number density = 20.765339 Si / 1000 Ang^3
#
#
#
# Elastic Constant Matrix: (Units=GPa)
#
#
# Indices 1 2 3 4 5 6 
#
# 1 33.8974 46.6319 16.3393 0.0000 0.0000 0.0000
# 2 46.6319 105.8684 43.4441 0.0000 0.0000 0.0000
# 3 16.3393 43.4441 122.1918 0.0000 0.0000 0.0000
# 4 0.0000 0.0000 0.0000 45.1026 0.0000 0.0000
# 5 0.0000 0.0000 0.0000 0.0000 30.3114 0.0000
# 6 0.0000 0.0000 0.0000 0.0000 0.0000 46.1987
#
#
#
# Elastic Compliance Matrix: (Units=1/GPa)
#
#
# Indices 1 2 3 4 5 6 
#
# 1 0.075287 -0.033989 0.002017 0.000000 0.000000 0.000000
# 2 -0.033989 0.026404 -0.004843 0.000000 0.000000 0.000000
# 3 0.002017 -0.004843 0.009636 0.000000 0.000000 0.000000
# 4 0.000000 0.000000 0.000000 0.022172 0.000000 0.000000
# 5 0.000000 0.000000 0.000000 0.000000 0.032991 0.000000
# 6 0.000000 0.000000 0.000000 0.000000 0.000000 0.021646
#
#
# Mechanical properties :
#
#
# Convention : Reuss Voigt Hill
#
# Bulk Modulus (GPa) = 26.52705 52.75423 39.64064
# Shear Modulus (GPa) = 18.22618 34.69202 26.45910
#
# Velocity S-wave (km/s) = 2.96585 4.09182 3.57346
# Velocity P-wave (km/s) = 4.95285 6.91260 6.01310
#
# Compressibility (1/GPa) = 0.03769737
#
# Stress axis : x y z
#
# Youngs Moduli (GPa) = 13.28253 37.87262 103.77861
#
# Poissons Ratio (x) = 1.28727 -0.20936
# Poissons Ratio (y) = 0.45147 0.50258
# Poissons Ratio (z) = -0.02680 0.18341
#
# Static dielectric constant tensor:
#      x y z
#    x 3.782450 0.000000 0.000000 
#    y 0.000000 4.103290 0.000000 
#    z 0.000000 0.000000 3.639310 
# 
# 
# High freq. dielectric constant tensor:
#      x y z
#    x 1.783530 0.000000 0.000000 
#    y 0.000000 1.809650 0.000000 
#    z 0.000000 0.000000 1.823040 
# 
# From -- ./inp_files/12974.got.cif
#   From: 2010.03.12/outbox.cif.g09.slc.cpg/sg50_7_cif.got.tgz:12974.got - 2010.04.16 13:23:21.
