data_PCOD8204885
_publ_section_title
;
Structure prediction by ZEFSAII (Michael W. Deem and Ramdas Pophale) SiO2 
 PCOD8204885
Probable space group: P B A N
;
_chemical_formula_sum "Si O2"
_cell_formula_units_Z 64
_cell_length_a 32.544481
_cell_length_b 9.723889
_cell_length_c 11.416288
_cell_angle_alpha 90.000000
_cell_angle_beta 90.000000
_cell_angle_gamma 90.000000
_cell_volume 3612.786180
_symmetry_space_group_name_H-M "P B A N"
_symmetry_group_IT_number 50
_space_group.IT_coordinate_system_code '2'
_symmetry_cell_setting 'orthorhombic'
loop_
_space_group_symop_operation_xyz
x,y,z
1/2-x,1/2-y,z
x,1/2-y,-z
1/2-x,y,-z
-x,-y,-z
1/2+x,1/2+y,-z
-x,1/2+y,z
1/2+x,-y,z
loop_
_atom_site_type_symbol
_atom_site_label
_atom_site_fract_x
_atom_site_fract_y
_atom_site_fract_z
Si Si1 0.675839 0.092379 0.785083
Si Si2 0.298860 0.414195 0.000000
Si Si3 0.029635 0.750000 0.636861
Si Si4 0.096521 0.965357 0.361784
Si Si5 0.250000 0.912286 0.372294
Si Si6 0.939092 0.750000 0.637793
Si Si7 0.324161 0.592379 0.214917
Si Si8 0.403479 0.965357 0.361784
O O1 0.709772 0.038074 0.694862
O O2 0.684371 0.250000 0.827238
O O3 0.632777 0.090872 0.718267
O O4 0.678313 0.985277 0.891068
O O5 0.321687 0.485277 0.108932
O O6 0.306665 0.250000 0.000000
O O7 0.250000 0.446911 0.000000
O O8 0.022136 0.750000 0.500000
O O9 0.055181 0.615489 0.672411
O O10 0.055181 0.884511 0.672411
O O11 0.984540 0.750000 0.697719
O O12 0.132777 0.909128 0.281732
O O13 0.107282 0.946465 0.500000
O O14 0.087983 0.120801 0.324290
O O15 0.250000 0.750000 0.385289
O O16 0.250000 0.982581 0.500000
O O17 0.209772 0.961926 0.305138
O O18 0.945748 0.750000 0.500000
O O19 0.912017 0.620801 0.675710
#
# Coordination Sequence:
#
# PCOD8204885 Si02
#       8
#     8   8   8   8   8   8   8   8
#     4  11  21  36  58  82 109 144 186 229 270 317
#     4  11  25  43  61  79 104 141 186 240 280 322
#     4   9  16  30  50  76 113 152 188 222 267 323
#     4  10  19  31  51  83 119 149 182 226 272 327
#     4   9  18  31  53  82 112 143 174 211 266 325
#     4   9  18  30  48  76 115 158 186 216 269 333
#     4  11  21  36  58  82 109 144 186 229 270 317
#     4  10  19  31  51  83 119 149 182 226 272 327
#
# _framework density 17.714860000000002
#
# number of rings (size 3 to 8) (size 9 to 14) (size 15 to 20)
#    0.000    2.000    2.500    1.875    1.750    4.500 
#    0.000    0.000    0.000    0.750    0.000    5.250 
#    0.000    0.000    0.000    0.000    0.000    0.000 
#
# Total GULP energy -793329.809153 kJ/mol
# GULP energy per Si atom -12395.778268 kJ/mol
# Density = 1.767454 g / cm^3
# Si number density = 17.714860 Si / 1000 Ang^3
#
#
#
# Elastic Constant Matrix: (Units=GPa)
#
#
# Indices 1 2 3 4 5 6 
#
# 1 80.8133 16.4120 30.5907 0.0000 0.0000 0.0000
# 2 16.4120 109.0347 31.6927 0.0000 0.0000 0.0000
# 3 30.5907 31.6927 87.5259 0.0000 0.0000 0.0000
# 4 0.0000 0.0000 0.0000 20.5523 0.0000 0.0000
# 5 0.0000 0.0000 0.0000 0.0000 27.1204 0.0000
# 6 0.0000 0.0000 0.0000 0.0000 0.0000 -4.4657
#
#
#
# Elastic Compliance Matrix: (Units=1/GPa)
#
#
# Indices 1 2 3 4 5 6 
#
# 1 0.014321 -0.000783 -0.004722 0.000000 0.000000 0.000000
# 2 -0.000783 0.010293 -0.003453 0.000000 0.000000 0.000000
# 3 -0.004722 -0.003453 0.014326 0.000000 0.000000 0.000000
# 4 0.000000 0.000000 0.000000 0.048656 0.000000 0.000000
# 5 0.000000 0.000000 0.000000 0.000000 0.036873 0.000000
# 6 0.000000 0.000000 0.000000 0.000000 0.000000 -0.223929
#
#
# Mechanical properties :
#
#
# Convention : Reuss Voigt Hill
#
# Bulk Modulus (GPa) = 47.56613 48.30718 47.93665
# Shear Modulus (GPa) = -67.08107 21.88663 -22.59722
#
# Velocity S-wave (km/s) = -6.16030 3.51878 -3.57544
# Velocity P-wave (km/s) = 4.86722 6.62099 3.17393
#
# Compressibility (1/GPa) = 0.02102336
#
# Stress axis : x y z
#
# Youngs Moduli (GPa) = 69.82991 97.15303 69.80406
#
# Poissons Ratio (x) = 0.07609 0.32958
# Poissons Ratio (y) = 0.05469 0.24106
# Poissons Ratio (z) = 0.32970 0.33550
#
# Static dielectric constant tensor:
#      x y z
#    x 3.373110 0.000000 0.000000 
#    y 0.000000 3.835280 0.000000 
#    z 0.000000 0.000000 3.053350 
# 
# 
# High freq. dielectric constant tensor:
#      x y z
#    x 1.693590 0.000000 0.000000 
#    y 0.000000 1.688350 0.000000 
#    z 0.000000 0.000000 1.643550 
# 
# From -- ./inp_files/23409.got.cif
#   From: 2010.03.12/outbox.cif.g09.slc.cpg/sg50_12_cif.got.tgz:23409.got - 2010.04.16 13:23:21.
