data_PCOD8204095
_publ_section_title
;
Structure prediction by ZEFSAII (Michael W. Deem and Ramdas Pophale) SiO2 
 PCOD8204095
Probable space group: P C C M
;
_chemical_formula_sum "Si O2"
_cell_formula_units_Z 40
_cell_length_a 11.541766
_cell_length_b 8.230800
_cell_length_c 17.809055
_cell_angle_alpha 90.000000
_cell_angle_beta 90.000000
_cell_angle_gamma 90.000000
_cell_volume 1691.824030
_symmetry_space_group_name_H-M "P C C M"
_symmetry_group_IT_number 49
_symmetry_cell_setting 'orthorhombic'
loop_
_space_group_symop_operation_xyz
x,y,z
-x,-y,z
x,-y,1/2-z
-x,y,1/2-z
-x,-y,-z
x,y,-z
-x,y,1/2+z
x,-y,1/2+z
loop_
_atom_site_type_symbol
_atom_site_label
_atom_site_fract_x
_atom_site_fract_y
_atom_site_fract_z
Si Si1 0.117699 0.680773 0.718529
Si Si2 0.749424 0.153823 0.087050
Si Si3 0.998906 0.192628 0.085814
Si Si4 0.330302 0.119275 0.188637
Si Si5 0.491689 0.310327 0.585980
O O1 0.126962 0.500000 0.750000
O O2 0.238903 0.770654 0.736091
O O3 0.000000 0.767766 0.750000
O O4 0.094419 0.697721 0.629015
O O5 0.867562 0.248249 0.110633
O O6 0.639701 0.265371 0.105140
O O7 0.741319 0.980657 0.127445
O O8 0.758412 0.108504 0.000000
O O9 0.024644 0.233129 0.000000
O O10 0.000000 0.000000 0.101474
O O11 0.427856 0.221658 0.146204
O O12 0.389331 0.000000 0.250000
O O13 0.500000 0.500000 0.598470
O O14 0.524208 0.260856 0.500000
#
# Coordination Sequence:
#
# PCOD8204095 Si02
#       5
#     8   8   8   8   8
#     4  11  26  45  65  98 145 187 223 276 358 425
#     4  10  21  41  71 104 134 171 228 292 347 407
#     4  10  20  39  74 109 133 173 239 298 339 404
#     4  12  25  41  67  98 134 180 232 282 340 413
#     4  10  24  46  71  99 136 180 227 289 359 418
#
# _framework density 23.643122000000002
#
# number of rings (size 3 to 8) (size 9 to 14) (size 15 to 20)
#    0.000    1.400    2.000    2.400    0.000    8.800 
#    0.000    3.000    0.000    2.400    0.000    0.000 
#    0.000    0.000    0.000    0.000    0.000    0.000 
#
# Total GULP energy -495851.046547 kJ/mol
# GULP energy per Si atom -12396.276164 kJ/mol
# Density = 2.358931 g / cm^3
# Si number density = 23.643122 Si / 1000 Ang^3
#
#
#
# Elastic Constant Matrix: (Units=GPa)
#
#
# Indices 1 2 3 4 5 6 
#
# 1 123.3643 59.6042 51.0747 0.0000 0.0000 0.0000
# 2 59.6042 118.4628 58.2568 0.0000 0.0000 0.0000
# 3 51.0747 58.2568 66.7033 0.0000 0.0000 0.0000
# 4 0.0000 0.0000 0.0000 41.0180 0.0000 0.0000
# 5 0.0000 0.0000 0.0000 0.0000 45.9951 0.0000
# 6 0.0000 0.0000 0.0000 0.0000 0.0000 32.6924
#
#
#
# Elastic Compliance Matrix: (Units=1/GPa)
#
#
# Indices 1 2 3 4 5 6 
#
# 1 0.012357 -0.002742 -0.007067 0.000000 0.000000 0.000000
# 2 -0.002742 0.015405 -0.011355 0.000000 0.000000 0.000000
# 3 -0.007067 -0.011355 0.030320 0.000000 0.000000 0.000000
# 4 0.000000 0.000000 0.000000 0.024380 0.000000 0.000000
# 5 0.000000 0.000000 0.000000 0.000000 0.021741 0.000000
# 6 0.000000 0.000000 0.000000 0.000000 0.000000 0.030588
#
#
# Mechanical properties :
#
#
# Convention : Reuss Voigt Hill
#
# Bulk Modulus (GPa) = 63.47431 71.82243 67.64837
# Shear Modulus (GPa) = 27.41696 33.24742 30.33219
#
# Velocity S-wave (km/s) = 3.40901 3.75403 3.58567
# Velocity P-wave (km/s) = 6.51155 7.01669 6.76883
#
# Compressibility (1/GPa) = 0.01575441
#
# Stress axis : x y z
#
# Youngs Moduli (GPa) = 80.92854 64.91360 32.98187
#
# Poissons Ratio (x) = 0.17799 0.23307
# Poissons Ratio (y) = 0.22191 0.37450
# Poissons Ratio (z) = 0.57189 0.73708
#
# Static dielectric constant tensor:
#      x y z
#    x 4.612170 0.000000 0.000000 
#    y 0.000000 3.899460 0.000000 
#    z 0.000000 0.000000 4.557930 
# 
# 
# High freq. dielectric constant tensor:
#      x y z
#    x 1.950790 0.000000 0.000000 
#    y 0.000000 1.909680 0.000000 
#    z 0.000000 0.000000 1.958350 
# 
# From -- ./inp_files/16850.got.cif
#   From: 2010.03.12/outbox.cif.g09.slc.cpg/sg49_9_cif.got.tgz:16850.got - 2010.04.14 03:58:27.
