data_PCOD8204210
_publ_section_title
;
Structure prediction by ZEFSAII (Michael W. Deem and Ramdas Pophale) SiO2 
 PCOD8204210
Probable space group: P C C M
;
_chemical_formula_sum "Si O2"
_cell_formula_units_Z 40
_cell_length_a 21.508821
_cell_length_b 4.950303
_cell_length_c 17.675262
_cell_angle_alpha 90.000000
_cell_angle_beta 90.000000
_cell_angle_gamma 90.000000
_cell_volume 1881.976723
_symmetry_space_group_name_H-M "P C C M"
_symmetry_group_IT_number 49
_symmetry_cell_setting 'orthorhombic'
loop_
_space_group_symop_operation_xyz
x,y,z
-x,-y,z
x,-y,1/2-z
-x,y,1/2-z
-x,-y,-z
x,y,-z
-x,y,1/2+z
x,-y,1/2+z
loop_
_atom_site_type_symbol
_atom_site_label
_atom_site_fract_x
_atom_site_fract_y
_atom_site_fract_z
Si Si1 0.041110 0.242119 0.082732
Si Si2 0.237804 0.000273 0.660890
Si Si3 0.427591 0.534159 0.162212
Si Si4 0.632038 0.971627 0.089237
Si Si5 0.840203 0.509494 0.837514
O O1 0.099591 0.351645 0.127887
O O2 0.000000 0.500000 0.071580
O O3 0.062780 0.133606 0.000000
O O4 0.000000 0.000000 0.122309
O O5 0.298436 0.058779 0.611923
O O6 0.217044 0.699561 0.640241
O O7 0.253549 0.000000 0.750000
O O8 0.182007 0.209485 0.637649
O O9 0.500000 0.500000 0.146951
O O10 0.410243 0.500000 0.250000
O O11 0.385171 0.331752 0.113401
O O12 0.414222 0.835864 0.134865
O O13 0.623474 0.005728 0.000000
O O14 0.855359 0.500000 0.750000
#
# Coordination Sequence:
#
# PCOD8204210 Si02
#       5
#     8   8   8   8   8
#     4  10  21  37  57  82 114 152 190 233 290 351
#     4  10  21  38  59  83 117 158 199 244 298 361
#     4  11  24  43  66  90 122 168 213 252 307 378
#     4  12  25  40  63  96 128 160 205 261 317 368
#     4  10  21  37  58  85 114 151 199 247 292 344
#
# _framework density 21.254248
#
# number of rings (size 3 to 8) (size 9 to 14) (size 15 to 20)
#    0.000    1.400    0.000    5.400    0.000    7.600 
#    0.000    1.000    0.000    0.000    0.000    0.000 
#    0.000    0.000    0.000    0.000    0.000    0.000 
#
# Total GULP energy -495809.800847 kJ/mol
# GULP energy per Si atom -12395.245021 kJ/mol
# Density = 2.120587 g / cm^3
# Si number density = 21.254248 Si / 1000 Ang^3
#
#
#
# Elastic Constant Matrix: (Units=GPa)
#
#
# Indices 1 2 3 4 5 6 
#
# 1 109.1038 21.2508 52.5158 0.0000 0.0000 0.0000
# 2 21.2508 94.8184 29.6240 0.0000 0.0000 0.0000
# 3 52.5158 29.6240 92.9056 0.0000 0.0000 0.0000
# 4 0.0000 0.0000 0.0000 32.3317 0.0000 0.0000
# 5 0.0000 0.0000 0.0000 0.0000 14.6930 0.0000
# 6 0.0000 0.0000 0.0000 0.0000 0.0000 34.7797
#
#
#
# Elastic Compliance Matrix: (Units=1/GPa)
#
#
# Indices 1 2 3 4 5 6 
#
# 1 0.012629 -0.000667 -0.006926 0.000000 0.000000 0.000000
# 2 -0.000667 0.011749 -0.003369 0.000000 0.000000 0.000000
# 3 -0.006926 -0.003369 0.015753 0.000000 0.000000 0.000000
# 4 0.000000 0.000000 0.000000 0.030929 0.000000 0.000000
# 5 0.000000 0.000000 0.000000 0.000000 0.068059 0.000000
# 6 0.000000 0.000000 0.000000 0.000000 0.000000 0.028752
#
#
# Mechanical properties :
#
#
# Convention : Reuss Voigt Hill
#
# Bulk Modulus (GPa) = 54.92530 55.95656 55.44093
# Shear Modulus (GPa) = 25.52770 29.25668 27.39219
#
# Velocity S-wave (km/s) = 3.46940 3.71416 3.59386
# Velocity P-wave (km/s) = 6.47666 6.69161 6.58501
#
# Compressibility (1/GPa) = 0.01820655
#
# Stress axis : x y z
#
# Youngs Moduli (GPa) = 79.18092 85.11681 63.47936
#
# Poissons Ratio (x) = 0.05673 0.43968
# Poissons Ratio (y) = 0.05278 0.21389
# Poissons Ratio (z) = 0.54843 0.28679
#
# Static dielectric constant tensor:
#      x y z
#    x 3.623550 0.000000 0.000000 
#    y 0.000000 4.666170 0.000000 
#    z 0.000000 0.000000 3.895870 
# 
# 
# High freq. dielectric constant tensor:
#      x y z
#    x 1.839240 0.000000 0.000000 
#    y 0.000000 1.854870 0.000000 
#    z 0.000000 0.000000 1.820220 
# 
# From -- ./inp_files/18270.got.cif
#   From: 2010.03.12/outbox.cif.g09.slc.cpg/sg49_10_cif.got.tgz:18270.got - 2010.04.14 03:58:27.
