data_PCOD8204560
_publ_section_title
;
Structure prediction by ZEFSAII (Michael W. Deem and Ramdas Pophale) SiO2 
 PCOD8204560
Probable space group: P C C M
;
_chemical_formula_sum "Si O2"
_cell_formula_units_Z 64
_cell_length_a 9.703357
_cell_length_b 15.284016
_cell_length_c 22.043628
_cell_angle_alpha 90.000000
_cell_angle_beta 90.000000
_cell_angle_gamma 90.000000
_cell_volume 3269.208106
_symmetry_space_group_name_H-M "P C C M"
_symmetry_group_IT_number 49
_symmetry_cell_setting 'orthorhombic'
loop_
_space_group_symop_operation_xyz
x,y,z
-x,-y,z
x,-y,1/2-z
-x,y,1/2-z
-x,-y,-z
x,y,-z
-x,y,1/2+z
x,-y,1/2+z
loop_
_atom_site_type_symbol
_atom_site_label
_atom_site_fract_x
_atom_site_fract_y
_atom_site_fract_z
Si Si1 0.657948 0.978940 0.935206
Si Si2 0.336208 0.898008 0.755313
Si Si3 0.485043 0.722685 0.928852
Si Si4 0.121206 0.432450 0.932438
Si Si5 0.358254 0.452111 0.566968
Si Si6 0.279264 0.183582 0.865370
Si Si7 0.742759 0.845354 0.611914
Si Si8 0.980871 0.246617 0.427209
O O1 0.758610 0.058801 0.916968
O O2 0.500000 0.000000 0.942317
O O3 0.653581 0.907436 0.883653
O O4 0.713255 0.942928 0.000000
O O5 0.500000 0.893394 0.750000
O O6 0.270361 0.829053 0.706982
O O7 0.282720 0.855332 0.817001
O O8 0.287264 0.000000 0.750000
O O9 0.395071 0.640971 0.901884
O O10 0.626098 0.735375 0.889763
O O11 0.391398 0.807208 0.921353
O O12 0.523817 0.708154 0.000000
O O13 0.249202 0.483208 0.898545
O O14 0.063159 0.343459 0.902288
O O15 0.000000 0.500000 0.934152
O O16 0.172247 0.407017 0.000000
O O17 0.500000 0.500000 0.559919
O O18 0.294468 0.431811 0.500000
O O19 0.130783 0.183508 0.897097
O O20 0.872028 0.782500 0.598741
O O21 0.983284 0.241573 0.500000
#
# Coordination Sequence:
#
# PCOD8204560 Si02
#       8
#     8   8   8   8   8   8   8   8
#     4  11  20  34  56  83 114 153 201 243 305 370
#     4  11  22  43  65  83 110 153 215 267 289 345
#     4  11  20  33  57  90 121 152 201 254 300 361
#     4   9  17  33  55  80 119 164 192 224 288 366
#     4   9  17  29  49  80 117 154 189 233 294 358
#     4  12  23  38  59  86 119 164 201 250 308 348
#     4  12  23  38  59  86 115 160 204 253 300 352
#     4  11  24  39  57  92 133 158 192 246 308 377
#
# _framework density 19.576606999999999
#
# number of rings (size 3 to 8) (size 9 to 14) (size 15 to 20)
#    0.000    1.250    3.750    3.750    0.000    5.000 
#    0.000    1.875    0.000    0.000    0.000   13.125 
#    0.000    0.000    0.000    0.000    0.000    0.000 
#
# Total GULP energy -792910.173097 kJ/mol
# GULP energy per Si atom -12389.221455 kJ/mol
# Density = 1.953205 g / cm^3
# Si number density = 19.576607 Si / 1000 Ang^3
#
#
#
# Elastic Constant Matrix: (Units=GPa)
#
#
# Indices 1 2 3 4 5 6 
#
# 1 88.9620 20.3075 25.5154 0.0000 0.0000 0.0000
# 2 20.3075 90.1643 26.9909 0.0000 0.0000 0.0000
# 3 25.5154 26.9909 92.3237 0.0000 0.0000 0.0000
# 4 0.0000 0.0000 0.0000 4.2699 0.0000 0.0000
# 5 0.0000 0.0000 0.0000 0.0000 23.9962 0.0000
# 6 0.0000 0.0000 0.0000 0.0000 0.0000 33.0314
#
#
#
# Elastic Compliance Matrix: (Units=1/GPa)
#
#
# Indices 1 2 3 4 5 6 
#
# 1 0.012515 -0.001954 -0.002887 0.000000 0.000000 0.000000
# 2 -0.001954 0.012460 -0.003102 0.000000 0.000000 0.000000
# 3 -0.002887 -0.003102 0.012536 0.000000 0.000000 0.000000
# 4 0.000000 0.000000 0.000000 0.234195 0.000000 0.000000
# 5 0.000000 0.000000 0.000000 0.000000 0.041673 0.000000
# 6 0.000000 0.000000 0.000000 0.000000 0.000000 0.030274
#
#
# Mechanical properties :
#
#
# Convention : Reuss Voigt Hill
#
# Bulk Modulus (GPa) = 46.24767 46.34196 46.29482
# Shear Modulus (GPa) = 13.63327 25.50192 19.56760
#
# Velocity S-wave (km/s) = 2.64181 3.61317 3.16498
# Velocity P-wave (km/s) = 5.74289 6.41328 6.08732
#
# Compressibility (1/GPa) = 0.02162271
#
# Stress axis : x y z
#
# Youngs Moduli (GPa) = 79.90393 80.25817 79.76734
#
# Poissons Ratio (x) = 0.15686 0.23032
# Poissons Ratio (y) = 0.15616 0.24748
# Poissons Ratio (z) = 0.23071 0.24900
#
# Static dielectric constant tensor:
#      x y z
#    x 3.526920 0.000000 0.000000 
#    y 0.000000 3.665850 0.000000 
#    z 0.000000 0.000000 3.625640 
# 
# 
# High freq. dielectric constant tensor:
#      x y z
#    x 1.762260 0.000000 0.000000 
#    y 0.000000 1.773730 0.000000 
#    z 0.000000 0.000000 1.718070 
# 
# From -- ./inp_files/22552.got.cif
#   From: 2010.03.12/outbox.cif.g09.slc.cpg/sg49_12_cif.got.tgz:22552.got - 2010.04.14 03:58:27.
