data_PCOD8204737
_publ_section_title
;
Structure prediction by ZEFSAII (Michael W. Deem and Ramdas Pophale) SiO2 
 PCOD8204737
Probable space group: P B A N
;
_chemical_formula_sum "Si O2"
_cell_formula_units_Z 56
_cell_length_a 17.384865
_cell_length_b 5.171737
_cell_length_c 30.119821
_cell_angle_alpha 90.000000
_cell_angle_beta 90.000000
_cell_angle_gamma 90.000000
_cell_volume 2708.071587
_symmetry_space_group_name_H-M "P B A N"
_symmetry_group_IT_number 50
_space_group.IT_coordinate_system_code '2'
_symmetry_cell_setting 'orthorhombic'
loop_
_space_group_symop_operation_xyz
x,y,z
1/2-x,1/2-y,z
x,1/2-y,-z
1/2-x,y,-z
-x,-y,-z
1/2+x,1/2+y,-z
-x,1/2+y,z
1/2+x,-y,z
loop_
_atom_site_type_symbol
_atom_site_label
_atom_site_fract_x
_atom_site_fract_y
_atom_site_fract_z
Si Si1 0.159723 0.767007 0.749650
Si Si2 0.159411 0.231094 0.302955
Si Si3 0.284063 0.998441 0.049275
Si Si4 0.049626 0.056325 0.378708
Si Si5 0.453005 0.919405 0.073284
Si Si6 0.414516 0.496339 0.480293
Si Si7 0.046707 0.585903 0.176817
O O1 0.250000 0.750000 0.757119
O O2 0.133725 0.484209 0.733189
O O3 0.123423 0.843173 0.796656
O O4 0.133122 0.985892 0.713997
O O5 0.250000 0.250000 0.311387
O O6 0.120891 0.138436 0.348357
O O7 0.250000 0.250000 0.074571
O O8 0.250000 0.750000 0.075136
O O9 0.375949 0.986657 0.046610
O O10 0.250000 0.000518 0.000000
O O11 0.083523 0.039358 0.427852
O O12 0.984103 0.271243 0.369782
O O13 0.485193 0.638572 0.059882
O O14 0.432376 0.914740 0.125106
O O15 0.369284 0.250000 0.500000
O O16 0.500000 0.500000 0.500000
O O17 0.371669 0.750000 0.500000
O O18 0.016930 0.301022 0.189409
#
# Coordination Sequence:
#
# PCOD8204737 Si02
#       7
#     8   8   8   8   8   8   8
#     4  10  21  39  57  77 108 152 189 222 277 343
#     4  10  23  39  53  76 116 151 181 225 280 340
#     4  10  21  39  59  86 120 155 200 251 294 342
#     4  12  21  32  55  85 103 137 188 226 272 328
#     4  10  21  39  60  87 120 158 196 244 306 367
#     4  10  16  30  48  74 109 131 160 224 271 310
#     4  10  21  36  59  86 115 146 186 241 295 333
#
# _framework density 20.678920000000002
#
# number of rings (size 3 to 8) (size 9 to 14) (size 15 to 20)
#    0.000    1.714    2.857    2.571    0.000    4.000 
#    0.000   10.714    0.000    0.429    0.000    2.000 
#    0.000    0.000    0.000    0.000    0.000    0.000 
#
# Total GULP energy -694017.349825 kJ/mol
# GULP energy per Si atom -12393.166961 kJ/mol
# Density = 2.063185 g / cm^3
# Si number density = 20.678920 Si / 1000 Ang^3
#
#
#
# Elastic Constant Matrix: (Units=GPa)
#
#
# Indices 1 2 3 4 5 6 
#
# 1 75.9960 37.6564 47.9561 0.0000 0.0000 0.0000
# 2 37.6564 170.8585 27.6196 0.0000 0.0000 0.0000
# 3 47.9561 27.6196 70.4446 0.0000 0.0000 0.0000
# 4 0.0000 0.0000 0.0000 19.5214 0.0000 0.0000
# 5 0.0000 0.0000 0.0000 0.0000 17.2641 0.0000
# 6 0.0000 0.0000 0.0000 0.0000 0.0000 29.0299
#
#
#
# Elastic Compliance Matrix: (Units=1/GPa)
#
#
# Indices 1 2 3 4 5 6 
#
# 1 0.024314 -0.002865 -0.015429 0.000000 0.000000 0.000000
# 2 -0.002865 0.006586 -0.000632 0.000000 0.000000 0.000000
# 3 -0.015429 -0.000632 0.024947 0.000000 0.000000 0.000000
# 4 0.000000 0.000000 0.000000 0.051226 0.000000 0.000000
# 5 0.000000 0.000000 0.000000 0.000000 0.057924 0.000000
# 6 0.000000 0.000000 0.000000 0.000000 0.000000 0.034447
#
#
# Mechanical properties :
#
#
# Convention : Reuss Voigt Hill
#
# Bulk Modulus (GPa) = 55.56873 60.41814 57.99344
# Shear Modulus (GPa) = 20.55117 26.76754 23.65935
#
# Velocity S-wave (km/s) = 3.15591 3.60173 3.38617
# Velocity P-wave (km/s) = 6.34115 6.82476 6.58739
#
# Compressibility (1/GPa) = 0.01799573
#
# Stress axis : x y z
#
# Youngs Moduli (GPa) = 41.12800 151.82932 40.08493
#
# Poissons Ratio (x) = 0.43493 0.61848
# Poissons Ratio (y) = 0.11782 0.02534
# Poissons Ratio (z) = 0.63457 0.09599
#
# Static dielectric constant tensor:
#      x y z
#    x 3.354600 0.000000 0.000000 
#    y 0.000000 2.766560 0.000000 
#    z 0.000000 0.000000 3.610040 
# 
# 
# High freq. dielectric constant tensor:
#      x y z
#    x 1.778130 0.000000 0.000000 
#    y 0.000000 1.846600 0.000000 
#    z 0.000000 0.000000 1.795200 
# 
# From -- ./inp_files/32377.got.cif
#   From: 2010.03.12/outbox.cif.g09.slc.cpg/sg50_17_cif.got.tgz:32377.got - 2010.04.16 13:23:21.
