data_PCOD8204177
_publ_section_title
;
Structure prediction by ZEFSAII (Michael W. Deem and Ramdas Pophale) SiO2 
 PCOD8204177
Probable space group: P C C M
;
_chemical_formula_sum "Si O2"
_cell_formula_units_Z 64
_cell_length_a 20.835285
_cell_length_b 8.949242
_cell_length_c 16.177258
_cell_angle_alpha 90.000000
_cell_angle_beta 90.000000
_cell_angle_gamma 90.000000
_cell_volume 3016.411650
_symmetry_space_group_name_H-M "P C C M"
_symmetry_group_IT_number 49
_symmetry_cell_setting 'orthorhombic'
loop_
_space_group_symop_operation_xyz
x,y,z
-x,-y,z
x,-y,1/2-z
-x,y,1/2-z
-x,-y,-z
x,y,-z
-x,y,1/2+z
x,-y,1/2+z
loop_
_atom_site_type_symbol
_atom_site_label
_atom_site_fract_x
_atom_site_fract_y
_atom_site_fract_z
Si Si1 0.631060 0.822468 0.596916
Si Si2 0.059602 0.396908 0.595528
Si Si3 0.594347 0.858566 0.096284
Si Si4 0.516582 0.660371 0.655048
Si Si5 0.771932 0.094763 0.905518
Si Si6 0.273962 0.758966 0.406151
Si Si7 0.110671 0.159434 0.285111
Si Si8 0.838087 0.598697 0.827389
O O1 0.619332 0.806560 0.500000
O O2 0.592203 0.690053 0.641963
O O3 0.706838 0.814625 0.616730
O O4 0.599320 0.974755 0.633118
O O5 0.054536 0.344956 0.500000
O O6 0.060738 0.249713 0.655333
O O7 0.121982 0.501667 0.606498
O O8 0.000000 0.500000 0.622027
O O9 0.525310 0.787347 0.110544
O O10 0.653990 0.761248 0.132964
O O11 0.609107 0.876274 0.000000
O O12 0.500000 0.500000 0.615526
O O13 0.500000 0.661948 0.750000
O O14 0.825039 0.141165 0.839412
O O15 0.758944 0.920022 0.897074
O O16 0.793962 0.131785 0.000000
O O17 0.277485 0.707960 0.500000
O O18 0.231207 0.636183 0.362449
O O19 0.123436 0.254182 0.202085
O O20 0.084326 0.000000 0.250000
O O21 0.822374 0.500000 0.750000
#
# Coordination Sequence:
#
# PCOD8204177 Si02
#       8
#     8   8   8   8   8   8   8   8
#     4   9  19  37  61  84 106 147 201 250 304 371
#     4  10  23  45  68  91 128 178 223 255 296 369
#     4   9  19  36  59  81 103 142 197 248 299 364
#     4  11  24  39  49  74 114 152 193 249 313 372
#     4   9  18  35  61  91 123 157 201 261 316 370
#     4   9  17  34  58  85 117 155 200 252 306 369
#     4  11  21  37  64 100 133 162 205 261 324 369
#     4  10  21  36  58  90 127 168 204 248 315 377
#
# _framework density 21.217262999999999
#
# number of rings (size 3 to 8) (size 9 to 14) (size 15 to 20)
#    0.000    2.250    1.250    3.000    0.000    6.250 
#    6.750    1.250    0.000    1.500    0.000    0.000 
#    0.000    0.000    0.000    0.000    0.000    0.000 
#
# Total GULP energy -793275.149226 kJ/mol
# GULP energy per Si atom -12394.924207 kJ/mol
# Density = 2.116897 g / cm^3
# Si number density = 21.217263 Si / 1000 Ang^3
#
#
#
# Elastic Constant Matrix: (Units=GPa)
#
#
# Indices 1 2 3 4 5 6 
#
# 1 93.9686 34.4956 25.2866 0.0000 0.0000 0.0000
# 2 34.4956 98.7233 30.8113 0.0000 0.0000 0.0000
# 3 25.2866 30.8113 58.4029 0.0000 0.0000 0.0000
# 4 0.0000 0.0000 0.0000 -48.2707 0.0000 0.0000
# 5 0.0000 0.0000 0.0000 0.0000 24.8780 0.0000
# 6 0.0000 0.0000 0.0000 0.0000 0.0000 38.1497
#
#
#
# Elastic Compliance Matrix: (Units=1/GPa)
#
#
# Indices 1 2 3 4 5 6 
#
# 1 0.012888 -0.003306 -0.003836 0.000000 0.000000 0.000000
# 2 -0.003306 0.012974 -0.005413 0.000000 0.000000 0.000000
# 3 -0.003836 -0.005413 0.021639 0.000000 0.000000 0.000000
# 4 0.000000 0.000000 0.000000 -0.020716 0.000000 0.000000
# 5 0.000000 0.000000 0.000000 0.000000 0.040196 0.000000
# 6 0.000000 0.000000 0.000000 0.000000 0.000000 0.026213
#
#
# Mechanical properties :
#
#
# Convention : Reuss Voigt Hill
#
# Bulk Modulus (GPa) = 44.66160 48.03130 46.34645
# Shear Modulus (GPa) = 39.75621 13.65147 26.70384
#
# Velocity S-wave (km/s) = 4.33340 2.53931 3.55151
# Velocity P-wave (km/s) = 6.79214 5.59325 6.22164
#
# Compressibility (1/GPa) = 0.02239060
#
# Stress axis : x y z
#
# Youngs Moduli (GPa) = 77.59345 77.07756 46.21284
#
# Poissons Ratio (x) = 0.25482 0.17726
# Poissons Ratio (y) = 0.25653 0.25016
# Poissons Ratio (z) = 0.29763 0.41723
#
# Static dielectric constant tensor:
#      x y z
#    x 3.910500 0.000000 0.000000 
#    y 0.000000 4.155220 0.000000 
#    z 0.000000 0.000000 3.772610 
# 
# 
# High freq. dielectric constant tensor:
#      x y z
#    x 1.827330 0.000000 0.000000 
#    y 0.000000 1.826280 0.000000 
#    z 0.000000 0.000000 1.823320 
# 
# From -- ./inp_files/18290.got.cif
#   From: 2010.03.12/outbox.cif.g09.slc.cpg/sg49_10_cif.got.tgz:18290.got - 2010.04.14 03:58:27.
