data_PCOD8204077
_publ_section_title
;
Structure prediction by ZEFSAII (Michael W. Deem and Ramdas Pophale) SiO2 
 PCOD8204077
Probable space group: P C C M
;
_chemical_formula_sum "Si O2"
_cell_formula_units_Z 58
_cell_length_a 9.089831
_cell_length_b 14.807418
_cell_length_c 22.317926
_cell_angle_alpha 90.000000
_cell_angle_beta 90.000000
_cell_angle_gamma 90.000000
_cell_volume 3003.924260
_symmetry_space_group_name_H-M "P C C M"
_symmetry_group_IT_number 49
_symmetry_cell_setting 'orthorhombic'
loop_
_space_group_symop_operation_xyz
x,y,z
-x,-y,z
x,-y,1/2-z
-x,y,1/2-z
-x,-y,-z
x,y,-z
-x,y,1/2+z
x,-y,1/2+z
loop_
_atom_site_type_symbol
_atom_site_label
_atom_site_fract_x
_atom_site_fract_y
_atom_site_fract_z
Si Si1 0.000000 0.500000 0.250000
Si Si2 0.052158 0.601290 0.567188
Si Si3 0.337954 0.703844 0.432392
Si Si4 0.834576 0.372190 0.841491
Si Si5 0.647325 0.844067 0.831453
Si Si6 0.836860 0.987883 0.679324
Si Si7 0.310289 0.188438 0.696570
Si Si8 0.604605 0.583813 0.433695
O O1 0.892860 0.435701 0.211685
O O2 0.002586 0.627008 0.500000
O O3 0.226457 0.618438 0.574810
O O4 0.000000 0.500000 0.583018
O O5 0.968604 0.663155 0.616516
O O6 0.323459 0.743029 0.500000
O O7 0.296353 0.780054 0.384665
O O8 0.504554 0.671825 0.420719
O O9 0.739220 0.288534 0.819480
O O10 0.728700 0.430649 0.884279
O O11 0.714164 0.942987 0.847042
O O12 0.711462 0.812715 0.767989
O O13 0.471736 0.839919 0.825773
O O14 0.840312 0.000000 0.750000
O O15 0.792802 0.885102 0.664400
O O16 0.000000 0.000000 0.651475
O O17 0.500000 0.500000 0.431532
O O18 0.677878 0.591331 0.500000
#
# Coordination Sequence:
#
# PCOD8204077 Si02
#       8
#     2   8   8   8   8   8   8   8
#     4  12  32  40  52  88 130 184 194 262 296 388
#     4  10  21  38  61  83 113 158 205 252 298 347
#     4  10  21  37  60  89 115 154 204 252 304 352
#     4  12  24  42  57  85 127 159 210 237 310 358
#     4  10  20  39  60  86 124 150 194 245 306 355
#     4   9  19  35  60  92 116 149 193 240 291 356
#     4  10  22  36  61  90 115 160 192 242 297 369
#     4  10  21  39  64  88 112 150 208 265 299 349
#
# _framework density 19.308077000000001
#
# number of rings (size 3 to 8) (size 9 to 14) (size 15 to 20)
#    0.000    1.793    2.069    1.655    3.862    4.966 
#    0.000    0.000    0.000    3.724    0.000    0.000 
#    0.000    0.000    0.000    0.000    0.000    0.000 
#
# Total GULP energy -718761.165217 kJ/mol
# GULP energy per Si atom -12392.433883 kJ/mol
# Density = 1.926413 g / cm^3
# Si number density = 19.308077 Si / 1000 Ang^3
#
#
#
# Elastic Constant Matrix: (Units=GPa)
#
#
# Indices 1 2 3 4 5 6 
#
# 1 115.7153 47.5358 53.4579 0.0000 0.0000 0.0000
# 2 47.5358 102.2542 46.6739 0.0000 0.0000 0.0000
# 3 53.4579 46.6739 99.4274 0.0000 0.0000 0.0000
# 4 0.0000 0.0000 0.0000 -43.3955 0.0000 0.0000
# 5 0.0000 0.0000 0.0000 0.0000 29.4731 0.0000
# 6 0.0000 0.0000 0.0000 0.0000 0.0000 32.0523
#
#
#
# Elastic Compliance Matrix: (Units=1/GPa)
#
#
# Indices 1 2 3 4 5 6 
#
# 1 0.012391 -0.003461 -0.005037 0.000000 0.000000 0.000000
# 2 -0.003461 0.013413 -0.004436 0.000000 0.000000 0.000000
# 3 -0.005037 -0.004436 0.014848 0.000000 0.000000 0.000000
# 4 0.000000 0.000000 0.000000 -0.023044 0.000000 0.000000
# 5 0.000000 0.000000 0.000000 0.000000 0.033929 0.000000
# 6 0.000000 0.000000 0.000000 0.000000 0.000000 0.031199
#
#
# Mechanical properties :
#
#
# Convention : Reuss Voigt Hill
#
# Bulk Modulus (GPa) = 67.63986 68.08134 67.86060
# Shear Modulus (GPa) = 44.04029 14.94129 29.49079
#
# Velocity S-wave (km/s) = 4.78109 2.78481 3.91241
# Velocity P-wave (km/s) = 8.09854 6.75850 7.45867
#
# Compressibility (1/GPa) = 0.01478418
#
# Stress axis : x y z
#
# Youngs Moduli (GPa) = 80.70519 74.55387 67.34826
#
# Poissons Ratio (x) = 0.25802 0.33926
# Poissons Ratio (y) = 0.27931 0.29874
# Poissons Ratio (z) = 0.40654 0.33070
#
# Static dielectric constant tensor:
#      x y z
#    x 3.894030 0.000000 0.000000 
#    y 0.000000 3.452920 0.000000 
#    z 0.000000 0.000000 3.514360 
# 
# 
# High freq. dielectric constant tensor:
#      x y z
#    x 1.767530 0.000000 0.000000 
#    y 0.000000 1.734760 0.000000 
#    z 0.000000 0.000000 1.736660 
# 
# From -- ./inp_files/22509.got.cif
#   From: 2010.03.12/outbox.cif.g09.slc.cpg/sg49_12_cif.got.tgz:22509.got - 2010.04.14 03:58:27.
