data_PCOD8204030
_publ_section_title
;
Structure prediction by ZEFSAII (Michael W. Deem and Ramdas Pophale) SiO2 
 PCOD8204030
Probable space group: P C C M
;
_chemical_formula_sum "Si O2"
_cell_formula_units_Z 64
_cell_length_a 8.981521
_cell_length_b 23.786904
_cell_length_c 15.413797
_cell_angle_alpha 90.000000
_cell_angle_beta 90.000000
_cell_angle_gamma 90.000000
_cell_volume 3293.043325
_symmetry_space_group_name_H-M "P C C M"
_symmetry_group_IT_number 49
_symmetry_cell_setting 'orthorhombic'
loop_
_space_group_symop_operation_xyz
x,y,z
-x,-y,z
x,-y,1/2-z
-x,y,1/2-z
-x,-y,-z
x,y,-z
-x,y,1/2+z
x,-y,1/2+z
loop_
_atom_site_type_symbol
_atom_site_label
_atom_site_fract_x
_atom_site_fract_y
_atom_site_fract_z
Si Si1 0.176254 0.500000 0.653175
Si Si2 0.826260 0.379323 0.902094
Si Si3 0.169777 0.889424 0.097012
Si Si4 0.676213 0.688307 0.250000
Si Si5 0.174967 0.192319 0.750000
Si Si6 0.169777 0.110576 0.097013
Si Si7 0.826260 0.620677 0.097906
Si Si8 0.324290 0.000000 0.151787
O O1 0.243464 0.500000 0.750000
O O2 0.230203 0.443876 0.604193
O O3 0.230203 0.556124 0.604193
O O4 0.000000 0.500000 0.656549
O O5 0.734769 0.341177 0.836637
O O6 1.000000 0.374976 0.877231
O O7 0.798171 0.358000 0.000000
O O8 0.222761 0.842474 0.164868
O O9 0.267784 0.944995 0.103159
O O10 1.000000 0.906421 0.117293
O O11 0.186565 0.864437 0.000000
O O12 0.500000 0.685894 0.250000
O O13 0.729367 0.751938 0.250001
O O14 0.734770 0.658823 0.163363
O O15 0.222761 0.157526 0.835132
O O16 0.000000 0.207025 0.750000
O O17 0.267785 0.055006 0.103159
O O18 0.186565 0.135563 0.000000
O O19 0.798172 0.642000 0.000000
O O20 0.500000 0.000000 0.148506
O O21 0.263861 0.000000 0.250000
#
# Coordination Sequence:
#
# PCOD8204030 Si02
#       8
#     8   8   8   8   8   8   8   8
#     4   9  15  29  59  93 121 146 185 244 299 344
#     4  10  20  37  63  91 118 152 197 245 292 346
#     4  10  21  38  62  89 114 145 188 237 288 339
#     4  12  26  41  58  83 121 160 198 242 295 356
#     4  10  22  41  62  83 111 148 198 250 291 334
#     4  10  21  38  62  89 114 145 188 237 288 339
#     4  10  20  37  63  91 118 152 197 245 292 346
#     4  11  22  35  56  87 123 158 189 222 275 345
#
# _framework density 19.434909999999999
#
# number of rings (size 3 to 8) (size 9 to 14) (size 15 to 20)
#    0.000    1.750    2.500    2.250    0.000    6.500 
#    0.000    3.750    0.000    1.500    0.000    0.000 
#    0.000    0.000    0.000    0.000    0.000    0.000 
#
# Total GULP energy -793720.654010 kJ/mol
# GULP energy per Si atom -12401.885219 kJ/mol
# Density = 1.939068 g / cm^3
# Si number density = 19.434910 Si / 1000 Ang^3
#
#
#
# Elastic Constant Matrix: (Units=GPa)
#
#
# Indices 1 2 3 4 5 6 
#
# 1 80.1659 61.0675 53.2023 0.0000 0.0000 0.0000
# 2 61.0675 147.0576 75.1819 0.0000 0.0000 0.0000
# 3 53.2023 75.1819 153.5428 0.0000 0.0000 0.0000
# 4 0.0000 0.0000 0.0000 3.7269 0.0000 0.0000
# 5 0.0000 0.0000 0.0000 0.0000 19.4531 0.0000
# 6 0.0000 0.0000 0.0000 0.0000 0.0000 -23.7224
#
#
#
# Elastic Compliance Matrix: (Units=1/GPa)
#
#
# Indices 1 2 3 4 5 6 
#
# 1 0.019759 -0.006276 -0.003773 0.000000 0.000000 0.000000
# 2 -0.006276 0.011064 -0.003243 0.000000 0.000000 0.000000
# 3 -0.003773 -0.003243 0.009408 0.000000 0.000000 0.000000
# 4 0.000000 0.000000 0.000000 0.268322 0.000000 0.000000
# 5 0.000000 0.000000 0.000000 0.000000 0.051406 0.000000
# 6 0.000000 0.000000 0.000000 0.000000 0.000000 -0.042154
#
#
# Mechanical properties :
#
#
# Convention : Reuss Voigt Hill
#
# Bulk Modulus (GPa) = 73.27758 84.40773 78.84265
# Shear Modulus (GPa) = 14.32917 12.64583 13.48750
#
# Velocity S-wave (km/s) = 2.71825 2.55360 2.63721
# Velocity P-wave (km/s) = 6.90202 7.22633 7.06603
#
# Compressibility (1/GPa) = 0.01364674
#
# Stress axis : x y z
#
# Youngs Moduli (GPa) = 50.60888 90.38147 106.29006
#
# Poissons Ratio (x) = 0.56725 0.40108
# Poissons Ratio (y) = 0.31763 0.34469
# Poissons Ratio (z) = 0.19097 0.29310
#
# Static dielectric constant tensor:
#      x y z
#    x 3.272620 0.000000 0.000000 
#    y 0.000000 3.527360 0.000000 
#    z 0.000000 0.000000 3.782280 
# 
# 
# High freq. dielectric constant tensor:
#      x y z
#    x 1.727850 0.000000 0.000000 
#    y 0.000000 1.753600 0.000000 
#    z 0.000000 0.000000 1.775830 
# 
# From -- ./inp_files/12148.got.cif
#   From: 2010.03.12/outbox.cif.g09.slc.cpg/sg49_7_cif.got.tgz:12148.got - 2010.04.14 03:58:27.
