data_PCOD8204661
_publ_section_title
;
Structure prediction by ZEFSAII (Michael W. Deem and Ramdas Pophale) SiO2 
 PCOD8204661
Probable space group: P C C M
;
_chemical_formula_sum "Si O2"
_cell_formula_units_Z 64
_cell_length_a 14.983555
_cell_length_b 11.596121
_cell_length_c 17.548967
_cell_angle_alpha 90.000000
_cell_angle_beta 90.000000
_cell_angle_gamma 90.000000
_cell_volume 3049.152615
_symmetry_space_group_name_H-M "P C C M"
_symmetry_group_IT_number 49
_symmetry_cell_setting 'orthorhombic'
loop_
_space_group_symop_operation_xyz
x,y,z
-x,-y,z
x,-y,1/2-z
-x,y,1/2-z
-x,-y,-z
x,y,-z
-x,y,1/2+z
x,-y,1/2+z
loop_
_atom_site_type_symbol
_atom_site_label
_atom_site_fract_x
_atom_site_fract_y
_atom_site_fract_z
Si Si1 0.550630 0.329267 0.589139
Si Si2 0.083135 0.170585 0.850580
Si Si3 0.366431 0.436171 0.589679
Si Si4 0.583417 0.923220 0.909208
Si Si5 0.885080 0.178499 0.820979
Si Si6 0.221989 0.997046 0.912209
Si Si7 0.803625 0.575898 0.673658
Si Si8 0.080818 0.579811 0.587795
O O1 0.542750 0.311912 0.500000
O O2 0.455086 0.372189 0.618130
O O3 0.625053 0.426353 0.606397
O O4 0.575034 0.205823 0.625874
O O5 0.111466 0.135582 0.765594
O O6 0.148706 0.099342 0.905456
O O7 0.093461 0.306143 0.863010
O O8 0.977916 0.144083 0.863134
O O9 0.346971 0.413014 0.500000
O O10 0.293746 0.382978 0.647157
O O11 0.679805 0.968956 0.881411
O O12 0.500000 0.000000 0.878814
O O13 0.581789 0.920922 0.000000
O O14 0.869311 0.315393 0.820117
O O15 0.805862 0.114622 0.864393
O O16 0.227624 0.960962 0.000000
O O17 0.804803 0.500000 0.750000
O O18 0.832007 0.496500 0.602078
O O19 0.068850 0.613741 0.500000
O O20 0.000000 0.500000 0.617839
#
# Coordination Sequence:
#
# PCOD8204661 Si02
#       8
#     8   8   8   8   8   8   8   8
#     4   8  16  34  58  84 120 164 207 260 323 384
#     4  11  23  45  66  88 125 175 218 262 319 397
#     4   9  19  35  59  90 121 159 212 267 320 377
#     4   9  19  35  57  88 125 163 202 254 322 386
#     4  11  25  42  66  88 126 176 218 258 321 391
#     4  11  25  41  65  99 129 162 217 278 321 372
#     4  12  24  39  60  92 130 171 208 258 320 392
#     4  11  23  39  63  93 123 160 209 264 319 372
#
# _framework density 20.989439000000001
#
# number of rings (size 3 to 8) (size 9 to 14) (size 15 to 20)
#    0.000    1.750    2.500    2.250    3.500    3.750 
#    0.000    1.250    0.000    1.500    0.000    0.000 
#    0.000    0.000    0.000    0.000    0.000    0.000 
#
# Total GULP energy -793363.888202 kJ/mol
# GULP energy per Si atom -12396.310753 kJ/mol
# Density = 2.094167 g / cm^3
# Si number density = 20.989439 Si / 1000 Ang^3
#
#
#
# Elastic Constant Matrix: (Units=GPa)
#
#
# Indices 1 2 3 4 5 6 
#
# 1 129.3666 45.4115 35.2618 0.0000 0.0000 0.0000
# 2 45.4115 108.1853 31.8648 0.0000 0.0000 0.0000
# 3 35.2618 31.8648 48.9062 0.0000 0.0000 0.0000
# 4 0.0000 0.0000 0.0000 29.5424 0.0000 0.0000
# 5 0.0000 0.0000 0.0000 0.0000 20.1566 0.0000
# 6 0.0000 0.0000 0.0000 0.0000 0.0000 32.8471
#
#
#
# Elastic Compliance Matrix: (Units=1/GPa)
#
#
# Indices 1 2 3 4 5 6 
#
# 1 0.010185 -0.002614 -0.005640 0.000000 0.000000 0.000000
# 2 -0.002614 0.012109 -0.006005 0.000000 0.000000 0.000000
# 3 -0.005640 -0.006005 0.028427 0.000000 0.000000 0.000000
# 4 0.000000 0.000000 0.000000 0.033850 0.000000 0.000000
# 5 0.000000 0.000000 0.000000 0.000000 0.049612 0.000000
# 6 0.000000 0.000000 0.000000 0.000000 0.000000 0.030444
#
#
# Mechanical properties :
#
#
# Convention : Reuss Voigt Hill
#
# Bulk Modulus (GPa) = 45.04069 56.83715 50.93892
# Shear Modulus (GPa) = 24.93192 28.10386 26.51789
#
# Velocity S-wave (km/s) = 3.45023 3.66314 3.55828
# Velocity P-wave (km/s) = 6.11371 6.71038 6.41898
#
# Compressibility (1/GPa) = 0.02220215
#
# Stress axis : x y z
#
# Youngs Moduli (GPa) = 98.18427 82.58073 35.17813
#
# Poissons Ratio (x) = 0.21586 0.19842
# Poissons Ratio (y) = 0.25664 0.21125
# Poissons Ratio (z) = 0.55379 0.49591
#
# Static dielectric constant tensor:
#      x y z
#    x 3.919010 0.000000 0.000000 
#    y 0.000000 3.961410 0.000000 
#    z 0.000000 0.000000 3.359750 
# 
# 
# High freq. dielectric constant tensor:
#      x y z
#    x 1.830360 0.000000 0.000000 
#    y 0.000000 1.830510 0.000000 
#    z 0.000000 0.000000 1.788560 
# 
# From -- ./inp_files/17954.got.cif
#   From: 2010.03.12/outbox.cif.g09.slc.cpg/sg49_9_cif.got.tgz:17954.got - 2010.04.14 03:58:27.
