data_PCOD8204759
_publ_section_title
;
Structure prediction by ZEFSAII (Michael W. Deem and Ramdas Pophale) SiO2 
 PCOD8204759
Probable space group: P B A N
;
_chemical_formula_sum "Si O2"
_cell_formula_units_Z 44
_cell_length_a 27.402729
_cell_length_b 9.310590
_cell_length_c 8.829051
_cell_angle_alpha 90.000000
_cell_angle_beta 90.000000
_cell_angle_gamma 90.000000
_cell_volume 2252.605000
_symmetry_space_group_name_H-M "P B A N"
_symmetry_group_IT_number 50
_space_group.IT_coordinate_system_code '2'
_symmetry_cell_setting 'orthorhombic'
loop_
_space_group_symop_operation_xyz
x,y,z
1/2-x,1/2-y,z
x,1/2-y,-z
1/2-x,y,-z
-x,-y,-z
1/2+x,1/2+y,-z
-x,1/2+y,z
1/2+x,-y,z
loop_
_atom_site_type_symbol
_atom_site_label
_atom_site_fract_x
_atom_site_fract_y
_atom_site_fract_z
Si Si1 0.075627 0.789635 0.326662
Si Si2 0.181243 0.321857 0.248273
Si Si3 0.611050 0.929986 0.191205
Si Si4 0.750000 0.750000 0.000000
Si Si5 0.100253 0.982177 0.853113
Si Si6 0.750000 0.750000 0.500000
Si Si7 0.022942 0.289669 0.163548
O O1 0.083502 0.750000 0.500000
O O2 0.099660 0.679680 0.207118
O O3 0.018000 0.795358 0.291863
O O4 0.101837 0.942671 0.309016
O O5 0.159256 0.159296 0.237065
O O6 0.138023 0.435506 0.255281
O O7 0.214396 0.345870 0.396268
O O8 0.215794 0.350514 0.103784
O O9 0.564847 0.824944 0.197516
O O10 0.617723 0.000980 0.025957
O O11 0.046397 0.051163 0.837941
O O12 0.999139 0.250000 0.000000
#
# Coordination Sequence:
#
# PCOD8204759 Si02
#       7
#     8   8   8   2   8   2   8
#     4  12  25  34  50  83 125 160 182 225 286 339
#     4  10  20  38  64  93 108 140 181 237 283 340
#     4  10  20  38  61  83 112 149 197 237 269 321
#     4  10  16  38  68  92 104 122 196 240 268 346
#     4  10  20  38  61  83 112 149 197 237 269 321
#     4  10  24  34  64  92 120 138 168 228 308 346
#     4   9  19  37  59  82 107 151 205 238 261 315
#
# _framework density 19.53294
#
# number of rings (size 3 to 8) (size 9 to 14) (size 15 to 20)
#    0.000    1.818    1.818    3.818    2.545    5.818 
#    3.273    0.000    0.000    6.545    0.000    0.000 
#    0.000    0.000    0.000    0.000    0.000    0.000 
#
# Total GULP energy -545503.038532 kJ/mol
# GULP energy per Si atom -12397.796330 kJ/mol
# Density = 1.948848 g / cm^3
# Si number density = 19.532940 Si / 1000 Ang^3
#
#
#
# Elastic Constant Matrix: (Units=GPa)
#
#
# Indices 1 2 3 4 5 6 
#
# 1 81.9236 17.8630 36.0915 0.0000 0.0000 0.0000
# 2 17.8630 84.8087 25.1385 0.0000 0.0000 0.0000
# 3 36.0915 25.1385 101.1816 0.0000 0.0000 0.0000
# 4 0.0000 0.0000 0.0000 23.4864 0.0000 0.0000
# 5 0.0000 0.0000 0.0000 0.0000 26.0632 0.0000
# 6 0.0000 0.0000 0.0000 0.0000 0.0000 4.7852
#
#
#
# Elastic Compliance Matrix: (Units=1/GPa)
#
#
# Indices 1 2 3 4 5 6 
#
# 1 0.014697 -0.001664 -0.004829 0.000000 0.000000 0.000000
# 2 -0.001664 0.012917 -0.002616 0.000000 0.000000 0.000000
# 3 -0.004829 -0.002616 0.012256 0.000000 0.000000 0.000000
# 4 0.000000 0.000000 0.000000 0.042578 0.000000 0.000000
# 5 0.000000 0.000000 0.000000 0.000000 0.038368 0.000000
# 6 0.000000 0.000000 0.000000 0.000000 0.000000 0.208977
#
#
# Mechanical properties :
#
#
# Convention : Reuss Voigt Hill
#
# Bulk Modulus (GPa) = 46.18514 47.34443 46.76478
# Shear Modulus (GPa) = 14.07551 23.45502 18.76526
#
# Velocity S-wave (km/s) = 2.68732 3.46901 3.10288
# Velocity P-wave (km/s) = 5.77278 6.35108 6.06882
#
# Compressibility (1/GPa) = 0.02165199
#
# Stress axis : x y z
#
# Youngs Moduli (GPa) = 68.04248 77.41690 81.59595
#
# Poissons Ratio (x) = 0.12884 0.39401
# Poissons Ratio (y) = 0.11324 0.21342
# Poissons Ratio (z) = 0.32857 0.20249
#
# Static dielectric constant tensor:
#      x y z
#    x 3.575150 0.000000 0.000000 
#    y 0.000000 3.483590 0.000000 
#    z 0.000000 0.000000 3.537290 
# 
# 
# High freq. dielectric constant tensor:
#      x y z
#    x 1.757720 0.000000 0.000000 
#    y 0.000000 1.741440 0.000000 
#    z 0.000000 0.000000 1.759590 
# 
# From -- ./inp_files/16868.got.cif
#   From: 2010.03.12/outbox.cif.g09.slc.cpg/sg50_9_cif.got.tgz:16868.got - 2010.04.16 13:23:21.
