data_PCOD8204839
_publ_section_title
;
Structure prediction by ZEFSAII (Michael W. Deem and Ramdas Pophale) SiO2 
 PCOD8204839
Probable space group: P B A N
;
_chemical_formula_sum "Si O2"
_cell_formula_units_Z 44
_cell_length_a 17.303591
_cell_length_b 13.582959
_cell_length_c 10.035101
_cell_angle_alpha 90.000000
_cell_angle_beta 90.000000
_cell_angle_gamma 90.000000
_cell_volume 2358.589598
_symmetry_space_group_name_H-M "P B A N"
_symmetry_group_IT_number 50
_space_group.IT_coordinate_system_code '2'
_symmetry_cell_setting 'orthorhombic'
loop_
_space_group_symop_operation_xyz
x,y,z
1/2-x,1/2-y,z
x,1/2-y,-z
1/2-x,y,-z
-x,-y,-z
1/2+x,1/2+y,-z
-x,1/2+y,z
1/2+x,-y,z
loop_
_atom_site_type_symbol
_atom_site_label
_atom_site_fract_x
_atom_site_fract_y
_atom_site_fract_z
Si Si1 0.925112 0.953042 0.741274
Si Si2 0.975539 0.751746 0.643709
Si Si3 0.922266 0.562516 0.766085
Si Si4 0.163444 0.966308 0.514652
Si Si5 0.122145 0.750000 0.500000
Si Si6 0.840967 0.636669 0.012482
O O1 0.975091 0.860449 0.698710
O O2 0.863244 0.916584 0.849462
O O3 0.883652 0.002681 0.615722
O O4 0.991213 0.025011 0.797507
O O5 0.932996 0.750000 0.500000
O O6 0.929097 0.677823 0.735414
O O7 0.066303 0.723942 0.626102
O O8 0.879348 0.505821 0.646454
O O9 0.872766 0.561911 0.900323
O O10 0.250000 0.009665 0.500000
O O11 0.172065 0.847633 0.526987
O O12 0.872192 0.750000 0.000000
O O13 0.750000 0.638429 0.000000
#
# Coordination Sequence:
#
# PCOD8204839 Si02
#       6
#     8   8   8   8   4   8
#     4  12  21  40  62  86 113 157 199 237 282 348
#     4  10  18  34  62  90 112 140 202 248 276 330
#     4  12  21  40  62  86 113 157 199 237 282 348
#     4  12  23  36  61  91 121 152 189 238 293 344
#     4  10  19  38  56  90 123 146 186 246 285 336
#     4  11  25  40  56  85 123 153 189 243 297 340
#
# _framework density 18.655217
#
# number of rings (size 3 to 8) (size 9 to 14) (size 15 to 20)
#    0.545    0.182    7.273    2.455    0.000    0.000 
#    0.000    0.909    0.000    0.000    0.000    5.091 
#    0.000    0.000    0.000    0.000    0.000    0.000 
#
# Total GULP energy -545225.710874 kJ/mol
# GULP energy per Si atom -12391.493429 kJ/mol
# Density = 1.861276 g / cm^3
# Si number density = 18.655217 Si / 1000 Ang^3
#
#
#
# Elastic Constant Matrix: (Units=GPa)
#
#
# Indices 1 2 3 4 5 6 
#
# 1 91.4555 20.3837 26.6195 0.0000 0.0000 0.0000
# 2 20.3837 94.1045 29.1232 0.0000 0.0000 0.0000
# 3 26.6195 29.1232 100.8549 0.0000 0.0000 0.0000
# 4 0.0000 0.0000 0.0000 12.9887 0.0000 0.0000
# 5 0.0000 0.0000 0.0000 0.0000 31.6969 0.0000
# 6 0.0000 0.0000 0.0000 0.0000 0.0000 25.7917
#
#
#
# Elastic Compliance Matrix: (Units=1/GPa)
#
#
# Indices 1 2 3 4 5 6 
#
# 1 0.012114 -0.001795 -0.002679 0.000000 0.000000 0.000000
# 2 -0.001795 0.011935 -0.002973 0.000000 0.000000 0.000000
# 3 -0.002679 -0.002973 0.011481 0.000000 0.000000 0.000000
# 4 0.000000 0.000000 0.000000 0.076990 0.000000 0.000000
# 5 0.000000 0.000000 0.000000 0.000000 0.031549 0.000000
# 6 0.000000 0.000000 0.000000 0.000000 0.000000 0.038772
#
#
# Mechanical properties :
#
#
# Convention : Reuss Voigt Hill
#
# Bulk Modulus (GPa) = 48.45726 48.74085 48.59906
# Shear Modulus (GPa) = 24.43632 28.11469 26.27550
#
# Velocity S-wave (km/s) = 3.62317 3.88631 3.75704
# Velocity P-wave (km/s) = 6.59808 6.80601 6.70285
#
# Compressibility (1/GPa) = 0.02063674
#
# Stress axis : x y z
#
# Youngs Moduli (GPa) = 82.54835 83.78533 87.10223
#
# Poissons Ratio (x) = 0.15039 0.23335
# Poissons Ratio (y) = 0.14816 0.25893
# Poissons Ratio (z) = 0.22115 0.24907
#
# Static dielectric constant tensor:
#      x y z
#    x 3.272270 0.000000 0.000000 
#    y 0.000000 3.457370 0.000000 
#    z 0.000000 0.000000 3.268390 
# 
# 
# High freq. dielectric constant tensor:
#      x y z
#    x 1.718880 0.000000 0.000000 
#    y 0.000000 1.733620 0.000000 
#    z 0.000000 0.000000 1.714340 
# 
# From -- ./inp_files/14134.got.cif
#   From: 2010.03.12/outbox.cif.g09.slc.cpg/sg50_8_cif.got.tgz:14134.got - 2010.04.16 13:23:21.
