data_PCOD8204782
_publ_section_title
;
Structure prediction by ZEFSAII (Michael W. Deem and Ramdas Pophale) SiO2 
 PCOD8204782
Probable space group: P B A N
;
_chemical_formula_sum "Si O2"
_cell_formula_units_Z 48
_cell_length_a 14.137094
_cell_length_b 15.277754
_cell_length_c 9.552643
_cell_angle_alpha 90.000000
_cell_angle_beta 90.000000
_cell_angle_gamma 90.000000
_cell_volume 2063.208917
_symmetry_space_group_name_H-M "P B A N"
_symmetry_group_IT_number 50
_space_group.IT_coordinate_system_code '2'
_symmetry_cell_setting 'orthorhombic'
loop_
_space_group_symop_operation_xyz
x,y,z
1/2-x,1/2-y,z
x,1/2-y,-z
1/2-x,y,-z
-x,-y,-z
1/2+x,1/2+y,-z
-x,1/2+y,z
1/2+x,-y,z
loop_
_atom_site_type_symbol
_atom_site_label
_atom_site_fract_x
_atom_site_fract_y
_atom_site_fract_z
Si Si1 0.811511 0.035535 0.774038
Si Si2 0.982686 0.844228 0.754607
Si Si3 0.647405 0.882714 0.016491
Si Si4 0.145297 0.726341 0.837845
Si Si5 0.854605 0.588094 0.468852
Si Si6 0.102682 0.011650 0.757679
O O1 0.867519 0.123817 0.809743
O O2 0.697848 0.046505 0.771010
O O3 0.836320 0.971043 0.898094
O O4 0.844106 0.999307 0.624355
O O5 0.920249 0.819024 0.892266
O O6 0.917482 0.839908 0.614971
O O7 0.068966 0.776862 0.742164
O O8 0.016439 0.944797 0.775842
O O9 0.750000 0.836207 0.000000
O O10 0.598812 0.909501 0.870400
O O11 0.250000 0.750000 0.786032
O O12 0.130601 0.750000 0.000000
O O13 0.750000 0.627778 0.500000
O O14 0.907300 0.560617 0.609815
#
# Coordination Sequence:
#
# PCOD8204782 Si02
#       6
#     8   8   8   8   8   8
#     4   9  18  35  54  86 130 171 205 260 331 381
#     4  11  20  34  57  92 123 166 220 261 322 386
#     4   9  19  33  59  90 123 157 217 273 314 367
#     4  11  22  35  58  91 136 176 208 263 334 403
#     4   9  20  36  58  86 128 168 218 275 318 368
#     4  10  17  31  55  88 123 165 205 268 320 375
#
# _framework density 23.264731000000001
#
# number of rings (size 3 to 8) (size 9 to 14) (size 15 to 20)
#    0.000    2.167    1.667    3.000    4.667    1.333 
#    0.000    0.833    0.000    2.500    0.000    2.333 
#    0.000   16.000    0.000    0.000    0.000    2.000 
#
# Total GULP energy -595211.791946 kJ/mol
# GULP energy per Si atom -12400.245666 kJ/mol
# Density = 2.321178 g / cm^3
# Si number density = 23.264731 Si / 1000 Ang^3
#
#
#
# Elastic Constant Matrix: (Units=GPa)
#
#
# Indices 1 2 3 4 5 6 
#
# 1 140.0269 27.8615 43.1752 0.0000 0.0000 0.0000
# 2 27.8615 54.7854 19.7775 0.0000 0.0000 0.0000
# 3 43.1752 19.7775 145.7288 0.0000 0.0000 0.0000
# 4 0.0000 0.0000 0.0000 19.6549 0.0000 0.0000
# 5 0.0000 0.0000 0.0000 0.0000 26.6696 0.0000
# 6 0.0000 0.0000 0.0000 0.0000 0.0000 31.4853
#
#
#
# Elastic Compliance Matrix: (Units=1/GPa)
#
#
# Indices 1 2 3 4 5 6 
#
# 1 0.008479 -0.003580 -0.002026 0.000000 0.000000 0.000000
# 2 -0.003580 0.020705 -0.001749 0.000000 0.000000 0.000000
# 3 -0.002026 -0.001749 0.007700 0.000000 0.000000 0.000000
# 4 0.000000 0.000000 0.000000 0.050878 0.000000 0.000000
# 5 0.000000 0.000000 0.000000 0.000000 0.037496 0.000000
# 6 0.000000 0.000000 0.000000 0.000000 0.000000 0.031761
#
#
# Mechanical properties :
#
#
# Convention : Reuss Voigt Hill
#
# Bulk Modulus (GPa) = 45.10147 58.01886 51.56016
# Shear Modulus (GPa) = 27.91416 32.21041 30.06229
#
# Velocity S-wave (km/s) = 3.46764 3.72495 3.59859
# Velocity P-wave (km/s) = 5.95491 6.59492 6.28307
#
# Compressibility (1/GPa) = 0.02217223
#
# Stress axis : x y z
#
# Youngs Moduli (GPa) = 117.94402 48.29660 129.87491
#
# Poissons Ratio (x) = 0.17292 0.26313
# Poissons Ratio (y) = 0.42229 0.22718
# Poissons Ratio (z) = 0.23896 0.08448
#
# Static dielectric constant tensor:
#      x y z
#    x 4.681870 0.000000 0.000000 
#    y 0.000000 3.644390 0.000000 
#    z 0.000000 0.000000 4.352480 
# 
# 
# High freq. dielectric constant tensor:
#      x y z
#    x 1.941400 0.000000 0.000000 
#    y 0.000000 1.881530 0.000000 
#    z 0.000000 0.000000 1.917250 
# 
# From -- ./inp_files/12973.got.cif
#   From: 2010.03.12/outbox.cif.g09.slc.cpg/sg50_7_cif.got.tgz:12973.got - 2010.04.16 13:23:21.
