data_PCOD8204385
_publ_section_title
;
Structure prediction by ZEFSAII (Michael W. Deem and Ramdas Pophale) SiO2 
 PCOD8204385
Probable space group: P C C M
;
_chemical_formula_sum "Si O2"
_cell_formula_units_Z 32
_cell_length_a 12.201285
_cell_length_b 8.629916
_cell_length_c 13.926522
_cell_angle_alpha 90.000000
_cell_angle_beta 90.000000
_cell_angle_gamma 90.000000
_cell_volume 1466.407961
_symmetry_space_group_name_H-M "P C C M"
_symmetry_group_IT_number 49
_symmetry_cell_setting 'orthorhombic'
loop_
_space_group_symop_operation_xyz
x,y,z
-x,-y,z
x,-y,1/2-z
-x,y,1/2-z
-x,-y,-z
x,y,-z
-x,y,1/2+z
x,-y,1/2+z
loop_
_atom_site_type_symbol
_atom_site_label
_atom_site_fract_x
_atom_site_fract_y
_atom_site_fract_z
Si Si1 0.052673 0.750659 0.000000
Si Si2 0.380936 0.563579 0.610623
Si Si3 0.835266 0.081566 0.500000
Si Si4 0.827110 0.374648 0.822731
Si Si5 0.715171 0.853568 0.195153
O O1 0.086248 0.652025 0.092943
O O2 0.922135 0.776705 0.000000
O O3 0.110279 0.915147 0.000000
O O4 0.500000 0.500000 0.633912
O O5 0.367478 0.610152 0.500000
O O6 0.289307 0.436890 0.636941
O O7 0.371579 0.717438 0.675436
O O8 0.762673 0.091734 0.405730
O O9 0.878616 0.500000 0.750000
O O10 0.809793 0.213700 0.765289
O O11 0.660210 0.000000 0.250000
#
# Coordination Sequence:
#
# PCOD8204385 Si02
#       5
#     4   8   4   8   8
#     4  11  22  43  65  94 138 177 224 271 334 397
#     4  10  21  41  69  96 132 176 217 268 336 395
#     4  11  24  41  67  96 132 178 219 275 333 387
#     4  10  22  39  65  95 133 177 216 278 329 386
#     4  11  22  41  67  98 133 168 222 275 326 396
#
# _framework density 21.822030999999999
#
# number of rings (size 3 to 8) (size 9 to 14) (size 15 to 20)
#    0.000    1.500    5.000    0.000    0.000    5.500 
#    0.000   16.250    0.000    4.500    0.000    0.000 
#    0.000    0.000    0.000    0.000    0.000    0.000 
#
# Total GULP energy -396803.254561 kJ/mol
# GULP energy per Si atom -12400.101705 kJ/mol
# Density = 2.177236 g / cm^3
# Si number density = 21.822031 Si / 1000 Ang^3
#
#
#
# Elastic Constant Matrix: (Units=GPa)
#
#
# Indices 1 2 3 4 5 6 
#
# 1 71.9784 22.3200 42.3771 0.0000 0.0000 0.0000
# 2 22.3200 106.4968 55.7045 0.0000 0.0000 0.0000
# 3 42.3771 55.7045 161.9475 0.0000 0.0000 0.0000
# 4 0.0000 0.0000 0.0000 47.9217 0.0000 0.0000
# 5 0.0000 0.0000 0.0000 0.0000 -30.8467 0.0000
# 6 0.0000 0.0000 0.0000 0.0000 0.0000 18.8719
#
#
#
# Elastic Compliance Matrix: (Units=1/GPa)
#
#
# Indices 1 2 3 4 5 6 
#
# 1 0.016610 -0.001473 -0.003840 0.000000 0.000000 0.000000
# 2 -0.001473 0.011581 -0.003598 0.000000 0.000000 0.000000
# 3 -0.003840 -0.003598 0.008417 0.000000 0.000000 0.000000
# 4 0.000000 0.000000 0.000000 0.020867 0.000000 0.000000
# 5 0.000000 0.000000 0.000000 0.000000 -0.032418 0.000000
# 6 0.000000 0.000000 0.000000 0.000000 0.000000 0.052989
#
#
# Mechanical properties :
#
#
# Convention : Reuss Voigt Hill
#
# Bulk Modulus (GPa) = 53.22826 64.58066 58.90446
# Shear Modulus (GPa) = 48.95732 21.85745 35.40739
#
# Velocity S-wave (km/s) = 4.74168 3.16828 4.03246
# Velocity P-wave (km/s) = 7.37719 6.56068 6.98088
#
# Compressibility (1/GPa) = 0.01878701
#
# Stress axis : x y z
#
# Youngs Moduli (GPa) = 60.20293 86.35150 118.80425
#
# Poissons Ratio (x) = 0.12718 0.45620
# Poissons Ratio (y) = 0.08867 0.42745
# Poissons Ratio (z) = 0.23117 0.31069
#
# Static dielectric constant tensor:
#      x y z
#    x 3.571420 0.000000 0.000000 
#    y 0.000000 4.121640 0.000000 
#    z 0.000000 0.000000 4.319470 
# 
# 
# High freq. dielectric constant tensor:
#      x y z
#    x 1.825450 0.000000 0.000000 
#    y 0.000000 1.866840 0.000000 
#    z 0.000000 0.000000 1.888210 
# 
# From -- ./inp_files/11235.got.cif
#   From: 2010.03.12/outbox.cif.g09.slc.cpg/sg49_6_cif.got.tgz:11235.got - 2010.04.14 03:58:27.
