data_PCOD8204411
_publ_section_title
;
Structure prediction by ZEFSAII (Michael W. Deem and Ramdas Pophale) SiO2 
 PCOD8204411
Probable space group: P C C M
;
_chemical_formula_sum "Si O2"
_cell_formula_units_Z 32
_cell_length_a 8.516636
_cell_length_b 10.506070
_cell_length_c 15.760902
_cell_angle_alpha 90.000000
_cell_angle_beta 90.000000
_cell_angle_gamma 90.000000
_cell_volume 1410.228362
_symmetry_space_group_name_H-M "P C C M"
_symmetry_group_IT_number 49
_symmetry_cell_setting 'orthorhombic'
loop_
_space_group_symop_operation_xyz
x,y,z
-x,-y,z
x,-y,1/2-z
-x,y,1/2-z
-x,-y,-z
x,y,-z
-x,y,1/2+z
x,-y,1/2+z
loop_
_atom_site_type_symbol
_atom_site_label
_atom_site_fract_x
_atom_site_fract_y
_atom_site_fract_z
Si Si1 0.175673 0.550775 0.404772
Si Si2 0.396057 0.119418 0.903979
Si Si3 0.599573 0.336124 0.830794
Si Si4 0.832235 0.211818 0.281845
O O1 0.215972 0.599868 0.500000
O O2 0.313736 0.451453 0.379258
O O3 0.167730 0.658853 0.335186
O O4 0.000000 0.500000 0.404845
O O5 0.483217 0.256000 0.891858
O O6 0.245417 0.105824 0.842291
O O7 0.500000 0.000000 0.878471
O O8 0.337511 0.108983 0.000000
O O9 0.500000 0.387023 0.750000
O O10 0.730261 0.234954 0.802006
O O11 0.000000 0.164570 0.250000
#
# Coordination Sequence:
#
# PCOD8204411 Si02
#       4
#     8   8   8   8
#     4  11  22  37  62  95 136 173 211 262 323 390
#     4  10  23  45  68  93 130 171 220 273 322 382
#     4  10  22  38  64  97 130 175 215 266 323 386
#     4  11  22  39  64  95 131 169 213 266 324 390
#
# _framework density 22.691361000000001
#
# number of rings (size 3 to 8) (size 9 to 14) (size 15 to 20)
#    0.000    1.500    2.500    2.250    0.000   11.500 
#    0.000    8.750    0.000    3.000    0.000    0.000 
#    0.000    0.000    0.000    0.000    0.000    0.000 
#
# Total GULP energy -396612.609823 kJ/mol
# GULP energy per Si atom -12394.144057 kJ/mol
# Density = 2.263971 g / cm^3
# Si number density = 22.691361 Si / 1000 Ang^3
#
#
#
# Elastic Constant Matrix: (Units=GPa)
#
#
# Indices 1 2 3 4 5 6 
#
# 1 152.9928 23.2051 58.0436 0.0000 0.0000 0.0000
# 2 23.2051 77.0624 24.5599 0.0000 0.0000 0.0000
# 3 58.0436 24.5599 101.8257 0.0000 0.0000 0.0000
# 4 0.0000 0.0000 0.0000 33.2156 0.0000 0.0000
# 5 0.0000 0.0000 0.0000 0.0000 38.8792 0.0000
# 6 0.0000 0.0000 0.0000 0.0000 0.0000 31.8411
#
#
#
# Elastic Compliance Matrix: (Units=1/GPa)
#
#
# Indices 1 2 3 4 5 6 
#
# 1 0.008424 -0.001090 -0.004539 0.000000 0.000000 0.000000
# 2 -0.001090 0.014198 -0.002803 0.000000 0.000000 0.000000
# 3 -0.004539 -0.002803 0.013084 0.000000 0.000000 0.000000
# 4 0.000000 0.000000 0.000000 0.030106 0.000000 0.000000
# 5 0.000000 0.000000 0.000000 0.000000 0.025721 0.000000
# 6 0.000000 0.000000 0.000000 0.000000 0.000000 0.031406
#
#
# Mechanical properties :
#
#
# Convention : Reuss Voigt Hill
#
# Bulk Modulus (GPa) = 53.07347 60.38866 56.73106
# Shear Modulus (GPa) = 34.22711 35.85869 35.04290
#
# Velocity S-wave (km/s) = 3.88800 3.97959 3.93406
# Velocity P-wave (km/s) = 6.60268 6.91281 6.75953
#
# Compressibility (1/GPa) = 0.01884181
#
# Stress axis : x y z
#
# Youngs Moduli (GPa) = 118.71520 70.43196 76.42905
#
# Poissons Ratio (x) = 0.07677 0.34689
# Poissons Ratio (y) = 0.12940 0.21424
# Poissons Ratio (z) = 0.53882 0.19743
#
# Static dielectric constant tensor:
#      x y z
#    x 5.104010 0.000000 0.000000 
#    y 0.000000 3.849900 0.000000 
#    z 0.000000 0.000000 4.332750 
# 
# 
# High freq. dielectric constant tensor:
#      x y z
#    x 1.911400 0.000000 0.000000 
#    y 0.000000 1.878830 0.000000 
#    z 0.000000 0.000000 1.902080 
# 
# From -- ./inp_files/11168.got.cif
#   From: 2010.03.12/outbox.cif.g09.slc.cpg/sg49_6_cif.got.tgz:11168.got - 2010.04.14 03:58:27.
