data_PCOD8204554
_publ_section_title
;
Structure prediction by ZEFSAII (Michael W. Deem and Ramdas Pophale) SiO2 
 PCOD8204554
Probable space group: P C C M
;
_chemical_formula_sum "Si O2"
_cell_formula_units_Z 56
_cell_length_a 29.426599
_cell_length_b 13.620660
_cell_length_c 8.934707
_cell_angle_alpha 90.000000
_cell_angle_beta 90.000000
_cell_angle_gamma 90.000000
_cell_volume 3581.117232
_symmetry_space_group_name_H-M "P C C M"
_symmetry_group_IT_number 49
_symmetry_cell_setting 'orthorhombic'
loop_
_space_group_symop_operation_xyz
x,y,z
-x,-y,z
x,-y,1/2-z
-x,y,1/2-z
-x,-y,-z
x,y,-z
-x,y,1/2+z
x,-y,1/2+z
loop_
_atom_site_type_symbol
_atom_site_label
_atom_site_fract_x
_atom_site_fract_y
_atom_site_fract_z
Si Si1 0.313452 0.703018 0.174450
Si Si2 0.363157 0.099944 0.325238
Si Si3 0.229851 0.392982 0.822592
Si Si4 0.858596 0.394344 0.824461
Si Si5 0.546869 0.796518 0.322730
Si Si6 0.957234 0.606017 0.674522
Si Si7 0.593876 0.398797 0.824870
O O1 0.327272 0.814580 0.212294
O O2 0.271175 0.676912 0.278257
O O3 0.354703 0.630613 0.217231
O O4 0.300765 0.691438 0.000000
O O5 0.365340 0.082144 0.500000
O O6 0.413298 0.130626 0.267247
O O7 0.346485 0.000000 0.250000
O O8 0.236845 0.500000 0.750000
O O9 0.183654 0.341140 0.758231
O O10 0.227030 0.403256 0.000000
O O11 0.861717 0.500000 0.750000
O O12 0.907906 0.341341 0.799622
O O13 0.847836 0.404417 0.000000
O O14 0.500000 0.831187 0.250000
O O15 0.542563 0.800467 0.500000
O O16 0.559548 0.686229 0.270054
O O17 0.955188 0.500000 0.750000
O O18 0.966967 0.594110 0.500000
O O19 0.000000 0.664702 0.750000
O O20 0.579378 0.500000 0.750000
O O21 0.589550 0.412484 0.000000
#
# Coordination Sequence:
#
# PCOD8204554 Si02
#       7
#     8   8   8   8   8   8   8
#     4   9  18  33  48  63  85 110 136 170 207 246
#     4   9  19  35  53  70  89 110 134 167 206 246
#     4  11  20  28  41  61  84 111 141 175 212 251
#     4   9  16  25  35  49  71 101 136 173 212 252
#     4   9  19  34  48  66  90 114 138 166 200 239
#     4   9  15  21  31  45  63  91 129 172 214 250
#     4   9  18  31  46  63  85 112 141 169 200 237
#
# _framework density 15.637578
#
# number of rings (size 3 to 8) (size 9 to 14) (size 15 to 20)
#    0.000    2.714    0.000    5.571    0.000    5.714 
#    0.000    5.714    0.000    0.000    0.000    0.000 
#    0.000    0.000    0.000    0.000    0.000    0.714 
#
# Total GULP energy -693917.205439 kJ/mol
# GULP energy per Si atom -12391.378669 kJ/mol
# Density = 1.560199 g / cm^3
# Si number density = 15.637578 Si / 1000 Ang^3
#
#
#
# Elastic Constant Matrix: (Units=GPa)
#
#
# Indices 1 2 3 4 5 6 
#
# 1 115.7221 19.6660 49.4030 0.0000 0.0000 0.0000
# 2 19.6660 58.2796 22.8362 0.0000 0.0000 0.0000
# 3 49.4030 22.8362 80.3790 0.0000 0.0000 0.0000
# 4 0.0000 0.0000 0.0000 19.3523 0.0000 0.0000
# 5 0.0000 0.0000 0.0000 0.0000 -14.6580 0.0000
# 6 0.0000 0.0000 0.0000 0.0000 0.0000 6.6354
#
#
#
# Elastic Compliance Matrix: (Units=1/GPa)
#
#
# Indices 1 2 3 4 5 6 
#
# 1 0.011800 -0.001283 -0.006888 0.000000 0.000000 0.000000
# 2 -0.001283 0.019448 -0.004737 0.000000 0.000000 0.000000
# 3 -0.006888 -0.004737 0.018020 0.000000 0.000000 0.000000
# 4 0.000000 0.000000 0.000000 0.051673 0.000000 0.000000
# 5 0.000000 0.000000 0.000000 0.000000 -0.068222 0.000000
# 6 0.000000 0.000000 0.000000 0.000000 0.000000 0.150707
#
#
# Mechanical properties :
#
#
# Convention : Reuss Voigt Hill
#
# Bulk Modulus (GPa) = 42.63907 48.68790 45.66348
# Shear Modulus (GPa) = 23.03521 13.09765 18.06643
#
# Velocity S-wave (km/s) = 3.84222 2.89723 3.40269
# Velocity P-wave (km/s) = 6.85637 6.51112 6.68597
#
# Compressibility (1/GPa) = 0.02345267
#
# Stress axis : x y z
#
# Youngs Moduli (GPa) = 84.74574 51.42026 55.49259
#
# Poissons Ratio (x) = 0.06596 0.38224
# Poissons Ratio (y) = 0.10871 0.26285
# Poissons Ratio (z) = 0.58374 0.24356
#
# Static dielectric constant tensor:
#      x y z
#    x 3.716650 0.000000 0.000000 
#    y 0.000000 3.181580 0.000000 
#    z 0.000000 0.000000 2.960140 
# 
# 
# High freq. dielectric constant tensor:
#      x y z
#    x 1.612230 0.000000 0.000000 
#    y 0.000000 1.540440 0.000000 
#    z 0.000000 0.000000 1.607130 
# 
# From -- ./inp_files/4491.got.cif
#   From: 2010.03.12/outbox.cif.g09.slc.cpg/sg49_3_cif.got.tgz:4491.got - 2010.04.14 03:58:27.
