data_PCOD8204828
_publ_section_title
;
Structure prediction by ZEFSAII (Michael W. Deem and Ramdas Pophale) SiO2 
 PCOD8204828
Probable space group: P B A N
;
_chemical_formula_sum "Si O2"
_cell_formula_units_Z 44
_cell_length_a 19.286631
_cell_length_b 14.955982
_cell_length_c 8.317556
_cell_angle_alpha 90.000000
_cell_angle_beta 90.000000
_cell_angle_gamma 90.000000
_cell_volume 2399.203238
_symmetry_space_group_name_H-M "P B A N"
_symmetry_group_IT_number 50
_space_group.IT_coordinate_system_code '2'
_symmetry_cell_setting 'orthorhombic'
loop_
_space_group_symop_operation_xyz
x,y,z
1/2-x,1/2-y,z
x,1/2-y,-z
1/2-x,y,-z
-x,-y,-z
1/2+x,1/2+y,-z
-x,1/2+y,z
1/2+x,-y,z
loop_
_atom_site_type_symbol
_atom_site_label
_atom_site_fract_x
_atom_site_fract_y
_atom_site_fract_z
Si Si1 0.952440 0.075967 0.430316
Si Si2 0.071133 0.506096 0.089696
Si Si3 0.964016 0.750000 0.500000
Si Si4 0.449073 0.188219 0.156602
Si Si5 0.825057 0.345690 0.433248
Si Si6 0.889160 0.336830 0.105634
O O1 0.942075 0.065433 0.243897
O O2 0.877216 0.075799 0.513271
O O3 0.988227 0.168707 0.457484
O O4 0.000000 0.000000 0.500000
O O5 0.094603 0.404215 0.129054
O O6 0.123070 0.568117 0.985789
O O7 0.000000 0.500000 0.000000
O O8 0.922486 0.728542 0.669431
O O9 0.531737 0.168905 0.174186
O O10 0.434022 0.250000 0.000000
O O11 0.848316 0.250000 0.500000
O O12 0.750000 0.372729 0.500000
O O13 0.830001 0.338096 0.241354
O O14 0.873457 0.250000 0.000000
#
# Coordination Sequence:
#
# PCOD8204828 Si02
#       6
#     8   8   4   8   8   8
#     4  12  20  34  57  83 119 155 198 242 292 355
#     4  10  19  32  49  78 107 150 197 243 292 349
#     4  12  18  32  53  82 117 154 186 240 310 338
#     4  10  19  31  50  79 116 145 191 248 293 354
#     4  11  22  37  54  83 122 159 197 240 294 366
#     4  10  18  33  53  72 107 155 194 236 285 346
#
# _framework density 18.339421000000002
#
# number of rings (size 3 to 8) (size 9 to 14) (size 15 to 20)
#    0.000    1.273    4.545    5.455    0.000    0.000 
#    0.000    6.364    0.000    0.000    0.000    0.636 
#    0.000    1.455    0.000    0.000    0.000    0.000 
#
# Total GULP energy -545080.482676 kJ/mol
# GULP energy per Si atom -12388.192788 kJ/mol
# Density = 1.829768 g / cm^3
# Si number density = 18.339421 Si / 1000 Ang^3
#
#
#
# Elastic Constant Matrix: (Units=GPa)
#
#
# Indices 1 2 3 4 5 6 
#
# 1 63.0449 41.2203 32.6379 0.0000 0.0000 0.0000
# 2 41.2203 143.2087 68.0495 0.0000 0.0000 0.0000
# 3 32.6379 68.0495 166.4857 0.0000 0.0000 0.0000
# 4 0.0000 0.0000 0.0000 38.8597 0.0000 0.0000
# 5 0.0000 0.0000 0.0000 0.0000 15.4828 0.0000
# 6 0.0000 0.0000 0.0000 0.0000 0.0000 12.5660
#
#
#
# Elastic Compliance Matrix: (Units=1/GPa)
#
#
# Indices 1 2 3 4 5 6 
#
# 1 0.020036 -0.004841 -0.001949 0.000000 0.000000 0.000000
# 2 -0.004841 0.009836 -0.003071 0.000000 0.000000 0.000000
# 3 -0.001949 -0.003071 0.007644 0.000000 0.000000 0.000000
# 4 0.000000 0.000000 0.000000 0.025734 0.000000 0.000000
# 5 0.000000 0.000000 0.000000 0.000000 0.064588 0.000000
# 6 0.000000 0.000000 0.000000 0.000000 0.000000 0.079580
#
#
# Mechanical properties :
#
#
# Convention : Reuss Voigt Hill
#
# Bulk Modulus (GPa) = 56.20199 72.95050 64.57625
# Shear Modulus (GPa) = 21.45282 28.77048 25.11165
#
# Velocity S-wave (km/s) = 3.42389 3.96508 3.70438
# Velocity P-wave (km/s) = 6.80755 7.79915 7.32016
#
# Compressibility (1/GPa) = 0.01779296
#
# Stress axis : x y z
#
# Youngs Moduli (GPa) = 49.91069 101.67246 130.82212
#
# Poissons Ratio (x) = 0.49217 0.25500
# Poissons Ratio (y) = 0.24161 0.40178
# Poissons Ratio (z) = 0.09729 0.31226
#
# Static dielectric constant tensor:
#      x y z
#    x 2.841730 0.000000 0.000000 
#    y 0.000000 3.781770 0.000000 
#    z 0.000000 0.000000 4.219690 
# 
# 
# High freq. dielectric constant tensor:
#      x y z
#    x 1.629140 0.000000 0.000000 
#    y 0.000000 1.723840 0.000000 
#    z 0.000000 0.000000 1.743460 
# 
# From -- ./inp_files/14147.got.cif
#   From: 2010.03.12/outbox.cif.g09.slc.cpg/sg50_8_cif.got.tgz:14147.got - 2010.04.16 13:23:21.
