data_PCOD8204637
_publ_section_title
;
Structure prediction by ZEFSAII (Michael W. Deem and Ramdas Pophale) SiO2 
 PCOD8204637
Probable space group: P C C M
;
_chemical_formula_sum "Si O2"
_cell_formula_units_Z 40
_cell_length_a 8.889902
_cell_length_b 23.952380
_cell_length_c 8.940632
_cell_angle_alpha 90.000000
_cell_angle_beta 90.000000
_cell_angle_gamma 90.000000
_cell_volume 1903.767314
_symmetry_space_group_name_H-M "P C C M"
_symmetry_group_IT_number 49
_symmetry_cell_setting 'orthorhombic'
loop_
_space_group_symop_operation_xyz
x,y,z
-x,-y,z
x,-y,1/2-z
-x,y,1/2-z
-x,-y,-z
x,y,-z
-x,y,1/2+z
x,-y,1/2+z
loop_
_atom_site_type_symbol
_atom_site_label
_atom_site_fract_x
_atom_site_fract_y
_atom_site_fract_z
Si Si1 0.835761 0.841366 0.679687
Si Si2 0.196653 0.450751 0.000000
Si Si3 0.677273 0.374970 0.730363
Si Si4 0.854419 0.581061 0.500000
Si Si5 0.153183 0.732599 0.331155
Si Si6 0.663951 0.055935 0.319459
O O1 0.831732 0.847849 0.500000
O O2 0.766729 0.781991 0.733761
O O3 0.751765 0.891145 0.760554
O O4 0.000000 0.841097 0.750000
O O5 0.292380 0.431341 0.140141
O O6 0.193000 0.516842 0.000000
O O7 0.035190 0.419063 0.000000
O O8 0.500000 0.370334 0.750000
O O9 0.783712 0.382775 0.870369
O O10 0.730436 0.318192 0.652454
O O11 0.115676 0.753578 0.500000
O O12 0.000000 0.713136 0.250000
O O13 0.500000 0.060554 0.250000
O O14 0.660622 0.053647 0.500000
O O15 0.740581 0.000000 0.250000
#
# Coordination Sequence:
#
# PCOD8204637 Si02
#       6
#     8   4   8   4   8   8
#     4  11  23  41  65  97 130 169 220 271 329 386
#     4  11  23  47  63  99 117 171 214 259 314 397
#     4  12  26  41  63  96 131 163 208 266 330 385
#     4  11  25  41  73  87 129 163 216 259 316 391
#     4  11  23  42  66  91 124 167 216 262 320 393
#     4  11  22  40  64  94 132 176 224 273 332 396
#
# _framework density 21.010971999999999
#
# number of rings (size 3 to 8) (size 9 to 14) (size 15 to 20)
#    0.000    0.800    1.000    9.000    2.800    5.200 
#    0.000    4.000    0.000    0.000    0.000    0.000 
#    0.000    0.000    0.000    0.000    0.000    0.000 
#
# Total GULP energy -495691.784934 kJ/mol
# GULP energy per Si atom -12392.294623 kJ/mol
# Density = 2.096315 g / cm^3
# Si number density = 21.010972 Si / 1000 Ang^3
#
#
#
# Elastic Constant Matrix: (Units=GPa)
#
#
# Indices 1 2 3 4 5 6 
#
# 1 68.3333 44.8314 22.4513 0.0000 0.0000 0.0000
# 2 44.8314 117.3867 35.8649 0.0000 0.0000 0.0000
# 3 22.4513 35.8649 179.6149 0.0000 0.0000 0.0000
# 4 0.0000 0.0000 0.0000 39.0375 0.0000 0.0000
# 5 0.0000 0.0000 0.0000 0.0000 31.4807 0.0000
# 6 0.0000 0.0000 0.0000 0.0000 0.0000 57.2327
#
#
#
# Elastic Compliance Matrix: (Units=1/GPa)
#
#
# Indices 1 2 3 4 5 6 
#
# 1 0.019702 -0.007212 -0.001023 0.000000 0.000000 0.000000
# 2 -0.007212 0.011712 -0.001437 0.000000 0.000000 0.000000
# 3 -0.001023 -0.001437 0.005982 0.000000 0.000000 0.000000
# 4 0.000000 0.000000 0.000000 0.025616 0.000000 0.000000
# 5 0.000000 0.000000 0.000000 0.000000 0.031765 0.000000
# 6 0.000000 0.000000 0.000000 0.000000 0.000000 0.017473
#
#
# Mechanical properties :
#
#
# Convention : Reuss Voigt Hill
#
# Bulk Modulus (GPa) = 55.39299 63.51443 59.45371
# Shear Modulus (GPa) = 36.33420 43.02935 39.68177
#
# Velocity S-wave (km/s) = 4.16299 4.53033 4.35054
# Velocity P-wave (km/s) = 7.03764 7.59342 7.32081
#
# Compressibility (1/GPa) = 0.01805283
#
# Stress axis : x y z
#
# Youngs Moduli (GPa) = 50.75725 85.38067 167.16072
#
# Poissons Ratio (x) = 0.61575 0.17094
# Poissons Ratio (y) = 0.36605 0.24024
# Poissons Ratio (z) = 0.05190 0.12271
#
# Static dielectric constant tensor:
#      x y z
#    x 3.600860 0.000000 0.000000 
#    y 0.000000 4.875360 0.000000 
#    z 0.000000 0.000000 4.082400 
# 
# 
# High freq. dielectric constant tensor:
#      x y z
#    x 1.807830 0.000000 0.000000 
#    y 0.000000 1.843640 0.000000 
#    z 0.000000 0.000000 1.847300 
# 
# From -- ./inp_files/1938.got.cif
#   From: 2010.03.12/outbox.cif.g09.slc.cpg/sg49_1_cif.got.tgz:1938.got - 2010.04.14 03:58:27.
