data_PCOD8204060
_publ_section_title
;
Structure prediction by ZEFSAII (Michael W. Deem and Ramdas Pophale) SiO2 
 PCOD8204060
Probable space group: P C C M
;
_chemical_formula_sum "Si O2"
_cell_formula_units_Z 48
_cell_length_a 15.482751
_cell_length_b 8.537486
_cell_length_c 15.937303
_cell_angle_alpha 90.000000
_cell_angle_beta 90.000000
_cell_angle_gamma 90.000000
_cell_volume 2106.652793
_symmetry_space_group_name_H-M "P C C M"
_symmetry_group_IT_number 49
_symmetry_cell_setting 'orthorhombic'
loop_
_space_group_symop_operation_xyz
x,y,z
-x,-y,z
x,-y,1/2-z
-x,y,1/2-z
-x,-y,-z
x,y,-z
-x,y,1/2+z
x,-y,1/2+z
loop_
_atom_site_type_symbol
_atom_site_label
_atom_site_fract_x
_atom_site_fract_y
_atom_site_fract_z
Si Si1 0.646511 0.190384 0.906696
Si Si2 0.811140 0.360048 0.098724
Si Si3 0.527844 0.323021 0.599464
Si Si4 0.992167 0.684109 0.345260
Si Si5 0.172086 0.283114 0.096407
Si Si6 0.325915 0.113500 0.168050
O O1 0.726857 0.276942 0.859259
O O2 0.553724 0.224416 0.866263
O O3 0.659511 0.004175 0.909384
O O4 0.642596 0.259727 0.000000
O O5 0.897594 0.263733 0.123175
O O6 0.815429 0.539045 0.129012
O O7 0.802286 0.350379 0.000000
O O8 0.500000 0.500000 0.619982
O O9 0.549037 0.302568 0.500000
O O10 0.608044 0.259952 0.656029
O O11 0.000000 0.500000 0.359809
O O12 0.000000 0.735543 0.250000
O O13 0.071029 0.765154 0.395761
O O14 0.228767 0.178443 0.159552
O O15 0.201986 0.263561 0.000000
O O16 0.338354 0.000000 0.250000
#
# Coordination Sequence:
#
# PCOD8204060 Si02
#       6
#     8   8   8   8   8   8
#     4  10  21  38  62  89 123 166 208 261 324 395
#     4   9  18  35  62  94 124 161 218 274 323 384
#     4  10  21  42  71  97 121 162 221 275 321 387
#     4   9  18  32  58  92 126 162 209 272 333 380
#     4  10  20  38  63  90 122 169 223 271 316 385
#     4  12  26  40  59  91 132 174 208 264 334 402
#
# _framework density 22.784960999999999
#
# number of rings (size 3 to 8) (size 9 to 14) (size 15 to 20)
#    0.000    2.000    0.000    3.500    2.333    7.333 
#    0.000    4.167    0.000    3.000    0.000    0.000 
#    0.000    0.000    0.000    0.000    0.000    0.000 
#
# Total GULP energy -594748.203092 kJ/mol
# GULP energy per Si atom -12390.587564 kJ/mol
# Density = 2.273310 g / cm^3
# Si number density = 22.784961 Si / 1000 Ang^3
#
#
#
# Elastic Constant Matrix: (Units=GPa)
#
#
# Indices 1 2 3 4 5 6 
#
# 1 149.3323 41.2480 38.0252 0.0000 0.0000 0.0000
# 2 41.2480 83.3183 23.7601 0.0000 0.0000 0.0000
# 3 38.0252 23.7601 58.6801 0.0000 0.0000 0.0000
# 4 0.0000 0.0000 0.0000 19.7367 0.0000 0.0000
# 5 0.0000 0.0000 0.0000 0.0000 26.5264 0.0000
# 6 0.0000 0.0000 0.0000 0.0000 0.0000 31.9998
#
#
#
# Elastic Compliance Matrix: (Units=1/GPa)
#
#
# Indices 1 2 3 4 5 6 
#
# 1 0.008649 -0.003034 -0.004376 0.000000 0.000000 0.000000
# 2 -0.003034 0.014633 -0.003959 0.000000 0.000000 0.000000
# 3 -0.004376 -0.003959 0.021480 0.000000 0.000000 0.000000
# 4 0.000000 0.000000 0.000000 0.050667 0.000000 0.000000
# 5 0.000000 0.000000 0.000000 0.000000 0.037698 0.000000
# 6 0.000000 0.000000 0.000000 0.000000 0.000000 0.031250
#
#
# Mechanical properties :
#
#
# Convention : Reuss Voigt Hill
#
# Bulk Modulus (GPa) = 45.40452 55.26640 50.33546
# Shear Modulus (GPa) = 25.71259 28.20573 26.95916
#
# Velocity S-wave (km/s) = 3.36294 3.52221 3.44350
# Velocity P-wave (km/s) = 5.92029 6.39137 6.16034
#
# Compressibility (1/GPa) = 0.02202424
#
# Stress axis : x y z
#
# Youngs Moduli (GPa) = 115.62367 68.33805 46.55406
#
# Poissons Ratio (x) = 0.20732 0.20372
# Poissons Ratio (y) = 0.35077 0.18432
# Poissons Ratio (z) = 0.50598 0.27056
#
# Static dielectric constant tensor:
#      x y z
#    x 4.579000 0.000000 0.000000 
#    y 0.000000 3.998410 0.000000 
#    z 0.000000 0.000000 3.813520 
# 
# 
# High freq. dielectric constant tensor:
#      x y z
#    x 1.921960 0.000000 0.000000 
#    y 0.000000 1.873960 0.000000 
#    z 0.000000 0.000000 1.878520 
# 
# From -- ./inp_files/17725.got.cif
#   From: 2010.03.12/outbox.cif.g09.slc.cpg/sg49_9_cif.got.tgz:17725.got - 2010.04.14 03:58:27.
