data_PCOD8204219
_publ_section_title
;
Structure prediction by ZEFSAII (Michael W. Deem and Ramdas Pophale) SiO2 
 PCOD8204219
Probable space group: P C C M
;
_chemical_formula_sum "Si O2"
_cell_formula_units_Z 48
_cell_length_a 30.920067
_cell_length_b 9.144170
_cell_length_c 8.890719
_cell_angle_alpha 90.000000
_cell_angle_beta 90.000000
_cell_angle_gamma 90.000000
_cell_volume 2513.747212
_symmetry_space_group_name_H-M "P C C M"
_symmetry_group_IT_number 49
_symmetry_cell_setting 'orthorhombic'
loop_
_space_group_symop_operation_xyz
x,y,z
-x,-y,z
x,-y,1/2-z
-x,y,1/2-z
-x,-y,-z
x,y,-z
-x,y,1/2+z
x,-y,1/2+z
loop_
_atom_site_type_symbol
_atom_site_label
_atom_site_fract_x
_atom_site_fract_y
_atom_site_fract_z
Si Si1 0.544711 0.848905 0.824391
Si Si2 0.135765 0.156889 0.324214
Si Si3 0.626748 0.342631 0.675736
Si Si4 0.785059 0.655235 0.676048
Si Si5 0.959222 0.842092 0.324687
Si Si6 0.298469 0.156963 0.322688
O O1 0.500000 0.796342 0.750000
O O2 0.579272 0.722101 0.795478
O O3 0.560937 0.000000 0.750000
O O4 0.537443 0.877582 0.000000
O O5 0.142929 0.131177 0.500000
O O6 0.171564 0.267950 0.259740
O O7 0.088096 0.227943 0.292995
O O8 0.141647 0.000000 0.250000
O O9 0.629808 0.500000 0.750000
O O10 0.637443 0.355975 0.500000
O O11 0.660540 0.235600 0.752250
O O12 0.778427 0.500000 0.750000
O O13 0.789141 0.630632 0.500000
O O14 0.744291 0.753621 0.718539
O O15 0.968341 0.856315 0.500000
O O16 0.000000 0.753801 0.250000
O O17 0.957966 0.000000 0.250000
O O18 0.305398 0.141446 0.500000
O O19 0.293022 0.000000 0.250000
#
# Coordination Sequence:
#
# PCOD8204219 Si02
#       6
#     8   8   8   8   8   8
#     4  10  21  37  59  85 113 148 189 233 278 325
#     4   9  18  32  50  74 103 134 171 215 261 311
#     4  11  24  40  59  85 117 152 188 228 276 328
#     4  10  22  38  55  78 107 139 176 218 265 317
#     4   9  15  24  41  66  97 129 163 207 256 305
#     4  11  23  39  61  86 112 143 181 225 271 323
#
# _framework density 19.094999999999999
#
# number of rings (size 3 to 8) (size 9 to 14) (size 15 to 20)
#    0.000    2.000    0.000    4.500    0.000    8.333 
#    0.000    1.667    0.000    0.500    0.000    3.500 
#    0.000    0.000    0.000    0.000    0.000    0.000 
#
# Total GULP energy -595105.258767 kJ/mol
# GULP energy per Si atom -12398.026224 kJ/mol
# Density = 1.905154 g / cm^3
# Si number density = 19.095000 Si / 1000 Ang^3
#
#
#
# Elastic Constant Matrix: (Units=GPa)
#
#
# Indices 1 2 3 4 5 6 
#
# 1 142.3577 68.0489 70.1410 0.0000 0.0000 0.0000
# 2 68.0489 125.3150 57.2854 0.0000 0.0000 0.0000
# 3 70.1410 57.2854 99.7113 0.0000 0.0000 0.0000
# 4 0.0000 0.0000 0.0000 27.5413 0.0000 0.0000
# 5 0.0000 0.0000 0.0000 0.0000 29.2368 0.0000
# 6 0.0000 0.0000 0.0000 0.0000 0.0000 33.1289
#
#
#
# Elastic Compliance Matrix: (Units=1/GPa)
#
#
# Indices 1 2 3 4 5 6 
#
# 1 0.011809 -0.003547 -0.006269 0.000000 0.000000 0.000000
# 2 -0.003547 0.011887 -0.004335 0.000000 0.000000 0.000000
# 3 -0.006269 -0.004335 0.016929 0.000000 0.000000 0.000000
# 4 0.000000 0.000000 0.000000 0.036309 0.000000 0.000000
# 5 0.000000 0.000000 0.000000 0.000000 0.034204 0.000000
# 6 0.000000 0.000000 0.000000 0.000000 0.000000 0.030185
#
#
# Mechanical properties :
#
#
# Convention : Reuss Voigt Hill
#
# Bulk Modulus (GPa) = 81.13897 84.25939 82.69918
# Shear Modulus (GPa) = 28.78000 29.44199 29.11100
#
# Velocity S-wave (km/s) = 3.88648 3.93092 3.90877
# Velocity P-wave (km/s) = 7.91986 8.05140 7.98590
#
# Compressibility (1/GPa) = 0.01232453
#
# Stress axis : x y z
#
# Youngs Moduli (GPa) = 84.68288 84.12396 59.06944
#
# Poissons Ratio (x) = 0.29835 0.37032
# Poissons Ratio (y) = 0.30033 0.25604
# Poissons Ratio (z) = 0.53089 0.36464
#
# Static dielectric constant tensor:
#      x y z
#    x 4.284940 0.000000 0.000000 
#    y 0.000000 3.251620 0.000000 
#    z 0.000000 0.000000 3.607160 
# 
# 
# High freq. dielectric constant tensor:
#      x y z
#    x 1.769070 0.000000 0.000000 
#    y 0.000000 1.718000 0.000000 
#    z 0.000000 0.000000 1.752380 
# 
# From -- ./inp_files/2104.got.cif
#   From: 2010.03.12/outbox.cif.g09.slc.cpg/sg49_2_cif.got.tgz:2104.got - 2010.04.14 03:58:27.
