data_PCOD8204000
_publ_section_title
;
Structure prediction by ZEFSAII (Michael W. Deem and Ramdas Pophale) SiO2 
 PCOD8204000
Probable space group: P C C M
;
_chemical_formula_sum "Si O2"
_cell_formula_units_Z 48
_cell_length_a 8.936565
_cell_length_b 28.818072
_cell_length_c 9.217031
_cell_angle_alpha 90.000000
_cell_angle_beta 90.000000
_cell_angle_gamma 90.000000
_cell_volume 2373.704148
_symmetry_space_group_name_H-M "P C C M"
_symmetry_group_IT_number 49
_symmetry_cell_setting 'orthorhombic'
loop_
_space_group_symop_operation_xyz
x,y,z
-x,-y,z
x,-y,1/2-z
-x,y,1/2-z
-x,-y,-z
x,y,-z
-x,y,1/2+z
x,-y,1/2+z
loop_
_atom_site_type_symbol
_atom_site_label
_atom_site_fract_x
_atom_site_fract_y
_atom_site_fract_z
Si Si1 0.844003 0.377720 0.329489
Si Si2 0.339096 0.455172 0.677043
Si Si3 0.177201 0.897879 0.732064
Si Si4 0.647889 0.066471 0.000000
Si Si5 0.847296 0.727735 0.166828
Si Si6 0.691197 0.957376 0.000000
Si Si7 0.646282 0.190525 0.662582
O O1 0.852300 0.392518 0.500000
O O2 0.733625 0.408262 0.233870
O O3 0.788527 0.324768 0.315122
O O4 0.000000 0.384132 0.250000
O O5 0.254883 0.500000 0.750000
O O6 0.500000 0.455135 0.750000
O O7 0.342682 0.457538 0.500000
O O8 0.212260 0.942889 0.637217
O O9 0.230605 0.850093 0.660919
O O10 0.000000 0.894939 0.750000
O O11 0.276892 0.905682 0.871815
O O12 0.467654 0.070292 0.000000
O O13 0.680972 0.012200 0.000000
O O14 0.721371 0.762743 0.228308
O O15 0.000000 0.736324 0.250000
O O16 0.880710 0.739498 0.000000
O O17 0.500000 0.176034 0.750000
O O18 0.592924 0.200381 0.500000
#
# Coordination Sequence:
#
# PCOD8204000 Si02
#       7
#     8   8   8   4   8   4   8
#     4  10  20  37  60  88 122 160 202 252 310 368
#     4  11  22  38  59  85 119 160 207 257 313 372
#     4  12  25  41  64  92 125 160 204 252 305 363
#     4  11  25  41  69  89 125 163 203 245 310 357
#     4   9  20  39  62  89 122 157 199 250 303 365
#     4  11  23  45  63  95 123 163 201 251 298 373
#     4  11  24  42  63  89 122 159 203 250 303 364
#
# _framework density 20.221561999999999
#
# number of rings (size 3 to 8) (size 9 to 14) (size 15 to 20)
#    0.000    1.333    0.833    5.500    1.167    5.667 
#    0.000    3.333    0.000    0.000    0.000    0.000 
#    0.000    0.000    0.000    0.000    0.000    0.000 
#
# Total GULP energy -594963.466525 kJ/mol
# GULP energy per Si atom -12395.072219 kJ/mol
# Density = 2.017554 g / cm^3
# Si number density = 20.221562 Si / 1000 Ang^3
#
#
#
# Elastic Constant Matrix: (Units=GPa)
#
#
# Indices 1 2 3 4 5 6 
#
# 1 106.8791 48.0436 30.3837 0.0000 0.0000 0.0000
# 2 48.0436 96.3268 34.9329 0.0000 0.0000 0.0000
# 3 30.3837 34.9329 123.6302 0.0000 0.0000 0.0000
# 4 0.0000 0.0000 0.0000 38.2595 0.0000 0.0000
# 5 0.0000 0.0000 0.0000 0.0000 33.6760 0.0000
# 6 0.0000 0.0000 0.0000 0.0000 0.0000 35.7364
#
#
#
# Elastic Compliance Matrix: (Units=1/GPa)
#
#
# Indices 1 2 3 4 5 6 
#
# 1 0.012285 -0.005607 -0.001435 0.000000 0.000000 0.000000
# 2 -0.005607 0.014125 -0.002613 0.000000 0.000000 0.000000
# 3 -0.001435 -0.002613 0.009180 0.000000 0.000000 0.000000
# 4 0.000000 0.000000 0.000000 0.026137 0.000000 0.000000
# 5 0.000000 0.000000 0.000000 0.000000 0.029695 0.000000
# 6 0.000000 0.000000 0.000000 0.000000 0.000000 0.027983
#
#
# Mechanical properties :
#
#
# Convention : Reuss Voigt Hill
#
# Bulk Modulus (GPa) = 61.42545 61.50629 61.46587
# Shear Modulus (GPa) = 34.68832 35.76611 35.22722
#
# Velocity S-wave (km/s) = 4.14625 4.21017 4.17833
# Velocity P-wave (km/s) = 7.30507 7.35637 7.33076
#
# Compressibility (1/GPa) = 0.01627990
#
# Stress axis : x y z
#
# Youngs Moduli (GPa) = 81.40320 70.79441 108.93589
#
# Poissons Ratio (x) = 0.39692 0.15631
# Poissons Ratio (y) = 0.45640 0.28469
# Poissons Ratio (z) = 0.11680 0.18501
#
# Static dielectric constant tensor:
#      x y z
#    x 2.910340 0.000000 0.000000 
#    y 0.000000 4.093950 0.000000 
#    z 0.000000 0.000000 3.804950 
# 
# 
# High freq. dielectric constant tensor:
#      x y z
#    x 1.783180 0.000000 0.000000 
#    y 0.000000 1.806290 0.000000 
#    z 0.000000 0.000000 1.802210 
# 
# From -- ./inp_files/2151.got.cif
#   From: 2010.03.12/outbox.cif.g09.slc.cpg/sg49_2_cif.got.tgz:2151.got - 2010.04.14 03:58:27.
