data_PCOD8204499
_publ_section_title
;
Structure prediction by ZEFSAII (Michael W. Deem and Ramdas Pophale) SiO2 
 PCOD8204499
Probable space group: P C C M
;
_chemical_formula_sum "Si O2"
_cell_formula_units_Z 64
_cell_length_a 17.183554
_cell_length_b 12.244991
_cell_length_c 14.450781
_cell_angle_alpha 90.000000
_cell_angle_beta 90.000000
_cell_angle_gamma 90.000000
_cell_volume 3040.624438
_symmetry_space_group_name_H-M "P C C M"
_symmetry_group_IT_number 49
_symmetry_cell_setting 'orthorhombic'
loop_
_space_group_symop_operation_xyz
x,y,z
-x,-y,z
x,-y,1/2-z
-x,y,1/2-z
-x,-y,-z
x,y,-z
-x,y,1/2+z
x,-y,1/2+z
loop_
_atom_site_type_symbol
_atom_site_label
_atom_site_fract_x
_atom_site_fract_y
_atom_site_fract_z
Si Si1 0.846489 0.782756 0.102279
Si Si2 0.177577 0.798981 0.104492
Si Si3 0.993183 0.124150 0.858862
Si Si4 0.785395 0.370028 0.745579
Si Si5 0.251753 0.982388 0.395492
Si Si6 0.613091 0.373632 0.261116
Si Si7 0.572342 0.056066 0.650131
Si Si8 0.500421 0.284990 0.888708
O O1 0.839560 0.674568 0.163848
O O2 0.796322 0.881864 0.149942
O O3 0.936902 0.810687 0.094232
O O4 0.813585 0.757253 0.000000
O O5 0.086920 0.826771 0.105388
O O6 0.191086 0.686070 0.158051
O O7 0.227244 0.900996 0.149576
O O8 0.205888 0.777635 0.000000
O O9 0.000000 0.135901 0.750000
O O10 0.000000 0.000000 0.891674
O O11 0.795820 0.500000 0.750000
O O12 0.698672 0.326974 0.721944
O O13 0.221524 0.988649 0.500000
O O14 0.344421 0.962480 0.396360
O O15 0.624961 0.500000 0.250000
O O16 0.578735 0.308731 0.170413
O O17 0.560763 0.375215 0.354546
O O18 0.547375 0.181441 0.651177
O O19 0.500000 0.000000 0.594460
O O20 0.577559 0.000000 0.750000
O O21 0.515095 0.284181 0.000000
#
# Coordination Sequence:
#
# PCOD8204499 Si02
#       8
#     8   8   8   8   8   8   8   8
#     4  11  23  41  68  99 133 168 210 270 337 396
#     4  11  24  41  66  97 133 171 213 271 330 394
#     4  11  21  38  68 104 135 170 212 261 327 398
#     4  11  26  45  65  92 129 176 229 274 322 390
#     4  10  23  38  60  96 129 166 211 263 331 398
#     4  10  23  43  66  92 123 166 223 283 332 378
#     4  11  24  37  56  85 127 173 209 252 312 390
#     4  11  23  40  64  94 126 164 214 273 336 391
#
# _framework density 21.048307999999999
#
# number of rings (size 3 to 8) (size 9 to 14) (size 15 to 20)
#    0.000    1.250    2.500    3.750    5.250    5.000 
#    0.000    3.750    0.000    1.500    0.000    0.000 
#    0.000    0.000    0.000    0.000    0.000    0.000 
#
# Total GULP energy -792998.045971 kJ/mol
# GULP energy per Si atom -12390.594468 kJ/mol
# Density = 2.100040 g / cm^3
# Si number density = 21.048308 Si / 1000 Ang^3
#
#
#
# Elastic Constant Matrix: (Units=GPa)
#
#
# Indices 1 2 3 4 5 6 
#
# 1 130.5476 35.6910 -0.9887 0.0000 0.0000 0.0000
# 2 35.6910 98.8784 32.3052 0.0000 0.0000 0.0000
# 3 -0.9887 32.3052 100.6166 0.0000 0.0000 0.0000
# 4 0.0000 0.0000 0.0000 -15.8933 0.0000 0.0000
# 5 0.0000 0.0000 0.0000 0.0000 13.0485 0.0000
# 6 0.0000 0.0000 0.0000 0.0000 0.0000 33.7220
#
#
#
# Elastic Compliance Matrix: (Units=1/GPa)
#
#
# Indices 1 2 3 4 5 6 
#
# 1 0.008629 -0.003511 0.001212 0.000000 0.000000 0.000000
# 2 -0.003511 0.012727 -0.004121 0.000000 0.000000 0.000000
# 3 0.001212 -0.004121 0.011274 0.000000 0.000000 0.000000
# 4 0.000000 0.000000 0.000000 -0.062920 0.000000 0.000000
# 5 0.000000 0.000000 0.000000 0.000000 0.076637 0.000000
# 6 0.000000 0.000000 0.000000 0.000000 0.000000 0.029654
#
#
# Mechanical properties :
#
#
# Convention : Reuss Voigt Hill
#
# Bulk Modulus (GPa) = 50.52874 51.56194 51.04534
# Shear Modulus (GPa) = 52.39039 23.71111 38.05075
#
# Velocity S-wave (km/s) = 4.99446 3.35999 4.25641
# Velocity P-wave (km/s) = 7.57084 6.29308 6.96134
#
# Compressibility (1/GPa) = 0.01979072
#
# Stress axis : x y z
#
# Youngs Moduli (GPa) = 115.88795 78.57326 88.70203
#
# Poissons Ratio (x) = 0.27585 -0.10751
# Poissons Ratio (y) = 0.40685 0.36552
# Poissons Ratio (z) = -0.14045 0.32378
#
# Static dielectric constant tensor:
#      x y z
#    x 4.047500 0.000000 0.000000 
#    y 0.000000 8.497990 0.000000 
#    z 0.000000 0.000000 3.848320 
# 
# 
# High freq. dielectric constant tensor:
#      x y z
#    x 1.835790 0.000000 0.000000 
#    y 0.000000 1.816780 0.000000 
#    z 0.000000 0.000000 1.822310 
# 
# From -- ./inp_files/14205.got.cif
#   From: 2010.03.12/outbox.cif.g09.slc.cpg/sg49_8_cif.got.tgz:14205.got - 2010.04.14 03:58:27.
