data_PCOD8204778
_publ_section_title
;
Structure prediction by ZEFSAII (Michael W. Deem and Ramdas Pophale) SiO2 
 PCOD8204778
Probable space group: P B A N
;
_chemical_formula_sum "Si O2"
_cell_formula_units_Z 58
_cell_length_a 29.954947
_cell_length_b 11.738668
_cell_length_c 9.243133
_cell_angle_alpha 90.000000
_cell_angle_beta 90.000000
_cell_angle_gamma 90.000000
_cell_volume 3250.173743
_symmetry_space_group_name_H-M "P B A N"
_symmetry_group_IT_number 50
_space_group.IT_coordinate_system_code '2'
_symmetry_cell_setting 'orthorhombic'
loop_
_space_group_symop_operation_xyz
x,y,z
1/2-x,1/2-y,z
x,1/2-y,-z
1/2-x,y,-z
-x,-y,-z
1/2+x,1/2+y,-z
-x,1/2+y,z
1/2+x,-y,z
loop_
_atom_site_type_symbol
_atom_site_label
_atom_site_fract_x
_atom_site_fract_y
_atom_site_fract_z
Si Si1 0.250000 0.750000 0.500000
Si Si2 0.657793 0.258983 0.842195
Si Si3 0.442848 0.986082 0.658205
Si Si4 0.660339 0.022839 0.341292
Si Si5 0.555700 0.219345 0.153206
Si Si6 0.690466 0.428911 0.346419
Si Si7 0.518303 0.146004 0.598556
Si Si8 0.744222 0.622263 0.670982
O O1 0.275668 0.668708 0.608361
O O2 0.676245 0.359346 0.736246
O O3 0.607698 0.296471 0.872418
O O4 0.659350 0.132819 0.771798
O O5 0.682191 0.250000 0.000000
O O6 0.390815 0.012846 0.690309
O O7 0.462349 0.898445 0.778197
O O8 0.450985 0.938489 0.495810
O O9 0.472675 0.098237 0.667829
O O10 0.661996 0.034830 0.514488
O O11 0.694806 0.924653 0.288698
O O12 0.548911 0.320045 0.267162
O O13 0.532058 0.250000 0.000000
O O14 0.716966 0.535874 0.273587
O O15 0.502723 0.250000 0.500000
O O16 0.750000 0.750000 0.736574
O O17 0.750000 0.625505 0.500000
#
# Coordination Sequence:
#
# PCOD8204778 Si02
#       8
#     2   8   8   8   8   8   8   8
#     4  12  16  28  48  76  92 124 158 198 244 300
#     4  10  19  30  49  79 104 121 158 208 254 299
#     4   9  18  30  49  71  97 130 158 202 252 289
#     4  10  17  31  51  72  95 132 162 200 252 295
#     4   9  18  31  49  72  99 131 161 197 246 301
#     4  11  17  30  51  70 100 127 157 203 246 294
#     4   9  17  32  47  71 103 125 160 202 245 301
#     4   9  18  32  48  70  96 127 168 206 233 285
#
# _framework density 17.845199999999998
#
# number of rings (size 3 to 8) (size 9 to 14) (size 15 to 20)
#    0.000    2.345    3.448    0.828    0.000    2.759 
#    4.966    3.103    0.000    1.655    0.000    0.000 
#    0.000    0.000    0.000    0.000    0.000    0.000 
#
# Total GULP energy -718585.190324 kJ/mol
# GULP energy per Si atom -12389.399833 kJ/mol
# Density = 1.780458 g / cm^3
# Si number density = 17.845200 Si / 1000 Ang^3
#
#
#
# Elastic Constant Matrix: (Units=GPa)
#
#
# Indices 1 2 3 4 5 6 
#
# 1 60.5132 30.3038 9.5461 0.0000 0.0000 0.0000
# 2 30.3038 97.5557 19.7618 0.0000 0.0000 0.0000
# 3 9.5461 19.7618 79.7317 0.0000 0.0000 0.0000
# 4 0.0000 0.0000 0.0000 7.9551 0.0000 0.0000
# 5 0.0000 0.0000 0.0000 0.0000 8.4139 0.0000
# 6 0.0000 0.0000 0.0000 0.0000 0.0000 26.0976
#
#
#
# Elastic Compliance Matrix: (Units=1/GPa)
#
#
# Indices 1 2 3 4 5 6 
#
# 1 0.019628 -0.005918 -0.000883 0.000000 0.000000 0.000000
# 2 -0.005918 0.012577 -0.002409 0.000000 0.000000 0.000000
# 3 -0.000883 -0.002409 0.013245 0.000000 0.000000 0.000000
# 4 0.000000 0.000000 0.000000 0.125705 0.000000 0.000000
# 5 0.000000 0.000000 0.000000 0.000000 0.118851 0.000000
# 6 0.000000 0.000000 0.000000 0.000000 0.000000 0.038318
#
#
# Mechanical properties :
#
#
# Convention : Reuss Voigt Hill
#
# Bulk Modulus (GPa) = 36.99615 39.66933 38.33274
# Shear Modulus (GPa) = 14.05468 20.37260 17.21364
#
# Velocity S-wave (km/s) = 2.80945 3.38247 3.10918
# Velocity P-wave (km/s) = 5.59470 6.12640 5.86658
#
# Compressibility (1/GPa) = 0.02702984
#
# Stress axis : x y z
#
# Youngs Moduli (GPa) = 50.94657 79.51107 75.50138
#
# Poissons Ratio (x) = 0.47057 0.06668
# Poissons Ratio (y) = 0.30152 0.18186
# Poissons Ratio (z) = 0.04500 0.19151
#
# Static dielectric constant tensor:
#      x y z
#    x 3.209740 0.000000 0.000000 
#    y 0.000000 3.509530 0.000000 
#    z 0.000000 0.000000 3.040390 
# 
# 
# High freq. dielectric constant tensor:
#      x y z
#    x 1.676220 0.000000 0.000000 
#    y 0.000000 1.680520 0.000000 
#    z 0.000000 0.000000 1.670810 
# 
# From -- ./inp_files/17067.got.cif
#   From: 2010.03.12/outbox.cif.g09.slc.cpg/sg50_9_cif.got.tgz:17067.got - 2010.04.16 13:23:21.
