data_PCOD8204207
_publ_section_title
;
Structure prediction by ZEFSAII (Michael W. Deem and Ramdas Pophale) SiO2 
 PCOD8204207
Probable space group: P C C M
;
_chemical_formula_sum "Si O2"
_cell_formula_units_Z 56
_cell_length_a 17.875691
_cell_length_b 9.542332
_cell_length_c 16.486914
_cell_angle_alpha 90.000000
_cell_angle_beta 90.000000
_cell_angle_gamma 90.000000
_cell_volume 2812.268187
_symmetry_space_group_name_H-M "P C C M"
_symmetry_group_IT_number 49
_symmetry_cell_setting 'orthorhombic'
loop_
_space_group_symop_operation_xyz
x,y,z
-x,-y,z
x,-y,1/2-z
-x,y,1/2-z
-x,-y,-z
x,y,-z
-x,y,1/2+z
x,-y,1/2+z
loop_
_atom_site_type_symbol
_atom_site_label
_atom_site_fract_x
_atom_site_fract_y
_atom_site_fract_z
Si Si1 0.413470 0.001379 0.154494
Si Si2 0.758987 0.491031 0.154269
Si Si3 0.075496 0.580004 0.903530
Si Si4 0.055124 0.110053 0.591340
Si Si5 0.807512 0.990956 0.159969
Si Si6 0.303654 0.203190 0.405726
Si Si7 0.296625 0.222106 0.905279
O O1 0.386670 0.855756 0.111403
O O2 0.500000 0.000000 0.131722
O O3 0.399709 0.000000 0.250000
O O4 0.372807 0.143101 0.121474
O O5 0.755027 0.500000 0.250000
O O6 0.847251 0.487646 0.129431
O O7 0.712287 0.359329 0.122389
O O8 0.709104 0.614447 0.115434
O O9 0.064182 0.737223 0.867387
O O10 0.000000 0.500000 0.875776
O O11 0.083338 0.582438 0.000000
O O12 0.026116 0.134074 0.500000
O O13 0.133787 0.032194 0.591367
O O14 0.000000 0.000000 0.637047
O O15 0.741425 0.101674 0.153797
O O16 0.842757 0.000000 0.250000
O O17 0.775999 0.838006 0.141227
O O18 0.281874 0.187035 0.500000
O O19 0.287094 0.196647 0.000000
#
# Coordination Sequence:
#
# PCOD8204207 Si02
#       7
#     8   8   8   8   8   8   8
#     4  10  21  40  66  96 129 161 195 243 300 355
#     4  12  24  40  61  89 123 160 201 254 307 361
#     4  10  22  40  60  83 115 157 203 250 306 368
#     4  10  21  37  57  80 110 150 198 247 300 359
#     4  11  21  36  57  85 115 150 194 247 298 349
#     4  11  21  39  64  87 118 162 204 241 290 357
#     4  11  23  37  60  91 122 156 201 246 289 350
#
# _framework density 19.912752000000001
#
# number of rings (size 3 to 8) (size 9 to 14) (size 15 to 20)
#    0.000    1.286    1.429    7.286    2.000    1.714 
#    0.000    2.143    0.000    4.286    0.000    0.000 
#    0.000    0.000    0.000    0.000    0.000    0.000 
#
# Total GULP energy -693915.752400 kJ/mol
# GULP energy per Si atom -12391.352721 kJ/mol
# Density = 1.986743 g / cm^3
# Si number density = 19.912752 Si / 1000 Ang^3
#
#
#
# Elastic Constant Matrix: (Units=GPa)
#
#
# Indices 1 2 3 4 5 6 
#
# 1 118.8780 59.5432 28.1073 0.0000 0.0000 0.0000
# 2 59.5432 137.1154 28.7072 0.0000 0.0000 0.0000
# 3 28.1073 28.7072 89.3471 0.0000 0.0000 0.0000
# 4 0.0000 0.0000 0.0000 17.5496 0.0000 0.0000
# 5 0.0000 0.0000 0.0000 0.0000 30.0231 0.0000
# 6 0.0000 0.0000 0.0000 0.0000 0.0000 21.6912
#
#
#
# Elastic Compliance Matrix: (Units=1/GPa)
#
#
# Indices 1 2 3 4 5 6 
#
# 1 0.011101 -0.004384 -0.002083 0.000000 0.000000 0.000000
# 2 -0.004384 0.009551 -0.001689 0.000000 0.000000 0.000000
# 3 -0.002083 -0.001689 0.012391 0.000000 0.000000 0.000000
# 4 0.000000 0.000000 0.000000 0.056981 0.000000 0.000000
# 5 0.000000 0.000000 0.000000 0.000000 0.033308 0.000000
# 6 0.000000 0.000000 0.000000 0.000000 0.000000 0.046102
#
#
# Mechanical properties :
#
#
# Convention : Reuss Voigt Hill
#
# Bulk Modulus (GPa) = 59.78140 64.22840 62.00490
# Shear Modulus (GPa) = 26.13389 29.11832 27.62611
#
# Velocity S-wave (km/s) = 3.62666 3.82815 3.72877
# Velocity P-wave (km/s) = 6.90100 7.20170 7.05295
#
# Compressibility (1/GPa) = 0.01672761
#
# Stress axis : x y z
#
# Youngs Moduli (GPa) = 90.08537 104.70388 80.70684
#
# Poissons Ratio (x) = 0.45905 0.16814
# Poissons Ratio (y) = 0.39496 0.13635
# Poissons Ratio (z) = 0.18768 0.17689
#
# Static dielectric constant tensor:
#      x y z
#    x 4.451730 0.000000 0.000000 
#    y 0.000000 4.270460 0.000000 
#    z 0.000000 0.000000 3.517620 
# 
# 
# High freq. dielectric constant tensor:
#      x y z
#    x 1.767100 0.000000 0.000000 
#    y 0.000000 1.784210 0.000000 
#    z 0.000000 0.000000 1.779420 
# 
# From -- ./inp_files/14373.got.cif
#   From: 2010.03.12/outbox.cif.g09.slc.cpg/sg49_8_cif.got.tgz:14373.got - 2010.04.14 03:58:27.
