data_PCOD8204943
_publ_section_title
;
Structure prediction by ZEFSAII (Michael W. Deem and Ramdas Pophale) SiO2 
 PCOD8204943
Probable space group: P B A N
;
_chemical_formula_sum "Si O2"
_cell_formula_units_Z 56
_cell_length_a 17.007810
_cell_length_b 23.256652
_cell_length_c 7.668956
_cell_angle_alpha 90.000000
_cell_angle_beta 90.000000
_cell_angle_gamma 90.000000
_cell_volume 3033.415042
_symmetry_space_group_name_H-M "P B A N"
_symmetry_group_IT_number 50
_space_group.IT_coordinate_system_code '2'
_symmetry_cell_setting 'orthorhombic'
loop_
_space_group_symop_operation_xyz
x,y,z
1/2-x,1/2-y,z
x,1/2-y,-z
1/2-x,y,-z
-x,-y,-z
1/2+x,1/2+y,-z
-x,1/2+y,z
1/2+x,-y,z
loop_
_atom_site_type_symbol
_atom_site_label
_atom_site_fract_x
_atom_site_fract_y
_atom_site_fract_z
Si Si1 0.667418 0.112280 0.018350
Si Si2 0.547967 0.850861 0.294284
Si Si3 0.452243 0.146991 0.312392
Si Si4 0.997115 0.932242 0.001926
Si Si5 0.375887 0.690851 0.719871
Si Si6 0.840769 0.751279 0.205154
Si Si7 0.375456 0.819400 0.664935
O O1 0.667588 0.134968 0.215089
O O2 0.750000 0.076891 0.000000
O O3 0.589924 0.077245 0.978952
O O4 0.672471 0.163615 0.877417
O O5 0.552725 0.877012 0.489672
O O6 0.551412 0.904594 0.159689
O O7 0.469508 0.814824 0.250370
O O8 0.619748 0.806481 0.278387
O O9 0.380016 0.189876 0.274608
O O10 0.531658 0.183321 0.294288
O O11 0.457797 0.093183 0.178311
O O12 0.000000 0.000000 0.000000
O O13 0.346397 0.755927 0.709453
O O14 0.356314 0.661674 0.533056
O O15 0.750000 0.750000 0.264854
O O16 0.849728 0.750000 0.000000
#
# Coordination Sequence:
#
# PCOD8204943 Si02
#       7
#     8   8   8   8   8   8   8
#     4  10  21  34  50  73 101 134 169 215 269 310
#     4  10  19  34  57  81 111 147 184 227 278 339
#     4  10  19  34  57  81 111 147 184 227 278 339
#     4  10  22  40  59  77 103 144 197 240 277 327
#     4   9  17  29  49  76 105 139 170 199 245 314
#     4  11  21  33  55  90 125 154 182 230 302 361
#     4   9  17  29  49  76 105 139 170 199 245 314
#
# _framework density 18.461041000000002
#
# number of rings (size 3 to 8) (size 9 to 14) (size 15 to 20)
#    0.000    2.143    2.857    0.857    0.000    3.429 
#    0.000    2.857    0.000    0.000    0.000    0.000 
#    0.000    0.000    0.000    0.000    0.000    0.000 
#
# Total GULP energy -693938.860931 kJ/mol
# GULP energy per Si atom -12391.765374 kJ/mol
# Density = 1.841902 g / cm^3
# Si number density = 18.461041 Si / 1000 Ang^3
#
#
#
# Elastic Constant Matrix: (Units=GPa)
#
#
# Indices 1 2 3 4 5 6 
#
# 1 94.1270 21.1399 21.7278 0.0000 0.0000 0.0000
# 2 21.1399 96.4058 40.0576 0.0000 0.0000 0.0000
# 3 21.7278 40.0576 118.7777 0.0000 0.0000 0.0000
# 4 0.0000 0.0000 0.0000 13.4822 0.0000 0.0000
# 5 0.0000 0.0000 0.0000 0.0000 12.1928 0.0000
# 6 0.0000 0.0000 0.0000 0.0000 0.0000 13.4796
#
#
#
# Elastic Compliance Matrix: (Units=1/GPa)
#
#
# Indices 1 2 3 4 5 6 
#
# 1 0.011383 -0.001897 -0.001443 0.000000 0.000000 0.000000
# 2 -0.001897 0.012379 -0.003828 0.000000 0.000000 0.000000
# 3 -0.001443 -0.003828 0.009974 0.000000 0.000000 0.000000
# 4 0.000000 0.000000 0.000000 0.074172 0.000000 0.000000
# 5 0.000000 0.000000 0.000000 0.000000 0.082015 0.000000
# 6 0.000000 0.000000 0.000000 0.000000 0.000000 0.074186
#
#
# Mechanical properties :
#
#
# Convention : Reuss Voigt Hill
#
# Bulk Modulus (GPa) = 51.54174 52.79568 52.16871
# Shear Modulus (GPa) = 17.54930 22.92326 20.23628
#
# Velocity S-wave (km/s) = 3.08655 3.52761 3.31442
# Velocity P-wave (km/s) = 6.37826 6.72700 6.55495
#
# Compressibility (1/GPa) = 0.01940175
#
# Stress axis : x y z
#
# Youngs Moduli (GPa) = 87.85098 80.78028 100.26111
#
# Poissons Ratio (x) = 0.15321 0.14464
# Poissons Ratio (y) = 0.16662 0.38379
# Poissons Ratio (z) = 0.12674 0.30922
#
# Static dielectric constant tensor:
#      x y z
#    x 3.531260 0.000000 0.000000 
#    y 0.000000 2.957420 0.000000 
#    z 0.000000 0.000000 3.864150 
# 
# 
# High freq. dielectric constant tensor:
#      x y z
#    x 1.714680 0.000000 0.000000 
#    y 0.000000 1.665020 0.000000 
#    z 0.000000 0.000000 1.738840 
# 
# From -- ./inp_files/14556.got.cif
#   From: 2010.03.12/outbox.cif.g09.slc.cpg/sg50_8_cif.got.tgz:14556.got - 2010.04.16 13:23:21.
