data_PCOD8204915
_publ_section_title
;
Structure prediction by ZEFSAII (Michael W. Deem and Ramdas Pophale) SiO2 
 PCOD8204915
Probable space group: P B A N
;
_chemical_formula_sum "Si O2"
_cell_formula_units_Z 56
_cell_length_a 18.878569
_cell_length_b 5.222483
_cell_length_c 27.617591
_cell_angle_alpha 90.000000
_cell_angle_beta 90.000000
_cell_angle_gamma 90.000000
_cell_volume 2722.901306
_symmetry_space_group_name_H-M "P B A N"
_symmetry_group_IT_number 50
_space_group.IT_coordinate_system_code '2'
_symmetry_cell_setting 'orthorhombic'
loop_
_space_group_symop_operation_xyz
x,y,z
1/2-x,1/2-y,z
x,1/2-y,-z
1/2-x,y,-z
-x,-y,-z
1/2+x,1/2+y,-z
-x,1/2+y,z
1/2+x,-y,z
loop_
_atom_site_type_symbol
_atom_site_label
_atom_site_fract_x
_atom_site_fract_y
_atom_site_fract_z
Si Si1 0.171631 0.722048 0.310836
Si Si2 0.332772 0.259586 0.112616
Si Si3 0.829070 0.777454 0.627222
Si Si4 0.033653 0.314602 0.167192
Si Si5 0.027088 0.801761 0.274244
Si Si6 0.956489 0.754426 0.556633
Si Si7 0.333156 0.739153 0.946554
O O1 0.250000 0.750000 0.287335
O O2 0.159852 0.438411 0.331686
O O3 0.111900 0.766148 0.269431
O O4 0.160790 0.937184 0.351763
O O5 0.250000 0.250000 0.127928
O O6 0.381866 0.229319 0.160461
O O7 0.355728 0.521568 0.086522
O O8 0.354239 0.029128 0.077266
O O9 0.750000 0.750000 0.605931
O O10 0.881918 0.733667 0.583330
O O11 0.008934 0.579923 0.142313
O O12 0.013370 0.342946 0.223462
O O13 0.991505 0.563855 0.303218
O O14 0.939446 0.750000 0.500000
O O15 0.004545 0.514646 0.571992
O O16 0.250000 0.750000 0.953177
O O17 0.368717 0.750000 0.000000
#
# Coordination Sequence:
#
# PCOD8204915 Si02
#       7
#     8   8   8   8   8   8   8
#     4  10  21  37  56  81 111 140 180 229 274 327
#     4  10  19  33  56  81 106 141 182 223 265 311
#     4  10  21  36  56  82 110 143 182 227 277 325
#     4  10  21  38  55  76 107 143 179 219 267 323
#     4  10  21  37  56  80 106 139 179 220 274 328
#     4  10  21  36  54  80 113 148 188 229 267 316
#     4   9  17  30  52  83 112 138 176 224 268 312
#
# _framework density 20.566296000000001
#
# number of rings (size 3 to 8) (size 9 to 14) (size 15 to 20)
#    0.000    2.143    0.000    3.000    0.000    5.429 
#    0.000    5.714    0.000   13.714    0.000    0.000 
#    0.000    0.000    0.000    0.000    0.000    0.000 
#
# Total GULP energy -694019.216198 kJ/mol
# GULP energy per Si atom -12393.200289 kJ/mol
# Density = 2.051949 g / cm^3
# Si number density = 20.566296 Si / 1000 Ang^3
#
#
#
# Elastic Constant Matrix: (Units=GPa)
#
#
# Indices 1 2 3 4 5 6 
#
# 1 117.9168 12.6397 37.5143 0.0000 0.0000 0.0000
# 2 12.6397 143.2468 -1.0019 0.0000 0.0000 0.0000
# 3 37.5143 -1.0019 43.3250 0.0000 0.0000 0.0000
# 4 0.0000 0.0000 0.0000 9.5816 0.0000 0.0000
# 5 0.0000 0.0000 0.0000 0.0000 22.9061 0.0000
# 6 0.0000 0.0000 0.0000 0.0000 0.0000 25.0627
#
#
#
# Elastic Compliance Matrix: (Units=1/GPa)
#
#
# Indices 1 2 3 4 5 6 
#
# 1 0.011882 -0.001121 -0.010314 0.000000 0.000000 0.000000
# 2 -0.001121 0.007088 0.001134 0.000000 0.000000 0.000000
# 3 -0.010314 0.001134 0.032039 0.000000 0.000000 0.000000
# 4 0.000000 0.000000 0.000000 0.104366 0.000000 0.000000
# 5 0.000000 0.000000 0.000000 0.000000 0.043657 0.000000
# 6 0.000000 0.000000 0.000000 0.000000 0.000000 0.039900
#
#
# Mechanical properties :
#
#
# Convention : Reuss Voigt Hill
#
# Bulk Modulus (GPa) = 32.88725 44.75475 38.82100
# Shear Modulus (GPa) = 18.54126 28.53250 23.53688
#
# Velocity S-wave (km/s) = 3.00582 3.72875 3.38663
# Velocity P-wave (km/s) = 5.29831 6.35189 5.84887
#
# Compressibility (1/GPa) = 0.03040692
#
# Stress axis : x y z
#
# Youngs Moduli (GPa) = 84.16000 141.08807 31.21232
#
# Poissons Ratio (x) = 0.15810 0.32194
# Poissons Ratio (y) = 0.09431 -0.03540
# Poissons Ratio (z) = 0.86806 -0.16002
#
# Static dielectric constant tensor:
#      x y z
#    x 3.745970 0.000000 0.000000 
#    y 0.000000 5.294510 0.000000 
#    z 0.000000 0.000000 3.323300 
# 
# 
# High freq. dielectric constant tensor:
#      x y z
#    x 1.801800 0.000000 0.000000 
#    y 0.000000 1.842430 0.000000 
#    z 0.000000 0.000000 1.760430 
# 
# From -- ./inp_files/32510.got.cif
#   From: 2010.03.12/outbox.cif.g09.slc.cpg/sg50_17_cif.got.tgz:32510.got - 2010.04.16 13:23:21.
