data_PCOD8204772
_publ_section_title
;
Structure prediction by ZEFSAII (Michael W. Deem and Ramdas Pophale) SiO2 
 PCOD8204772
Probable space group: P B A N
;
_chemical_formula_sum "Si O2"
_cell_formula_units_Z 48
_cell_length_a 19.080015
_cell_length_b 11.034166
_cell_length_c 10.497439
_cell_angle_alpha 90.000000
_cell_angle_beta 90.000000
_cell_angle_gamma 90.000000
_cell_volume 2210.047382
_symmetry_space_group_name_H-M "P B A N"
_symmetry_group_IT_number 50
_space_group.IT_coordinate_system_code '2'
_symmetry_cell_setting 'orthorhombic'
loop_
_space_group_symop_operation_xyz
x,y,z
1/2-x,1/2-y,z
x,1/2-y,-z
1/2-x,y,-z
-x,-y,-z
1/2+x,1/2+y,-z
-x,1/2+y,z
1/2+x,-y,z
loop_
_atom_site_type_symbol
_atom_site_label
_atom_site_fract_x
_atom_site_fract_y
_atom_site_fract_z
Si Si1 0.179052 0.185617 0.234025
Si Si2 0.932212 0.146364 0.712536
Si Si3 0.416871 0.346552 0.610756
Si Si4 0.912740 0.955519 0.934751
Si Si5 0.675114 0.012770 0.449808
Si Si6 0.558030 0.344637 0.099526
O O1 0.250000 0.250000 0.198203
O O2 0.119894 0.284764 0.267434
O O3 0.157201 0.114814 0.105296
O O4 0.190712 0.096134 0.352335
O O5 0.929799 0.058730 0.832279
O O6 0.866896 0.122568 0.618032
O O7 0.930282 0.288322 0.758825
O O8 0.004641 0.112566 0.643494
O O9 0.422100 0.250000 0.500000
O O10 0.371981 0.462797 0.566087
O O11 0.904651 0.023713 0.072920
O O12 0.976082 0.860458 0.933132
O O13 0.750000 0.061925 0.500000
O O14 0.591102 0.250000 0.000000
#
# Coordination Sequence:
#
# PCOD8204772 Si02
#       6
#     8   8   8   8   8   8
#     4  10  17  29  51  78 116 157 192 240 310 365
#     4  10  19  32  51  81 115 152 199 247 292 357
#     4  10  19  30  50  79 118 153 190 242 293 351
#     4   9  18  31  53  82 112 146 192 243 306 349
#     4  10  19  30  47  77 118 160 200 239 299 366
#     4   9  17  32  52  80 113 144 191 252 292 351
#
# _framework density 21.718993000000001
#
# number of rings (size 3 to 8) (size 9 to 14) (size 15 to 20)
#    0.000    2.333    3.333    0.500    0.000    0.000 
#    0.000    0.000    0.000    1.000    0.000    0.000 
#    5.000    0.000    0.000    0.000    0.000    1.333 
#
# Total GULP energy -594879.698535 kJ/mol
# GULP energy per Si atom -12393.327053 kJ/mol
# Density = 2.166956 g / cm^3
# Si number density = 21.718993 Si / 1000 Ang^3
#
#
#
# Elastic Constant Matrix: (Units=GPa)
#
#
# Indices 1 2 3 4 5 6 
#
# 1 157.4395 60.9612 55.2958 0.0000 0.0000 0.0000
# 2 60.9612 97.8637 49.9759 0.0000 0.0000 0.0000
# 3 55.2958 49.9759 61.1441 0.0000 0.0000 0.0000
# 4 0.0000 0.0000 0.0000 25.6627 0.0000 0.0000
# 5 0.0000 0.0000 0.0000 0.0000 28.0499 0.0000
# 6 0.0000 0.0000 0.0000 0.0000 0.0000 36.7609
#
#
#
# Elastic Compliance Matrix: (Units=1/GPa)
#
#
# Indices 1 2 3 4 5 6 
#
# 1 0.009702 -0.002683 -0.006581 0.000000 0.000000 0.000000
# 2 -0.002683 0.018281 -0.012516 0.000000 0.000000 0.000000
# 3 -0.006581 -0.012516 0.032536 0.000000 0.000000 0.000000
# 4 0.000000 0.000000 0.000000 0.038967 0.000000 0.000000
# 5 0.000000 0.000000 0.000000 0.000000 0.035651 0.000000
# 6 0.000000 0.000000 0.000000 0.000000 0.000000 0.027203
#
#
# Mechanical properties :
#
#
# Convention : Reuss Voigt Hill
#
# Bulk Modulus (GPa) = 58.96326 72.10148 65.53237
# Shear Modulus (GPa) = 23.63493 28.10900 25.87197
#
# Velocity S-wave (km/s) = 3.30239 3.60142 3.45514
# Velocity P-wave (km/s) = 6.46129 7.11078 6.79380
#
# Compressibility (1/GPa) = 0.01695971
#
# Stress axis : x y z
#
# Youngs Moduli (GPa) = 103.07333 54.70267 30.73511
#
# Poissons Ratio (x) = 0.14675 0.20227
# Poissons Ratio (y) = 0.27651 0.38467
# Poissons Ratio (z) = 0.67835 0.68463
#
# Static dielectric constant tensor:
#      x y z
#    x 3.685020 0.000000 0.000000 
#    y 0.000000 4.079940 0.000000 
#    z 0.000000 0.000000 4.022910 
# 
# 
# High freq. dielectric constant tensor:
#      x y z
#    x 1.829420 0.000000 0.000000 
#    y 0.000000 1.849820 0.000000 
#    z 0.000000 0.000000 1.844550 
# 
# From -- ./inp_files/21775.got.cif
#   From: 2010.03.12/outbox.cif.g09.slc.cpg/sg50_11_cif.got.tgz:21775.got - 2010.04.16 13:23:21.
