data_PCOD8204717
_publ_section_title
;
Structure prediction by ZEFSAII (Michael W. Deem and Ramdas Pophale) SiO2 
 PCOD8204717
Probable space group: P B A N
;
_chemical_formula_sum "Si O2"
_cell_formula_units_Z 56
_cell_length_a 23.972196
_cell_length_b 5.146918
_cell_length_c 24.961362
_cell_angle_alpha 90.000000
_cell_angle_beta 90.000000
_cell_angle_gamma 90.000000
_cell_volume 3079.805908
_symmetry_space_group_name_H-M "P B A N"
_symmetry_group_IT_number 50
_space_group.IT_coordinate_system_code '2'
_symmetry_cell_setting 'orthorhombic'
loop_
_space_group_symop_operation_xyz
x,y,z
1/2-x,1/2-y,z
x,1/2-y,-z
1/2-x,y,-z
-x,-y,-z
1/2+x,1/2+y,-z
-x,1/2+y,z
1/2+x,-y,z
loop_
_atom_site_type_symbol
_atom_site_label
_atom_site_fract_x
_atom_site_fract_y
_atom_site_fract_z
Si Si1 0.189313 0.671629 0.857438
Si Si2 0.122227 0.191551 0.847134
Si Si3 0.965248 0.482216 0.641438
Si Si4 0.035711 0.230065 0.938399
Si Si5 0.311627 0.502868 0.023558
Si Si6 0.462543 0.106707 0.244868
Si Si7 0.563253 0.998394 0.523583
O O1 0.250000 0.750000 0.833746
O O2 0.156962 0.443753 0.824176
O O3 0.194498 0.516363 0.913153
O O4 0.158554 0.944349 0.864109
O O5 0.088000 0.283624 0.899543
O O6 0.083792 0.080693 0.800084
O O7 0.933191 0.557253 0.696686
O O8 0.930323 0.523978 0.587553
O O9 0.982229 0.179700 0.640749
O O10 0.989492 0.448297 0.925444
O O11 0.055131 0.250000 0.000000
O O12 0.345589 0.750000 0.000000
O O13 0.250000 0.504902 0.000000
O O14 0.343144 0.250000 0.000000
O O15 0.489518 0.390434 0.238594
O O16 0.595164 0.750000 0.500000
O O17 0.594454 0.250000 0.500000
O O18 0.500000 0.000000 0.500000
#
# Coordination Sequence:
#
# PCOD8204717 Si02
#       7
#     8   8   8   8   8   8   8
#     4  12  25  40  55  80 106 132 157 203 258 327
#     4  12  24  38  59  78 101 132 176 205 262 314
#     4  10  16  25  40  64  91 130 168 219 246 281
#     4  10  21  39  58  75 100 125 160 207 251 295
#     4  10  19  34  55  71  99 125 140 175 241 304
#     4  10  21  36  55  75 101 134 183 229 260 282
#     4  10  14  20  34  56  93 125 169 204 239 286
#
# _framework density 18.182963000000001
#
# number of rings (size 3 to 8) (size 9 to 14) (size 15 to 20)
#    0.000    1.429    4.286    3.857    2.000    1.714 
#    0.000    0.000    0.000    0.000    0.000    0.000 
#    0.000    0.000    0.000    0.000    0.000   10.714 
#
# Total GULP energy -693779.426753 kJ/mol
# GULP energy per Si atom -12388.918335 kJ/mol
# Density = 1.814158 g / cm^3
# Si number density = 18.182963 Si / 1000 Ang^3
#
#
#
# Elastic Constant Matrix: (Units=GPa)
#
#
# Indices 1 2 3 4 5 6 
#
# 1 54.8537 19.8546 31.6129 0.0000 0.0000 0.0000
# 2 19.8546 137.9914 23.3936 0.0000 0.0000 0.0000
# 3 31.6129 23.3936 104.4519 0.0000 0.0000 0.0000
# 4 0.0000 0.0000 0.0000 26.0150 0.0000 0.0000
# 5 0.0000 0.0000 0.0000 0.0000 1.6329 0.0000
# 6 0.0000 0.0000 0.0000 0.0000 0.0000 15.1423
#
#
#
# Elastic Compliance Matrix: (Units=1/GPa)
#
#
# Indices 1 2 3 4 5 6 
#
# 1 0.022698 -0.002184 -0.006380 0.000000 0.000000 0.000000
# 2 -0.002184 0.007743 -0.001073 0.000000 0.000000 0.000000
# 3 -0.006380 -0.001073 0.011745 0.000000 0.000000 0.000000
# 4 0.000000 0.000000 0.000000 0.038439 0.000000 0.000000
# 5 0.000000 0.000000 0.000000 0.000000 0.612392 0.000000
# 6 0.000000 0.000000 0.000000 0.000000 0.000000 0.066040
#
#
# Mechanical properties :
#
#
# Convention : Reuss Voigt Hill
#
# Bulk Modulus (GPa) = 43.64772 49.66878 46.65825
# Shear Modulus (GPa) = 6.36156 23.38712 14.87434
#
# Velocity S-wave (km/s) = 1.87249 3.59027 2.86324
# Velocity P-wave (km/s) = 5.36021 6.67549 6.05367
#
# Compressibility (1/GPa) = 0.02291070
#
# Stress axis : x y z
#
# Youngs Moduli (GPa) = 44.05668 129.14857 85.14111
#
# Poissons Ratio (x) = 0.28208 0.54324
# Poissons Ratio (y) = 0.09623 0.09137
# Poissons Ratio (z) = 0.28110 0.13859
#
# Static dielectric constant tensor:
#      x y z
#    x 2.930700 0.000000 0.000000 
#    y 0.000000 5.961440 0.000000 
#    z 0.000000 0.000000 3.545410 
# 
# 
# High freq. dielectric constant tensor:
#      x y z
#    x 1.637470 0.000000 0.000000 
#    y 0.000000 1.747360 0.000000 
#    z 0.000000 0.000000 1.689210 
# 
# From -- ./inp_files/31870.got.cif
#   From: 2010.03.12/outbox.cif.g09.slc.cpg/sg50_16_cif.got.tgz:31870.got - 2010.04.16 13:23:21.
