data_PCOD8204162
_publ_section_title
;
Structure prediction by ZEFSAII (Michael W. Deem and Ramdas Pophale) SiO2 
 PCOD8204162
Probable space group: P C C M
;
_chemical_formula_sum "Si O2"
_cell_formula_units_Z 40
_cell_length_a 13.846341
_cell_length_b 14.030709
_cell_length_c 10.025427
_cell_angle_alpha 90.000000
_cell_angle_beta 90.000000
_cell_angle_gamma 90.000000
_cell_volume 1947.679617
_symmetry_space_group_name_H-M "P C C M"
_symmetry_group_IT_number 49
_symmetry_cell_setting 'orthorhombic'
loop_
_space_group_symop_operation_xyz
x,y,z
-x,-y,z
x,-y,1/2-z
-x,y,1/2-z
-x,-y,-z
x,y,-z
-x,y,1/2+z
x,-y,1/2+z
loop_
_atom_site_type_symbol
_atom_site_label
_atom_site_fract_x
_atom_site_fract_y
_atom_site_fract_z
Si Si1 0.606607 0.930507 0.857902
Si Si2 0.418055 0.282416 0.847115
Si Si3 0.887956 0.373830 0.000000
Si Si4 0.197409 0.709359 0.733961
Si Si5 0.833100 0.083079 0.346636
Si Si6 0.892999 0.400195 0.500000
O O1 0.555217 0.828669 0.855229
O O2 0.719334 0.919659 0.836195
O O3 0.559417 0.000000 0.750000
O O4 0.588446 0.980641 0.000000
O O5 0.500000 0.330450 0.750000
O O6 0.313406 0.291366 0.778777
O O7 0.419724 0.324596 0.000000
O O8 0.833143 0.326332 0.877657
O O9 0.884388 0.487016 0.000000
O O10 0.001475 0.351847 0.000000
O O11 0.143496 0.810550 0.705768
O O12 0.160953 0.632277 0.630892
O O13 0.869195 0.068619 0.500000
O O14 0.877892 0.000000 0.250000
#
# Coordination Sequence:
#
# PCOD8204162 Si02
#       6
#     8   8   4   8   8   4
#     4   8  15  28  44  71 108 153 202 254 302 343
#     4  10  21  36  56  82 121 168 211 251 299 363
#     4  11  26  38  74 106 118 153 206 260 326 411
#     4  11  21  41  65  95 133 168 202 261 325 371
#     4   9  17  31  55  84 123 170 212 251 300 364
#     4  11  22  48  68  98 130 151 196 266 338 383
#
# _framework density 20.537258999999999
#
# number of rings (size 3 to 8) (size 9 to 14) (size 15 to 20)
#    0.000    2.200    2.000    2.400    2.800    2.800 
#    3.600    2.000    0.000    7.200    0.000    0.000 
#    0.000    0.000    0.000    0.000    0.000    0.000 
#
# Total GULP energy -495552.820963 kJ/mol
# GULP energy per Si atom -12388.820524 kJ/mol
# Density = 2.049051 g / cm^3
# Si number density = 20.537259 Si / 1000 Ang^3
#
#
#
# Elastic Constant Matrix: (Units=GPa)
#
#
# Indices 1 2 3 4 5 6 
#
# 1 77.1861 28.8124 45.8776 0.0000 0.0000 0.0000
# 2 28.8124 61.0514 45.9129 0.0000 0.0000 0.0000
# 3 45.8776 45.9129 191.4192 0.0000 0.0000 0.0000
# 4 0.0000 0.0000 0.0000 50.6255 0.0000 0.0000
# 5 0.0000 0.0000 0.0000 0.0000 9.6229 0.0000
# 6 0.0000 0.0000 0.0000 0.0000 0.0000 22.5723
#
#
#
# Elastic Compliance Matrix: (Units=1/GPa)
#
#
# Indices 1 2 3 4 5 6 
#
# 1 0.016708 -0.005946 -0.002578 0.000000 0.000000 0.000000
# 2 -0.005946 0.022101 -0.003876 0.000000 0.000000 0.000000
# 3 -0.002578 -0.003876 0.006772 0.000000 0.000000 0.000000
# 4 0.000000 0.000000 0.000000 0.019753 0.000000 0.000000
# 5 0.000000 0.000000 0.000000 0.000000 0.103919 0.000000
# 6 0.000000 0.000000 0.000000 0.000000 0.000000 0.044302
#
#
# Mechanical properties :
#
#
# Convention : Reuss Voigt Hill
#
# Bulk Modulus (GPa) = 48.12367 63.42918 55.77643
# Shear Modulus (GPa) = 20.38481 30.50105 25.44293
#
# Velocity S-wave (km/s) = 3.15394 3.85795 3.52357
# Velocity P-wave (km/s) = 6.06188 7.12721 6.61602
#
# Compressibility (1/GPa) = 0.02077979
#
# Stress axis : x y z
#
# Youngs Moduli (GPa) = 59.85274 45.24763 147.67381
#
# Poissons Ratio (x) = 0.26905 0.38072
# Poissons Ratio (y) = 0.35589 0.57236
# Poissons Ratio (z) = 0.15431 0.17537
#
# Static dielectric constant tensor:
#      x y z
#    x 3.665970 0.000000 0.000000 
#    y 0.000000 3.729500 0.000000 
#    z 0.000000 0.000000 4.008640 
# 
# 
# High freq. dielectric constant tensor:
#      x y z
#    x 1.800980 0.000000 0.000000 
#    y 0.000000 1.780590 0.000000 
#    z 0.000000 0.000000 1.818970 
# 
# From -- ./inp_files/3459.got.cif
#   From: 2010.03.12/outbox.cif.g09.slc.cpg/sg49_2_cif.got.tgz:3459.got - 2010.04.14 03:58:27.
