data_PCOD8204542
_publ_section_title
;
Structure prediction by ZEFSAII (Michael W. Deem and Ramdas Pophale) SiO2 
 PCOD8204542
Probable space group: P C C M
;
_chemical_formula_sum "Si O2"
_cell_formula_units_Z 64
_cell_length_a 23.582629
_cell_length_b 15.454654
_cell_length_c 8.573263
_cell_angle_alpha 90.000000
_cell_angle_beta 90.000000
_cell_angle_gamma 90.000000
_cell_volume 3124.623192
_symmetry_space_group_name_H-M "P C C M"
_symmetry_group_IT_number 49
_symmetry_cell_setting 'orthorhombic'
loop_
_space_group_symop_operation_xyz
x,y,z
-x,-y,z
x,-y,1/2-z
-x,y,1/2-z
-x,-y,-z
x,y,-z
-x,y,1/2+z
x,-y,1/2+z
loop_
_atom_site_type_symbol
_atom_site_label
_atom_site_fract_x
_atom_site_fract_y
_atom_site_fract_z
Si Si1 0.237643 0.243019 0.820455
Si Si2 0.828760 0.587499 0.815979
Si Si3 0.828857 0.087568 0.817492
Si Si4 0.629141 0.750209 0.819085
Si Si5 0.561391 0.907423 0.315221
Si Si6 0.438543 0.407297 0.684905
Si Si7 0.940943 0.156326 0.316050
Si Si8 0.059181 0.345768 0.315752
O O1 0.210008 0.332473 0.763073
O O2 0.213250 0.166153 0.716703
O O3 0.304105 0.249977 0.794629
O O4 0.221912 0.224450 0.000000
O O5 0.799940 0.500000 0.750000
O O6 0.890727 0.592297 0.739266
O O7 0.834554 0.583056 0.000000
O O8 0.889550 0.095511 0.733653
O O9 0.800592 0.000000 0.750000
O O10 0.838672 0.080363 0.000000
O O11 0.605793 0.835638 0.736871
O O12 0.605809 0.664556 0.737570
O O13 0.611791 0.750298 0.000000
O O14 0.500000 0.881808 0.250000
O O15 0.558178 0.912409 0.500000
O O16 0.581586 0.000000 0.250000
O O17 0.418487 0.500000 0.750000
O O18 0.500000 0.381753 0.750000
O O19 0.441652 0.411933 0.500000
O O20 0.945342 0.162550 0.500000
O O21 0.928251 0.250794 0.249301
O O22 0.000000 0.118664 0.250000
O O23 0.055926 0.341522 0.500000
O O24 0.000000 0.382511 0.250000
#
# Coordination Sequence:
#
# PCOD8204542 Si02
#       8
#     8   8   8   8   8   8   8   8
#     4  10  24  45  66  88 122 163 208 260 309 359
#     4  11  23  41  64  90 121 159 203 255 308 369
#     4  12  25  42  66  92 122 161 206 254 310 370
#     4  11  23  41  64  92 125 166 210 257 308 366
#     4  11  22  39  63  94 129 167 206 254 307 366
#     4  11  22  39  63  94 130 168 208 256 309 367
#     4  11  21  37  61  91 125 159 199 247 306 370
#     4  11  21  36  60  91 122 159 198 246 307 369
#
# _framework density 20.482471
#
# number of rings (size 3 to 8) (size 9 to 14) (size 15 to 20)
#    0.000    1.000    1.250    8.250    0.000    3.000 
#    0.000    3.750    0.000    0.000    0.000    0.000 
#    0.000    0.000    0.000    0.000    0.000    0.000 
#
# Total GULP energy -793992.686024 kJ/mol
# GULP energy per Si atom -12406.135719 kJ/mol
# Density = 2.043585 g / cm^3
# Si number density = 20.482471 Si / 1000 Ang^3
#
#
#
# Elastic Constant Matrix: (Units=GPa)
#
#
# Indices 1 2 3 4 5 6 
#
# 1 92.4705 60.6219 46.9836 0.0000 0.0000 0.0000
# 2 60.6219 141.6902 61.2688 0.0000 0.0000 0.0000
# 3 46.9836 61.2688 169.9427 0.0000 0.0000 0.0000
# 4 0.0000 0.0000 0.0000 37.2619 0.0000 0.0000
# 5 0.0000 0.0000 0.0000 0.0000 12.4441 0.0000
# 6 0.0000 0.0000 0.0000 0.0000 0.0000 70.3556
#
#
#
# Elastic Compliance Matrix: (Units=1/GPa)
#
#
# Indices 1 2 3 4 5 6 
#
# 1 0.015742 -0.005749 -0.002279 0.000000 0.000000 0.000000
# 2 -0.005749 0.010461 -0.002182 0.000000 0.000000 0.000000
# 3 -0.002279 -0.002182 0.007301 0.000000 0.000000 0.000000
# 4 0.000000 0.000000 0.000000 0.026837 0.000000 0.000000
# 5 0.000000 0.000000 0.000000 0.000000 0.080360 0.000000
# 6 0.000000 0.000000 0.000000 0.000000 0.000000 0.014214
#
#
# Mechanical properties :
#
#
# Convention : Reuss Voigt Hill
#
# Bulk Modulus (GPa) = 76.43787 82.42800 79.43293
# Shear Modulus (GPa) = 27.82481 39.69424 33.75953
#
# Velocity S-wave (km/s) = 3.68974 4.40700 4.06423
# Velocity P-wave (km/s) = 7.45332 8.13794 7.80314
#
# Compressibility (1/GPa) = 0.01308252
#
# Stress axis : x y z
#
# Youngs Moduli (GPa) = 63.52627 95.59276 136.96543
#
# Poissons Ratio (x) = 0.54960 0.31217
# Poissons Ratio (y) = 0.36524 0.29885
# Poissons Ratio (z) = 0.14479 0.20858
#
# Static dielectric constant tensor:
#      x y z
#    x 3.694690 0.000000 0.000000 
#    y 0.000000 3.775160 0.000000 
#    z 0.000000 0.000000 3.797600 
# 
# 
# High freq. dielectric constant tensor:
#      x y z
#    x 1.795620 0.000000 0.000000 
#    y 0.000000 1.811450 0.000000 
#    z 0.000000 0.000000 1.818590 
# 
# From -- ./inp_files/6537.got.cif
#   From: 2010.03.12/outbox.cif.g09.slc.cpg/sg49_4_cif.got.tgz:6537.got - 2010.04.14 03:58:27.
