data_PCOD8204344
_publ_section_title
;
Structure prediction by ZEFSAII (Michael W. Deem and Ramdas Pophale) SiO2 
 PCOD8204344
Probable space group: P C C M
;
_chemical_formula_sum "Si O2"
_cell_formula_units_Z 32
_cell_length_a 5.031228
_cell_length_b 17.536227
_cell_length_c 16.342736
_cell_angle_alpha 90.000000
_cell_angle_beta 90.000000
_cell_angle_gamma 90.000000
_cell_volume 1441.899272
_symmetry_space_group_name_H-M "P C C M"
_symmetry_group_IT_number 49
_symmetry_cell_setting 'orthorhombic'
loop_
_space_group_symop_operation_xyz
x,y,z
-x,-y,z
x,-y,1/2-z
-x,y,1/2-z
-x,-y,-z
x,y,-z
-x,y,1/2+z
x,-y,1/2+z
loop_
_atom_site_type_symbol
_atom_site_label
_atom_site_fract_x
_atom_site_fract_y
_atom_site_fract_z
Si Si1 0.871521 0.213642 0.906061
Si Si2 0.241488 0.449418 0.907306
Si Si3 0.382815 0.709441 0.660705
Si Si4 0.250783 0.045371 0.597397
O O1 0.627225 0.273254 0.900580
O O2 0.763192 0.132721 0.872553
O O3 0.128999 0.236429 0.853301
O O4 0.965681 0.208613 0.000000
O O5 0.500000 0.500000 0.904972
O O6 0.281169 0.376560 0.850203
O O7 0.000000 0.500000 0.872220
O O8 0.176528 0.422116 0.000000
O O9 0.500000 0.723122 0.750000
O O10 0.264183 0.044374 0.500000
O O11 0.500000 0.000000 0.634914
O O12 0.000000 0.000000 0.631223
#
# Coordination Sequence:
#
# PCOD8204344 Si02
#       4
#     8   8   8   8
#     4  11  22  39  65  92 124 169 217 263 314 378
#     4  10  21  39  64  90 117 154 203 256 307 367
#     4  12  25  41  61  92 132 169 208 260 320 381
#     4   9  17  31  55  89 121 151 201 264 311 352
#
# _framework density 22.19295
#
# number of rings (size 3 to 8) (size 9 to 14) (size 15 to 20)
#    0.000    1.500    0.000    6.000    0.000    6.500 
#    0.000    1.250    0.000   11.250    0.000    0.000 
#    0.000    0.000    0.000    0.000    0.000    1.000 
#
# Total GULP energy -396885.654846 kJ/mol
# GULP energy per Si atom -12402.676714 kJ/mol
# Density = 2.214244 g / cm^3
# Si number density = 22.192950 Si / 1000 Ang^3
#
#
#
# Elastic Constant Matrix: (Units=GPa)
#
#
# Indices 1 2 3 4 5 6 
#
# 1 197.9991 81.7109 40.5045 0.0000 0.0000 0.0000
# 2 81.7109 151.7862 51.4472 0.0000 0.0000 0.0000
# 3 40.5045 51.4472 57.7705 0.0000 0.0000 0.0000
# 4 0.0000 0.0000 0.0000 10.8526 0.0000 0.0000
# 5 0.0000 0.0000 0.0000 0.0000 30.9442 0.0000
# 6 0.0000 0.0000 0.0000 0.0000 0.0000 51.9125
#
#
#
# Elastic Compliance Matrix: (Units=1/GPa)
#
#
# Indices 1 2 3 4 5 6 
#
# 1 0.006669 -0.002872 -0.002118 0.000000 0.000000 0.000000
# 2 -0.002872 0.010674 -0.007492 0.000000 0.000000 0.000000
# 3 -0.002118 -0.007492 0.025466 0.000000 0.000000 0.000000
# 4 0.000000 0.000000 0.000000 0.092143 0.000000 0.000000
# 5 0.000000 0.000000 0.000000 0.000000 0.032316 0.000000
# 6 0.000000 0.000000 0.000000 0.000000 0.000000 0.019263
#
#
# Mechanical properties :
#
#
# Convention : Reuss Voigt Hill
#
# Bulk Modulus (GPa) = 56.03640 83.87567 69.95604
# Shear Modulus (GPa) = 22.99439 34.33476 28.66458
#
# Velocity S-wave (km/s) = 3.22236 3.93759 3.59779
# Velocity P-wave (km/s) = 6.25694 7.65171 6.98921
#
# Compressibility (1/GPa) = 0.01784554
#
# Stress axis : x y z
#
# Youngs Moduli (GPa) = 149.94386 93.68832 39.26741
#
# Poissons Ratio (x) = 0.26910 0.08317
# Poissons Ratio (y) = 0.43069 0.29417
# Poissons Ratio (z) = 0.31758 0.70187
#
# Static dielectric constant tensor:
#      x y z
#    x 4.248540 0.000000 0.000000 
#    y 0.000000 4.124520 0.000000 
#    z 0.000000 0.000000 3.591860 
# 
# 
# High freq. dielectric constant tensor:
#      x y z
#    x 1.895410 0.000000 0.000000 
#    y 0.000000 1.883990 0.000000 
#    z 0.000000 0.000000 1.835390 
# 
# From -- ./inp_files/15134.got.cif
#   From: 2010.03.12/outbox.cif.g09.slc.cpg/sg49_8_cif.got.tgz:15134.got - 2010.04.14 03:58:27.
