data_PCOD8204147
_publ_section_title
;
Structure prediction by ZEFSAII (Michael W. Deem and Ramdas Pophale) SiO2 
 PCOD8204147
Probable space group: P C C M
;
_chemical_formula_sum "Si O2"
_cell_formula_units_Z 56
_cell_length_a 31.916946
_cell_length_b 5.042713
_cell_length_c 17.035883
_cell_angle_alpha 90.000000
_cell_angle_beta 90.000000
_cell_angle_gamma 90.000000
_cell_volume 2741.891272
_symmetry_space_group_name_H-M "P C C M"
_symmetry_group_IT_number 49
_symmetry_cell_setting 'orthorhombic'
loop_
_space_group_symop_operation_xyz
x,y,z
-x,-y,z
x,-y,1/2-z
-x,y,1/2-z
-x,-y,-z
x,y,-z
-x,y,1/2+z
x,-y,1/2+z
loop_
_atom_site_type_symbol
_atom_site_label
_atom_site_fract_x
_atom_site_fract_y
_atom_site_fract_z
Si Si1 0.302886 0.754934 0.802695
Si Si2 0.525796 0.749712 0.592714
Si Si3 0.087971 0.928219 0.661050
Si Si4 0.185679 0.060168 0.159208
Si Si5 0.603346 0.240871 0.802351
Si Si6 0.770757 0.421970 0.908665
Si Si7 0.048061 0.436322 0.590089
O O1 0.305098 0.500000 0.750000
O O2 0.349628 0.819373 0.834275
O O3 0.273266 0.688592 0.875877
O O4 0.285569 0.000000 0.750000
O O5 0.500000 0.500000 0.623934
O O6 0.529720 0.753764 0.500000
O O7 0.573018 0.735611 0.623666
O O8 0.500000 0.000000 0.624486
O O9 0.136851 0.911663 0.642489
O O10 0.073789 0.629622 0.645873
O O11 0.078570 0.000000 0.750000
O O12 0.061774 0.134059 0.607685
O O13 0.212313 0.319739 0.136602
O O14 0.195395 0.000000 0.250000
O O15 0.196779 0.814492 0.103714
O O16 0.602028 0.500000 0.750000
O O17 0.587062 0.000000 0.750000
O O18 0.765503 0.491129 0.000000
O O19 0.058600 0.497414 0.500000
O O20 0.000000 0.500000 0.608131
#
# Coordination Sequence:
#
# PCOD8204147 Si02
#       7
#     8   8   8   8   8   8   8
#     4  10  21  39  60  82 114 154 191 233 293 353
#     4  10  21  36  54  79 113 151 187 230 290 348
#     4  11  24  41  63  90 118 154 200 244 287 342
#     4  11  24  42  62  86 120 159 194 235 295 354
#     4  10  21  36  57  84 110 145 193 238 282 338
#     4  12  24  38  61  92 118 149 197 244 288 344
#     4  11  24  41  62  89 122 159 195 237 295 351
#
# _framework density 20.423857999999999
#
# number of rings (size 3 to 8) (size 9 to 14) (size 15 to 20)
#    0.000    1.286    0.000    6.000    0.000   10.857 
#    0.000    0.000    0.000    8.571    0.000    0.000 
#    0.000    0.000    0.000    0.000    0.000    0.000 
#
# Total GULP energy -694488.347902 kJ/mol
# GULP energy per Si atom -12401.577641 kJ/mol
# Density = 2.037737 g / cm^3
# Si number density = 20.423858 Si / 1000 Ang^3
#
#
#
# Elastic Constant Matrix: (Units=GPa)
#
#
# Indices 1 2 3 4 5 6 
#
# 1 126.6224 37.2316 62.0106 0.0000 0.0000 0.0000
# 2 37.2316 131.6743 26.6635 0.0000 0.0000 0.0000
# 3 62.0106 26.6635 79.0764 0.0000 0.0000 0.0000
# 4 0.0000 0.0000 0.0000 17.4442 0.0000 0.0000
# 5 0.0000 0.0000 0.0000 0.0000 20.4251 0.0000
# 6 0.0000 0.0000 0.0000 0.0000 0.0000 35.7682
#
#
#
# Elastic Compliance Matrix: (Units=1/GPa)
#
#
# Indices 1 2 3 4 5 6 
#
# 1 0.013189 -0.001755 -0.009751 0.000000 0.000000 0.000000
# 2 -0.001755 0.008384 -0.001451 0.000000 0.000000 0.000000
# 3 -0.009751 -0.001451 0.020782 0.000000 0.000000 0.000000
# 4 0.000000 0.000000 0.000000 0.057326 0.000000 0.000000
# 5 0.000000 0.000000 0.000000 0.000000 0.048959 0.000000
# 6 0.000000 0.000000 0.000000 0.000000 0.000000 0.027958
#
#
# Mechanical properties :
#
#
# Convention : Reuss Voigt Hill
#
# Bulk Modulus (GPa) = 60.82073 65.46494 63.14284
# Shear Modulus (GPa) = 24.03951 28.82535 26.43243
#
# Velocity S-wave (km/s) = 3.43451 3.76088 3.60139
# Velocity P-wave (km/s) = 6.75068 7.14015 6.94814
#
# Compressibility (1/GPa) = 0.01644176
#
# Stress axis : x y z
#
# Youngs Moduli (GPa) = 75.82292 119.26779 48.11942
#
# Poissons Ratio (x) = 0.20928 0.46920
# Poissons Ratio (y) = 0.13305 0.06983
# Poissons Ratio (z) = 0.73932 0.17307
#
# Static dielectric constant tensor:
#      x y z
#    x 4.014220 0.000000 0.000000 
#    y 0.000000 3.939410 0.000000 
#    z 0.000000 0.000000 3.497400 
# 
# 
# High freq. dielectric constant tensor:
#      x y z
#    x 1.813700 0.000000 0.000000 
#    y 0.000000 1.819330 0.000000 
#    z 0.000000 0.000000 1.785950 
# 
# From -- ./inp_files/14622.got.cif
#   From: 2010.03.12/outbox.cif.g09.slc.cpg/sg49_8_cif.got.tgz:14622.got - 2010.04.14 03:58:27.
