data_PCOD8204390
_publ_section_title
;
Structure prediction by ZEFSAII (Michael W. Deem and Ramdas Pophale) SiO2 
 PCOD8204390
Probable space group: P C C M
;
_chemical_formula_sum "Si O2"
_cell_formula_units_Z 40
_cell_length_a 11.606969
_cell_length_b 8.314887
_cell_length_c 17.863811
_cell_angle_alpha 90.000000
_cell_angle_beta 90.000000
_cell_angle_gamma 90.000000
_cell_volume 1724.047755
_symmetry_space_group_name_H-M "P C C M"
_symmetry_group_IT_number 49
_symmetry_cell_setting 'orthorhombic'
loop_
_space_group_symop_operation_xyz
x,y,z
-x,-y,z
x,-y,1/2-z
-x,y,1/2-z
-x,-y,-z
x,y,-z
-x,y,1/2+z
x,-y,1/2+z
loop_
_atom_site_type_symbol
_atom_site_label
_atom_site_fract_x
_atom_site_fract_y
_atom_site_fract_z
Si Si1 0.981823 0.824819 0.338484
Si Si2 0.764269 0.673376 0.586737
Si Si3 0.386679 0.823892 0.713880
Si Si4 0.819543 0.391118 0.317147
Si Si5 0.506724 0.315668 0.085736
O O1 0.080615 0.700325 0.363759
O O2 0.000000 0.834237 0.250000
O O3 0.856146 0.770533 0.364178
O O4 0.000000 0.000000 0.374738
O O5 0.801711 0.669865 0.500000
O O6 0.755796 0.492354 0.618747
O O7 0.637754 0.750700 0.596720
O O8 0.500000 0.738074 0.750000
O O9 0.268848 0.727457 0.726411
O O10 0.419381 0.810553 0.625891
O O11 0.371426 0.000000 0.750000
O O12 0.873154 0.500000 0.250000
O O13 0.500000 0.500000 0.115525
O O14 0.468825 0.312825 0.000000
#
# Coordination Sequence:
#
# PCOD8204390 Si02
#       5
#     8   8   8   8   8
#     4  11  26  43  66  98 142 189 231 290 364 436
#     4  11  24  44  73 105 136 180 244 299 350 426
#     4  11  26  41  65 105 148 181 232 296 355 431
#     4  12  24  41  68  99 137 183 237 292 355 413
#     4  10  21  43  73 104 141 188 240 296 359 425
#
# _framework density 23.201212999999999
#
# number of rings (size 3 to 8) (size 9 to 14) (size 15 to 20)
#    0.000    1.000    4.000    1.800    2.800    3.600 
#    0.000    2.000    0.000    3.600    0.000    0.000 
#    0.000    0.000    0.000    0.000    0.000    0.000 
#
# Total GULP energy -495741.919037 kJ/mol
# GULP energy per Si atom -12393.547976 kJ/mol
# Density = 2.314841 g / cm^3
# Si number density = 23.201213 Si / 1000 Ang^3
#
#
#
# Elastic Constant Matrix: (Units=GPa)
#
#
# Indices 1 2 3 4 5 6 
#
# 1 108.9036 55.9702 33.5239 0.0000 0.0000 0.0000
# 2 55.9702 136.0543 55.4620 0.0000 0.0000 0.0000
# 3 33.5239 55.4620 90.9040 0.0000 0.0000 0.0000
# 4 0.0000 0.0000 0.0000 21.1731 0.0000 0.0000
# 5 0.0000 0.0000 0.0000 0.0000 35.4981 0.0000
# 6 0.0000 0.0000 0.0000 0.0000 0.0000 31.9357
#
#
#
# Elastic Compliance Matrix: (Units=1/GPa)
#
#
# Indices 1 2 3 4 5 6 
#
# 1 0.011877 -0.004127 -0.001862 0.000000 0.000000 0.000000
# 2 -0.004127 0.011217 -0.005322 0.000000 0.000000 0.000000
# 3 -0.001862 -0.005322 0.014934 0.000000 0.000000 0.000000
# 4 0.000000 0.000000 0.000000 0.047230 0.000000 0.000000
# 5 0.000000 0.000000 0.000000 0.000000 0.028171 0.000000
# 6 0.000000 0.000000 0.000000 0.000000 0.000000 0.031313
#
#
# Mechanical properties :
#
#
# Convention : Reuss Voigt Hill
#
# Bulk Modulus (GPa) = 64.90740 69.53044 67.21892
# Shear Modulus (GPa) = 28.98586 30.44844 29.71715
#
# Velocity S-wave (km/s) = 3.53841 3.62659 3.58277
# Velocity P-wave (km/s) = 6.68808 6.89708 6.79338
#
# Compressibility (1/GPa) = 0.01540656
#
# Stress axis : x y z
#
# Youngs Moduli (GPa) = 84.19964 89.14969 66.96003
#
# Poissons Ratio (x) = 0.36789 0.12469
# Poissons Ratio (y) = 0.34747 0.35635
# Poissons Ratio (z) = 0.15679 0.47444
#
# Static dielectric constant tensor:
#      x y z
#    x 4.292510 0.000000 0.000000 
#    y 0.000000 4.326030 0.000000 
#    z 0.000000 0.000000 4.142980 
# 
# 
# High freq. dielectric constant tensor:
#      x y z
#    x 1.930710 0.000000 0.000000 
#    y 0.000000 1.903220 0.000000 
#    z 0.000000 0.000000 1.906760 
# 
# From -- ./inp_files/16849.got.cif
#   From: 2010.03.12/outbox.cif.g09.slc.cpg/sg49_9_cif.got.tgz:16849.got - 2010.04.14 03:58:27.
