data_PCOD8204218
_publ_section_title
;
Structure prediction by ZEFSAII (Michael W. Deem and Ramdas Pophale) SiO2 
 PCOD8204218
Probable space group: P C C M
;
_chemical_formula_sum "Si O2"
_cell_formula_units_Z 48
_cell_length_a 29.887809
_cell_length_b 9.522218
_cell_length_c 8.596745
_cell_angle_alpha 90.000000
_cell_angle_beta 90.000000
_cell_angle_gamma 90.000000
_cell_volume 2446.618435
_symmetry_space_group_name_H-M "P C C M"
_symmetry_group_IT_number 49
_symmetry_cell_setting 'orthorhombic'
loop_
_space_group_symop_operation_xyz
x,y,z
-x,-y,z
x,-y,1/2-z
-x,y,1/2-z
-x,-y,-z
x,y,-z
-x,y,1/2+z
x,-y,1/2+z
loop_
_atom_site_type_symbol
_atom_site_label
_atom_site_fract_x
_atom_site_fract_y
_atom_site_fract_z
Si Si1 0.952859 0.152143 0.315860
Si Si2 0.623994 0.344991 0.316088
Si Si3 0.548260 0.850080 0.684336
Si Si4 0.800320 0.851997 0.319371
Si Si5 0.696222 0.851103 0.317990
Si Si6 0.871905 0.653871 0.183194
O O1 0.955907 0.142550 0.500000
O O2 0.914627 0.258069 0.258593
O O3 0.000000 0.207407 0.250000
O O4 0.940787 0.000000 0.250000
O O5 0.626056 0.500000 0.250000
O O6 0.617341 0.346827 0.500000
O O7 0.582758 0.267587 0.235862
O O8 0.670323 0.270181 0.272440
O O9 0.500000 0.807874 0.750000
O O10 0.545858 0.859473 0.500000
O O11 0.564176 0.000000 0.750000
O O12 0.811257 0.854645 0.500000
O O13 0.748320 0.826195 0.285036
O O14 0.826411 0.724820 0.240883
O O15 0.816520 0.000000 0.250000
O O16 0.684567 0.846360 0.500000
O O17 0.680533 0.000000 0.250000
O O18 0.876118 0.500000 0.250000
O O19 0.870360 0.645272 0.000000
#
# Coordination Sequence:
#
# PCOD8204218 Si02
#       6
#     8   8   8   8   8   8
#     4  10  21  37  59  85 111 145 187 234 283 337
#     4  12  25  41  60  86 119 157 196 239 291 347
#     4  11  22  40  64  91 120 154 196 242 289 341
#     4  10  21  38  62  88 116 150 192 238 286 339
#     4  10  21  39  62  89 117 151 193 239 287 339
#     4  11  24  39  57  83 116 153 192 234 287 343
#
# _framework density 19.618917
#
# number of rings (size 3 to 8) (size 9 to 14) (size 15 to 20)
#    0.000    1.333    0.000    7.000    0.000    7.333 
#    0.000    3.333    0.000    0.000    0.000    0.000 
#    0.000    0.000    0.000    0.000    0.000    0.000 
#
# Total GULP energy -595502.012021 kJ/mol
# GULP energy per Si atom -12406.291917 kJ/mol
# Density = 1.957426 g / cm^3
# Si number density = 19.618917 Si / 1000 Ang^3
#
#
#
# Elastic Constant Matrix: (Units=GPa)
#
#
# Indices 1 2 3 4 5 6 
#
# 1 106.2621 80.4473 52.0534 0.0000 0.0000 0.0000
# 2 80.4473 155.6221 55.7922 0.0000 0.0000 0.0000
# 3 52.0534 55.7922 127.5971 0.0000 0.0000 0.0000
# 4 0.0000 0.0000 0.0000 38.8193 0.0000 0.0000
# 5 0.0000 0.0000 0.0000 0.0000 42.8825 0.0000
# 6 0.0000 0.0000 0.0000 0.0000 0.0000 16.3030
#
#
#
# Elastic Compliance Matrix: (Units=1/GPa)
#
#
# Indices 1 2 3 4 5 6 
#
# 1 0.016759 -0.007367 -0.003616 0.000000 0.000000 0.000000
# 2 -0.007367 0.010859 -0.001743 0.000000 0.000000 0.000000
# 3 -0.003616 -0.001743 0.010074 0.000000 0.000000 0.000000
# 4 0.000000 0.000000 0.000000 0.025760 0.000000 0.000000
# 5 0.000000 0.000000 0.000000 0.000000 0.023320 0.000000
# 6 0.000000 0.000000 0.000000 0.000000 0.000000 0.061339
#
#
# Mechanical properties :
#
#
# Convention : Reuss Voigt Hill
#
# Bulk Modulus (GPa) = 81.69020 85.11858 83.40439
# Shear Modulus (GPa) = 28.14638 33.01351 30.57994
#
# Velocity S-wave (km/s) = 3.79179 4.10657 3.95232
# Velocity P-wave (km/s) = 7.80379 8.12191 7.96444
#
# Compressibility (1/GPa) = 0.01224137
#
# Stress axis : x y z
#
# Youngs Moduli (GPa) = 59.66796 92.08902 99.26405
#
# Poissons Ratio (x) = 0.67845 0.35890
# Poissons Ratio (y) = 0.43960 0.17298
# Poissons Ratio (z) = 0.21574 0.16048
#
# Static dielectric constant tensor:
#      x y z
#    x 3.733710 0.000000 0.000000 
#    y 0.000000 3.666410 0.000000 
#    z 0.000000 0.000000 3.766430 
# 
# 
# High freq. dielectric constant tensor:
#      x y z
#    x 1.778120 0.000000 0.000000 
#    y 0.000000 1.764600 0.000000 
#    z 0.000000 0.000000 1.785290 
# 
# From -- ./inp_files/2111.got.cif
#   From: 2010.03.12/outbox.cif.g09.slc.cpg/sg49_2_cif.got.tgz:2111.got - 2010.04.14 03:58:27.
