data_PCOD8204340
_publ_section_title
;
Structure prediction by ZEFSAII (Michael W. Deem and Ramdas Pophale) SiO2 
 PCOD8204340
Probable space group: P C C M
;
_chemical_formula_sum "Si O2"
_cell_formula_units_Z 48
_cell_length_a 8.211397
_cell_length_b 14.556169
_cell_length_c 18.273638
_cell_angle_alpha 90.000000
_cell_angle_beta 90.000000
_cell_angle_gamma 90.000000
_cell_volume 2184.183672
_symmetry_space_group_name_H-M "P C C M"
_symmetry_group_IT_number 49
_symmetry_cell_setting 'orthorhombic'
loop_
_space_group_symop_operation_xyz
x,y,z
-x,-y,z
x,-y,1/2-z
-x,y,1/2-z
-x,-y,-z
x,y,-z
-x,y,1/2+z
x,-y,1/2+z
loop_
_atom_site_type_symbol
_atom_site_label
_atom_site_fract_x
_atom_site_fract_y
_atom_site_fract_z
Si Si1 0.747207 0.654025 0.584226
Si Si2 0.371759 0.304924 0.084479
Si Si3 0.310552 0.480601 0.169014
Si Si4 0.097467 0.194526 0.674812
Si Si5 0.685373 0.968727 0.324541
Si Si6 0.816112 0.877472 0.915567
O O1 0.801809 0.663115 0.500000
O O2 0.564993 0.691632 0.595483
O O3 0.766157 0.548684 0.609083
O O4 0.870339 0.708586 0.636383
O O5 0.282480 0.376977 0.139293
O O6 0.310075 0.203667 0.106915
O O7 0.327946 0.328552 0.000000
O O8 0.500000 0.500000 0.173411
O O9 0.234613 0.500000 0.250000
O O10 0.271721 0.140091 0.675273
O O11 0.000000 0.211585 0.750000
O O12 0.986420 0.132291 0.624026
O O13 0.500000 0.000000 0.318384
O O14 0.776266 0.000000 0.250000
O O15 0.748776 0.022490 0.395465
O O16 0.851897 0.874784 0.000000
#
# Coordination Sequence:
#
# PCOD8204340 Si02
#       6
#     8   8   8   8   8   8
#     4  10  21  39  63  92 127 169 215 264 315 370
#     4   9  19  38  63  93 127 165 214 266 316 369
#     4   9  18  32  59  95 127 164 213 266 314 362
#     4  12  25  41  63  92 127 169 205 257 315 381
#     4  11  24  43  66  92 122 161 209 258 313 373
#     4  11  24  41  65  93 126 167 206 256 317 378
#
# _framework density 21.976175000000001
#
# number of rings (size 3 to 8) (size 9 to 14) (size 15 to 20)
#    0.000    1.667    1.667    2.500    2.333    4.333 
#    0.000    0.833    0.000    3.000    0.000    0.000 
#    0.000    0.000    0.000    0.000    0.000    0.000 
#
# Total GULP energy -594874.639933 kJ/mol
# GULP energy per Si atom -12393.221665 kJ/mol
# Density = 2.192616 g / cm^3
# Si number density = 21.976175 Si / 1000 Ang^3
#
#
#
# Elastic Constant Matrix: (Units=GPa)
#
#
# Indices 1 2 3 4 5 6 
#
# 1 53.8181 10.2437 35.7574 0.0000 0.0000 0.0000
# 2 10.2437 87.1655 57.6397 0.0000 0.0000 0.0000
# 3 35.7574 57.6397 144.2686 0.0000 0.0000 0.0000
# 4 0.0000 0.0000 0.0000 582.4708 0.0000 0.0000
# 5 0.0000 0.0000 0.0000 0.0000 19.6926 0.0000
# 6 0.0000 0.0000 0.0000 0.0000 0.0000 2.5491
#
#
#
# Elastic Compliance Matrix: (Units=1/GPa)
#
#
# Indices 1 2 3 4 5 6 
#
# 1 0.022371 0.001410 -0.006108 0.000000 0.000000 0.000000
# 2 0.001410 0.015681 -0.006614 0.000000 0.000000 0.000000
# 3 -0.006108 -0.006614 0.011088 0.000000 0.000000 0.000000
# 4 0.000000 0.000000 0.000000 0.001717 0.000000 0.000000
# 5 0.000000 0.000000 0.000000 0.000000 0.050781 0.000000
# 6 0.000000 0.000000 0.000000 0.000000 0.000000 0.392293
#
#
# Mechanical properties :
#
#
# Convention : Reuss Voigt Hill
#
# Bulk Modulus (GPa) = 37.71472 54.72599 46.22035
# Shear Modulus (GPa) = 9.51668 133.04990 71.28329
#
# Velocity S-wave (km/s) = 2.08323 7.78937 5.70149
# Velocity P-wave (km/s) = 4.79431 10.28861 8.02623
#
# Compressibility (1/GPa) = 0.02651485
#
# Stress axis : x y z
#
# Youngs Moduli (GPa) = 44.70067 63.77318 90.18710
#
# Poissons Ratio (x) = -0.08992 0.55087
# Poissons Ratio (y) = -0.06303 0.59653
# Poissons Ratio (z) = 0.27304 0.42182
#
# Static dielectric constant tensor:
#      x y z
#    x 3.830810 0.000000 0.000000 
#    y 0.000000 3.973370 0.000000 
#    z 0.000000 0.000000 4.310530 
# 
# 
# High freq. dielectric constant tensor:
#      x y z
#    x 1.843980 0.000000 0.000000 
#    y 0.000000 1.865140 0.000000 
#    z 0.000000 0.000000 1.875660 
# 
# From -- ./inp_files/16338.got.cif
#   From: 2010.03.12/outbox.cif.g09.slc.cpg/sg49_9_cif.got.tgz:16338.got - 2010.04.14 03:58:27.
