data_PCOD8204591
_publ_section_title
;
Structure prediction by ZEFSAII (Michael W. Deem and Ramdas Pophale) SiO2 
 PCOD8204591
Probable space group: P C C M
;
_chemical_formula_sum "Si O2"
_cell_formula_units_Z 40
_cell_length_a 15.616233
_cell_length_b 14.376482
_cell_length_c 8.419358
_cell_angle_alpha 90.000000
_cell_angle_beta 90.000000
_cell_angle_gamma 90.000000
_cell_volume 1890.200535
_symmetry_space_group_name_H-M "P C C M"
_symmetry_group_IT_number 49
_symmetry_cell_setting 'orthorhombic'
loop_
_space_group_symop_operation_xyz
x,y,z
-x,-y,z
x,-y,1/2-z
-x,y,1/2-z
-x,-y,-z
x,y,-z
-x,y,1/2+z
x,-y,1/2+z
loop_
_atom_site_type_symbol
_atom_site_label
_atom_site_fract_x
_atom_site_fract_y
_atom_site_fract_z
Si Si1 0.661869 0.403030 0.187156
Si Si2 0.410702 0.220307 0.188714
Si Si3 0.749931 0.896966 0.185891
Si Si4 0.150063 0.599760 0.313414
Si Si5 0.910148 0.786692 0.685394
O O1 0.622322 0.500000 0.250000
O O2 0.596689 0.321453 0.230477
O O3 0.750402 0.383413 0.277605
O O4 0.679347 0.408406 0.000000
O O5 0.500000 0.176601 0.250000
O O6 0.334204 0.155013 0.253368
O O7 0.409418 0.229978 0.000000
O O8 0.834218 0.840740 0.229642
O O9 0.755212 0.000000 0.250000
O O10 0.742051 0.902181 0.000000
O O11 0.119046 0.500000 0.250000
O O12 0.133735 0.607772 0.500000
O O13 0.094852 0.677390 0.223998
O O14 0.903404 0.805026 0.500000
O O15 0.000000 0.826299 0.750000
#
# Coordination Sequence:
#
# PCOD8204591 Si02
#       5
#     8   8   8   8   8
#     4  11  21  36  61  92 129 173 218 263 318 377
#     4  11  24  42  66  96 132 170 216 267 321 383
#     4  11  25  46  71  97 129 167 212 268 327 388
#     4  11  21  37  61  93 131 173 219 263 316 377
#     4  12  25  43  68  98 132 171 216 266 323 384
#
# _framework density 21.161777000000001
#
# number of rings (size 3 to 8) (size 9 to 14) (size 15 to 20)
#    0.000    0.800    2.000    7.800    0.000    4.000 
#    0.000    8.000    0.000    0.000    0.000    0.000 
#    0.000    0.000    0.000    0.000    0.000    0.000 
#
# Total GULP energy -496251.902453 kJ/mol
# GULP energy per Si atom -12406.297561 kJ/mol
# Density = 2.111361 g / cm^3
# Si number density = 21.161777 Si / 1000 Ang^3
#
#
#
# Elastic Constant Matrix: (Units=GPa)
#
#
# Indices 1 2 3 4 5 6 
#
# 1 127.7717 48.5182 -6.7940 0.0000 0.0000 0.0000
# 2 48.5182 113.6113 1.8004 0.0000 0.0000 0.0000
# 3 -6.7940 1.8004 45.9698 0.0000 0.0000 0.0000
# 4 0.0000 0.0000 0.0000 29.8891 0.0000 0.0000
# 5 0.0000 0.0000 0.0000 0.0000 25.8895 0.0000
# 6 0.0000 0.0000 0.0000 0.0000 0.0000 7.2858
#
#
#
# Elastic Compliance Matrix: (Units=1/GPa)
#
#
# Indices 1 2 3 4 5 6 
#
# 1 0.009451 -0.004061 0.001556 0.000000 0.000000 0.000000
# 2 -0.004061 0.010552 -0.001013 0.000000 0.000000 0.000000
# 3 0.001556 -0.001013 0.022023 0.000000 0.000000 0.000000
# 4 0.000000 0.000000 0.000000 0.033457 0.000000 0.000000
# 5 0.000000 0.000000 0.000000 0.000000 0.038626 0.000000
# 6 0.000000 0.000000 0.000000 0.000000 0.000000 0.137253
#
#
# Mechanical properties :
#
#
# Convention : Reuss Voigt Hill
#
# Bulk Modulus (GPa) = 28.57992 41.60023 35.09007
# Shear Modulus (GPa) = 18.51426 28.86810 23.69118
#
# Velocity S-wave (km/s) = 2.96107 3.69746 3.34956
# Velocity P-wave (km/s) = 5.02248 6.15867 5.61936
#
# Compressibility (1/GPa) = 0.03498961
#
# Stress axis : x y z
#
# Youngs Moduli (GPa) = 105.80683 94.76705 45.40701
#
# Poissons Ratio (x) = 0.38483 -0.07065
# Poissons Ratio (y) = 0.42966 0.04602
# Poissons Ratio (z) = -0.16462 0.09604
#
# Static dielectric constant tensor:
#      x y z
#    x 3.848130 0.000000 0.000000 
#    y 0.000000 3.951640 0.000000 
#    z 0.000000 0.000000 3.851190 
# 
# 
# High freq. dielectric constant tensor:
#      x y z
#    x 1.832240 0.000000 0.000000 
#    y 0.000000 1.828950 0.000000 
#    z 0.000000 0.000000 1.844100 
# 
# From -- ./inp_files/3440.got.cif
#   From: 2010.03.12/outbox.cif.g09.slc.cpg/sg49_2_cif.got.tgz:3440.got - 2010.04.14 03:58:27.
