data_PCOD8204048
_publ_section_title
;
Structure prediction by ZEFSAII (Michael W. Deem and Ramdas Pophale) SiO2 
 PCOD8204048
Probable space group: P C C M
;
_chemical_formula_sum "Si O2"
_cell_formula_units_Z 64
_cell_length_a 9.860684
_cell_length_b 18.728847
_cell_length_c 18.450756
_cell_angle_alpha 90.000000
_cell_angle_beta 90.000000
_cell_angle_gamma 90.000000
_cell_volume 3407.471632
_symmetry_space_group_name_H-M "P C C M"
_symmetry_group_IT_number 49
_symmetry_cell_setting 'orthorhombic'
loop_
_space_group_symop_operation_xyz
x,y,z
-x,-y,z
x,-y,1/2-z
-x,y,1/2-z
-x,-y,-z
x,y,-z
-x,y,1/2+z
x,-y,1/2+z
loop_
_atom_site_type_symbol
_atom_site_label
_atom_site_fract_x
_atom_site_fract_y
_atom_site_fract_z
Si Si1 0.541941 0.165845 0.416379
Si Si2 0.991365 0.149297 0.335118
Si Si3 0.405173 0.301524 0.819135
Si Si4 0.221381 0.057750 0.916403
Si Si5 0.904310 0.303595 0.318095
Si Si6 0.593789 0.434824 0.583600
Si Si7 0.750682 0.893917 0.584344
Si Si8 0.905965 0.563588 0.083783
O O1 0.550884 0.189724 0.500000
O O2 0.583892 0.231221 0.366929
O O3 0.642127 0.100647 0.400150
O O4 0.393168 0.139561 0.395410
O O5 0.903100 0.086493 0.369577
O O6 0.926449 0.226024 0.353776
O O7 0.000000 0.136230 0.250000
O O8 0.141036 0.148869 0.368382
O O9 0.500000 0.295944 0.750000
O O10 0.250948 0.310924 0.792549
O O11 0.450416 0.368065 0.868022
O O12 0.249686 0.976745 0.893737
O O13 0.178114 0.063946 0.000000
O O14 0.942784 0.362878 0.376929
O O15 0.000000 0.315212 0.250000
O O16 0.500000 0.500000 0.608195
O O17 0.568528 0.414265 0.500000
O O18 0.749528 0.457382 0.596415
O O19 0.784502 0.884106 0.500000
O O20 0.000000 0.500000 0.114916
O O21 0.939013 0.576494 0.000000
#
# Coordination Sequence:
#
# PCOD8204048 Si02
#       8
#     8   8   8   8   8   8   8   8
#     4  10  21  38  60  85 113 147 190 238 292 343
#     4  11  23  38  56  82 118 154 193 235 283 340
#     4  11  23  38  61  84 116 155 194 235 281 341
#     4  10  20  38  62  84 110 149 192 235 290 348
#     4  10  23  40  57  82 116 157 191 233 280 334
#     4   9  19  38  61  87 118 149 188 234 281 334
#     4  10  22  38  58  86 115 144 188 244 291 340
#     4   9  19  37  61  88 114 146 189 233 279 333
#
# _framework density 18.782253999999998
#
# number of rings (size 3 to 8) (size 9 to 14) (size 15 to 20)
#    0.000    2.000    1.250    1.500    3.500    6.500 
#    0.000    2.500    0.000    2.250    0.000    0.000 
#    0.000    0.000    0.000    0.000    0.000    0.000 
#
# Total GULP energy -793887.669344 kJ/mol
# GULP energy per Si atom -12404.494834 kJ/mol
# Density = 1.873950 g / cm^3
# Si number density = 18.782254 Si / 1000 Ang^3
#
#
#
# Elastic Constant Matrix: (Units=GPa)
#
#
# Indices 1 2 3 4 5 6 
#
# 1 96.2249 31.4993 42.4035 0.0000 0.0000 0.0000
# 2 31.4993 96.2634 42.0603 0.0000 0.0000 0.0000
# 3 42.4035 42.0603 66.6663 0.0000 0.0000 0.0000
# 4 0.0000 0.0000 0.0000 31.3727 0.0000 0.0000
# 5 0.0000 0.0000 0.0000 0.0000 29.0604 0.0000
# 6 0.0000 0.0000 0.0000 0.0000 0.0000 35.4950
#
#
#
# Elastic Compliance Matrix: (Units=1/GPa)
#
#
# Indices 1 2 3 4 5 6 
#
# 1 0.014507 -0.000988 -0.008604 0.000000 0.000000 0.000000
# 2 -0.000988 0.014409 -0.008463 0.000000 0.000000 0.000000
# 3 -0.008604 -0.008463 0.025812 0.000000 0.000000 0.000000
# 4 0.000000 0.000000 0.000000 0.031875 0.000000 0.000000
# 5 0.000000 0.000000 0.000000 0.000000 0.034411 0.000000
# 6 0.000000 0.000000 0.000000 0.000000 0.000000 0.028173
#
#
# Mechanical properties :
#
#
# Convention : Reuss Voigt Hill
#
# Bulk Modulus (GPa) = 53.70792 54.56454 54.13623
# Shear Modulus (GPa) = 26.10931 28.73170 27.42051
#
# Velocity S-wave (km/s) = 3.73246 3.91541 3.82503
# Velocity P-wave (km/s) = 6.87256 7.03952 6.95654
#
# Compressibility (1/GPa) = 0.01861923
#
# Stress axis : x y z
#
# Youngs Moduli (GPa) = 68.93072 69.40187 38.74160
#
# Poissons Ratio (x) = 0.06854 0.33335
# Poissons Ratio (y) = 0.06807 0.32785
# Poissons Ratio (z) = 0.59311 0.58731
#
# Static dielectric constant tensor:
#      x y z
#    x 3.588880 0.000000 0.000000 
#    y 0.000000 3.557610 0.000000 
#    z 0.000000 0.000000 3.383220 
# 
# 
# High freq. dielectric constant tensor:
#      x y z
#    x 1.741730 0.000000 0.000000 
#    y 0.000000 1.737210 0.000000 
#    z 0.000000 0.000000 1.722940 
# 
# From -- ./inp_files/20018.got.cif
#   From: 2010.03.12/outbox.cif.g09.slc.cpg/sg49_11_cif.got.tgz:20018.got - 2010.04.14 03:58:27.
