data_PCOD8204598
_publ_section_title
;
Structure prediction by ZEFSAII (Michael W. Deem and Ramdas Pophale) SiO2 
 PCOD8204598
Probable space group: P C C M
;
_chemical_formula_sum "Si O2"
_cell_formula_units_Z 48
_cell_length_a 9.610734
_cell_length_b 14.117138
_cell_length_c 16.903794
_cell_angle_alpha 90.000000
_cell_angle_beta 90.000000
_cell_angle_gamma 90.000000
_cell_volume 2293.440138
_symmetry_space_group_name_H-M "P C C M"
_symmetry_group_IT_number 49
_symmetry_cell_setting 'orthorhombic'
loop_
_space_group_symop_operation_xyz
x,y,z
-x,-y,z
x,-y,1/2-z
-x,y,1/2-z
-x,-y,-z
x,y,-z
-x,y,1/2+z
x,-y,1/2+z
loop_
_atom_site_type_symbol
_atom_site_label
_atom_site_fract_x
_atom_site_fract_y
_atom_site_fract_z
Si Si1 0.091865 0.086071 0.592124
Si Si2 0.115030 0.269036 0.313523
Si Si3 0.294179 0.585363 0.090597
Si Si4 0.352237 0.212767 0.205715
Si Si5 0.614058 0.622815 0.909064
Si Si6 0.653238 0.015737 0.343219
O O1 0.063258 0.097234 0.500000
O O2 0.051208 0.188349 0.628855
O O3 0.250301 0.054813 0.607275
O O4 0.000000 0.000000 0.628609
O O5 0.176636 0.361891 0.357752
O O6 0.240934 0.212960 0.274725
O O7 0.000000 0.303097 0.250000
O O8 0.302863 0.473796 0.109533
O O9 0.449238 0.622231 0.107476
O O10 0.252777 0.603102 0.000000
O O11 0.500000 0.202516 0.250000
O O12 0.325451 0.305009 0.153535
O O13 0.317992 0.127406 0.145287
O O14 0.640571 0.651944 0.000000
O O15 0.500000 0.000000 0.376500
O O16 0.666285 0.000000 0.250000
#
# Coordination Sequence:
#
# PCOD8204598 Si02
#       6
#     8   8   8   8   8   8
#     4  11  25  43  64  92 126 176 227 264 316 396
#     4  12  24  39  64  96 130 170 213 271 326 385
#     4   9  19  40  65  92 125 167 214 267 327 386
#     4  12  21  37  62  93 128 168 218 266 327 384
#     4   9  20  39  65  93 125 165 214 267 324 390
#     4  11  21  38  60  91 130 170 209 269 333 380
#
# _framework density 20.929257
#
# number of rings (size 3 to 8) (size 9 to 14) (size 15 to 20)
#    0.000    1.333    5.000    2.500    0.000    1.667 
#    0.000    3.333    0.000    2.000    0.000    0.000 
#    0.000    0.000    0.000    0.000    0.000    0.000 
#
# Total GULP energy -594939.696206 kJ/mol
# GULP energy per Si atom -12394.577004 kJ/mol
# Density = 2.088162 g / cm^3
# Si number density = 20.929257 Si / 1000 Ang^3
#
#
#
# Elastic Constant Matrix: (Units=GPa)
#
#
# Indices 1 2 3 4 5 6 
#
# 1 84.6951 26.0538 30.4865 0.0000 0.0000 0.0000
# 2 26.0538 127.2095 51.1947 0.0000 0.0000 0.0000
# 3 30.4865 51.1947 73.7042 0.0000 0.0000 0.0000
# 4 0.0000 0.0000 0.0000 16.0453 0.0000 0.0000
# 5 0.0000 0.0000 0.0000 0.0000 26.7157 0.0000
# 6 0.0000 0.0000 0.0000 0.0000 0.0000 29.8944
#
#
#
# Elastic Compliance Matrix: (Units=1/GPa)
#
#
# Indices 1 2 3 4 5 6 
#
# 1 0.013923 -0.000741 -0.005244 0.000000 0.000000 0.000000
# 2 -0.000741 0.010951 -0.007300 0.000000 0.000000 0.000000
# 3 -0.005244 -0.007300 0.020807 0.000000 0.000000 0.000000
# 4 0.000000 0.000000 0.000000 0.062324 0.000000 0.000000
# 5 0.000000 0.000000 0.000000 0.000000 0.037431 0.000000
# 6 0.000000 0.000000 0.000000 0.000000 0.000000 0.033451
#
#
# Mechanical properties :
#
#
# Convention : Reuss Voigt Hill
#
# Bulk Modulus (GPa) = 52.32669 55.67541 54.00105
# Shear Modulus (GPa) = 23.60423 26.38932 24.99678
#
# Velocity S-wave (km/s) = 3.36193 3.55474 3.45968
# Velocity P-wave (km/s) = 6.33452 6.59604 6.46660
#
# Compressibility (1/GPa) = 0.01911071
#
# Stress axis : x y z
#
# Youngs Moduli (GPa) = 71.82523 91.31970 48.06012
#
# Poissons Ratio (x) = 0.06767 0.25204
# Poissons Ratio (y) = 0.05322 0.35082
# Poissons Ratio (z) = 0.37666 0.66661
#
# Static dielectric constant tensor:
#      x y z
#    x 3.741000 0.000000 0.000000 
#    y 0.000000 4.120730 0.000000 
#    z 0.000000 0.000000 3.618260 
# 
# 
# High freq. dielectric constant tensor:
#      x y z
#    x 1.808880 0.000000 0.000000 
#    y 0.000000 1.831050 0.000000 
#    z 0.000000 0.000000 1.810230 
# 
# From -- ./inp_files/16319.got.cif
#   From: 2010.03.12/outbox.cif.g09.slc.cpg/sg49_9_cif.got.tgz:16319.got - 2010.04.14 03:58:27.
