data_PCOD8204984
_publ_section_title
;
Structure prediction by ZEFSAII (Michael W. Deem and Ramdas Pophale) SiO2 
 PCOD8204984
Probable space group: P B A N
;
_chemical_formula_sum "Si O2"
_cell_formula_units_Z 60
_cell_length_a 9.000126
_cell_length_b 18.432024
_cell_length_c 18.252135
_cell_angle_alpha 90.000000
_cell_angle_beta 90.000000
_cell_angle_gamma 90.000000
_cell_volume 3027.856503
_symmetry_space_group_name_H-M "P B A N"
_symmetry_group_IT_number 50
_space_group.IT_coordinate_system_code '2'
_symmetry_cell_setting 'orthorhombic'
loop_
_space_group_symop_operation_xyz
x,y,z
1/2-x,1/2-y,z
x,1/2-y,-z
1/2-x,y,-z
-x,-y,-z
1/2+x,1/2+y,-z
-x,1/2+y,z
1/2+x,-y,z
loop_
_atom_site_type_symbol
_atom_site_label
_atom_site_fract_x
_atom_site_fract_y
_atom_site_fract_z
Si Si1 0.426516 0.260232 0.232828
Si Si2 0.002642 0.027668 0.602574
Si Si3 0.062429 0.600079 0.294639
Si Si4 0.399018 0.616989 0.268326
Si Si5 0.674748 0.564251 0.077809
Si Si6 0.943828 0.509426 0.163279
Si Si7 0.915421 0.774063 0.074887
Si Si8 0.750000 0.506078 0.500000
O O1 0.250000 0.250000 0.237283
O O2 0.462586 0.328689 0.283644
O O3 0.523532 0.193726 0.260655
O O4 0.477214 0.267660 0.146973
O O5 0.002109 0.078113 0.672348
O O6 0.144206 0.052300 0.553837
O O7 0.857016 0.040795 0.552816
O O8 0.017304 0.943520 0.631081
O O9 0.232788 0.625164 0.298690
O O10 0.037853 0.549580 0.224772
O O11 0.395419 0.569562 0.194049
O O12 0.802926 0.558136 0.139877
O O13 0.551305 0.502538 0.093050
O O14 0.586896 0.639576 0.085506
O O15 0.750000 0.551454 0.000000
O O16 0.750000 0.750000 0.061966
O O17 0.003996 0.750000 0.000000
#
# Coordination Sequence:
#
# PCOD8204984 Si02
#       8
#     8   8   8   8   8   8   8   4
#     4  11  24  38  64  89 120 167 214 266 308 370
#     4  10  22  38  69 100 124 165 204 245 303 366
#     4  11  23  39  63  90 128 161 207 254 314 360
#     4  11  22  41  61  91 129 160 205 258 310 365
#     4  12  22  38  58  81 118 158 207 268 323 383
#     4  11  23  38  59  87 118 154 211 265 320 366
#     4  10  19  36  57  82 112 156 212 252 316 376
#     4  10  20  40  66 100 134 156 200 248 294 374
#
# _framework density 19.815999999999999
#
# number of rings (size 3 to 8) (size 9 to 14) (size 15 to 20)
#    0.000    1.200    5.333    2.400    1.867    0.000 
#    0.000    0.000    0.000    5.600    0.000    0.933 
#    0.000    0.000    0.000    0.000    0.000    0.000 
#
# Total GULP energy -743493.402389 kJ/mol
# GULP energy per Si atom -12391.556706 kJ/mol
# Density = 1.977090 g / cm^3
# Si number density = 19.816000 Si / 1000 Ang^3
#
#
#
# Elastic Constant Matrix: (Units=GPa)
#
#
# Indices 1 2 3 4 5 6 
#
# 1 89.8375 29.0466 34.4110 0.0000 0.0000 0.0000
# 2 29.0466 93.8551 34.0148 0.0000 0.0000 0.0000
# 3 34.4110 34.0148 107.3847 0.0000 0.0000 0.0000
# 4 0.0000 0.0000 0.0000 12.7231 0.0000 0.0000
# 5 0.0000 0.0000 0.0000 0.0000 47.7763 0.0000
# 6 0.0000 0.0000 0.0000 0.0000 0.0000 21.4070
#
#
#
# Elastic Compliance Matrix: (Units=1/GPa)
#
#
# Indices 1 2 3 4 5 6 
#
# 1 0.013361 -0.002918 -0.003357 0.000000 0.000000 0.000000
# 2 -0.002918 0.012674 -0.003079 0.000000 0.000000 0.000000
# 3 -0.003357 -0.003079 0.011363 0.000000 0.000000 0.000000
# 4 0.000000 0.000000 0.000000 0.078597 0.000000 0.000000
# 5 0.000000 0.000000 0.000000 0.000000 0.020931 0.000000
# 6 0.000000 0.000000 0.000000 0.000000 0.000000 0.046714
#
#
# Mechanical properties :
#
#
# Convention : Reuss Voigt Hill
#
# Bulk Modulus (GPa) = 53.50826 54.00246 53.75536
# Shear Modulus (GPa) = 23.97177 29.28826 26.63002
#
# Velocity S-wave (km/s) = 3.48187 3.84866 3.66985
# Velocity P-wave (km/s) = 6.57463 6.86008 6.71887
#
# Compressibility (1/GPa) = 0.01868870
#
# Stress axis : x y z
#
# Youngs Moduli (GPa) = 74.84703 78.90231 88.00133
#
# Poissons Ratio (x) = 0.23026 0.29542
# Poissons Ratio (y) = 0.21842 0.27099
# Poissons Ratio (z) = 0.25126 0.24297
#
# Static dielectric constant tensor:
#      x y z
#    x 3.609070 0.000000 0.000000 
#    y 0.000000 3.743910 0.000000 
#    z 0.000000 0.000000 3.950190 
# 
# 
# High freq. dielectric constant tensor:
#      x y z
#    x 1.769880 0.000000 0.000000 
#    y 0.000000 1.748850 0.000000 
#    z 0.000000 0.000000 1.779130 
# 
# From -- ./inp_files/28900.got.cif
#   From: 2010.03.12/outbox.cif.g09.slc.cpg/sg50_15_cif.got.tgz:28900.got - 2010.04.16 13:23:21.
