data_PCOD8204621
_publ_section_title
;
Structure prediction by ZEFSAII (Michael W. Deem and Ramdas Pophale) SiO2 
 PCOD8204621
Probable space group: P C C M
;
_chemical_formula_sum "Si O2"
_cell_formula_units_Z 48
_cell_length_a 9.568697
_cell_length_b 30.887060
_cell_length_c 8.551475
_cell_angle_alpha 90.000000
_cell_angle_beta 90.000000
_cell_angle_gamma 90.000000
_cell_volume 2527.379187
_symmetry_space_group_name_H-M "P C C M"
_symmetry_group_IT_number 49
_symmetry_cell_setting 'orthorhombic'
loop_
_space_group_symop_operation_xyz
x,y,z
-x,-y,z
x,-y,1/2-z
-x,y,1/2-z
-x,-y,-z
x,y,-z
-x,y,1/2+z
x,-y,1/2+z
loop_
_atom_site_type_symbol
_atom_site_label
_atom_site_fract_x
_atom_site_fract_y
_atom_site_fract_z
Si Si1 0.154288 0.457648 0.816938
Si Si2 0.153554 0.362983 0.184095
Si Si3 0.655045 0.955238 0.313879
Si Si4 0.344902 0.285019 0.814035
Si Si5 0.149292 0.212299 0.314481
Si Si6 0.851663 0.882150 0.814313
O O1 0.237780 0.500000 0.750000
O O2 0.215704 0.410536 0.767900
O O3 0.000000 0.458861 0.750000
O O4 0.150063 0.462683 0.000000
O O5 0.261031 0.327172 0.246745
O O6 0.000000 0.354083 0.250000
O O7 0.138358 0.359846 0.000000
O O8 0.500000 0.950968 0.250000
O O9 0.656948 0.955083 0.500000
O O10 0.736888 0.914850 0.246456
O O11 0.722261 0.000000 0.250000
O O12 0.500000 0.288539 0.750000
O O13 0.272529 0.242965 0.742880
O O14 0.346235 0.281680 0.000000
O O15 0.142169 0.211307 0.500000
O O16 0.185263 0.164975 0.250855
O O17 0.000000 0.228849 0.250000
O O18 0.000000 0.898213 0.750000
O O19 0.854773 0.880635 0.000000
#
# Coordination Sequence:
#
# PCOD8204621 Si02
#       6
#     8   8   8   8   8   8
#     4   9  15  25  42  69 100 131 165 210 259 310
#     4   9  19  33  52  76 105 137 175 217 265 319
#     4  11  22  39  60  86 117 154 194 235 279 329
#     4  11  23  39  56  79 108 142 181 226 273 325
#     4  11  22  39  61  86 113 145 181 224 273 328
#     4  11  22  39  61  88 117 149 186 230 278 329
#
# _framework density 18.992004000000001
#
# number of rings (size 3 to 8) (size 9 to 14) (size 15 to 20)
#    0.000    1.667    0.000    8.000    0.000    4.333 
#    0.000    5.000    0.000    0.500    0.000    3.500 
#    0.000    0.000    0.000    0.000    0.000    0.000 
#
# Total GULP energy -595065.299873 kJ/mol
# GULP energy per Si atom -12397.193747 kJ/mol
# Density = 1.894878 g / cm^3
# Si number density = 18.992004 Si / 1000 Ang^3
#
#
#
# Elastic Constant Matrix: (Units=GPa)
#
#
# Indices 1 2 3 4 5 6 
#
# 1 101.4141 77.2840 44.5958 0.0000 0.0000 0.0000
# 2 77.2840 134.9747 54.2008 0.0000 0.0000 0.0000
# 3 44.5958 54.2008 128.8216 0.0000 0.0000 0.0000
# 4 0.0000 0.0000 0.0000 36.5519 0.0000 0.0000
# 5 0.0000 0.0000 0.0000 0.0000 29.6642 0.0000
# 6 0.0000 0.0000 0.0000 0.0000 0.0000 3.7864
#
#
#
# Elastic Compliance Matrix: (Units=1/GPa)
#
#
# Indices 1 2 3 4 5 6 
#
# 1 0.018036 -0.009410 -0.002285 0.000000 0.000000 0.000000
# 2 -0.009410 0.013824 -0.002559 0.000000 0.000000 0.000000
# 3 -0.002285 -0.002559 0.009630 0.000000 0.000000 0.000000
# 4 0.000000 0.000000 0.000000 0.027358 0.000000 0.000000
# 5 0.000000 0.000000 0.000000 0.000000 0.033711 0.000000
# 6 0.000000 0.000000 0.000000 0.000000 0.000000 0.264104
#
#
# Mechanical properties :
#
#
# Convention : Reuss Voigt Hill
#
# Bulk Modulus (GPa) = 77.01901 79.70794 78.36348
# Shear Modulus (GPa) = 12.51572 26.60915 19.56244
#
# Velocity S-wave (km/s) = 2.56988 3.74715 3.21290
# Velocity P-wave (km/s) = 7.03187 7.79627 7.42391
#
# Compressibility (1/GPa) = 0.01298381
#
# Stress axis : x y z
#
# Youngs Moduli (GPa) = 55.44474 72.33711 103.83922
#
# Poissons Ratio (x) = 0.68066 0.23724
# Poissons Ratio (y) = 0.52171 0.26572
# Poissons Ratio (z) = 0.12668 0.18511
#
# Static dielectric constant tensor:
#      x y z
#    x 3.276100 0.000000 0.000000 
#    y 0.000000 4.368810 0.000000 
#    z 0.000000 0.000000 3.603390 
# 
# 
# High freq. dielectric constant tensor:
#      x y z
#    x 1.708190 0.000000 0.000000 
#    y 0.000000 1.764050 0.000000 
#    z 0.000000 0.000000 1.756840 
# 
# From -- ./inp_files/2071.got.cif
#   From: 2010.03.12/outbox.cif.g09.slc.cpg/sg49_2_cif.got.tgz:2071.got - 2010.04.14 03:58:27.
