data_PCOD8204239
_publ_section_title
;
Structure prediction by ZEFSAII (Michael W. Deem and Ramdas Pophale) SiO2 
 PCOD8204239
Probable space group: P C C M
;
_chemical_formula_sum "Si O2"
_cell_formula_units_Z 48
_cell_length_a 9.048025
_cell_length_b 28.775505
_cell_length_c 9.324042
_cell_angle_alpha 90.000000
_cell_angle_beta 90.000000
_cell_angle_gamma 90.000000
_cell_volume 2427.621455
_symmetry_space_group_name_H-M "P C C M"
_symmetry_group_IT_number 49
_symmetry_cell_setting 'orthorhombic'
loop_
_space_group_symop_operation_xyz
x,y,z
-x,-y,z
x,-y,1/2-z
-x,y,1/2-z
-x,-y,-z
x,y,-z
-x,y,1/2+z
x,-y,1/2+z
loop_
_atom_site_type_symbol
_atom_site_label
_atom_site_fract_x
_atom_site_fract_y
_atom_site_fract_z
Si Si1 0.652752 0.865811 0.332228
Si Si2 0.845416 0.209937 0.329371
Si Si3 0.646498 0.296105 0.661421
Si Si4 0.153017 0.434813 0.500000
Si Si5 0.325210 0.601070 0.735782
Si Si6 0.816957 0.544364 0.000000
Si Si7 0.146261 0.046113 0.667470
O O1 0.500000 0.869336 0.250000
O O2 0.632946 0.851470 0.500000
O O3 0.747641 0.828697 0.246273
O O4 0.727653 0.915801 0.320304
O O5 0.862343 0.200036 0.500000
O O6 0.773474 0.259915 0.298217
O O7 0.000000 0.209697 0.250000
O O8 0.500000 0.286414 0.750000
O O9 0.594136 0.289109 0.500000
O O10 0.713180 0.347482 0.681301
O O11 0.228040 0.406931 0.626190
O O12 0.183869 0.489245 0.500000
O O13 0.976202 0.430400 0.500000
O O14 0.500000 0.595995 0.750000
O O15 0.275058 0.559880 0.635053
O O16 0.110698 0.035602 0.500000
O O17 0.000000 0.064315 0.750000
O O18 0.202203 0.000000 0.750000
#
# Coordination Sequence:
#
# PCOD8204239 Si02
#       7
#     8   8   8   4   8   4   8
#     4  11  24  41  62  91 125 167 211 261 318 374
#     4  11  24  42  64  94 125 161 207 255 308 372
#     4  10  23  42  64  90 122 158 197 247 304 362
#     4  11  25  39  63  91 119 169 199 249 312 361
#     4  11  23  41  63  92 122 158 205 253 305 367
#     4  11  23  43  61  87 129 157 205 251 304 373
#     4  10  21  37  60  89 123 163 210 259 315 373
#
# _framework density 19.772438000000001
#
# number of rings (size 3 to 8) (size 9 to 14) (size 15 to 20)
#    0.000    1.333    0.833    4.500    3.500   11.667 
#    0.000    1.667    0.000    0.000    0.000    0.000 
#    0.000    0.000    0.000    0.000    0.000    0.000 
#
# Total GULP energy -595061.784347 kJ/mol
# GULP energy per Si atom -12397.120507 kJ/mol
# Density = 1.972744 g / cm^3
# Si number density = 19.772438 Si / 1000 Ang^3
#
#
#
# Elastic Constant Matrix: (Units=GPa)
#
#
# Indices 1 2 3 4 5 6 
#
# 1 124.3730 67.0952 51.2213 0.0000 0.0000 0.0000
# 2 67.0952 92.2529 43.0997 0.0000 0.0000 0.0000
# 3 51.2213 43.0997 126.9812 0.0000 0.0000 0.0000
# 4 0.0000 0.0000 0.0000 37.7419 0.0000 0.0000
# 5 0.0000 0.0000 0.0000 0.0000 34.9633 0.0000
# 6 0.0000 0.0000 0.0000 0.0000 0.0000 32.9937
#
#
#
# Elastic Compliance Matrix: (Units=1/GPa)
#
#
# Indices 1 2 3 4 5 6 
#
# 1 0.013913 -0.008909 -0.002588 0.000000 0.000000 0.000000
# 2 -0.008909 0.018588 -0.002715 0.000000 0.000000 0.000000
# 3 -0.002588 -0.002715 0.009841 0.000000 0.000000 0.000000
# 4 0.000000 0.000000 0.000000 0.026496 0.000000 0.000000
# 5 0.000000 0.000000 0.000000 0.000000 0.028601 0.000000
# 6 0.000000 0.000000 0.000000 0.000000 0.000000 0.030309
#
#
# Mechanical properties :
#
#
# Convention : Reuss Voigt Hill
#
# Bulk Modulus (GPa) = 71.85981 74.04884 72.95432
# Shear Modulus (GPa) = 31.09232 33.28582 32.18907
#
# Velocity S-wave (km/s) = 3.96979 4.10743 4.03920
# Velocity P-wave (km/s) = 7.57856 7.74768 7.66359
#
# Compressibility (1/GPa) = 0.01391599
#
# Stress axis : x y z
#
# Youngs Moduli (GPa) = 71.87780 53.79778 101.61855
#
# Poissons Ratio (x) = 0.47931 0.26298
# Poissons Ratio (y) = 0.64039 0.27592
# Poissons Ratio (z) = 0.18602 0.14608
#
# Static dielectric constant tensor:
#      x y z
#    x 2.653170 0.000000 0.000000 
#    y 0.000000 3.786590 0.000000 
#    z 0.000000 0.000000 3.917100 
# 
# 
# High freq. dielectric constant tensor:
#      x y z
#    x 1.777270 0.000000 0.000000 
#    y 0.000000 1.784350 0.000000 
#    z 0.000000 0.000000 1.792580 
# 
# From -- ./inp_files/2135.got.cif
#   From: 2010.03.12/outbox.cif.g09.slc.cpg/sg49_2_cif.got.tgz:2135.got - 2010.04.14 03:58:27.
