data_PCOD8204163
_publ_section_title
;
Structure prediction by ZEFSAII (Michael W. Deem and Ramdas Pophale) SiO2 
 PCOD8204163
Probable space group: P C C M
;
_chemical_formula_sum "Si O2"
_cell_formula_units_Z 64
_cell_length_a 7.934394
_cell_length_b 22.126971
_cell_length_c 18.163784
_cell_angle_alpha 90.000000
_cell_angle_beta 90.000000
_cell_angle_gamma 90.000000
_cell_volume 3188.908498
_symmetry_space_group_name_H-M "P C C M"
_symmetry_group_IT_number 49
_symmetry_cell_setting 'orthorhombic'
loop_
_space_group_symop_operation_xyz
x,y,z
-x,-y,z
x,-y,1/2-z
-x,y,1/2-z
-x,-y,-z
x,y,-z
-x,y,1/2+z
x,-y,1/2+z
loop_
_atom_site_type_symbol
_atom_site_label
_atom_site_fract_x
_atom_site_fract_y
_atom_site_fract_z
Si Si1 0.306654 0.387368 0.418298
Si Si2 0.197006 0.740651 0.916950
Si Si3 0.306654 0.387367 0.081702
Si Si4 0.500000 0.071403 0.915274
Si Si5 0.196068 0.862419 0.162868
Si Si6 0.808885 0.500000 0.171730
Si Si7 0.803932 0.137581 0.662868
Si Si8 0.197007 0.259349 0.916950
O O1 0.225733 0.387780 0.500000
O O2 0.280603 0.320386 0.384530
O O3 0.500000 0.404000 0.422231
O O4 0.222344 0.438880 0.371444
O O5 0.246141 0.795390 0.863483
O O6 1.000000 0.729963 0.917533
O O7 0.262993 0.754530 0.000000
O O8 0.222343 0.438879 0.128557
O O9 0.280605 0.320385 0.115470
O O10 0.225733 0.387780 0.000000
O O11 0.672609 0.092678 0.875940
O O12 0.327391 0.092677 0.875940
O O13 0.500000 0.000000 0.910560
O O14 0.500000 0.093680 0.000000
O O15 0.220135 0.866875 0.250000
O O16 1.000000 0.877572 0.141284
O O17 0.707982 0.500000 0.250000
O O18 0.000000 0.500000 0.192236
O O19 0.753858 0.204610 0.636517
O O20 0.262993 0.245470 0.000000
#
# Coordination Sequence:
#
# PCOD8204163 Si02
#       8
#     8   8   8   8   8   8   8   8
#     4  10  21  36  56  83 112 144 186 236 289 347
#     4   9  18  34  57  85 116 152 194 239 289 348
#     4  10  21  36  56  83 112 144 186 236 289 347
#     4  11  25  43  65  93 125 164 211 258 301 355
#     4  10  22  40  63  93 129 166 204 251 308 368
#     4  11  24  39  54  74 104 145 192 241 292 348
#     4  10  22  40  63  93 129 166 204 251 308 368
#     4   9  18  34  57  85 116 152 194 239 289 348
#
# _framework density 20.069562999999999
#
# number of rings (size 3 to 8) (size 9 to 14) (size 15 to 20)
#    0.000    2.000    0.000    2.625    1.750    8.000 
#    0.000    5.000    0.000    0.000    0.000    0.000 
#    0.000    0.000    0.000    0.000    0.000    0.000 
#
# Total GULP energy -793324.328200 kJ/mol
# GULP energy per Si atom -12395.692628 kJ/mol
# Density = 2.002388 g / cm^3
# Si number density = 20.069563 Si / 1000 Ang^3
#
#
#
# Elastic Constant Matrix: (Units=GPa)
#
#
# Indices 1 2 3 4 5 6 
#
# 1 83.9684 50.9904 49.2148 0.0000 0.0000 0.0000
# 2 50.9904 121.0587 65.6111 0.0000 0.0000 0.0000
# 3 49.2148 65.6111 115.1349 0.0000 0.0000 0.0000
# 4 0.0000 0.0000 0.0000 -13.6652 0.0000 0.0000
# 5 0.0000 0.0000 0.0000 0.0000 146.6828 0.0000
# 6 0.0000 0.0000 0.0000 0.0000 0.0000 42.7368
#
#
#
# Elastic Compliance Matrix: (Units=1/GPa)
#
#
# Indices 1 2 3 4 5 6 
#
# 1 0.017656 -0.004842 -0.004788 0.000000 0.000000 0.000000
# 2 -0.004842 0.013280 -0.005498 0.000000 0.000000 0.000000
# 3 -0.004788 -0.005498 0.013865 0.000000 0.000000 0.000000
# 4 0.000000 0.000000 0.000000 -0.073179 0.000000 0.000000
# 5 0.000000 0.000000 0.000000 0.000000 0.006817 0.000000
# 6 0.000000 0.000000 0.000000 0.000000 0.000000 0.023399
#
#
# Mechanical properties :
#
#
# Convention : Reuss Voigt Hill
#
# Bulk Modulus (GPa) = 68.75062 72.42164 70.58613
# Shear Modulus (GPa) = 135.34886 45.44059 90.39473
#
# Velocity S-wave (km/s) = 8.22109 4.76348 6.71852
# Velocity P-wave (km/s) = 11.15552 8.14972 9.76892
#
# Compressibility (1/GPa) = 0.01454532
#
# Stress axis : x y z
#
# Youngs Moduli (GPa) = 56.63926 75.30373 72.12351
#
# Poissons Ratio (x) = 0.36460 0.34532
# Poissons Ratio (y) = 0.27423 0.39653
# Poissons Ratio (z) = 0.27118 0.41401
#
# Static dielectric constant tensor:
#      x y z
#    x 3.709240 0.000000 0.000000 
#    y 0.000000 3.318380 0.000000 
#    z 0.000000 0.000000 3.863670 
# 
# 
# High freq. dielectric constant tensor:
#      x y z
#    x 1.787880 0.000000 0.000000 
#    y 0.000000 1.787440 0.000000 
#    z 0.000000 0.000000 1.781110 
# 
# From -- ./inp_files/16578.got.cif
#   From: 2010.03.12/outbox.cif.g09.slc.cpg/sg49_9_cif.got.tgz:16578.got - 2010.04.14 03:58:27.
