data_PCOD8204588
_publ_section_title
;
Structure prediction by ZEFSAII (Michael W. Deem and Ramdas Pophale) SiO2 
 PCOD8204588
Probable space group: P C C M
;
_chemical_formula_sum "Si O2"
_cell_formula_units_Z 48
_cell_length_a 14.767712
_cell_length_b 18.817539
_cell_length_c 8.352072
_cell_angle_alpha 90.000000
_cell_angle_beta 90.000000
_cell_angle_gamma 90.000000
_cell_volume 2320.973963
_symmetry_space_group_name_H-M "P C C M"
_symmetry_group_IT_number 49
_symmetry_cell_setting 'orthorhombic'
loop_
_space_group_symop_operation_xyz
x,y,z
-x,-y,z
x,-y,1/2-z
-x,y,1/2-z
-x,-y,-z
x,y,-z
-x,y,1/2+z
x,-y,1/2+z
loop_
_atom_site_type_symbol
_atom_site_label
_atom_site_fract_x
_atom_site_fract_y
_atom_site_fract_z
Si Si1 0.909220 0.714691 0.682984
Si Si2 0.404029 0.721714 0.309866
Si Si3 0.864158 0.426152 0.686071
Si Si4 0.335507 0.426284 0.689317
Si Si5 0.767346 0.191621 0.317484
Si Si6 0.902278 0.922888 0.685745
O O1 0.893291 0.738014 0.500000
O O2 0.915958 0.630450 0.703172
O O3 0.827523 0.738199 0.796745
O O4 0.000000 0.751499 0.750000
O O5 0.500000 0.751821 0.250000
O O6 0.399401 0.712144 0.500000
O O7 0.392348 0.644419 0.228206
O O8 0.331373 0.782441 0.254804
O O9 0.902968 0.500000 0.750000
O O10 0.886356 0.414296 0.500000
O O11 0.757217 0.420634 0.713491
O O12 0.383966 0.500000 0.750000
O O13 0.317373 0.430320 0.500000
O O14 0.761484 0.166832 0.500000
O O15 0.817376 0.128977 0.220824
O O16 0.915142 0.929033 0.500000
O O17 0.000000 0.895789 0.750000
O O18 0.876110 0.000000 0.750000
#
# Coordination Sequence:
#
# PCOD8204588 Si02
#       6
#     8   8   8   8   8   8
#     4  12  24  38  57  83 114 153 198 245 296 356
#     4  11  24  41  63  89 121 157 204 256 311 370
#     4  11  21  36  55  78 108 147 194 244 300 358
#     4  11  21  36  59  84 114 151 199 253 316 375
#     4  11  23  41  63  89 124 162 199 245 300 358
#     4  11  22  39  65  98 135 170 207 246 291 349
#
# _framework density 20.680972000000001
#
# number of rings (size 3 to 8) (size 9 to 14) (size 15 to 20)
#    0.000    0.833    1.667    9.000    0.000    2.667 
#    0.000    3.333    0.000    0.500    0.000    3.500 
#    0.000    0.000    0.000    0.000    0.000    0.000 
#
# Total GULP energy -595022.302158 kJ/mol
# GULP energy per Si atom -12396.297962 kJ/mol
# Density = 2.063390 g / cm^3
# Si number density = 20.680972 Si / 1000 Ang^3
#
#
#
# Elastic Constant Matrix: (Units=GPa)
#
#
# Indices 1 2 3 4 5 6 
#
# 1 124.3533 47.9786 28.5769 0.0000 0.0000 0.0000
# 2 47.9786 119.9372 31.5325 0.0000 0.0000 0.0000
# 3 28.5769 31.5325 116.4605 0.0000 0.0000 0.0000
# 4 0.0000 0.0000 0.0000 28.9113 0.0000 0.0000
# 5 0.0000 0.0000 0.0000 0.0000 30.2019 0.0000
# 6 0.0000 0.0000 0.0000 0.0000 0.0000 41.7312
#
#
#
# Elastic Compliance Matrix: (Units=1/GPa)
#
#
# Indices 1 2 3 4 5 6 
#
# 1 0.009727 -0.003514 -0.001435 0.000000 0.000000 0.000000
# 2 -0.003514 0.010246 -0.001912 0.000000 0.000000 0.000000
# 3 -0.001435 -0.001912 0.009457 0.000000 0.000000 0.000000
# 4 0.000000 0.000000 0.000000 0.034589 0.000000 0.000000
# 5 0.000000 0.000000 0.000000 0.000000 0.033110 0.000000
# 6 0.000000 0.000000 0.000000 0.000000 0.000000 0.023963
#
#
# Mechanical properties :
#
#
# Convention : Reuss Voigt Hill
#
# Bulk Modulus (GPa) = 63.66480 64.10300 63.88390
# Shear Modulus (GPa) = 35.70160 37.01310 36.35735
#
# Velocity S-wave (km/s) = 4.15939 4.23509 4.19741
# Velocity P-wave (km/s) = 7.34291 7.41472 7.37891
#
# Compressibility (1/GPa) = 0.01570727
#
# Stress axis : x y z
#
# Youngs Moduli (GPa) = 102.80475 97.59919 105.74724
#
# Poissons Ratio (x) = 0.34294 0.15180
# Poissons Ratio (y) = 0.36123 0.20219
# Poissons Ratio (z) = 0.14757 0.18661
#
# Static dielectric constant tensor:
#      x y z
#    x 3.750350 0.000000 0.000000 
#    y 0.000000 3.836990 0.000000 
#    z 0.000000 0.000000 3.728710 
# 
# 
# High freq. dielectric constant tensor:
#      x y z
#    x 1.797910 0.000000 0.000000 
#    y 0.000000 1.800270 0.000000 
#    z 0.000000 0.000000 1.821440 
# 
# From -- ./inp_files/3678.got.cif
#   From: 2010.03.12/outbox.cif.g09.slc.cpg/sg49_2_cif.got.tgz:3678.got - 2010.04.14 03:58:27.
