data_PCOD8204747
_publ_section_title
;
Structure prediction by ZEFSAII (Michael W. Deem and Ramdas Pophale) SiO2 
 PCOD8204747
Probable space group: P B A N
;
_chemical_formula_sum "Si O2"
_cell_formula_units_Z 38
_cell_length_a 17.619010
_cell_length_b 16.263374
_cell_length_c 7.039755
_cell_angle_alpha 90.000000
_cell_angle_beta 90.000000
_cell_angle_gamma 90.000000
_cell_volume 2017.203423
_symmetry_space_group_name_H-M "P B A N"
_symmetry_group_IT_number 50
_space_group.IT_coordinate_system_code '2'
_symmetry_cell_setting 'orthorhombic'
loop_
_space_group_symop_operation_xyz
x,y,z
1/2-x,1/2-y,z
x,1/2-y,-z
1/2-x,y,-z
-x,-y,-z
1/2+x,1/2+y,-z
-x,1/2+y,z
1/2+x,-y,z
loop_
_atom_site_type_symbol
_atom_site_label
_atom_site_fract_x
_atom_site_fract_y
_atom_site_fract_z
Si Si1 0.250000 0.250000 0.500000
Si Si2 0.000193 0.750000 0.500000
Si Si3 0.336672 0.998919 0.068677
Si Si4 0.574300 0.402389 0.350294
Si Si5 0.627391 0.637017 0.366379
Si Si6 0.083228 0.485028 0.677512
O O1 0.300592 0.304121 0.639893
O O2 0.949425 0.808059 0.361656
O O3 0.052042 0.806171 0.639474
O O4 0.362260 0.079316 0.185258
O O5 0.358001 0.918782 0.197911
O O6 0.250000 0.997505 0.000000
O O7 0.386036 0.998991 0.883016
O O8 0.504939 0.462793 0.295094
O O9 0.597373 0.430436 0.562454
O O10 0.627204 0.587251 0.565187
#
# Coordination Sequence:
#
# PCOD8204747 Si02
#       6
#     2   4   8   8   8   8
#     4  10  16  32  50  76 120 146 164 210 278 342
#     4   9  18  37  56  77 106 141 186 236 280 313
#     4  11  21  34  56  85 113 146 183 219 269 334
#     4   9  19  35  57  79 104 142 186 231 269 312
#     4   9  19  33  52  78 113 146 176 221 275 330
#     4   9  18  36  56  77 105 142 188 225 261 317
#
# _framework density 18.837961
#
# number of rings (size 3 to 8) (size 9 to 14) (size 15 to 20)
#    0.000    2.526    0.000    3.158    0.000    2.526 
#    0.000   22.632    0.000    3.789    0.000    0.000 
#    0.000    0.000    0.000    0.000    0.000    0.000 
#
# Total GULP energy -470957.729632 kJ/mol
# GULP energy per Si atom -12393.624464 kJ/mol
# Density = 1.879508 g / cm^3
# Si number density = 18.837961 Si / 1000 Ang^3
#
#
#
# Elastic Constant Matrix: (Units=GPa)
#
#
# Indices 1 2 3 4 5 6 
#
# 1 81.5791 50.2002 55.5252 0.0000 0.0000 0.0000
# 2 50.2002 116.8555 51.6444 0.0000 0.0000 0.0000
# 3 55.5252 51.6444 133.3263 0.0000 0.0000 0.0000
# 4 0.0000 0.0000 0.0000 35.1615 0.0000 0.0000
# 5 0.0000 0.0000 0.0000 0.0000 19.9983 0.0000
# 6 0.0000 0.0000 0.0000 0.0000 0.0000 20.4721
#
#
#
# Elastic Compliance Matrix: (Units=1/GPa)
#
#
# Indices 1 2 3 4 5 6 
#
# 1 0.020018 -0.005930 -0.006040 0.000000 0.000000 0.000000
# 2 -0.005930 0.012082 -0.002210 0.000000 0.000000 0.000000
# 3 -0.006040 -0.002210 0.010872 0.000000 0.000000 0.000000
# 4 0.000000 0.000000 0.000000 0.028440 0.000000 0.000000
# 5 0.000000 0.000000 0.000000 0.000000 0.050004 0.000000
# 6 0.000000 0.000000 0.000000 0.000000 0.000000 0.048847
#
#
# Mechanical properties :
#
#
# Convention : Reuss Voigt Hill
#
# Bulk Modulus (GPa) = 68.43945 71.83338 70.13641
# Shear Modulus (GPa) = 24.57071 26.75245 25.66158
#
# Velocity S-wave (km/s) = 3.61545 3.77256 3.69484
# Velocity P-wave (km/s) = 7.33745 7.56249 7.45082
#
# Compressibility (1/GPa) = 0.01461146
#
# Stress axis : x y z
#
# Youngs Moduli (GPa) = 49.95495 82.76748 91.98123
#
# Poissons Ratio (x) = 0.49084 0.55553
# Poissons Ratio (y) = 0.29625 0.20330
# Poissons Ratio (z) = 0.30171 0.18294
#
# Static dielectric constant tensor:
#      x y z
#    x 3.654470 0.000000 0.000000 
#    y 0.000000 3.538090 0.000000 
#    z 0.000000 0.000000 3.315930 
# 
# 
# High freq. dielectric constant tensor:
#      x y z
#    x 1.726480 0.000000 0.000000 
#    y 0.000000 1.723660 0.000000 
#    z 0.000000 0.000000 1.719750 
# 
# From -- ./inp_files/4224.got.cif
#   From: 2010.03.12/outbox.cif.g09.slc.cpg/sg50_3_cif.got.tgz:4224.got - 2010.04.16 13:23:21.
