data_PCOD8204892
_publ_section_title
;
Structure prediction by ZEFSAII (Michael W. Deem and Ramdas Pophale) SiO2 
 PCOD8204892
Probable space group: P B A N
;
_chemical_formula_sum "Si O2"
_cell_formula_units_Z 64
_cell_length_a 8.666779
_cell_length_b 34.005502
_cell_length_c 12.461028
_cell_angle_alpha 90.000000
_cell_angle_beta 90.000000
_cell_angle_gamma 90.000000
_cell_volume 3672.491376
_symmetry_space_group_name_H-M "P B A N"
_symmetry_group_IT_number 50
_space_group.IT_coordinate_system_code '2'
_symmetry_cell_setting 'orthorhombic'
loop_
_space_group_symop_operation_xyz
x,y,z
1/2-x,1/2-y,z
x,1/2-y,-z
1/2-x,y,-z
-x,-y,-z
1/2+x,1/2+y,-z
-x,1/2+y,z
1/2+x,-y,z
loop_
_atom_site_type_symbol
_atom_site_label
_atom_site_fract_x
_atom_site_fract_y
_atom_site_fract_z
Si Si1 0.569936 0.958406 0.124673
Si Si2 0.930064 0.958405 0.124673
Si Si3 0.928776 0.830600 0.626349
Si Si4 0.076133 0.750000 0.627516
Si Si5 0.069214 0.909210 0.304803
Si Si6 0.431627 0.456880 0.500000
Si Si7 0.428776 0.330600 0.626349
Si Si8 0.069214 0.909210 0.695197
O O1 0.750000 0.958356 0.152494
O O2 0.483446 0.924123 0.188474
O O3 0.500000 0.000000 0.160876
O O4 0.538409 0.950456 0.000000
O O5 0.016554 0.924122 0.188474
O O6 0.958421 0.835091 0.500000
O O7 0.750000 0.835399 0.654791
O O8 0.986728 0.788467 0.669205
O O9 0.026204 0.863498 0.687676
O O10 0.250000 0.750000 0.672857
O O11 0.076865 0.750000 0.500000
O O12 0.986728 0.711533 0.669205
O O13 0.250000 0.914835 0.320592
O O14 0.981947 0.933789 0.394856
O O15 0.026204 0.863498 0.312324
O O16 0.250000 0.460261 0.500000
O O17 0.500000 0.500000 0.500000
O O18 0.481948 0.433789 0.394857
#
# Coordination Sequence:
#
# PCOD8204892 Si02
#       8
#     8   8   8   8   8   8   8   8
#     4  10  21  38  58  78 102 134 175 221 266 311
#     4  10  21  38  58  78 102 134 175 221 266 311
#     4  10  19  32  50  73 104 140 176 214 255 308
#     4   9  17  29  47  71 102 137 174 213 254 305
#     4  12  23  35  53  77 106 138 174 216 262 311
#     4  12  24  38  52  71 102 139 176 212 256 314
#     4  10  19  32  50  73 104 140 176 214 255 308
#     4  12  23  35  53  77 106 138 174 216 262 311
#
# _framework density 17.426863000000001
#
# number of rings (size 3 to 8) (size 9 to 14) (size 15 to 20)
#    0.000    1.375    1.250    6.000    0.000    4.000 
#    0.000    0.000    0.000    0.000    0.000    0.875 
#    0.000    7.000    0.000    0.000    0.000    0.000 
#
# Total GULP energy -793952.847988 kJ/mol
# GULP energy per Si atom -12405.513250 kJ/mol
# Density = 1.738720 g / cm^3
# Si number density = 17.426863 Si / 1000 Ang^3
#
#
#
# Elastic Constant Matrix: (Units=GPa)
#
#
# Indices 1 2 3 4 5 6 
#
# 1 137.8487 54.4909 35.9894 0.0000 0.0000 0.0000
# 2 54.4909 140.2907 42.6843 0.0000 0.0000 0.0000
# 3 35.9894 42.6843 54.9385 0.0000 0.0000 0.0000
# 4 0.0000 0.0000 0.0000 23.5209 0.0000 0.0000
# 5 0.0000 0.0000 0.0000 0.0000 24.4672 0.0000
# 6 0.0000 0.0000 0.0000 0.0000 0.0000 37.8344
#
#
#
# Elastic Compliance Matrix: (Units=1/GPa)
#
#
# Indices 1 2 3 4 5 6 
#
# 1 0.009285 -0.002299 -0.004296 0.000000 0.000000 0.000000
# 2 -0.002299 0.009904 -0.006189 0.000000 0.000000 0.000000
# 3 -0.004296 -0.006189 0.025825 0.000000 0.000000 0.000000
# 4 0.000000 0.000000 0.000000 0.042515 0.000000 0.000000
# 5 0.000000 0.000000 0.000000 0.000000 0.040871 0.000000
# 6 0.000000 0.000000 0.000000 0.000000 0.000000 0.026431
#
#
# Mechanical properties :
#
#
# Convention : Reuss Voigt Hill
#
# Bulk Modulus (GPa) = 51.42523 66.60080 59.01302
# Shear Modulus (GPa) = 26.75502 30.49204 28.62353
#
# Velocity S-wave (km/s) = 3.92251 4.18750 4.05717
# Velocity P-wave (km/s) = 7.07729 7.85369 7.47558
#
# Compressibility (1/GPa) = 0.01944571
#
# Stress axis : x y z
#
# Youngs Moduli (GPa) = 107.70293 100.96836 38.72268
#
# Poissons Ratio (x) = 0.23216 0.16635
# Poissons Ratio (y) = 0.24764 0.23964
# Poissons Ratio (z) = 0.46268 0.62487
#
# Static dielectric constant tensor:
#      x y z
#    x 3.441440 0.000000 0.000000 
#    y 0.000000 3.418830 0.000000 
#    z 0.000000 0.000000 2.885030 
# 
# 
# High freq. dielectric constant tensor:
#      x y z
#    x 1.697140 0.000000 0.000000 
#    y 0.000000 1.681940 0.000000 
#    z 0.000000 0.000000 1.634210 
# 
# From -- ./inp_files/19551.got.cif
#   From: 2010.03.12/outbox.cif.g09.slc.cpg/sg50_10_cif.got.tgz:19551.got - 2010.04.16 13:23:21.
