data_PCOD8204408
_publ_section_title
;
Structure prediction by ZEFSAII (Michael W. Deem and Ramdas Pophale) SiO2 
 PCOD8204408
Probable space group: P C C M
;
_chemical_formula_sum "Si O2"
_cell_formula_units_Z 28
_cell_length_a 13.057232
_cell_length_b 11.276086
_cell_length_c 9.234851
_cell_angle_alpha 90.000000
_cell_angle_beta 90.000000
_cell_angle_gamma 90.000000
_cell_volume 1359.688401
_symmetry_space_group_name_H-M "P C C M"
_symmetry_group_IT_number 49
_symmetry_cell_setting 'orthorhombic'
loop_
_space_group_symop_operation_xyz
x,y,z
-x,-y,z
x,-y,1/2-z
-x,y,1/2-z
-x,-y,-z
x,y,-z
-x,y,1/2+z
x,-y,1/2+z
loop_
_atom_site_type_symbol
_atom_site_label
_atom_site_fract_x
_atom_site_fract_y
_atom_site_fract_z
Si Si1 0.734964 0.874602 0.673572
Si Si2 0.900953 0.309385 0.841687
Si Si3 0.248940 0.500000 0.750000
Si Si4 0.599372 0.693109 0.164488
O O1 0.719397 0.884440 0.500000
O O2 0.839753 0.805957 0.714196
O O3 0.640078 0.805267 0.744449
O O4 0.743035 0.000000 0.750000
O O5 0.823658 0.420490 0.851185
O O6 0.000000 0.339456 0.750000
O O7 0.943738 0.283476 0.000000
O O8 0.319147 0.413677 0.846160
O O9 0.500000 0.646456 0.250000
O O10 0.572806 0.731573 0.000000
#
# Coordination Sequence:
#
# PCOD8204408 Si02
#       4
#     8   8   4   8
#     4  10  22  41  62  86 117 152 195 243 292 346
#     4  10  22  38  58  86 118 153 193 238 288 343
#     4  10  22  38  60  86 118 156 196 240 286 340
#     4  11  23  39  61  88 119 155 195 240 292 347
#
# _framework density 20.592953999999999
#
# number of rings (size 3 to 8) (size 9 to 14) (size 15 to 20)
#    0.000    1.714    0.000    3.429    0.000   13.714 
#    0.000    5.714    0.000    0.000    0.000    0.000 
#    0.000    0.000    0.000    0.000    0.000    0.000 
#
# Total GULP energy -347138.756929 kJ/mol
# GULP energy per Si atom -12397.812747 kJ/mol
# Density = 2.054608 g / cm^3
# Si number density = 20.592954 Si / 1000 Ang^3
#
#
#
# Elastic Constant Matrix: (Units=GPa)
#
#
# Indices 1 2 3 4 5 6 
#
# 1 130.8552 52.4568 60.7472 0.0000 0.0000 0.0000
# 2 52.4568 141.5512 46.2186 0.0000 0.0000 0.0000
# 3 60.7472 46.2186 135.0164 0.0000 0.0000 0.0000
# 4 0.0000 0.0000 0.0000 0.9907 0.0000 0.0000
# 5 0.0000 0.0000 0.0000 0.0000 25.5366 0.0000
# 6 0.0000 0.0000 0.0000 0.0000 0.0000 17.0082
#
#
#
# Elastic Compliance Matrix: (Units=1/GPa)
#
#
# Indices 1 2 3 4 5 6 
#
# 1 0.010466 -0.002636 -0.003807 0.000000 0.000000 0.000000
# 2 -0.002636 0.008617 -0.001764 0.000000 0.000000 0.000000
# 3 -0.003807 -0.001764 0.009723 0.000000 0.000000 0.000000
# 4 0.000000 0.000000 0.000000 1.009416 0.000000 0.000000
# 5 0.000000 0.000000 0.000000 0.000000 0.039159 0.000000
# 6 0.000000 0.000000 0.000000 0.000000 0.000000 0.058795
#
#
# Mechanical properties :
#
#
# Convention : Reuss Voigt Hill
#
# Bulk Modulus (GPa) = 80.68635 80.69645 80.69140
# Shear Modulus (GPa) = 4.32257 25.24046 14.78151
#
# Velocity S-wave (km/s) = 1.45038 3.50478 2.68208
# Velocity P-wave (km/s) = 6.48625 7.45986 6.99002
#
# Compressibility (1/GPa) = 0.01239367
#
# Stress axis : x y z
#
# Youngs Moduli (GPa) = 95.55029 116.04619 102.84839
#
# Poissons Ratio (x) = 0.30584 0.39150
# Poissons Ratio (y) = 0.25183 0.18143
# Poissons Ratio (z) = 0.36372 0.20471
#
# Static dielectric constant tensor:
#      x y z
#    x 3.766940 0.000000 0.000000 
#    y 0.000000 3.728090 0.000000 
#    z 0.000000 0.000000 3.626400 
# 
# 
# High freq. dielectric constant tensor:
#      x y z
#    x 1.808170 0.000000 0.000000 
#    y 0.000000 1.805670 0.000000 
#    z 0.000000 0.000000 1.808830 
# 
# From -- ./inp_files/2403.got.cif
#   From: 2010.03.12/outbox.cif.g09.slc.cpg/sg49_2_cif.got.tgz:2403.got - 2010.04.14 03:58:27.
