data_PCOD8204830
_publ_section_title
;
Structure prediction by ZEFSAII (Michael W. Deem and Ramdas Pophale) SiO2 
 PCOD8204830
Probable space group: P B A N
;
_chemical_formula_sum "Si O2"
_cell_formula_units_Z 64
_cell_length_a 18.193481
_cell_length_b 14.815235
_cell_length_c 13.317102
_cell_angle_alpha 90.000000
_cell_angle_beta 90.000000
_cell_angle_gamma 90.000000
_cell_volume 3589.500948
_symmetry_space_group_name_H-M "P B A N"
_symmetry_group_IT_number 50
_space_group.IT_coordinate_system_code '2'
_symmetry_cell_setting 'orthorhombic'
loop_
_space_group_symop_operation_xyz
x,y,z
1/2-x,1/2-y,z
x,1/2-y,-z
1/2-x,y,-z
-x,-y,-z
1/2+x,1/2+y,-z
-x,1/2+y,z
1/2+x,-y,z
loop_
_atom_site_type_symbol
_atom_site_label
_atom_site_fract_x
_atom_site_fract_y
_atom_site_fract_z
Si Si1 0.406664 0.643152 0.377932
Si Si2 0.747018 0.145544 0.688307
Si Si3 0.829337 0.759244 0.882450
Si Si4 0.398761 0.054482 0.898563
Si Si5 0.877761 0.571280 0.875393
Si Si6 0.591132 0.148062 0.612684
Si Si7 0.757619 0.445522 0.109045
Si Si8 0.008848 0.997654 0.733211
O O1 0.323930 0.605681 0.354682
O O2 0.415925 0.748712 0.345081
O O3 0.422796 0.639858 0.495184
O O4 0.464998 0.577877 0.322643
O O5 0.750000 0.250000 0.666151
O O6 0.673445 0.108833 0.633797
O O7 0.737764 0.126909 0.806569
O O8 0.750000 0.750000 0.828751
O O9 0.867847 0.852097 0.854888
O O10 0.879116 0.676430 0.846659
O O11 0.817506 0.750000 0.000000
O O12 0.469739 0.034243 0.834281
O O13 0.340684 0.976328 0.874914
O O14 0.418899 0.057412 0.017200
O O15 0.795121 0.533266 0.887794
O O16 0.913655 0.528652 0.777530
O O17 0.527050 0.086774 0.661481
O O18 0.750000 0.398094 0.000000
#
# Coordination Sequence:
#
# PCOD8204830 Si02
#       8
#     8   8   8   8   8   8   8   8
#     4  10  22  39  58  80 104 136 181 229 272 315
#     4  10  19  37  59  78 100 137 183 221 258 312
#     4   9  16  30  52  74  97 134 181 218 247 294
#     4  10  20  33  51  77 110 143 176 214 258 314
#     4  10  20  33  51  77 110 143 176 214 258 314
#     4  10  22  39  58  80 104 136 181 229 272 315
#     4  10  18  33  53  78 110 141 176 218 256 307
#     4  12  22  34  56  78 114 140 170 212 276 330
#
# _framework density 17.829775999999999
#
# number of rings (size 3 to 8) (size 9 to 14) (size 15 to 20)
#    0.000    1.875    3.750    1.125    1.750    1.750 
#    0.000    0.000    0.000    0.000    0.000    0.000 
#    0.000   10.000    0.000    0.000    0.000    0.000 
#
# Total GULP energy -793147.106118 kJ/mol
# GULP energy per Si atom -12392.923533 kJ/mol
# Density = 1.778919 g / cm^3
# Si number density = 17.829776 Si / 1000 Ang^3
#
#
#
# Elastic Constant Matrix: (Units=GPa)
#
#
# Indices 1 2 3 4 5 6 
#
# 1 70.4243 26.9721 28.5197 0.0000 0.0000 0.0000
# 2 26.9721 54.2070 24.6276 0.0000 0.0000 0.0000
# 3 28.5197 24.6276 76.5982 0.0000 0.0000 0.0000
# 4 0.0000 0.0000 0.0000 26.1319 0.0000 0.0000
# 5 0.0000 0.0000 0.0000 0.0000 21.1750 0.0000
# 6 0.0000 0.0000 0.0000 0.0000 0.0000 72.1108
#
#
#
# Elastic Compliance Matrix: (Units=1/GPa)
#
#
# Indices 1 2 3 4 5 6 
#
# 1 0.018883 -0.007262 -0.004696 0.000000 0.000000 0.000000
# 2 -0.007262 0.024396 -0.005140 0.000000 0.000000 0.000000
# 3 -0.004696 -0.005140 0.016456 0.000000 0.000000 0.000000
# 4 0.000000 0.000000 0.000000 0.038267 0.000000 0.000000
# 5 0.000000 0.000000 0.000000 0.000000 0.047225 0.000000
# 6 0.000000 0.000000 0.000000 0.000000 0.000000 0.013868
#
#
# Mechanical properties :
#
#
# Convention : Reuss Voigt Hill
#
# Bulk Modulus (GPa) = 39.15489 40.16315 39.65902
# Shear Modulus (GPa) = 24.77649 31.95756 28.36702
#
# Velocity S-wave (km/s) = 3.73180 4.23823 3.99305
# Velocity P-wave (km/s) = 6.36997 6.82092 6.59930
#
# Compressibility (1/GPa) = 0.02553959
#
# Stress axis : x y z
#
# Youngs Moduli (GPa) = 52.95877 40.98951 60.76802
#
# Poissons Ratio (x) = 0.29767 0.28534
# Poissons Ratio (y) = 0.38460 0.31234
# Poissons Ratio (z) = 0.24867 0.21068
#
# Static dielectric constant tensor:
#      x y z
#    x 3.329850 0.000000 0.000000 
#    y 0.000000 3.431420 0.000000 
#    z 0.000000 0.000000 3.131420 
# 
# 
# High freq. dielectric constant tensor:
#      x y z
#    x 1.690630 0.000000 0.000000 
#    y 0.000000 1.680780 0.000000 
#    z 0.000000 0.000000 1.678310 
# 
# From -- ./inp_files/21937.got.cif
#   From: 2010.03.12/outbox.cif.g09.slc.cpg/sg50_11_cif.got.tgz:21937.got - 2010.04.16 13:23:21.
