data_PCOD8204768
_publ_section_title
;
Structure prediction by ZEFSAII (Michael W. Deem and Ramdas Pophale) SiO2 
 PCOD8204768
Probable space group: P B A N
;
_chemical_formula_sum "Si O2"
_cell_formula_units_Z 34
_cell_length_a 8.149903
_cell_length_b 23.248999
_cell_length_c 10.559278
_cell_angle_alpha 90.000000
_cell_angle_beta 90.000000
_cell_angle_gamma 90.000000
_cell_volume 2000.741233
_symmetry_space_group_name_H-M "P B A N"
_symmetry_group_IT_number 50
_space_group.IT_coordinate_system_code '2'
_symmetry_cell_setting 'orthorhombic'
loop_
_space_group_symop_operation_xyz
x,y,z
1/2-x,1/2-y,z
x,1/2-y,-z
1/2-x,y,-z
-x,-y,-z
1/2+x,1/2+y,-z
-x,1/2+y,z
1/2+x,-y,z
loop_
_atom_site_type_symbol
_atom_site_label
_atom_site_fract_x
_atom_site_fract_y
_atom_site_fract_z
Si Si1 0.250000 0.750000 0.500000
Si Si2 0.236128 0.915956 0.138064
Si Si3 0.859395 0.140345 0.386814
Si Si4 0.641723 0.555986 0.619930
Si Si5 0.926804 0.977585 0.225007
O O1 0.135844 0.790620 0.589336
O O2 0.277513 0.871633 0.250459
O O3 0.049300 0.937252 0.148639
O O4 0.363291 0.969204 0.140473
O O5 0.250000 0.885888 0.000000
O O6 0.750000 0.111577 0.500000
O O7 0.043607 0.115723 0.394925
O O8 0.750000 0.540121 0.500000
O O9 0.770766 0.561175 0.735765
O O10 0.516679 0.503645 0.649619
#
# Coordination Sequence:
#
# PCOD8204768 Si02
#       5
#     2   8   8   8   8
#     4   8  20  40  56  64 100 116 172 232 284 282
#     4  10  18  31  50  76 106 140 170 194 242 305
#     4   9  19  35  54  69  95 130 169 222 259 302
#     4  10  17  28  47  75 105 139 170 196 245 300
#     4   9  19  28  43  74 116 140 159 196 235 302
#
# _framework density 16.993701000000001
#
# number of rings (size 3 to 8) (size 9 to 14) (size 15 to 20)
#    0.706    1.882    0.000    2.824    0.000    6.588 
#    0.000    1.176    0.000    0.000    0.000    0.000 
#   14.118    0.000    0.000    0.000    0.000    0.000 
#
# Total GULP energy -421304.705781 kJ/mol
# GULP energy per Si atom -12391.314876 kJ/mol
# Density = 1.695502 g / cm^3
# Si number density = 16.993701 Si / 1000 Ang^3
#
#
#
# Elastic Constant Matrix: (Units=GPa)
#
#
# Indices 1 2 3 4 5 6 
#
# 1 106.1611 41.9217 36.3789 0.0000 0.0000 0.0000
# 2 41.9217 81.0839 37.9562 0.0000 0.0000 0.0000
# 3 36.3789 37.9562 124.8110 0.0000 0.0000 0.0000
# 4 0.0000 0.0000 0.0000 15.4267 0.0000 0.0000
# 5 0.0000 0.0000 0.0000 0.0000 13.3013 0.0000
# 6 0.0000 0.0000 0.0000 0.0000 0.0000 10.9425
#
#
#
# Elastic Compliance Matrix: (Units=1/GPa)
#
#
# Indices 1 2 3 4 5 6 
#
# 1 0.012215 -0.005420 -0.001912 0.000000 0.000000 0.000000
# 2 -0.005420 0.016785 -0.003525 0.000000 0.000000 0.000000
# 3 -0.001912 -0.003525 0.009641 0.000000 0.000000 0.000000
# 4 0.000000 0.000000 0.000000 0.064823 0.000000 0.000000
# 5 0.000000 0.000000 0.000000 0.000000 0.075181 0.000000
# 6 0.000000 0.000000 0.000000 0.000000 0.000000 0.091387
#
#
# Mechanical properties :
#
#
# Convention : Reuss Voigt Hill
#
# Bulk Modulus (GPa) = 59.07498 60.50772 59.79135
# Shear Modulus (GPa) = 16.81298 20.98737 18.90017
#
# Velocity S-wave (km/s) = 3.14883 3.51808 3.33856
# Velocity P-wave (km/s) = 6.93242 7.22397 7.07970
#
# Compressibility (1/GPa) = 0.01692764
#
# Stress axis : x y z
#
# Youngs Moduli (GPa) = 81.86439 59.57587 103.72053
#
# Poissons Ratio (x) = 0.32293 0.19831
# Poissons Ratio (y) = 0.44375 0.36558
# Poissons Ratio (z) = 0.15652 0.20998
#
# Static dielectric constant tensor:
#      x y z
#    x 3.419750 0.000000 0.000000 
#    y 0.000000 2.717500 0.000000 
#    z 0.000000 0.000000 3.105290 
# 
# 
# High freq. dielectric constant tensor:
#      x y z
#    x 1.667580 0.000000 0.000000 
#    y 0.000000 1.598300 0.000000 
#    z 0.000000 0.000000 1.654660 
# 
# From -- ./inp_files/9681.got.cif
#   From: 2010.03.12/outbox.cif.g09.slc.cpg/sg50_5_cif.got.tgz:9681.got - 2010.04.16 13:23:21.
