data_PCOD8204578
_publ_section_title
;
Structure prediction by ZEFSAII (Michael W. Deem and Ramdas Pophale) SiO2 
 PCOD8204578
Probable space group: P C C M
;
_chemical_formula_sum "Si O2"
_cell_formula_units_Z 40
_cell_length_a 18.647017
_cell_length_b 13.668729
_cell_length_c 8.376141
_cell_angle_alpha 90.000000
_cell_angle_beta 90.000000
_cell_angle_gamma 90.000000
_cell_volume 2134.919379
_symmetry_space_group_name_H-M "P C C M"
_symmetry_group_IT_number 49
_symmetry_cell_setting 'orthorhombic'
loop_
_space_group_symop_operation_xyz
x,y,z
-x,-y,z
x,-y,1/2-z
-x,y,1/2-z
-x,-y,-z
x,y,-z
-x,y,1/2+z
x,-y,1/2+z
loop_
_atom_site_type_symbol
_atom_site_label
_atom_site_fract_x
_atom_site_fract_y
_atom_site_fract_z
Si Si1 0.421378 0.393557 0.310937
Si Si2 0.289909 0.280652 0.186340
Si Si3 0.923491 0.781356 0.186723
Si Si4 0.160201 0.395550 0.686737
Si Si5 0.793584 0.104368 0.186417
O O1 0.397525 0.500000 0.250000
O O2 0.500000 0.366031 0.250000
O O3 0.419681 0.393384 0.500000
O O4 0.368344 0.312318 0.241984
O O5 0.233285 0.366280 0.223657
O O6 0.269103 0.182186 0.279962
O O7 0.289484 0.257653 0.000000
O O8 0.902358 0.681858 0.277679
O O9 0.866225 0.866099 0.222077
O O10 0.000000 0.817669 0.250000
O O11 0.925925 0.759779 0.000000
O O12 0.133924 0.500000 0.750000
O O13 0.176193 0.398981 0.500000
O O14 0.767197 0.000000 0.250000
O O15 0.810088 0.100803 0.000000
#
# Coordination Sequence:
#
# PCOD8204578 Si02
#       5
#     8   8   8   8   8
#     4  11  21  35  54  82 116 152 187 224 265 315
#     4  11  21  36  56  81 110 144 181 224 269 318
#     4  11  22  38  56  79 107 139 176 221 271 325
#     4  11  21  35  53  77 106 142 182 223 266 318
#     4  11  22  39  60  84 108 138 177 223 272 323
#
# _framework density 18.736070000000002
#
# number of rings (size 3 to 8) (size 9 to 14) (size 15 to 20)
#    0.000    1.000    0.000   12.600    0.000    0.800 
#    0.000    4.000    0.000    0.600    0.000    4.200 
#    0.000    0.000    0.000    0.000    0.000    0.000 
#
# Total GULP energy -496280.375270 kJ/mol
# GULP energy per Si atom -12407.009382 kJ/mol
# Density = 1.869343 g / cm^3
# Si number density = 18.736070 Si / 1000 Ang^3
#
#
#
# Elastic Constant Matrix: (Units=GPa)
#
#
# Indices 1 2 3 4 5 6 
#
# 1 104.5747 41.7003 15.4220 0.0000 0.0000 0.0000
# 2 41.7003 105.7527 17.5275 0.0000 0.0000 0.0000
# 3 15.4220 17.5275 115.4019 0.0000 0.0000 0.0000
# 4 0.0000 0.0000 0.0000 33.0032 0.0000 0.0000
# 5 0.0000 0.0000 0.0000 0.0000 31.9131 0.0000
# 6 0.0000 0.0000 0.0000 0.0000 0.0000 8.0278
#
#
#
# Elastic Compliance Matrix: (Units=1/GPa)
#
#
# Indices 1 2 3 4 5 6 
#
# 1 0.011430 -0.004364 -0.000865 0.000000 0.000000 0.000000
# 2 -0.004364 0.011366 -0.001143 0.000000 0.000000 0.000000
# 3 -0.000865 -0.001143 0.008955 0.000000 0.000000 0.000000
# 4 0.000000 0.000000 0.000000 0.030300 0.000000 0.000000
# 5 0.000000 0.000000 0.000000 0.000000 0.031335 0.000000
# 6 0.000000 0.000000 0.000000 0.000000 0.000000 0.124567
#
#
# Mechanical properties :
#
#
# Convention : Reuss Voigt Hill
#
# Bulk Modulus (GPa) = 52.61058 52.78098 52.69578
# Shear Modulus (GPa) = 21.09415 31.32745 26.21080
#
# Velocity S-wave (km/s) = 3.35902 4.09349 3.74431
# Velocity P-wave (km/s) = 6.57152 7.11155 6.84686
#
# Compressibility (1/GPa) = 0.01900758
#
# Stress axis : x y z
#
# Youngs Moduli (GPa) = 87.48764 87.97991 111.67502
#
# Poissons Ratio (x) = 0.38393 0.09657
# Poissons Ratio (y) = 0.38178 0.12766
# Poissons Ratio (z) = 0.07565 0.10058
#
# Static dielectric constant tensor:
#      x y z
#    x 3.304570 0.000000 0.000000 
#    y 0.000000 3.485560 0.000000 
#    z 0.000000 0.000000 3.665400 
# 
# 
# High freq. dielectric constant tensor:
#      x y z
#    x 1.717810 0.000000 0.000000 
#    y 0.000000 1.717740 0.000000 
#    z 0.000000 0.000000 1.755700 
# 
# From -- ./inp_files/4663.got.cif
#   From: 2010.03.12/outbox.cif.g09.slc.cpg/sg49_3_cif.got.tgz:4663.got - 2010.04.14 03:58:27.
