data_PCOD8204425
_publ_section_title
;
Structure prediction by ZEFSAII (Michael W. Deem and Ramdas Pophale) SiO2 
 PCOD8204425
Probable space group: P C C M
;
_chemical_formula_sum "Si O2"
_cell_formula_units_Z 64
_cell_length_a 9.198991
_cell_length_b 24.292390
_cell_length_c 14.748733
_cell_angle_alpha 90.000000
_cell_angle_beta 90.000000
_cell_angle_gamma 90.000000
_cell_volume 3295.832655
_symmetry_space_group_name_H-M "P C C M"
_symmetry_group_IT_number 49
_symmetry_cell_setting 'orthorhombic'
loop_
_space_group_symop_operation_xyz
x,y,z
-x,-y,z
x,-y,1/2-z
-x,y,1/2-z
-x,-y,-z
x,y,-z
-x,y,1/2+z
x,-y,1/2+z
loop_
_atom_site_type_symbol
_atom_site_label
_atom_site_fract_x
_atom_site_fract_y
_atom_site_fract_z
Si Si1 0.831595 0.853161 0.603984
Si Si2 0.171608 0.060829 0.750000
Si Si3 0.500000 0.563428 0.900317
Si Si4 0.161886 0.323285 0.750000
Si Si5 0.731128 0.563662 0.250000
Si Si6 0.329953 0.257409 0.605243
Si Si7 0.831595 0.853161 0.103984
Si Si8 0.329953 0.742591 0.605243
O O1 0.805551 0.868652 0.500000
O O2 0.778770 0.905802 0.660998
O O3 0.734885 0.801447 0.633960
O O4 0.000000 0.838670 0.623603
O O5 0.221230 0.094198 0.839002
O O6 0.000000 0.054127 0.750000
O O7 0.244102 0.000000 0.750000
O O8 0.500000 0.500000 0.921923
O O9 0.640643 0.577130 0.840763
O O10 0.359357 0.577130 0.840763
O O11 0.500000 0.594159 0.000000
O O12 0.144349 0.390066 0.750000
O O13 0.248686 0.304486 0.661004
O O14 0.248686 0.304486 0.838996
O O15 0.000000 0.298239 0.750000
O O16 0.787760 0.500000 0.250000
O O17 0.300372 0.269105 0.500000
O O18 0.500000 0.258400 0.628861
O O19 0.734885 0.801447 0.133960
O O20 0.805551 0.868652 0.000000
O O21 0.300372 0.730895 0.500000
#
# Coordination Sequence:
#
# PCOD8204425 Si02
#       8
#     8   8   8   8   8   8   8   8
#     4   9  17  31  52  76 104 139 178 223 275 325
#     4   9  17  28  45  74 108 141 180 222 264 315
#     4   8  15  31  56  81 105 136 175 221 264 305
#     4  12  25  38  56  82 115 150 181 223 277 332
#     4   9  20  36  54  81 111 142 184 222 264 327
#     4  10  22  39  60  84 109 141 185 235 282 331
#     4   9  17  31  52  76 104 139 178 223 275 325
#     4  10  22  39  60  84 109 141 185 235 282 331
#
# _framework density 19.418461000000001
#
# number of rings (size 3 to 8) (size 9 to 14) (size 15 to 20)
#    0.000    2.500    0.000    2.625    3.500    4.250 
#    0.000    2.500    0.000    1.500    0.000    8.750 
#    0.000    0.000    0.000    0.000    0.000    0.000 
#
# Total GULP energy -793252.522120 kJ/mol
# GULP energy per Si atom -12394.570658 kJ/mol
# Density = 1.937426 g / cm^3
# Si number density = 19.418461 Si / 1000 Ang^3
#
#
#
# Elastic Constant Matrix: (Units=GPa)
#
#
# Indices 1 2 3 4 5 6 
#
# 1 90.0663 47.6703 37.5923 0.0000 0.0000 0.0000
# 2 47.6703 147.4490 54.6501 0.0000 0.0000 0.0000
# 3 37.5923 54.6501 121.0452 0.0000 0.0000 0.0000
# 4 0.0000 0.0000 0.0000 5.0462 0.0000 0.0000
# 5 0.0000 0.0000 0.0000 0.0000 18.8054 0.0000
# 6 0.0000 0.0000 0.0000 0.0000 0.0000 20.3789
#
#
#
# Elastic Compliance Matrix: (Units=1/GPa)
#
#
# Indices 1 2 3 4 5 6 
#
# 1 0.014141 -0.003536 -0.002795 0.000000 0.000000 0.000000
# 2 -0.003536 0.009029 -0.002978 0.000000 0.000000 0.000000
# 3 -0.002795 -0.002978 0.010474 0.000000 0.000000 0.000000
# 4 0.000000 0.000000 0.000000 0.198168 0.000000 0.000000
# 5 0.000000 0.000000 0.000000 0.000000 0.053176 0.000000
# 6 0.000000 0.000000 0.000000 0.000000 0.000000 0.049070
#
#
# Mechanical properties :
#
#
# Convention : Reuss Voigt Hill
#
# Bulk Modulus (GPa) = 66.55444 70.93175 68.74309
# Shear Modulus (GPa) = 13.97872 23.42263 18.70067
#
# Velocity S-wave (km/s) = 2.68595 3.47681 3.10665
# Velocity P-wave (km/s) = 6.63078 7.26119 6.95314
#
# Compressibility (1/GPa) = 0.01502529
#
# Stress axis : x y z
#
# Youngs Moduli (GPa) = 70.71593 110.75406 95.47253
#
# Poissons Ratio (x) = 0.39160 0.26688
# Poissons Ratio (y) = 0.25003 0.28435
# Poissons Ratio (z) = 0.19768 0.32987
#
# Static dielectric constant tensor:
#      x y z
#    x 3.291680 0.000000 0.000000 
#    y 0.000000 3.598530 0.000000 
#    z 0.000000 0.000000 3.912100 
# 
# 
# High freq. dielectric constant tensor:
#      x y z
#    x 1.724530 0.000000 0.000000 
#    y 0.000000 1.755090 0.000000 
#    z 0.000000 0.000000 1.770190 
# 
# From -- ./inp_files/12136.got.cif
#   From: 2010.03.12/outbox.cif.g09.slc.cpg/sg49_7_cif.got.tgz:12136.got - 2010.04.14 03:58:27.
