data_PCOD8204958
_publ_section_title
;
Structure prediction by ZEFSAII (Michael W. Deem and Ramdas Pophale) SiO2 
 PCOD8204958
Probable space group: P B A N
;
_chemical_formula_sum "Si O2"
_cell_formula_units_Z 48
_cell_length_a 8.653462
_cell_length_b 28.272128
_cell_length_c 9.354305
_cell_angle_alpha 90.000000
_cell_angle_beta 90.000000
_cell_angle_gamma 90.000000
_cell_volume 2288.547419
_symmetry_space_group_name_H-M "P B A N"
_symmetry_group_IT_number 50
_space_group.IT_coordinate_system_code '2'
_symmetry_cell_setting 'orthorhombic'
loop_
_space_group_symop_operation_xyz
x,y,z
1/2-x,1/2-y,z
x,1/2-y,-z
1/2-x,y,-z
-x,-y,-z
1/2+x,1/2+y,-z
-x,1/2+y,z
1/2+x,-y,z
loop_
_atom_site_type_symbol
_atom_site_label
_atom_site_fract_x
_atom_site_fract_y
_atom_site_fract_z
Si Si1 0.942101 0.543777 0.232815
Si Si2 0.413905 0.205942 0.921072
Si Si3 0.570534 0.607922 0.014505
Si Si4 0.583402 0.557258 0.288585
Si Si5 0.573760 0.107100 0.541680
Si Si6 0.588434 0.703872 0.578794
O O1 0.765573 0.548922 0.281960
O O2 0.994162 0.490926 0.258835
O O3 0.051808 0.581990 0.307763
O O4 0.967554 0.559283 0.069022
O O5 0.392693 0.212645 0.749563
O O6 0.502997 0.250000 0.000000
O O7 0.250000 0.204013 0.000000
O O8 0.506731 0.156687 0.954885
O O9 0.525434 0.597449 0.177711
O O10 0.750000 0.617769 0.000000
O O11 0.539988 0.577233 0.441304
O O12 0.750000 0.102088 0.500000
O O13 0.529341 0.161754 0.549463
O O14 0.518429 0.750000 0.500000
O O15 0.750000 0.691831 0.500000
#
# Coordination Sequence:
#
# PCOD8204958 Si02
#       6
#     8   8   8   8   8   8
#     4  11  21  42  61  94 124 162 210 257 313 372
#     4  10  19  34  62  97 131 153 199 255 312 368
#     4   9  20  35  60  92 125 160 203 257 310 369
#     4  11  23  38  67  90 126 164 207 260 313 376
#     4  12  26  42  61  90 128 169 209 258 311 367
#     4  11  23  39  68 100 125 163 211 255 310 372
#
# _framework density 20.974001999999999
#
# number of rings (size 3 to 8) (size 9 to 14) (size 15 to 20)
#    0.000    1.333    1.667    5.500    7.000    0.333 
#    0.000    2.500    0.000    0.000    0.000    0.000 
#    0.000    0.000    0.000    0.000    0.000    0.000 
#
# Total GULP energy -594805.387619 kJ/mol
# GULP energy per Si atom -12391.778909 kJ/mol
# Density = 2.092626 g / cm^3
# Si number density = 20.974002 Si / 1000 Ang^3
#
#
#
# Elastic Constant Matrix: (Units=GPa)
#
#
# Indices 1 2 3 4 5 6 
#
# 1 69.7267 21.3003 25.7378 0.0000 0.0000 0.0000
# 2 21.3003 152.3384 42.4196 0.0000 0.0000 0.0000
# 3 25.7378 42.4196 82.7519 0.0000 0.0000 0.0000
# 4 0.0000 0.0000 0.0000 -20.5343 0.0000 0.0000
# 5 0.0000 0.0000 0.0000 0.0000 10.5462 0.0000
# 6 0.0000 0.0000 0.0000 0.0000 0.0000 706.9396
#
#
#
# Elastic Compliance Matrix: (Units=1/GPa)
#
#
# Indices 1 2 3 4 5 6 
#
# 1 0.016335 -0.001014 -0.004561 0.000000 0.000000 0.000000
# 2 -0.001014 0.007720 -0.003642 0.000000 0.000000 0.000000
# 3 -0.004561 -0.003642 0.015370 0.000000 0.000000 0.000000
# 4 0.000000 0.000000 0.000000 -0.048699 0.000000 0.000000
# 5 0.000000 0.000000 0.000000 0.000000 0.094821 0.000000
# 6 0.000000 0.000000 0.000000 0.000000 0.000000 0.001415
#
#
# Mechanical properties :
#
#
# Convention : Reuss Voigt Hill
#
# Bulk Modulus (GPa) = 47.63890 53.74805 50.69348
# Shear Modulus (GPa) = 44.48711 153.74759 99.11735
#
# Velocity S-wave (km/s) = 4.61049 8.57106 6.88185
# Velocity P-wave (km/s) = 7.14876 11.11901 9.34712
#
# Compressibility (1/GPa) = 0.02099125
#
# Stress axis : x y z
#
# Youngs Moduli (GPa) = 61.21839 129.52889 65.06257
#
# Poissons Ratio (x) = 0.13134 0.29674
# Poissons Ratio (y) = 0.06208 0.23697
# Poissons Ratio (z) = 0.27920 0.47176
#
# Static dielectric constant tensor:
#      x y z
#    x 3.303310 0.000000 0.000000 
#    y 0.000000 4.610610 0.000000 
#    z 0.000000 0.000000 1.082150 
# 
# 
# High freq. dielectric constant tensor:
#      x y z
#    x 1.773340 0.000000 0.000000 
#    y 0.000000 1.849220 0.000000 
#    z 0.000000 0.000000 1.839630 
# 
# From -- ./inp_files/10120.got.cif
#   From: 2010.03.12/outbox.cif.g09.slc.cpg/sg50_6_cif.got.tgz:10120.got - 2010.04.16 13:23:21.
