data_PCOD8204449
_publ_section_title
;
Structure prediction by ZEFSAII (Michael W. Deem and Ramdas Pophale) SiO2 
 PCOD8204449
Probable space group: P C C M
;
_chemical_formula_sum "Si O2"
_cell_formula_units_Z 48
_cell_length_a 17.253457
_cell_length_b 9.110205
_cell_length_c 14.584132
_cell_angle_alpha 90.000000
_cell_angle_beta 90.000000
_cell_angle_gamma 90.000000
_cell_volume 2292.370769
_symmetry_space_group_name_H-M "P C C M"
_symmetry_group_IT_number 49
_symmetry_cell_setting 'orthorhombic'
loop_
_space_group_symop_operation_xyz
x,y,z
-x,-y,z
x,-y,1/2-z
-x,y,1/2-z
-x,-y,-z
x,y,-z
-x,y,1/2+z
x,-y,1/2+z
loop_
_atom_site_type_symbol
_atom_site_label
_atom_site_fract_x
_atom_site_fract_y
_atom_site_fract_z
Si Si1 0.589471 0.264495 0.750000
Si Si2 0.589267 0.500000 0.599928
Si Si3 1.000000 0.165981 0.108588
Si Si4 0.749574 0.837181 0.750000
Si Si5 0.154118 0.671992 0.892816
Si Si6 0.154117 0.328008 0.107184
O O1 0.500000 0.205637 0.750000
O O2 0.608260 0.356999 0.658931
O O3 0.608260 0.356998 0.841070
O O4 0.655739 0.140964 0.750000
O O5 0.500000 0.500000 0.577908
O O6 0.633320 0.500000 0.500000
O O7 0.075117 0.253606 0.143584
O O8 0.924883 0.253606 0.143584
O O9 0.000000 0.162558 0.000000
O O10 0.000000 0.000000 0.148135
O O11 0.775244 0.747821 0.659988
O O12 0.775244 0.747821 0.840012
O O13 0.786001 0.000000 0.750000
O O14 0.151284 0.500000 0.869745
O O15 0.166682 0.700315 0.000000
O O16 0.166682 0.299685 0.000000
#
# Coordination Sequence:
#
# PCOD8204449 Si02
#       6
#     8   8   8   8   8   8
#     4   9  20  37  57  84 116 150 195 243 291 354
#     4   8  15  31  58  87 111 138 179 236 293 345
#     4   9  17  34  61  90 122 157 193 236 295 360
#     4  12  26  40  57  85 122 159 200 246 298 359
#     4  10  22  40  63  89 119 156 200 249 295 346
#     4  10  22  40  63  89 119 156 200 249 295 346
#
# _framework density 20.939021
#
# number of rings (size 3 to 8) (size 9 to 14) (size 15 to 20)
#    0.000    2.333    0.000    3.000    4.667    6.333 
#    0.000    3.333    0.000    0.000    0.000    7.000 
#    0.000    0.000    0.000    0.000    0.000    0.000 
#
# Total GULP energy -594853.657549 kJ/mol
# GULP energy per Si atom -12392.784532 kJ/mol
# Density = 2.089136 g / cm^3
# Si number density = 20.939021 Si / 1000 Ang^3
#
#
#
# Elastic Constant Matrix: (Units=GPa)
#
#
# Indices 1 2 3 4 5 6 
#
# 1 142.1947 55.4288 29.2720 0.0000 0.0000 0.0000
# 2 55.4288 146.5339 42.8718 0.0000 0.0000 0.0000
# 3 29.2720 42.8718 122.2192 0.0000 0.0000 0.0000
# 4 0.0000 0.0000 0.0000 18.6674 0.0000 0.0000
# 5 0.0000 0.0000 0.0000 0.0000 22.7723 0.0000
# 6 0.0000 0.0000 0.0000 0.0000 0.0000 29.5092
#
#
#
# Elastic Compliance Matrix: (Units=1/GPa)
#
#
# Indices 1 2 3 4 5 6 
#
# 1 0.008356 -0.002870 -0.000995 0.000000 0.000000 0.000000
# 2 -0.002870 0.008590 -0.002326 0.000000 0.000000 0.000000
# 3 -0.000995 -0.002326 0.009236 0.000000 0.000000 0.000000
# 4 0.000000 0.000000 0.000000 0.053569 0.000000 0.000000
# 5 0.000000 0.000000 0.000000 0.000000 0.043913 0.000000
# 6 0.000000 0.000000 0.000000 0.000000 0.000000 0.033888
#
#
# Mechanical properties :
#
#
# Convention : Reuss Voigt Hill
#
# Bulk Modulus (GPa) = 72.45469 74.01032 73.23250
# Shear Modulus (GPa) = 28.64768 33.08146 30.86457
#
# Velocity S-wave (km/s) = 3.70286 3.97910 3.84346
# Velocity P-wave (km/s) = 7.27732 7.51887 7.39908
#
# Compressibility (1/GPa) = 0.01380173
#
# Stress axis : x y z
#
# Youngs Moduli (GPa) = 119.67385 116.40858 108.27024
#
# Poissons Ratio (x) = 0.33407 0.10769
# Poissons Ratio (y) = 0.34344 0.25184
# Poissons Ratio (z) = 0.11903 0.27077
#
# Static dielectric constant tensor:
#      x y z
#    x 3.748230 0.000000 0.000000 
#    y 0.000000 3.661670 0.000000 
#    z 0.000000 0.000000 4.208770 
# 
# 
# High freq. dielectric constant tensor:
#      x y z
#    x 1.820970 0.000000 0.000000 
#    y 0.000000 1.805940 0.000000 
#    z 0.000000 0.000000 1.824860 
# 
# From -- ./inp_files/11838.got.cif
#   From: 2010.03.12/outbox.cif.g09.slc.cpg/sg49_6_cif.got.tgz:11838.got - 2010.04.14 03:58:27.
