data_PCOD8204009
_publ_section_title
;
Structure prediction by ZEFSAII (Michael W. Deem and Ramdas Pophale) SiO2 
 PCOD8204009
Probable space group: P C C M
;
_chemical_formula_sum "Si O2"
_cell_formula_units_Z 40
_cell_length_a 14.028893
_cell_length_b 14.250041
_cell_length_c 9.750481
_cell_angle_alpha 90.000000
_cell_angle_beta 90.000000
_cell_angle_gamma 90.000000
_cell_volume 1949.241087
_symmetry_space_group_name_H-M "P C C M"
_symmetry_group_IT_number 49
_symmetry_cell_setting 'orthorhombic'
loop_
_space_group_symop_operation_xyz
x,y,z
-x,-y,z
x,-y,1/2-z
-x,y,1/2-z
-x,-y,-z
x,y,-z
-x,y,1/2+z
x,-y,1/2+z
loop_
_atom_site_type_symbol
_atom_site_label
_atom_site_fract_x
_atom_site_fract_y
_atom_site_fract_z
Si Si1 0.884665 0.384411 0.500000
Si Si2 0.903633 0.607080 0.500000
Si Si3 0.592856 0.728165 0.660749
Si Si4 0.707875 0.089210 0.155894
Si Si5 0.918800 0.903645 0.663017
Si Si6 0.228330 0.611163 0.241051
O O1 0.904060 0.495175 0.500000
O O2 0.820753 0.348619 0.376039
O O3 0.992248 0.343497 0.500000
O O4 0.846660 0.645223 0.371211
O O5 0.500000 0.709901 0.750000
O O6 0.571254 0.712691 0.500000
O O7 0.629683 0.832782 0.690134
O O8 0.668675 0.652694 0.712648
O O9 0.812078 0.138036 0.176410
O O10 0.688123 0.000000 0.250000
O O11 0.698679 0.053533 0.000000
O O12 0.945597 0.915354 0.500000
O O13 0.000000 0.844835 0.750000
O O14 0.913177 0.000000 0.750000
O O15 0.241026 0.500000 0.250000
#
# Coordination Sequence:
#
# PCOD8204009 Si02
#       6
#     4   4   8   8   8   8
#     4   9  18  30  59  93 124 159 205 233 291 355
#     4   9  16  34  57  89 126 167 193 241 291 351
#     4  11  25  44  63  84 117 158 202 258 311 357
#     4   9  20  39  62  85 114 151 193 245 303 358
#     4   9  15  26  48  78 110 145 180 219 274 339
#     4  10  20  37  61  90 126 162 199 243 293 355
#
# _framework density 20.520807999999999
#
# number of rings (size 3 to 8) (size 9 to 14) (size 15 to 20)
#    0.000    2.400    1.000    1.800    1.400    4.800 
#    0.000    5.000    0.000    0.000    0.000    0.000 
#    0.000    0.000    0.000    0.000    0.000    0.000 
#
# Total GULP energy -495564.870686 kJ/mol
# GULP energy per Si atom -12389.121767 kJ/mol
# Density = 2.047410 g / cm^3
# Si number density = 20.520808 Si / 1000 Ang^3
#
#
#
# Elastic Constant Matrix: (Units=GPa)
#
#
# Indices 1 2 3 4 5 6 
#
# 1 179.3006 39.3611 96.4501 0.0000 0.0000 0.0000
# 2 39.3611 40.2794 40.0792 0.0000 0.0000 0.0000
# 3 96.4501 40.0792 187.0194 0.0000 0.0000 0.0000
# 4 0.0000 0.0000 0.0000 26.2652 0.0000 0.0000
# 5 0.0000 0.0000 0.0000 0.0000 -68.8821 0.0000
# 6 0.0000 0.0000 0.0000 0.0000 0.0000 -1.1701
#
#
#
# Elastic Compliance Matrix: (Units=1/GPa)
#
#
# Indices 1 2 3 4 5 6 
#
# 1 0.008436 -0.004976 -0.003284 0.000000 0.000000 0.000000
# 2 -0.004976 0.034490 -0.004825 0.000000 0.000000 0.000000
# 3 -0.003284 -0.004825 0.008075 0.000000 0.000000 0.000000
# 4 0.000000 0.000000 0.000000 0.038073 0.000000 0.000000
# 5 0.000000 0.000000 0.000000 0.000000 -0.014518 0.000000
# 6 0.000000 0.000000 0.000000 0.000000 0.000000 -0.854645
#
#
# Mechanical properties :
#
#
# Convention : Reuss Voigt Hill
#
# Bulk Modulus (GPa) = 40.27322 84.26448 62.26885
# Shear Modulus (GPa) = -6.70565 6.62321 -0.04122
#
# Velocity S-wave (km/s) = -1.80965 1.79849 -0.14188
# Velocity P-wave (km/s) = 3.91174 6.74276 5.51210
#
# Compressibility (1/GPa) = 0.02483040
#
# Stress axis : x y z
#
# Youngs Moduli (GPa) = 118.53459 28.99369 123.83919
#
# Poissons Ratio (x) = 0.14427 0.40675
# Poissons Ratio (y) = 0.58981 0.59756
# Poissons Ratio (z) = 0.38932 0.13990
#
# Static dielectric constant tensor:
#      x y z
#    x 4.200020 0.000000 0.000000 
#    y 0.000000 3.339740 0.000000 
#    z 0.000000 0.000000 3.976370 
# 
# 
# High freq. dielectric constant tensor:
#      x y z
#    x 1.810070 0.000000 0.000000 
#    y 0.000000 1.771320 0.000000 
#    z 0.000000 0.000000 1.818530 
# 
# From -- ./inp_files/3467.got.cif
#   From: 2010.03.12/outbox.cif.g09.slc.cpg/sg49_2_cif.got.tgz:3467.got - 2010.04.14 03:58:27.
