data_PCOD8204846
_publ_section_title
;
Structure prediction by ZEFSAII (Michael W. Deem and Ramdas Pophale) SiO2 
 PCOD8204846
Probable space group: P B A N
;
_chemical_formula_sum "Si O2"
_cell_formula_units_Z 48
_cell_length_a 17.497823
_cell_length_b 17.983201
_cell_length_c 7.774389
_cell_angle_alpha 90.000000
_cell_angle_beta 90.000000
_cell_angle_gamma 90.000000
_cell_volume 2446.342638
_symmetry_space_group_name_H-M "P B A N"
_symmetry_group_IT_number 50
_space_group.IT_coordinate_system_code '2'
_symmetry_cell_setting 'orthorhombic'
loop_
_space_group_symop_operation_xyz
x,y,z
1/2-x,1/2-y,z
x,1/2-y,-z
1/2-x,y,-z
-x,-y,-z
1/2+x,1/2+y,-z
-x,1/2+y,z
1/2+x,-y,z
loop_
_atom_site_type_symbol
_atom_site_label
_atom_site_fract_x
_atom_site_fract_y
_atom_site_fract_z
Si Si1 0.750000 0.250000 0.000000
Si Si2 0.331394 0.854417 0.746918
Si Si3 0.955950 0.930251 0.687350
Si Si4 0.083669 0.164777 0.995943
Si Si5 0.284811 0.484741 0.314625
Si Si6 0.750000 0.250000 0.500000
Si Si7 0.001270 0.093085 0.689006
Si Si8 0.750000 0.609737 0.000000
O O1 0.691450 0.305117 0.908498
O O2 0.310046 0.802841 0.590048
O O3 0.420554 0.873231 0.746212
O O4 0.281540 0.929312 0.739384
O O5 0.963626 0.876200 0.851742
O O6 0.869968 0.956046 0.668840
O O7 0.982493 0.888537 0.512275
O O8 0.007142 0.003919 0.717046
O O9 0.174845 0.159874 0.024117
O O10 0.058415 0.250000 0.000000
O O11 0.064716 0.129670 0.810761
O O12 0.250000 0.470529 0.500000
O O13 0.238019 0.440835 0.169033
#
# Coordination Sequence:
#
# PCOD8204846 Si02
#       8
#     2   8   8   8   8   2   8   4
#     4  10  22  38  52  80 124 148 194 242 286 370
#     4  10  21  36  56  82 114 153 193 236 302 348
#     4   9  21  39  59  89 117 151 203 247 287 350
#     4  11  23  38  60  88 122 157 194 241 304 354
#     4  10  18  35  61  85 110 153 201 244 290 346
#     4  10  20  38  52  82 120 146 184 250 300 362
#     4  10  21  40  61  86 116 157 199 247 290 353
#     4  10  22  38  58  86 118 152 198 250 289 349
#
# _framework density 19.621127999999999
#
# number of rings (size 3 to 8) (size 9 to 14) (size 15 to 20)
#    0.000    2.000    0.833    2.250    1.167    2.000 
#    3.000    0.000    0.000    3.000    0.000    0.000 
#    0.000    0.000    0.000    0.000    0.000    0.000 
#
# Total GULP energy -595041.647686 kJ/mol
# GULP energy per Si atom -12396.700993 kJ/mol
# Density = 1.957647 g / cm^3
# Si number density = 19.621128 Si / 1000 Ang^3
#
#
#
# Elastic Constant Matrix: (Units=GPa)
#
#
# Indices 1 2 3 4 5 6 
#
# 1 41.4237 23.0912 28.5734 0.0000 0.0000 0.0000
# 2 23.0912 116.3329 62.9294 0.0000 0.0000 0.0000
# 3 28.5734 62.9294 143.1777 0.0000 0.0000 0.0000
# 4 0.0000 0.0000 0.0000 192.8723 0.0000 0.0000
# 5 0.0000 0.0000 0.0000 0.0000 32.4204 0.0000
# 6 0.0000 0.0000 0.0000 0.0000 0.0000 24.3309
#
#
#
# Elastic Compliance Matrix: (Units=1/GPa)
#
#
# Indices 1 2 3 4 5 6 
#
# 1 0.029010 -0.003446 -0.004275 0.000000 0.000000 0.000000
# 2 -0.003446 0.011687 -0.004449 0.000000 0.000000 0.000000
# 3 -0.004275 -0.004449 0.009793 0.000000 0.000000 0.000000
# 4 0.000000 0.000000 0.000000 0.005185 0.000000 0.000000
# 5 0.000000 0.000000 0.000000 0.000000 0.030845 0.000000
# 6 0.000000 0.000000 0.000000 0.000000 0.000000 0.041100
#
#
# Mechanical properties :
#
#
# Convention : Reuss Voigt Hill
#
# Bulk Modulus (GPa) = 38.24011 58.90247 48.57129
# Shear Modulus (GPa) = 31.11864 62.34741 46.73303
#
# Velocity S-wave (km/s) = 3.98675 5.64310 4.88563
# Velocity P-wave (km/s) = 6.38152 8.51731 7.52557
#
# Compressibility (1/GPa) = 0.02615055
#
# Stress axis : x y z
#
# Youngs Moduli (GPa) = 34.47035 85.56860 102.11588
#
# Poissons Ratio (x) = 0.29486 0.43654
# Poissons Ratio (y) = 0.11878 0.45429
# Poissons Ratio (z) = 0.14736 0.38068
#
# Static dielectric constant tensor:
#      x y z
#    x 3.476480 0.000000 0.000000 
#    y 0.000000 3.739380 0.000000 
#    z 0.000000 0.000000 3.496900 
# 
# 
# High freq. dielectric constant tensor:
#      x y z
#    x 1.758920 0.000000 0.000000 
#    y 0.000000 1.767120 0.000000 
#    z 0.000000 0.000000 1.773650 
# 
# From -- ./inp_files/14290.got.cif
#   From: 2010.03.12/outbox.cif.g09.slc.cpg/sg50_8_cif.got.tgz:14290.got - 2010.04.16 13:23:21.
