data_PCOD8204072
_publ_section_title
;
Structure prediction by ZEFSAII (Michael W. Deem and Ramdas Pophale) SiO2 
 PCOD8204072
Probable space group: P C C M
;
_chemical_formula_sum "Si O2"
_cell_formula_units_Z 48
_cell_length_a 9.550493
_cell_length_b 18.314331
_cell_length_c 13.930146
_cell_angle_alpha 90.000000
_cell_angle_beta 90.000000
_cell_angle_gamma 90.000000
_cell_volume 2436.534235
_symmetry_space_group_name_H-M "P C C M"
_symmetry_group_IT_number 49
_symmetry_cell_setting 'orthorhombic'
loop_
_space_group_symop_operation_xyz
x,y,z
-x,-y,z
x,-y,1/2-z
-x,y,1/2-z
-x,-y,-z
x,y,-z
-x,y,1/2+z
x,-y,1/2+z
loop_
_atom_site_type_symbol
_atom_site_label
_atom_site_fract_x
_atom_site_fract_y
_atom_site_fract_z
Si Si1 0.601446 0.569350 0.500000
Si Si2 0.410546 0.929788 0.610254
Si Si3 0.156543 0.422814 0.212395
Si Si4 0.844234 0.915681 0.247386
Si Si5 0.373123 0.671117 0.179670
Si Si6 0.149810 0.465846 0.000000
Si Si7 0.662939 0.169263 0.891017
O O1 0.500000 0.500000 0.500000
O O2 0.576931 0.618183 0.405909
O O3 0.756655 0.538186 0.500000
O O4 0.376658 0.946877 0.500000
O O5 0.262653 0.906888 0.657801
O O6 0.504415 0.857793 0.625378
O O7 0.500000 0.000000 0.652136
O O8 0.217064 0.500000 0.250000
O O9 0.245471 0.359162 0.258610
O O10 0.170255 0.417660 0.096290
O O11 0.000000 0.413177 0.250000
O O12 0.769235 0.885031 0.340365
O O13 0.000000 0.877975 0.250000
O O14 0.872811 0.000000 0.250000
O O15 0.500000 0.683889 0.250000
O O16 0.319893 0.747801 0.140736
O O17 0.000000 0.500000 0.000000
O O18 0.707852 0.163252 0.000000
#
# Coordination Sequence:
#
# PCOD8204072 Si02
#       7
#     4   8   8   8   8   4   8
#     4  12  24  38  62  92 127 165 209 267 332 387
#     4  10  20  38  67  95 124 168 217 260 313 387
#     4  11  22  39  64  93 124 170 219 266 322 385
#     4  11  23  38  64  99 133 168 209 264 323 384
#     4  12  25  41  63  92 128 166 211 268 333 393
#     4  12  20  38  64  94 124 162 226 271 306 387
#     4  11  24  44  66  94 127 172 219 268 328 397
#
# _framework density 19.700115
#
# number of rings (size 3 to 8) (size 9 to 14) (size 15 to 20)
#    0.000    0.833    5.833    2.500    0.000    1.333 
#    0.000    1.667    1.833    0.000    0.000    0.000 
#    0.000    0.000    0.000    0.000    0.000    0.000 
#
# Total GULP energy -594930.141391 kJ/mol
# GULP energy per Si atom -12394.377946 kJ/mol
# Density = 1.965528 g / cm^3
# Si number density = 19.700115 Si / 1000 Ang^3
#
#
#
# Elastic Constant Matrix: (Units=GPa)
#
#
# Indices 1 2 3 4 5 6 
#
# 1 120.4566 37.3276 61.0010 0.0000 0.0000 0.0000
# 2 37.3276 101.2450 49.3041 0.0000 0.0000 0.0000
# 3 61.0010 49.3041 153.2394 0.0000 0.0000 0.0000
# 4 0.0000 0.0000 0.0000 40.9672 0.0000 0.0000
# 5 0.0000 0.0000 0.0000 0.0000 14.6292 0.0000
# 6 0.0000 0.0000 0.0000 0.0000 0.0000 3.3609
#
#
#
# Elastic Compliance Matrix: (Units=1/GPa)
#
#
# Indices 1 2 3 4 5 6 
#
# 1 0.010810 -0.002241 -0.003582 0.000000 0.000000 0.000000
# 2 -0.002241 0.012177 -0.003026 0.000000 0.000000 0.000000
# 3 -0.003582 -0.003026 0.008925 0.000000 0.000000 0.000000
# 4 0.000000 0.000000 0.000000 0.024410 0.000000 0.000000
# 5 0.000000 0.000000 0.000000 0.000000 0.068357 0.000000
# 6 0.000000 0.000000 0.000000 0.000000 0.000000 0.297539
#
#
# Mechanical properties :
#
#
# Convention : Reuss Voigt Hill
#
# Bulk Modulus (GPa) = 70.35223 74.46737 72.40980
# Shear Modulus (GPa) = 11.24471 26.94534 19.09502
#
# Velocity S-wave (km/s) = 2.39172 3.70236 3.11671
# Velocity P-wave (km/s) = 6.58910 7.49394 7.05604
#
# Compressibility (1/GPa) = 0.01421419
#
# Stress axis : x y z
#
# Youngs Moduli (GPa) = 92.50397 82.12377 112.04167
#
# Poissons Ratio (x) = 0.18405 0.40136
# Poissons Ratio (y) = 0.20731 0.33900
# Poissons Ratio (z) = 0.33137 0.24848
#
# Static dielectric constant tensor:
#      x y z
#    x 4.210470 0.000000 0.000000 
#    y 0.000000 3.511360 0.000000 
#    z 0.000000 0.000000 3.846800 
# 
# 
# High freq. dielectric constant tensor:
#      x y z
#    x 1.772620 0.000000 0.000000 
#    y 0.000000 1.756820 0.000000 
#    z 0.000000 0.000000 1.784860 
# 
# From -- ./inp_files/11883.got.cif
#   From: 2010.03.12/outbox.cif.g09.slc.cpg/sg49_6_cif.got.tgz:11883.got - 2010.04.14 03:58:27.
