data_PCOD8204624
_publ_section_title
;
Structure prediction by ZEFSAII (Michael W. Deem and Ramdas Pophale) SiO2 
 PCOD8204624
Probable space group: P C C M
;
_chemical_formula_sum "Si O2"
_cell_formula_units_Z 64
_cell_length_a 16.275918
_cell_length_b 12.034112
_cell_length_c 15.467413
_cell_angle_alpha 90.000000
_cell_angle_beta 90.000000
_cell_angle_gamma 90.000000
_cell_volume 3029.543719
_symmetry_space_group_name_H-M "P C C M"
_symmetry_group_IT_number 49
_symmetry_cell_setting 'orthorhombic'
loop_
_space_group_symop_operation_xyz
x,y,z
-x,-y,z
x,-y,1/2-z
-x,y,1/2-z
-x,-y,-z
x,y,-z
-x,y,1/2+z
x,-y,1/2+z
loop_
_atom_site_type_symbol
_atom_site_label
_atom_site_fract_x
_atom_site_fract_y
_atom_site_fract_z
Si Si1 0.248893 0.471515 0.903615
Si Si2 0.004165 0.624877 0.402318
Si Si3 0.827244 0.689849 0.356397
Si Si4 0.162136 0.739984 0.664261
Si Si5 0.688370 0.838240 0.405155
Si Si6 0.285442 0.908149 0.599529
Si Si7 0.411007 0.801924 0.267048
Si Si8 0.583491 0.442894 0.663705
O O1 0.209541 0.566242 0.843587
O O2 0.224111 0.353180 0.867604
O O3 0.347679 0.468333 0.907616
O O4 0.214433 0.490550 0.000000
O O5 0.034980 0.611694 0.500000
O O6 0.916885 0.684418 0.398313
O O7 0.000000 0.500000 0.360340
O O8 0.068571 0.706434 0.355949
O O9 0.830919 0.753743 0.266151
O O10 0.767374 0.759666 0.417250
O O11 0.196218 0.853657 0.621401
O O12 0.642972 0.835147 0.500000
O O13 0.632451 0.792204 0.326908
O O14 0.722020 0.960882 0.385807
O O15 0.309073 0.879404 0.500000
O O16 0.356662 0.870431 0.665296
O O17 0.500000 0.859444 0.250000
O O18 0.429789 0.685408 0.313564
O O19 0.500000 0.500000 0.630512
O O20 0.616519 0.500000 0.750000
#
# Coordination Sequence:
#
# PCOD8204624 Si02
#       8
#     8   8   8   8   8   8   8   8
#     4  12  23  37  61  91 126 175 223 268 334 400
#     4  11  23  39  62  97 137 174 217 270 327 398
#     4  12  24  40  65  97 132 176 220 275 331 400
#     4  12  23  40  67  96 133 173 222 275 334 393
#     4  11  25  46  70  97 131 175 228 280 331 394
#     4  11  25  46  71  97 129 174 230 281 331 394
#     4  12  24  43  71  99 130 174 218 277 336 397
#     4  11  22  39  60  90 133 168 213 264 332 395
#
# _framework density 21.125294
#
# number of rings (size 3 to 8) (size 9 to 14) (size 15 to 20)
#    0.000    0.500    5.000    4.875    0.000    2.250 
#    0.000    1.875    0.000    4.125    0.000    0.000 
#    0.000    0.000    0.000    0.000    0.000    0.000 
#
# Total GULP energy -793444.247202 kJ/mol
# GULP energy per Si atom -12397.566363 kJ/mol
# Density = 2.107721 g / cm^3
# Si number density = 21.125294 Si / 1000 Ang^3
#
#
#
# Elastic Constant Matrix: (Units=GPa)
#
#
# Indices 1 2 3 4 5 6 
#
# 1 143.1175 27.1173 22.3054 0.0000 0.0000 0.0000
# 2 27.1173 68.7830 4.0060 0.0000 0.0000 0.0000
# 3 22.3054 4.0060 93.8801 0.0000 0.0000 0.0000
# 4 0.0000 0.0000 0.0000 19.3462 0.0000 0.0000
# 5 0.0000 0.0000 0.0000 0.0000 19.9866 0.0000
# 6 0.0000 0.0000 0.0000 0.0000 0.0000 2.0609
#
#
#
# Elastic Compliance Matrix: (Units=1/GPa)
#
#
# Indices 1 2 3 4 5 6 
#
# 1 0.007822 -0.002983 -0.001731 0.000000 0.000000 0.000000
# 2 -0.002983 0.015712 0.000038 0.000000 0.000000 0.000000
# 3 -0.001731 0.000038 0.011062 0.000000 0.000000 0.000000
# 4 0.000000 0.000000 0.000000 0.051690 0.000000 0.000000
# 5 0.000000 0.000000 0.000000 0.000000 0.050034 0.000000
# 6 0.000000 0.000000 0.000000 0.000000 0.000000 0.485230
#
#
# Mechanical properties :
#
#
# Convention : Reuss Voigt Hill
#
# Bulk Modulus (GPa) = 39.61313 45.84867 42.73090
# Shear Modulus (GPa) = 7.82086 25.10220 16.46153
#
# Velocity S-wave (km/s) = 1.92618 3.45084 2.79450
# Velocity P-wave (km/s) = 4.87228 6.13417 5.53928
#
# Compressibility (1/GPa) = 0.02524416
#
# Stress axis : x y z
#
# Youngs Moduli (GPa) = 127.83954 63.64438 90.40298
#
# Poissons Ratio (x) = 0.18986 0.15651
# Poissons Ratio (y) = 0.38135 -0.00346
# Poissons Ratio (z) = 0.22132 -0.00244
#
# Static dielectric constant tensor:
#      x y z
#    x 3.872350 0.000000 0.000000 
#    y 0.000000 3.800920 0.000000 
#    z 0.000000 0.000000 3.894460 
# 
# 
# High freq. dielectric constant tensor:
#      x y z
#    x 1.828860 0.000000 0.000000 
#    y 0.000000 1.818570 0.000000 
#    z 0.000000 0.000000 1.836900 
# 
# From -- ./inp_files/14217.got.cif
#   From: 2010.03.12/outbox.cif.g09.slc.cpg/sg49_8_cif.got.tgz:14217.got - 2010.04.14 03:58:27.
