data_PCOD8204308
_publ_section_title
;
Structure prediction by ZEFSAII (Michael W. Deem and Ramdas Pophale) SiO2 
 PCOD8204308
Probable space group: P C C M
;
_chemical_formula_sum "Si O2"
_cell_formula_units_Z 64
_cell_length_a 15.323766
_cell_length_b 23.417309
_cell_length_c 8.522246
_cell_angle_alpha 90.000000
_cell_angle_beta 90.000000
_cell_angle_gamma 90.000000
_cell_volume 3058.134374
_symmetry_space_group_name_H-M "P C C M"
_symmetry_group_IT_number 49
_symmetry_cell_setting 'orthorhombic'
loop_
_space_group_symop_operation_xyz
x,y,z
-x,-y,z
x,-y,1/2-z
-x,y,1/2-z
-x,-y,-z
x,y,-z
-x,y,1/2+z
x,-y,1/2+z
loop_
_atom_site_type_symbol
_atom_site_label
_atom_site_fract_x
_atom_site_fract_y
_atom_site_fract_z
Si Si1 0.756079 0.938181 0.814141
Si Si2 0.591058 0.364624 0.316391
Si Si3 0.149368 0.741902 0.183259
Si Si4 0.090516 0.142003 0.183534
Si Si5 0.351149 0.749073 0.184141
Si Si6 0.908608 0.622211 0.814574
Si Si7 0.593581 0.125235 0.814750
Si Si8 0.744296 0.439137 0.814971
O O1 0.828849 0.894424 0.747171
O O2 0.661915 0.919450 0.753500
O O3 0.780189 0.000000 0.750000
O O4 0.755066 0.939095 0.000000
O O5 0.500000 0.389228 0.250000
O O6 0.598694 0.377852 0.500000
O O7 0.594648 0.296967 0.283562
O O8 0.669970 0.393499 0.223504
O O9 0.099952 0.791850 0.273294
O O10 0.250433 0.742387 0.229313
O O11 0.107791 0.682510 0.232692
O O12 0.135705 0.751904 0.000000
O O13 0.000000 0.117458 0.250000
O O14 0.088057 0.134795 0.000000
O O15 0.383317 0.810833 0.241020
O O16 0.367554 0.738961 0.000000
O O17 0.834102 0.577383 0.769275
O O18 0.000000 0.597647 0.750000
O O19 0.911319 0.630159 0.000000
O O20 0.500000 0.107162 0.750000
O O21 0.595214 0.120895 0.000000
O O22 0.713155 0.500000 0.750000
O O23 0.759478 0.440764 0.000000
#
# Coordination Sequence:
#
# PCOD8204308 Si02
#       8
#     8   8   8   8   8   8   8   8
#     4  11  25  44  66  91 122 163 211 263 315 373
#     4  12  25  42  67  98 133 173 215 264 318 380
#     4  11  21  38  65  96 132 170 209 258 317 380
#     4  11  24  41  64  94 128 166 210 259 316 379
#     4  10  21  38  64  96 131 170 209 257 318 380
#     4  12  25  43  67  98 132 172 215 263 320 379
#     4  11  23  41  65  95 129 166 208 257 313 375
#     4  12  26  47  70  96 129 168 217 269 321 380
#
# _framework density 20.927792
#
# number of rings (size 3 to 8) (size 9 to 14) (size 15 to 20)
#    0.000    0.750    2.500    5.625    0.000    5.000 
#    0.000    5.000    0.000    0.000    0.000    0.000 
#    0.000    0.000    0.000    0.000    0.000    0.000 
#
# Total GULP energy -794137.197681 kJ/mol
# GULP energy per Si atom -12408.393714 kJ/mol
# Density = 2.088016 g / cm^3
# Si number density = 20.927792 Si / 1000 Ang^3
#
#
#
# Elastic Constant Matrix: (Units=GPa)
#
#
# Indices 1 2 3 4 5 6 
#
# 1 129.5773 13.6622 31.4770 0.0000 0.0000 0.0000
# 2 13.6622 79.5869 11.6949 0.0000 0.0000 0.0000
# 3 31.4770 11.6949 61.3308 0.0000 0.0000 0.0000
# 4 0.0000 0.0000 0.0000 36.2296 0.0000 0.0000
# 5 0.0000 0.0000 0.0000 0.0000 35.3677 0.0000
# 6 0.0000 0.0000 0.0000 0.0000 0.0000 5.6722
#
#
#
# Elastic Compliance Matrix: (Units=1/GPa)
#
#
# Indices 1 2 3 4 5 6 
#
# 1 0.008876 -0.000879 -0.004388 0.000000 0.000000 0.000000
# 2 -0.000879 0.013014 -0.002031 0.000000 0.000000 0.000000
# 3 -0.004388 -0.002031 0.018944 0.000000 0.000000 0.000000
# 4 0.000000 0.000000 0.000000 0.027602 0.000000 0.000000
# 5 0.000000 0.000000 0.000000 0.000000 0.028274 0.000000
# 6 0.000000 0.000000 0.000000 0.000000 0.000000 0.176300
#
#
# Mechanical properties :
#
#
# Convention : Reuss Voigt Hill
#
# Bulk Modulus (GPa) = 38.11016 42.68482 40.39749
# Shear Modulus (GPa) = 16.87188 29.69795 23.28491
#
# Velocity S-wave (km/s) = 2.84244 3.77114 3.33923
# Velocity P-wave (km/s) = 5.38725 6.27714 5.84914
#
# Compressibility (1/GPa) = 0.02623972
#
# Stress axis : x y z
#
# Youngs Moduli (GPa) = 112.66374 76.83955 52.78664
#
# Poissons Ratio (x) = 0.06754 0.23162
# Poissons Ratio (y) = 0.09902 0.10718
# Poissons Ratio (z) = 0.49435 0.15602
#
# Static dielectric constant tensor:
#      x y z
#    x 4.047230 0.000000 0.000000 
#    y 0.000000 3.772590 0.000000 
#    z 0.000000 0.000000 3.764370 
# 
# 
# High freq. dielectric constant tensor:
#      x y z
#    x 1.837470 0.000000 0.000000 
#    y 0.000000 1.815790 0.000000 
#    z 0.000000 0.000000 1.828470 
# 
# From -- ./inp_files/4415.got.cif
#   From: 2010.03.12/outbox.cif.g09.slc.cpg/sg49_3_cif.got.tgz:4415.got - 2010.04.14 03:58:27.
