data_PCOD8204549
_publ_section_title
;
Structure prediction by ZEFSAII (Michael W. Deem and Ramdas Pophale) SiO2 
 PCOD8204549
Probable space group: P C C M
;
_chemical_formula_sum "Si O2"
_cell_formula_units_Z 26
_cell_length_a 7.215596
_cell_length_b 6.373753
_cell_length_c 27.181871
_cell_angle_alpha 90.000000
_cell_angle_beta 90.000000
_cell_angle_gamma 90.000000
_cell_volume 1250.105844
_symmetry_space_group_name_H-M "P C C M"
_symmetry_group_IT_number 49
_symmetry_cell_setting 'orthorhombic'
loop_
_space_group_symop_operation_xyz
x,y,z
-x,-y,z
x,-y,1/2-z
-x,y,1/2-z
-x,-y,-z
x,y,-z
-x,y,1/2+z
x,-y,1/2+z
loop_
_atom_site_type_symbol
_atom_site_label
_atom_site_fract_x
_atom_site_fract_y
_atom_site_fract_z
Si Si1 0.360088 0.815801 0.554580
Si Si2 0.860221 0.308256 0.828227
Si Si3 0.000000 0.000000 0.090616
Si Si4 0.500000 0.500000 0.632549
Si Si5 0.000000 0.000000 0.750000
O O1 0.397928 0.721676 0.500000
O O2 0.378619 0.646683 0.597336
O O3 0.153828 0.905417 0.555023
O O4 0.500000 0.000000 0.567083
O O5 0.915545 0.188280 0.877569
O O6 0.647095 0.383031 0.832483
O O7 0.867286 0.146251 0.782904
O O8 0.000000 0.500000 0.818380
#
# Coordination Sequence:
#
# PCOD8204549 Si02
#       5
#     8   8   4   4   2
#     4  11  23  39  62 100 140 175 223 266 307 373
#     4  11  23  44  71  94 131 163 216 269 328 395
#     4  11  21  41  67  94 130 182 215 259 325 369
#     4  12  23  42  71  98 130 178 212 263 333 378
#     4  10  26  48  72  94 122 166 212 276 330 396
#
# _framework density 20.798238000000001
#
# number of rings (size 3 to 8) (size 9 to 14) (size 15 to 20)
#    0.000    0.923    6.154    1.385    0.000    0.000 
#    0.000    6.154    0.000    0.000    0.000    0.000 
#    0.000    0.000    0.000    0.000    0.000    0.000 
#
# Total GULP energy -322476.618069 kJ/mol
# GULP energy per Si atom -12402.946849 kJ/mol
# Density = 2.075090 g / cm^3
# Si number density = 20.798238 Si / 1000 Ang^3
#
#
#
# Elastic Constant Matrix: (Units=GPa)
#
#
# Indices 1 2 3 4 5 6 
#
# 1 151.6873 53.8670 38.5974 0.0000 0.0000 0.0000
# 2 53.8670 104.9686 47.9600 0.0000 0.0000 0.0000
# 3 38.5974 47.9600 96.7873 0.0000 0.0000 0.0000
# 4 0.0000 0.0000 0.0000 -55.1815 0.0000 0.0000
# 5 0.0000 0.0000 0.0000 0.0000 26.7289 0.0000
# 6 0.0000 0.0000 0.0000 0.0000 0.0000 42.8174
#
#
#
# Elastic Compliance Matrix: (Units=1/GPa)
#
#
# Indices 1 2 3 4 5 6 
#
# 1 0.008235 -0.003523 -0.001538 0.000000 0.000000 0.000000
# 2 -0.003523 0.013822 -0.005444 0.000000 0.000000 0.000000
# 3 -0.001538 -0.005444 0.013643 0.000000 0.000000 0.000000
# 4 0.000000 0.000000 0.000000 -0.018122 0.000000 0.000000
# 5 0.000000 0.000000 0.000000 0.000000 0.037413 0.000000
# 6 0.000000 0.000000 0.000000 0.000000 0.000000 0.023355
#
#
# Mechanical properties :
#
#
# Convention : Reuss Voigt Hill
#
# Bulk Modulus (GPa) = 68.07764 70.47691 69.27727
# Shear Modulus (GPa) = 47.96013 17.07420 32.51716
#
# Velocity S-wave (km/s) = 4.80726 2.86832 3.95835
# Velocity P-wave (km/s) = 7.97599 6.70293 7.36701
#
# Compressibility (1/GPa) = 0.01468911
#
# Stress axis : x y z
#
# Youngs Moduli (GPa) = 121.43187 72.34809 73.29762
#
# Poissons Ratio (x) = 0.25490 0.11275
# Poissons Ratio (y) = 0.42783 0.39904
# Poissons Ratio (z) = 0.18679 0.39387
#
# Static dielectric constant tensor:
#      x y z
#    x 2.413940 0.000000 0.000000 
#    y 0.000000 3.930160 0.000000 
#    z 0.000000 0.000000 3.643300 
# 
# 
# High freq. dielectric constant tensor:
#      x y z
#    x 1.817440 0.000000 0.000000 
#    y 0.000000 1.822970 0.000000 
#    z 0.000000 0.000000 1.813290 
# 
# From -- ./inp_files/23594.got.cif
#   From: 2010.03.12/outbox.cif.g09.slc.cpg/sg49_12_cif.got.tgz:23594.got - 2010.04.14 03:58:27.
