data_PCOD8204541
_publ_section_title
;
Structure prediction by ZEFSAII (Michael W. Deem and Ramdas Pophale) SiO2 
 PCOD8204541
Probable space group: P C C M
;
_chemical_formula_sum "Si O2"
_cell_formula_units_Z 40
_cell_length_a 7.551906
_cell_length_b 8.162554
_cell_length_c 26.727410
_cell_angle_alpha 90.000000
_cell_angle_beta 90.000000
_cell_angle_gamma 90.000000
_cell_volume 1647.553472
_symmetry_space_group_name_H-M "P C C M"
_symmetry_group_IT_number 49
_symmetry_cell_setting 'orthorhombic'
loop_
_space_group_symop_operation_xyz
x,y,z
-x,-y,z
x,-y,1/2-z
-x,y,1/2-z
-x,-y,-z
x,y,-z
-x,y,1/2+z
x,-y,1/2+z
loop_
_atom_site_type_symbol
_atom_site_label
_atom_site_fract_x
_atom_site_fract_y
_atom_site_fract_z
Si Si1 0.196074 0.334370 0.730615
Si Si2 0.930968 0.681635 0.057438
Si Si3 0.673939 0.103076 0.308922
Si Si4 0.792795 0.177673 0.128586
Si Si5 0.435793 0.316819 0.892666
O O1 0.295933 0.500000 0.750000
O O2 0.268668 0.162069 0.753564
O O3 0.204945 0.322265 0.670588
O O4 0.000000 0.347902 0.750000
O O5 0.721157 0.705796 0.066905
O O6 0.000000 0.500000 0.070637
O O7 0.042851 0.807705 0.091131
O O8 0.968629 0.723976 0.000000
O O9 0.641162 0.273815 0.338038
O O10 0.500000 0.000000 0.302744
O O11 0.811129 0.996704 0.342518
O O12 0.606513 0.197197 0.097792
O O13 0.500000 0.500000 0.895171
#
# Coordination Sequence:
#
# PCOD8204541 Si02
#       5
#     8   8   8   8   8
#     4  11  24  40  68 103 141 188 236 285 341 424
#     4  11  25  44  73 104 136 181 242 309 370 425
#     4  10  24  44  66 101 145 193 230 284 349 427
#     4  11  24  43  69 100 144 185 233 293 352 424
#     4  11  22  41  69  97 137 182 236 291 351 427
#
# _framework density 24.278424999999999
#
# number of rings (size 3 to 8) (size 9 to 14) (size 15 to 20)
#    0.000    1.200    2.000    3.000    2.800   10.800 
#    0.000    7.000    0.000    3.600    0.000    0.000 
#    0.000    0.000    0.000    0.000    0.000    0.000 
#
# Total GULP energy -495861.727533 kJ/mol
# GULP energy per Si atom -12396.543188 kJ/mol
# Density = 2.422317 g / cm^3
# Si number density = 24.278425 Si / 1000 Ang^3
#
#
#
# Elastic Constant Matrix: (Units=GPa)
#
#
# Indices 1 2 3 4 5 6 
#
# 1 124.3809 37.6988 58.9603 0.0000 0.0000 0.0000
# 2 37.6988 96.7092 48.1050 0.0000 0.0000 0.0000
# 3 58.9603 48.1050 139.2794 0.0000 0.0000 0.0000
# 4 0.0000 0.0000 0.0000 27.8124 0.0000 0.0000
# 5 0.0000 0.0000 0.0000 0.0000 30.7930 0.0000
# 6 0.0000 0.0000 0.0000 0.0000 0.0000 29.4682
#
#
#
# Elastic Compliance Matrix: (Units=1/GPa)
#
#
# Indices 1 2 3 4 5 6 
#
# 1 0.010453 -0.002262 -0.003643 0.000000 0.000000 0.000000
# 2 -0.002262 0.012975 -0.003524 0.000000 0.000000 0.000000
# 3 -0.003643 -0.003524 0.009939 0.000000 0.000000 0.000000
# 4 0.000000 0.000000 0.000000 0.035955 0.000000 0.000000
# 5 0.000000 0.000000 0.000000 0.000000 0.032475 0.000000
# 6 0.000000 0.000000 0.000000 0.000000 0.000000 0.033935
#
#
# Mechanical properties :
#
#
# Convention : Reuss Voigt Hill
#
# Bulk Modulus (GPa) = 68.92802 72.21084 70.56943
# Shear Modulus (GPa) = 31.36242 31.98841 31.67542
#
# Velocity S-wave (km/s) = 3.59804 3.63377 3.61594
# Velocity P-wave (km/s) = 6.76117 6.88571 6.82373
#
# Compressibility (1/GPa) = 0.01450789
#
# Stress axis : x y z
#
# Youngs Moduli (GPa) = 95.66988 77.07198 100.61164
#
# Poissons Ratio (x) = 0.17436 0.36658
# Poissons Ratio (y) = 0.21643 0.35452
# Poissons Ratio (z) = 0.34857 0.27158
#
# Static dielectric constant tensor:
#      x y z
#    x 4.593480 0.000000 0.000000 
#    y 0.000000 7.432690 0.000000 
#    z 0.000000 0.000000 4.404260 
# 
# 
# High freq. dielectric constant tensor:
#      x y z
#    x 1.972470 0.000000 0.000000 
#    y 0.000000 1.973380 0.000000 
#    z 0.000000 0.000000 1.940430 
# 
# From -- ./inp_files/26175.got.cif
#   From: 2010.03.12/outbox.cif.g09.slc.cpg/sg49_14_cif.got.tgz:26175.got - 2010.04.14 03:58:27.
