data_PCOD8204936
_publ_section_title
;
Structure prediction by ZEFSAII (Michael W. Deem and Ramdas Pophale) SiO2 
 PCOD8204936
Probable space group: P B A N
;
_chemical_formula_sum "Si O2"
_cell_formula_units_Z 32
_cell_length_a 4.817340
_cell_length_b 15.469262
_cell_length_c 19.874052
_cell_angle_alpha 90.000000
_cell_angle_beta 90.000000
_cell_angle_gamma 90.000000
_cell_volume 1481.028160
_symmetry_space_group_name_H-M "P B A N"
_symmetry_group_IT_number 50
_space_group.IT_coordinate_system_code '2'
_symmetry_cell_setting 'orthorhombic'
loop_
_space_group_symop_operation_xyz
x,y,z
1/2-x,1/2-y,z
x,1/2-y,-z
1/2-x,y,-z
-x,-y,-z
1/2+x,1/2+y,-z
-x,1/2+y,z
1/2+x,-y,z
loop_
_atom_site_type_symbol
_atom_site_label
_atom_site_fract_x
_atom_site_fract_y
_atom_site_fract_z
Si Si1 0.001133 0.193136 0.323174
Si Si2 0.811233 0.442188 0.070118
Si Si3 0.249188 0.056559 0.578273
Si Si4 0.783395 0.061153 0.215362
O O1 0.750000 0.250000 0.354470
O O2 0.858191 0.136802 0.265684
O O3 0.250000 0.250000 0.290939
O O4 0.149314 0.139802 0.382106
O O5 0.634245 0.532195 0.069499
O O6 0.716589 0.396281 0.139856
O O7 0.750000 0.389576 0.000000
O O8 0.250000 0.080459 0.500000
O O9 0.439107 0.973200 0.597316
O O10 0.479440 0.021860 0.227377
#
# Coordination Sequence:
#
# PCOD8204936 Si02
#       4
#     8   8   8   8
#     4  12  24  37  55  84 119 150 184 231 283 338
#     4   8  14  25  45  75 103 130 176 233 275 310
#     4  10  21  40  63  83 106 142 188 233 278 335
#     4  10  19  34  56  79 108 148 190 231 276 332
#
# _framework density 21.60661
#
# number of rings (size 3 to 8) (size 9 to 14) (size 15 to 20)
#    0.000    2.000    0.000    4.500    0.000    0.500 
#    0.000    1.250    0.000    0.750    0.000    1.750 
#    0.000    0.000    0.000    0.000    0.000    0.000 
#
# Total GULP energy -396448.578407 kJ/mol
# GULP energy per Si atom -12389.018075 kJ/mol
# Density = 2.155743 g / cm^3
# Si number density = 21.606610 Si / 1000 Ang^3
#
#
#
# Elastic Constant Matrix: (Units=GPa)
#
#
# Indices 1 2 3 4 5 6 
#
# 1 81.3584 13.9476 22.0239 0.0000 0.0000 0.0000
# 2 13.9476 67.0337 50.0832 0.0000 0.0000 0.0000
# 3 22.0239 50.0832 124.2750 0.0000 0.0000 0.0000
# 4 0.0000 0.0000 0.0000 1.0770 0.0000 0.0000
# 5 0.0000 0.0000 0.0000 0.0000 31.7832 0.0000
# 6 0.0000 0.0000 0.0000 0.0000 0.0000 23.4835
#
#
#
# Elastic Compliance Matrix: (Units=1/GPa)
#
#
# Indices 1 2 3 4 5 6 
#
# 1 0.013003 -0.001408 -0.001737 0.000000 0.000000 0.000000
# 2 -0.001408 0.021497 -0.008414 0.000000 0.000000 0.000000
# 3 -0.001737 -0.008414 0.011745 0.000000 0.000000 0.000000
# 4 0.000000 0.000000 0.000000 0.928483 0.000000 0.000000
# 5 0.000000 0.000000 0.000000 0.000000 0.031463 0.000000
# 6 0.000000 0.000000 0.000000 0.000000 0.000000 0.042583
#
#
# Mechanical properties :
#
#
# Convention : Reuss Voigt Hill
#
# Bulk Modulus (GPa) = 43.23766 49.41959 46.32862
# Shear Modulus (GPa) = 4.63134 23.70957 14.17046
#
# Velocity S-wave (km/s) = 1.46565 3.31619 2.56371
# Velocity P-wave (km/s) = 4.78737 6.13065 5.50018
#
# Compressibility (1/GPa) = 0.02312798
#
# Stress axis : x y z
#
# Youngs Moduli (GPa) = 76.90625 46.51798 85.14016
#
# Poissons Ratio (x) = 0.06548 0.14789
# Poissons Ratio (y) = 0.10826 0.71636
# Poissons Ratio (z) = 0.13359 0.39140
#
# Static dielectric constant tensor:
#      x y z
#    x 4.347620 0.000000 0.000000 
#    y 0.000000 3.367050 0.000000 
#    z 0.000000 0.000000 4.229270 
# 
# 
# High freq. dielectric constant tensor:
#      x y z
#    x 1.880840 0.000000 0.000000 
#    y 0.000000 1.780390 0.000000 
#    z 0.000000 0.000000 1.865560 
# 
# From -- ./inp_files/30149.got.cif
#   From: 2010.03.12/outbox.cif.g09.slc.cpg/sg50_16_cif.got.tgz:30149.got - 2010.04.16 13:23:21.
