data_PCOD8204331
_publ_section_title
;
Structure prediction by ZEFSAII (Michael W. Deem and Ramdas Pophale) SiO2 
 PCOD8204331
Probable space group: P C C M
;
_chemical_formula_sum "Si O2"
_cell_formula_units_Z 48
_cell_length_a 17.815840
_cell_length_b 14.067250
_cell_length_c 9.101676
_cell_angle_alpha 90.000000
_cell_angle_beta 90.000000
_cell_angle_gamma 90.000000
_cell_volume 2281.060904
_symmetry_space_group_name_H-M "P C C M"
_symmetry_group_IT_number 49
_symmetry_cell_setting 'orthorhombic'
loop_
_space_group_symop_operation_xyz
x,y,z
-x,-y,z
x,-y,1/2-z
-x,y,1/2-z
-x,-y,-z
x,y,-z
-x,y,1/2+z
x,-y,1/2+z
loop_
_atom_site_type_symbol
_atom_site_label
_atom_site_fract_x
_atom_site_fract_y
_atom_site_fract_z
Si Si1 0.428278 0.596782 0.830930
Si Si2 0.108565 0.585042 0.500000
Si Si3 0.077006 0.089398 0.833195
Si Si4 0.066716 0.629769 0.000000
Si Si5 0.849308 0.279823 0.744052
Si Si6 0.317442 0.762768 0.164954
Si Si7 0.575758 0.898428 0.176475
O O1 0.407175 0.500000 0.750000
O O2 0.500000 0.644000 0.750000
O O3 0.357105 0.662732 0.813630
O O4 0.448786 0.577612 0.000000
O O5 0.111765 0.470623 0.500000
O O6 0.152556 0.628902 0.637736
O O7 0.022018 0.616561 0.500000
O O8 0.128025 0.182749 0.835966
O O9 0.000000 0.111501 0.750000
O O10 0.117113 0.000000 0.750000
O O11 0.061036 0.059060 0.000000
O O12 0.088406 0.693749 0.137205
O O13 0.769193 0.259333 0.813209
O O14 0.351504 0.835925 0.283094
O O15 0.330254 0.802918 0.000000
O O16 0.500000 0.854222 0.250000
O O17 0.589079 0.000000 0.250000
O O18 0.567265 0.905355 0.000000
#
# Coordination Sequence:
#
# PCOD8204331 Si02
#       7
#     8   4   8   4   8   8   8
#     4  10  21  39  62  90 121 163 211 258 309 371
#     4  11  24  44  69  99 128 167 235 281 343 422
#     4  11  24  41  67  96 126 166 214 267 326 397
#     4  11  24  44  71  95 128 179 219 287 347 408
#     4  12  25  43  65  98 137 174 221 280 345 402
#     4  11  25  43  61  93 134 175 218 267 331 389
#     4  11  23  42  72 103 137 178 223 272 322 387
#
# _framework density 21.042840000000002
#
# number of rings (size 3 to 8) (size 9 to 14) (size 15 to 20)
#    0.000    1.000    1.667    6.500    3.500    6.000 
#    0.000    0.000    0.000    0.000    0.000    0.000 
#    0.000    0.000    0.000    0.000    0.000    0.000 
#
# Total GULP energy -595135.079072 kJ/mol
# GULP energy per Si atom -12398.647481 kJ/mol
# Density = 2.099495 g / cm^3
# Si number density = 21.042840 Si / 1000 Ang^3
#
#
#
# Elastic Constant Matrix: (Units=GPa)
#
#
# Indices 1 2 3 4 5 6 
#
# 1 79.4552 30.5471 27.0783 0.0000 0.0000 0.0000
# 2 30.5471 93.8556 41.7188 0.0000 0.0000 0.0000
# 3 27.0783 41.7188 168.2586 0.0000 0.0000 0.0000
# 4 0.0000 0.0000 0.0000 44.1972 0.0000 0.0000
# 5 0.0000 0.0000 0.0000 0.0000 31.0285 0.0000
# 6 0.0000 0.0000 0.0000 0.0000 0.0000 28.1882
#
#
#
# Elastic Compliance Matrix: (Units=1/GPa)
#
#
# Indices 1 2 3 4 5 6 
#
# 1 0.014642 -0.004179 -0.001320 0.000000 0.000000 0.000000
# 2 -0.004179 0.013167 -0.002592 0.000000 0.000000 0.000000
# 3 -0.001320 -0.002592 0.006798 0.000000 0.000000 0.000000
# 4 0.000000 0.000000 0.000000 0.022626 0.000000 0.000000
# 5 0.000000 0.000000 0.000000 0.000000 0.032228 0.000000
# 6 0.000000 0.000000 0.000000 0.000000 0.000000 0.035476
#
#
# Mechanical properties :
#
#
# Convention : Reuss Voigt Hill
#
# Bulk Modulus (GPa) = 54.27361 60.02864 57.15113
# Shear Modulus (GPa) = 33.95315 36.83114 35.39215
#
# Velocity S-wave (km/s) = 4.02123 4.18819 4.10556
# Velocity P-wave (km/s) = 6.88537 7.20949 7.04929
#
# Compressibility (1/GPa) = 0.01842516
#
# Stress axis : x y z
#
# Youngs Moduli (GPa) = 68.29574 75.94785 147.09266
#
# Poissons Ratio (x) = 0.31736 0.19421
# Poissons Ratio (y) = 0.28539 0.38129
# Poissons Ratio (z) = 0.09017 0.19687
#
# Static dielectric constant tensor:
#      x y z
#    x 4.325410 0.000000 0.000000 
#    y 0.000000 3.967860 0.000000 
#    z 0.000000 0.000000 3.324230 
# 
# 
# High freq. dielectric constant tensor:
#      x y z
#    x 1.811530 0.000000 0.000000 
#    y 0.000000 1.835320 0.000000 
#    z 0.000000 0.000000 1.842390 
# 
# From -- ./inp_files/4910.got.cif
#   From: 2010.03.12/outbox.cif.g09.slc.cpg/sg49_3_cif.got.tgz:4910.got - 2010.04.14 03:58:27.
