data_PCOD8204102
_publ_section_title
;
Structure prediction by ZEFSAII (Michael W. Deem and Ramdas Pophale) SiO2 
 PCOD8204102
Probable space group: P C C M
;
_chemical_formula_sum "Si O2"
_cell_formula_units_Z 48
_cell_length_a 17.540363
_cell_length_b 13.927577
_cell_length_c 10.072532
_cell_angle_alpha 90.000000
_cell_angle_beta 90.000000
_cell_angle_gamma 90.000000
_cell_volume 2460.666750
_symmetry_space_group_name_H-M "P C C M"
_symmetry_group_IT_number 49
_symmetry_cell_setting 'orthorhombic'
loop_
_space_group_symop_operation_xyz
x,y,z
-x,-y,z
x,-y,1/2-z
-x,y,1/2-z
-x,-y,-z
x,y,-z
-x,y,1/2+z
x,-y,1/2+z
loop_
_atom_site_type_symbol
_atom_site_label
_atom_site_fract_x
_atom_site_fract_y
_atom_site_fract_z
Si Si1 0.924022 0.226918 0.000000
Si Si2 0.100452 0.222848 0.000000
Si Si3 0.143190 0.112177 0.262459
Si Si4 0.306532 0.611579 0.241055
Si Si5 0.431098 0.250296 0.348054
Si Si6 0.310219 0.082608 0.650155
Si Si7 0.199523 0.389178 0.500000
Si Si8 0.216631 0.385743 0.000000
O O1 0.908394 0.162286 0.872208
O O2 0.878725 0.328561 0.000000
O O3 0.012478 0.251492 0.000000
O O4 0.125856 0.160822 0.875857
O O5 0.139888 0.325884 0.000000
O O6 0.231150 0.128247 0.301037
O O7 0.122950 0.000000 0.250000
O O8 0.323315 0.500000 0.250000
O O9 0.388116 0.657963 0.211965
O O10 0.268858 0.645121 0.377159
O O11 0.247469 0.641757 0.127461
O O12 0.500000 0.226146 0.250000
O O13 0.458728 0.269871 0.500000
O O14 0.374554 0.161637 0.346186
O O15 0.300277 0.042069 0.500000
O O16 0.336698 0.000000 0.750000
O O17 0.187380 0.504001 0.500000
#
# Coordination Sequence:
#
# PCOD8204102 Si02
#       8
#     4   4   8   8   8   8   4   4
#     4  12  23  39  62  86 123 167 198 243 318 367
#     4  12  25  37  58  92 125 159 200 255 306 367
#     4  11  24  41  61  88 119 160 209 252 299 355
#     4  10  21  40  64  89 117 158 202 246 294 353
#     4  11  24  41  61  91 127 162 195 241 303 359
#     4  10  22  41  66  89 117 159 206 250 294 352
#     4  10  20  40  66  86 117 161 205 252 300 364
#     4  10  22  38  62  94 119 151 209 258 300 350
#
# _framework density 19.506909
#
# number of rings (size 3 to 8) (size 9 to 14) (size 15 to 20)
#    0.000    1.333    1.667    4.000    4.667    3.667 
#    0.000    2.500    0.000    5.000    0.000    0.000 
#    0.000    0.000    0.000    0.000    0.000    0.000 
#
# Total GULP energy -595315.915396 kJ/mol
# GULP energy per Si atom -12402.414904 kJ/mol
# Density = 1.946251 g / cm^3
# Si number density = 19.506909 Si / 1000 Ang^3
#
#
#
# Elastic Constant Matrix: (Units=GPa)
#
#
# Indices 1 2 3 4 5 6 
#
# 1 87.9215 30.8383 51.3627 0.0000 0.0000 0.0000
# 2 30.8383 70.5748 43.3468 0.0000 0.0000 0.0000
# 3 51.3627 43.3468 178.6954 0.0000 0.0000 0.0000
# 4 0.0000 0.0000 0.0000 49.7214 0.0000 0.0000
# 5 0.0000 0.0000 0.0000 0.0000 13.0582 0.0000
# 6 0.0000 0.0000 0.0000 0.0000 0.0000 11.6956
#
#
#
# Elastic Compliance Matrix: (Units=1/GPa)
#
#
# Indices 1 2 3 4 5 6 
#
# 1 0.014807 -0.004531 -0.003157 0.000000 0.000000 0.000000
# 2 -0.004531 0.018037 -0.003073 0.000000 0.000000 0.000000
# 3 -0.003157 -0.003073 0.007249 0.000000 0.000000 0.000000
# 4 0.000000 0.000000 0.000000 0.020112 0.000000 0.000000
# 5 0.000000 0.000000 0.000000 0.000000 0.076580 0.000000
# 6 0.000000 0.000000 0.000000 0.000000 0.000000 0.085502
#
#
# Mechanical properties :
#
#
# Convention : Reuss Voigt Hill
#
# Bulk Modulus (GPa) = 53.84754 65.36524 59.60639
# Shear Modulus (GPa) = 19.99999 29.00462 24.50231
#
# Velocity S-wave (km/s) = 3.20547 3.86020 3.54797
# Velocity P-wave (km/s) = 6.43151 7.31093 6.88528
#
# Compressibility (1/GPa) = 0.01857095
#
# Stress axis : x y z
#
# Youngs Moduli (GPa) = 67.53399 55.44277 137.95198
#
# Poissons Ratio (x) = 0.25122 0.43551
# Poissons Ratio (y) = 0.30601 0.42390
# Poissons Ratio (z) = 0.21320 0.17036
#
# Static dielectric constant tensor:
#      x y z
#    x 3.486500 0.000000 0.000000 
#    y 0.000000 3.666820 0.000000 
#    z 0.000000 0.000000 3.959090 
# 
# 
# High freq. dielectric constant tensor:
#      x y z
#    x 1.751980 0.000000 0.000000 
#    y 0.000000 1.766210 0.000000 
#    z 0.000000 0.000000 1.785060 
# 
# From -- ./inp_files/3790.got.cif
#   From: 2010.03.12/outbox.cif.g09.slc.cpg/sg49_2_cif.got.tgz:3790.got - 2010.04.14 03:58:27.
