data_PCOD8204022
_publ_section_title
;
Structure prediction by ZEFSAII (Michael W. Deem and Ramdas Pophale) SiO2 
 PCOD8204022
Probable space group: P C C M
;
_chemical_formula_sum "Si O2"
_cell_formula_units_Z 58
_cell_length_a 16.904010
_cell_length_b 20.018709
_cell_length_c 8.428709
_cell_angle_alpha 90.000000
_cell_angle_beta 90.000000
_cell_angle_gamma 90.000000
_cell_volume 2852.245264
_symmetry_space_group_name_H-M "P C C M"
_symmetry_group_IT_number 49
_symmetry_cell_setting 'orthorhombic'
loop_
_space_group_symop_operation_xyz
x,y,z
-x,-y,z
x,-y,1/2-z
-x,y,1/2-z
-x,-y,-z
x,y,-z
-x,y,1/2+z
x,-y,1/2+z
loop_
_atom_site_type_symbol
_atom_site_label
_atom_site_fract_x
_atom_site_fract_y
_atom_site_fract_z
Si Si1 0.500000 0.500000 0.750000
Si Si2 0.194439 0.204434 0.813599
Si Si3 0.253257 0.071099 0.313552
Si Si4 0.086988 0.313081 0.686729
Si Si5 0.199218 0.570656 0.187011
Si Si6 0.622209 0.401331 0.188470
Si Si7 0.419788 0.873542 0.812855
Si Si8 0.362421 0.260162 0.185689
O O1 0.434760 0.554998 0.691607
O O2 0.196260 0.127835 0.757009
O O3 0.118758 0.240715 0.738842
O O4 0.273593 0.242572 0.756533
O O5 0.186290 0.205705 0.000000
O O6 0.245428 0.073089 0.500000
O O7 0.344106 0.083119 0.258657
O O8 0.224140 0.000000 0.250000
O O9 0.085493 0.316765 0.500000
O O10 0.143779 0.370986 0.758016
O O11 0.000000 0.325327 0.750000
O O12 0.167680 0.500000 0.250000
O O13 0.288921 0.582636 0.242969
O O14 0.194467 0.571471 0.000000
O O15 0.606093 0.323379 0.215938
O O16 0.605248 0.418770 0.000000
O O17 0.500000 0.909378 0.750000
O O18 0.418165 0.801779 0.727386
O O19 0.420879 0.864058 0.000000
O O20 0.365391 0.275909 0.000000
#
# Coordination Sequence:
#
# PCOD8204022 Si02
#       8
#     2   8   8   8   8   8   8   8
#     4  12  26  40  56  82 112 152 206 258 310 364
#     4  10  20  37  62  91 120 154 197 243 292 354
#     4  10  21  37  59  87 120 161 204 249 297 357
#     4  11  23  40  63  93 124 157 198 247 303 362
#     4  10  22  40  62  85 116 160 201 245 305 369
#     4  11  23  40  58  79 111 151 198 251 305 360
#     4  10  21  36  54  79 114 153 197 248 303 355
#     4  10  21  36  58  82 107 146 193 242 297 355
#
# _framework density 20.334855999999998
#
# number of rings (size 3 to 8) (size 9 to 14) (size 15 to 20)
#    0.000    1.655    2.069    2.276    0.966    6.069 
#    0.000    2.759    0.000    0.414    0.000    2.897 
#    0.000    0.000    0.000    0.000    0.000    0.000 
#
# Total GULP energy -718752.438251 kJ/mol
# GULP energy per Si atom -12392.283418 kJ/mol
# Density = 2.028857 g / cm^3
# Si number density = 20.334856 Si / 1000 Ang^3
#
#
#
# Elastic Constant Matrix: (Units=GPa)
#
#
# Indices 1 2 3 4 5 6 
#
# 1 123.7593 55.4099 26.7419 0.0000 0.0000 0.0000
# 2 55.4099 139.7967 23.0091 0.0000 0.0000 0.0000
# 3 26.7419 23.0091 51.2143 0.0000 0.0000 0.0000
# 4 0.0000 0.0000 0.0000 25.6379 0.0000 0.0000
# 5 0.0000 0.0000 0.0000 0.0000 21.4639 0.0000
# 6 0.0000 0.0000 0.0000 0.0000 0.0000 6.9190
#
#
#
# Elastic Compliance Matrix: (Units=1/GPa)
#
#
# Indices 1 2 3 4 5 6 
#
# 1 0.010499 -0.003519 -0.003901 0.000000 0.000000 0.000000
# 2 -0.003519 0.008904 -0.002163 0.000000 0.000000 0.000000
# 3 -0.003901 -0.002163 0.022534 0.000000 0.000000 0.000000
# 4 0.000000 0.000000 0.000000 0.039005 0.000000 0.000000
# 5 0.000000 0.000000 0.000000 0.000000 0.046590 0.000000
# 6 0.000000 0.000000 0.000000 0.000000 0.000000 0.144529
#
#
# Mechanical properties :
#
#
# Convention : Reuss Voigt Hill
#
# Bulk Modulus (GPa) = 43.91478 58.34358 51.12918
# Shear Modulus (GPa) = 16.73265 24.77812 20.75538
#
# Velocity S-wave (km/s) = 2.87166 3.49450 3.19827
# Velocity P-wave (km/s) = 5.71296 6.71086 6.23192
#
# Compressibility (1/GPa) = 0.02277138
#
# Stress axis : x y z
#
# Youngs Moduli (GPa) = 95.24944 112.30785 44.37674
#
# Poissons Ratio (x) = 0.39524 0.17311
# Poissons Ratio (y) = 0.33521 0.09598
# Poissons Ratio (z) = 0.37156 0.24289
#
# Static dielectric constant tensor:
#      x y z
#    x 3.716250 0.000000 0.000000 
#    y 0.000000 3.849320 0.000000 
#    z 0.000000 0.000000 3.525010 
# 
# 
# High freq. dielectric constant tensor:
#      x y z
#    x 1.779890 0.000000 0.000000 
#    y 0.000000 1.802090 0.000000 
#    z 0.000000 0.000000 1.786250 
# 
# From -- ./inp_files/5115.got.cif
#   From: 2010.03.12/outbox.cif.g09.slc.cpg/sg49_3_cif.got.tgz:5115.got - 2010.04.14 03:58:27.
