data_PCOD8204914
_publ_section_title
;
Structure prediction by ZEFSAII (Michael W. Deem and Ramdas Pophale) SiO2 
 PCOD8204914
Probable space group: P B A N
;
_chemical_formula_sum "Si O2"
_cell_formula_units_Z 40
_cell_length_a 5.203455
_cell_length_b 14.850044
_cell_length_c 23.504682
_cell_angle_alpha 90.000000
_cell_angle_beta 90.000000
_cell_angle_gamma 90.000000
_cell_volume 1816.242874
_symmetry_space_group_name_H-M "P B A N"
_symmetry_group_IT_number 50
_space_group.IT_coordinate_system_code '2'
_symmetry_cell_setting 'orthorhombic'
loop_
_space_group_symop_operation_xyz
x,y,z
1/2-x,1/2-y,z
x,1/2-y,-z
1/2-x,y,-z
-x,-y,-z
1/2+x,1/2+y,-z
-x,1/2+y,z
1/2+x,-y,z
loop_
_atom_site_type_symbol
_atom_site_label
_atom_site_fract_x
_atom_site_fract_y
_atom_site_fract_z
Si Si1 0.496963 0.851197 0.975228
Si Si2 0.756785 0.354488 0.373933
Si Si3 0.248052 0.357709 0.564679
Si Si4 0.611180 0.442314 0.865501
Si Si5 0.608570 0.055593 0.262696
O O1 0.465704 0.858600 0.906802
O O2 0.498129 0.750000 0.000000
O O3 0.750000 0.900326 0.000000
O O4 0.250000 0.903512 0.000000
O O5 0.750000 0.250000 0.387020
O O6 0.494180 0.396807 0.399306
O O7 0.804171 0.367895 0.306762
O O8 0.996134 0.398725 0.407036
O O9 0.250000 0.250000 0.567214
O O10 0.250000 0.392038 0.500000
O O11 0.396730 0.519188 0.876516
O O12 0.614966 0.404654 0.801163
O O13 0.314864 0.024529 0.272206
#
# Coordination Sequence:
#
# PCOD8204914 Si02
#       5
#     8   8   8   8   8
#     4  10  21  37  56  82 116 143 178 224 282 332
#     4  10  19  33  55  83 108 140 191 233 277 328
#     4   9  17  30  52  80 112 144 183 233 279 326
#     4  10  21  37  59  83 108 146 193 226 263 333
#     4  10  21  38  58  79 111 149 185 226 279 328
#
# _framework density 22.023485999999998
#
# number of rings (size 3 to 8) (size 9 to 14) (size 15 to 20)
#    0.000    2.200    0.000    3.000    0.000    4.800 
#    3.600    0.000    8.800   12.000    0.000    0.000 
#    0.000    0.000    0.000    0.000    0.000    0.000 
#
# Total GULP energy -495594.391165 kJ/mol
# GULP energy per Si atom -12389.859779 kJ/mol
# Density = 2.197336 g / cm^3
# Si number density = 22.023486 Si / 1000 Ang^3
#
#
#
# Elastic Constant Matrix: (Units=GPa)
#
#
# Indices 1 2 3 4 5 6 
#
# 1 196.4825 10.0781 72.3622 0.0000 0.0000 0.0000
# 2 10.0781 23.9733 30.7687 0.0000 0.0000 0.0000
# 3 72.3622 30.7687 195.3267 0.0000 0.0000 0.0000
# 4 0.0000 0.0000 0.0000 -23.9107 0.0000 0.0000
# 5 0.0000 0.0000 0.0000 0.0000 41.7307 0.0000
# 6 0.0000 0.0000 0.0000 0.0000 0.0000 4.1921
#
#
#
# Elastic Compliance Matrix: (Units=1/GPa)
#
#
# Indices 1 2 3 4 5 6 
#
# 1 0.005897 0.000407 -0.002249 0.000000 0.000000 0.000000
# 2 0.000407 0.052312 -0.008391 0.000000 0.000000 0.000000
# 3 -0.002249 -0.008391 0.007275 0.000000 0.000000 0.000000
# 4 0.000000 0.000000 0.000000 -0.041822 0.000000 0.000000
# 5 0.000000 0.000000 0.000000 0.000000 0.023963 0.000000
# 6 0.000000 0.000000 0.000000 0.000000 0.000000 0.238545
#
#
# Mechanical properties :
#
#
# Convention : Reuss Voigt Hill
#
# Bulk Modulus (GPa) = 22.21355 71.35562 46.78458
# Shear Modulus (GPa) = 15.54531 24.57397 20.05964
#
# Velocity S-wave (km/s) = 2.65967 3.34399 3.02127
# Velocity P-wave (km/s) = 4.42040 6.88330 5.78445
#
# Compressibility (1/GPa) = 0.04501757
#
# Stress axis : x y z
#
# Youngs Moduli (GPa) = 169.58341 19.11617 137.46604
#
# Poissons Ratio (x) = -0.00778 0.30912
# Poissons Ratio (y) = -0.06905 1.15351
# Poissons Ratio (z) = 0.38134 0.16041
#
# Static dielectric constant tensor:
#      x y z
#    x 5.901200 0.000000 0.000000 
#    y 0.000000 3.215840 0.000000 
#    z 0.000000 0.000000 4.177910 
# 
# 
# High freq. dielectric constant tensor:
#      x y z
#    x 1.900950 0.000000 0.000000 
#    y 0.000000 1.807030 0.000000 
#    z 0.000000 0.000000 1.878860 
# 
# From -- ./inp_files/28065.got.cif
#   From: 2010.03.12/outbox.cif.g09.slc.cpg/sg50_15_cif.got.tgz:28065.got - 2010.04.16 13:23:21.
