data_PCOD8204963
_publ_section_title
;
Structure prediction by ZEFSAII (Michael W. Deem and Ramdas Pophale) SiO2 
 PCOD8204963
Probable space group: P B A N
;
_chemical_formula_sum "Si O2"
_cell_formula_units_Z 64
_cell_length_a 19.954990
_cell_length_b 17.929576
_cell_length_c 9.241499
_cell_angle_alpha 90.000000
_cell_angle_beta 90.000000
_cell_angle_gamma 90.000000
_cell_volume 3306.465189
_symmetry_space_group_name_H-M "P B A N"
_symmetry_group_IT_number 50
_space_group.IT_coordinate_system_code '2'
_symmetry_cell_setting 'orthorhombic'
loop_
_space_group_symop_operation_xyz
x,y,z
1/2-x,1/2-y,z
x,1/2-y,-z
1/2-x,y,-z
-x,-y,-z
1/2+x,1/2+y,-z
-x,1/2+y,z
1/2+x,-y,z
loop_
_atom_site_type_symbol
_atom_site_label
_atom_site_fract_x
_atom_site_fract_y
_atom_site_fract_z
Si Si1 0.935925 0.332285 0.015818
Si Si2 0.626682 0.482724 0.317637
Si Si3 0.453989 0.327261 0.468576
Si Si4 0.185392 0.704788 0.793480
Si Si5 0.107294 0.033290 0.371181
Si Si6 0.991870 0.926037 0.259017
Si Si7 0.085251 0.826240 0.694982
Si Si8 0.767512 0.449396 0.331550
O O1 0.859677 0.324623 0.074467
O O2 0.981291 0.385026 0.115634
O O3 0.969057 0.250000 0.000000
O O4 0.929399 0.362521 0.853969
O O5 0.624657 0.532449 0.460069
O O6 0.572414 0.522866 0.212066
O O7 0.611546 0.400292 0.383383
O O8 0.700861 0.477229 0.244980
O O9 0.413530 0.250000 0.500000
O O10 0.413426 0.379707 0.354615
O O11 0.473729 0.366370 0.618775
O O12 0.519703 0.297308 0.384600
O O13 0.250000 0.750000 0.850880
O O14 0.138541 0.758542 0.694823
O O15 0.210804 0.634801 0.701644
O O16 0.045850 0.981759 0.326247
O O17 0.173528 0.006994 0.285021
O O18 0.750000 0.453563 0.500000
#
# Coordination Sequence:
#
# PCOD8204963 Si02
#       8
#     8   8   8   8   8   8   8   8
#     4  10  23  36  50  79 116 155 183 230 284 329
#     4  10  19  35  55  81 106 150 189 234 275 334
#     4  11  21  34  59  84 108 141 190 241 280 337
#     4  11  21  35  50  77 120 160 179 217 276 350
#     4  10  19  36  55  80 115 146 182 235 296 330
#     4  11  19  38  59  77 114 152 186 235 290 328
#     4  11  21  34  51  83 114 144 196 222 269 343
#     4  10  21  35  54  82 116 151 189 236 281 340
#
# _framework density 19.356017999999999
#
# number of rings (size 3 to 8) (size 9 to 14) (size 15 to 20)
#    0.000    1.500    5.000    2.250    0.000    3.000 
#    2.250    0.000    0.000    9.375    0.000    0.000 
#    0.000    3.000    0.000    0.000    0.000    0.000 
#
# Total GULP energy -792841.928084 kJ/mol
# GULP energy per Si atom -12388.155126 kJ/mol
# Density = 1.931196 g / cm^3
# Si number density = 19.356018 Si / 1000 Ang^3
#
#
#
# Elastic Constant Matrix: (Units=GPa)
#
#
# Indices 1 2 3 4 5 6 
#
# 1 128.0125 74.9845 23.6150 0.0000 0.0000 0.0000
# 2 74.9845 136.6348 18.8121 0.0000 0.0000 0.0000
# 3 23.6150 18.8121 36.2880 0.0000 0.0000 0.0000
# 4 0.0000 0.0000 0.0000 22.5467 0.0000 0.0000
# 5 0.0000 0.0000 0.0000 0.0000 14.2369 0.0000
# 6 0.0000 0.0000 0.0000 0.0000 0.0000 40.3270
#
#
#
# Elastic Compliance Matrix: (Units=1/GPa)
#
#
# Indices 1 2 3 4 5 6 
#
# 1 0.012252 -0.006059 -0.004832 0.000000 0.000000 0.000000
# 2 -0.006059 0.010877 -0.001696 0.000000 0.000000 0.000000
# 3 -0.004832 -0.001696 0.031581 0.000000 0.000000 0.000000
# 4 0.000000 0.000000 0.000000 0.044352 0.000000 0.000000
# 5 0.000000 0.000000 0.000000 0.000000 0.070240 0.000000
# 6 0.000000 0.000000 0.000000 0.000000 0.000000 0.024797
#
#
# Mechanical properties :
#
#
# Convention : Reuss Voigt Hill
#
# Bulk Modulus (GPa) = 33.85652 59.52874 46.69263
# Shear Modulus (GPa) = 21.82263 27.65702 24.73983
#
# Velocity S-wave (km/s) = 3.36137 3.78413 3.57900
# Velocity P-wave (km/s) = 5.70916 7.06500 6.42296
#
# Compressibility (1/GPa) = 0.02953641
#
# Stress axis : x y z
#
# Youngs Moduli (GPa) = 81.61915 91.93538 31.66423
#
# Poissons Ratio (x) = 0.55699 0.15301
# Poissons Ratio (y) = 0.49449 0.05371
# Poissons Ratio (z) = 0.39441 0.15594
#
# Static dielectric constant tensor:
#      x y z
#    x 4.031150 0.000000 0.000000 
#    y 0.000000 3.804780 0.000000 
#    z 0.000000 0.000000 3.344810 
# 
# 
# High freq. dielectric constant tensor:
#      x y z
#    x 1.745240 0.000000 0.000000 
#    y 0.000000 1.757180 0.000000 
#    z 0.000000 0.000000 1.723180 
# 
# From -- ./inp_files/15496.got.cif
#   From: 2010.03.12/outbox.cif.g09.slc.cpg/sg50_8_cif.got.tgz:15496.got - 2010.04.16 13:23:21.
