data_PCOD8204392
_publ_section_title
;
Structure prediction by ZEFSAII (Michael W. Deem and Ramdas Pophale) SiO2 
 PCOD8204392
Probable space group: P C C M
;
_chemical_formula_sum "Si O2"
_cell_formula_units_Z 28
_cell_length_a 5.053125
_cell_length_b 11.209756
_cell_length_c 19.353485
_cell_angle_alpha 90.000000
_cell_angle_beta 90.000000
_cell_angle_gamma 90.000000
_cell_volume 1096.264577
_symmetry_space_group_name_H-M "P C C M"
_symmetry_group_IT_number 49
_symmetry_cell_setting 'orthorhombic'
loop_
_space_group_symop_operation_xyz
x,y,z
-x,-y,z
x,-y,1/2-z
-x,y,1/2-z
-x,-y,-z
x,y,-z
-x,y,1/2+z
x,-y,1/2+z
loop_
_atom_site_type_symbol
_atom_site_label
_atom_site_fract_x
_atom_site_fract_y
_atom_site_fract_z
Si Si1 0.228504 0.324661 0.647805
Si Si2 0.656923 0.875634 0.000000
Si Si3 0.349913 0.375544 0.500000
Si Si4 0.500000 0.500000 0.750000
Si Si5 0.000000 0.000000 0.250000
Si Si6 0.746350 0.173062 0.647880
O O1 0.183635 0.376935 0.570726
O O2 0.309165 0.424980 0.701202
O O3 0.442382 0.216604 0.650181
O O4 0.940271 0.279889 0.670186
O O5 0.826246 0.874677 0.070914
O O6 0.500000 0.000000 0.000000
O O7 0.508985 0.748416 0.000000
O O8 0.500000 0.500000 0.500000
O O9 0.207783 0.929398 0.296991
#
# Coordination Sequence:
#
# PCOD8204392 Si02
#       6
#     8   4   4   2   2   8
#     4  11  25  46  70 106 146 190 250 309 375 444
#     4  10  25  49  80 110 148 196 258 316 376 442
#     4  10  21  46  71 109 137 192 238 314 362 434
#     4  12  24  44  76 100 152 200 248 302 386 472
#     4  12  28  44  76 100 156 196 244 302 382 460
#     4  11  27  47  70 109 145 194 249 314 373 448
#
# _framework density 25.541281999999999
#
# number of rings (size 3 to 8) (size 9 to 14) (size 15 to 20)
#    0.000    1.143    1.429    2.571    8.000    4.000 
#    0.000    2.857    0.000    0.000    0.000    0.000 
#    0.000    0.000    0.000    0.000    0.000    0.000 
#
# Total GULP energy -347043.757893 kJ/mol
# GULP energy per Si atom -12394.419925 kJ/mol
# Density = 2.548315 g / cm^3
# Si number density = 25.541282 Si / 1000 Ang^3
#
#
#
# Elastic Constant Matrix: (Units=GPa)
#
#
# Indices 1 2 3 4 5 6 
#
# 1 59.3629 15.8108 -5.1432 0.0000 0.0000 0.0000
# 2 15.8108 152.4983 51.1187 0.0000 0.0000 0.0000
# 3 -5.1432 51.1187 194.4591 0.0000 0.0000 0.0000
# 4 0.0000 0.0000 0.0000 58.6507 0.0000 0.0000
# 5 0.0000 0.0000 0.0000 0.0000 11.2593 0.0000
# 6 0.0000 0.0000 0.0000 0.0000 0.0000 23.3565
#
#
#
# Elastic Compliance Matrix: (Units=1/GPa)
#
#
# Indices 1 2 3 4 5 6 
#
# 1 0.017510 -0.002161 0.001031 0.000000 0.000000 0.000000
# 2 -0.002161 0.007458 -0.002018 0.000000 0.000000 0.000000
# 3 0.001031 -0.002018 0.005700 0.000000 0.000000 0.000000
# 4 0.000000 0.000000 0.000000 0.017050 0.000000 0.000000
# 5 0.000000 0.000000 0.000000 0.000000 0.088816 0.000000
# 6 0.000000 0.000000 0.000000 0.000000 0.000000 0.042815
#
#
# Mechanical properties :
#
#
# Convention : Reuss Voigt Hill
#
# Bulk Modulus (GPa) = 41.02837 58.87697 49.95267
# Shear Modulus (GPa) = 25.80397 41.62223 33.71310
#
# Velocity S-wave (km/s) = 3.18195 4.04122 3.63705
# Velocity P-wave (km/s) = 5.44042 6.69903 6.10226
#
# Compressibility (1/GPa) = 0.02437338
#
# Stress axis : x y z
#
# Youngs Moduli (GPa) = 57.10866 134.08691 175.43429
#
# Poissons Ratio (x) = 0.28978 -0.18092
# Poissons Ratio (y) = 0.12342 0.35397
# Poissons Ratio (z) = -0.05889 0.27054
#
# Static dielectric constant tensor:
#      x y z
#    x 4.147510 0.000000 0.000000 
#    y 0.000000 4.555790 0.000000 
#    z 0.000000 0.000000 5.826140 
# 
# 
# High freq. dielectric constant tensor:
#      x y z
#    x 1.989020 0.000000 0.000000 
#    y 0.000000 2.032730 0.000000 
#    z 0.000000 0.000000 2.062490 
# 
# From -- ./inp_files/18696.got.cif
#   From: 2010.03.12/outbox.cif.g09.slc.cpg/sg49_10_cif.got.tgz:18696.got - 2010.04.14 03:58:27.
