data_PCOD8204822
_publ_section_title
;
Structure prediction by ZEFSAII (Michael W. Deem and Ramdas Pophale) SiO2 
 PCOD8204822
Probable space group: P B A N
;
_chemical_formula_sum "Si O2"
_cell_formula_units_Z 48
_cell_length_a 15.798665
_cell_length_b 17.800893
_cell_length_c 9.341203
_cell_angle_alpha 90.000000
_cell_angle_beta 90.000000
_cell_angle_gamma 90.000000
_cell_volume 2627.029744
_symmetry_space_group_name_H-M "P B A N"
_symmetry_group_IT_number 50
_space_group.IT_coordinate_system_code '2'
_symmetry_cell_setting 'orthorhombic'
loop_
_space_group_symop_operation_xyz
x,y,z
1/2-x,1/2-y,z
x,1/2-y,-z
1/2-x,y,-z
-x,-y,-z
1/2+x,1/2+y,-z
-x,1/2+y,z
1/2+x,-y,z
loop_
_atom_site_type_symbol
_atom_site_label
_atom_site_fract_x
_atom_site_fract_y
_atom_site_fract_z
Si Si1 0.996068 0.948153 0.191045
Si Si2 0.845271 0.454194 0.753526
Si Si3 0.250000 0.608544 0.500000
Si Si4 0.579897 0.903638 0.085661
Si Si5 0.250000 0.462550 0.000000
Si Si6 0.535634 0.177319 0.706258
Si Si7 0.078611 0.663531 0.608041
O O1 0.057169 0.909272 0.302997
O O2 0.917440 0.984039 0.277213
O O3 0.962596 0.889204 0.070458
O O4 0.053416 0.012182 0.123469
O O5 0.784157 0.448822 0.618556
O O6 0.889554 0.372615 0.777500
O O7 0.793377 0.479836 0.890970
O O8 0.177294 0.662860 0.563353
O O9 0.681992 0.906086 0.073665
O O10 0.549805 0.841449 0.202553
O O11 0.522661 0.159642 0.537339
O O12 0.559834 0.265094 0.710043
#
# Coordination Sequence:
#
# PCOD8204822 Si02
#       7
#     8   8   4   8   4   8   8
#     4   9  18  33  52  72 102 138 174 209 254 312
#     4   9  19  32  50  77 105 136 171 214 261 303
#     4  10  20  31  50  78 106 135 172 212 256 305
#     4   9  18  33  52  76 100 132 176 216 255 303
#     4  10  18  32  54  76 102 130 170 230 266 288
#     4   9  20  34  50  74 105 138 173 205 254 318
#     4  10  20  34  52  75 106 141 171 209 253 308
#
# _framework density 18.271587
#
# number of rings (size 3 to 8) (size 9 to 14) (size 15 to 20)
#    0.000    2.667    0.000    2.000    0.000   13.333 
#    0.000    0.000    0.000   14.000    0.000    9.333 
#    0.000    0.000    0.000    0.000    0.000    0.000 
#
# Total GULP energy -594835.246349 kJ/mol
# GULP energy per Si atom -12392.400966 kJ/mol
# Density = 1.823000 g / cm^3
# Si number density = 18.271587 Si / 1000 Ang^3
#
#
#
# Elastic Constant Matrix: (Units=GPa)
#
#
# Indices 1 2 3 4 5 6 
#
# 1 121.8654 50.1398 56.2351 0.0000 0.0000 0.0000
# 2 50.1398 73.7317 45.1866 0.0000 0.0000 0.0000
# 3 56.2351 45.1866 74.1210 0.0000 0.0000 0.0000
# 4 0.0000 0.0000 0.0000 34.9069 0.0000 0.0000
# 5 0.0000 0.0000 0.0000 0.0000 39.7168 0.0000
# 6 0.0000 0.0000 0.0000 0.0000 0.0000 13.7293
#
#
#
# Elastic Compliance Matrix: (Units=1/GPa)
#
#
# Indices 1 2 3 4 5 6 
#
# 1 0.013558 -0.004655 -0.007449 0.000000 0.000000 0.000000
# 2 -0.004655 0.023251 -0.010643 0.000000 0.000000 0.000000
# 3 -0.007449 -0.010643 0.025631 0.000000 0.000000 0.000000
# 4 0.000000 0.000000 0.000000 0.028648 0.000000 0.000000
# 5 0.000000 0.000000 0.000000 0.000000 0.025178 0.000000
# 6 0.000000 0.000000 0.000000 0.000000 0.000000 0.072837
#
#
# Mechanical properties :
#
#
# Convention : Reuss Voigt Hill
#
# Bulk Modulus (GPa) = 59.00745 63.64899 61.32822
# Shear Modulus (GPa) = 20.81218 25.54770 23.17994
#
# Velocity S-wave (km/s) = 3.37864 3.74334 3.56565
# Velocity P-wave (km/s) = 6.89819 7.32079 7.11263
#
# Compressibility (1/GPa) = 0.01694701
#
# Stress axis : x y z
#
# Youngs Moduli (GPa) = 73.75589 43.00969 39.01570
#
# Poissons Ratio (x) = 0.20021 0.29061
# Poissons Ratio (y) = 0.34334 0.41523
# Poissons Ratio (z) = 0.54938 0.45773
#
# Static dielectric constant tensor:
#      x y z
#    x 3.511410 0.000000 0.000000 
#    y 0.000000 3.116310 0.000000 
#    z 0.000000 0.000000 3.502900 
# 
# 
# High freq. dielectric constant tensor:
#      x y z
#    x 1.704300 0.000000 0.000000 
#    y 0.000000 1.682080 0.000000 
#    z 0.000000 0.000000 1.711970 
# 
# From -- ./inp_files/13035.got.cif
#   From: 2010.03.12/outbox.cif.g09.slc.cpg/sg50_7_cif.got.tgz:13035.got - 2010.04.16 13:23:21.
