data_PCOD8204720
_publ_section_title
;
Structure prediction by ZEFSAII (Michael W. Deem and Ramdas Pophale) SiO2 
 PCOD8204720
Probable space group: P B A N
;
_chemical_formula_sum "Si O2"
_cell_formula_units_Z 64
_cell_length_a 5.295232
_cell_length_b 12.654449
_cell_length_c 35.868760
_cell_angle_alpha 90.000000
_cell_angle_beta 90.000000
_cell_angle_gamma 90.000000
_cell_volume 2403.502596
_symmetry_space_group_name_H-M "P B A N"
_symmetry_group_IT_number 50
_space_group.IT_coordinate_system_code '2'
_symmetry_cell_setting 'orthorhombic'
loop_
_space_group_symop_operation_xyz
x,y,z
1/2-x,1/2-y,z
x,1/2-y,-z
1/2-x,y,-z
-x,-y,-z
1/2+x,1/2+y,-z
-x,1/2+y,z
1/2+x,-y,z
loop_
_atom_site_type_symbol
_atom_site_label
_atom_site_fract_x
_atom_site_fract_y
_atom_site_fract_z
Si Si1 0.000696 0.365396 0.016192
Si Si2 0.445731 0.434108 0.904174
Si Si3 0.089290 0.622817 0.602458
Si Si4 0.000933 0.866345 0.483836
Si Si5 0.410825 0.389533 0.367609
Si Si6 0.019730 0.566605 0.823878
Si Si7 0.592343 0.391553 0.284022
Si Si8 0.907165 0.627548 0.745844
O O1 0.004579 0.356988 0.061096
O O2 0.999773 0.250000 0.000000
O O3 0.250000 0.424846 0.000000
O O4 0.750000 0.424035 0.000000
O O5 0.656808 0.526160 0.906631
O O6 0.484222 0.375348 0.864112
O O7 0.153909 0.500979 0.612538
O O8 0.368298 0.676059 0.610122
O O9 0.999525 0.635422 0.560499
O O10 0.864156 0.668719 0.629383
O O11 0.001808 0.750000 0.500000
O O12 0.750000 0.924094 0.500000
O O13 0.250000 0.925394 0.500000
O O14 0.504046 0.410456 0.325972
O O15 0.805747 0.475783 0.821179
O O16 0.976612 0.645742 0.789232
O O17 0.647222 0.503271 0.263633
O O18 0.371903 0.322167 0.263042
O O19 0.863293 0.330946 0.280708
#
# Coordination Sequence:
#
# PCOD8204720 Si02
#       8
#     8   8   8   8   8   8   8   8
#     4  10  21  37  55  74  99 136 178 229 276 331
#     4  10  21  32  50  75 105 139 177 223 274 330
#     4  10  18  32  48  65  95 126 154 198 239 282
#     4  10  21  37  54  70  87 116 157 205 246 290
#     4  10  19  30  43  70 100 131 164 186 232 295
#     4  10  16  27  38  61  95 131 173 200 247 294
#     4  10  16  23  39  59  90 131 172 178 218 283
#     4  10  14  22  36  56  83 130 169 189 218 274
#
# _framework density 26.627807000000001
#
# number of rings (size 3 to 8) (size 9 to 14) (size 15 to 20)
#    0.000    2.000    2.500    5.250    0.000    1.500 
#    0.000    7.500    0.000    0.000    0.000    0.000 
#    0.000    0.000    0.000  153.000    6.000    0.000 
#
# Total GULP energy -793018.382323 kJ/mol
# GULP energy per Si atom -12390.912224 kJ/mol
# Density = 2.656720 g / cm^3
# Si number density = 26.627807 Si / 1000 Ang^3
#
#
#
# Elastic Constant Matrix: (Units=GPa)
#
#
# Indices 1 2 3 4 5 6 
#
# 1 276.1295 2.2625 53.9292 0.0000 0.0000 0.0000
# 2 2.2625 29.9568 4.8508 0.0000 0.0000 0.0000
# 3 53.9292 4.8508 223.6177 0.0000 0.0000 0.0000
# 4 0.0000 0.0000 0.0000 20.6914 0.0000 0.0000
# 5 0.0000 0.0000 0.0000 0.0000 50.7941 0.0000
# 6 0.0000 0.0000 0.0000 0.0000 0.0000 -51.3891
#
#
#
# Elastic Compliance Matrix: (Units=1/GPa)
#
#
# Indices 1 2 3 4 5 6 
#
# 1 0.003801 -0.000139 -0.000914 0.000000 0.000000 0.000000
# 2 -0.000139 0.033504 -0.000693 0.000000 0.000000 0.000000
# 3 -0.000914 -0.000693 0.004707 0.000000 0.000000 0.000000
# 4 0.000000 0.000000 0.000000 0.048329 0.000000 0.000000
# 5 0.000000 0.000000 0.000000 0.000000 0.019687 0.000000
# 6 0.000000 0.000000 0.000000 0.000000 0.000000 -0.019459
#
#
# Mechanical properties :
#
#
# Convention : Reuss Voigt Hill
#
# Bulk Modulus (GPa) = 25.96021 72.42101 49.19061
# Shear Modulus (GPa) = 46.77180 35.26338 41.01759
#
# Velocity S-wave (km/s) = 4.19561 3.64305 3.92906
# Velocity P-wave (km/s) = 5.76553 6.70465 6.25274
#
# Compressibility (1/GPa) = 0.03852048
#
# Stress axis : x y z
#
# Youngs Moduli (GPa) = 263.08353 29.84702 212.43584
#
# Poissons Ratio (x) = 0.00415 0.19410
# Poissons Ratio (y) = 0.03660 0.14727
# Poissons Ratio (z) = 0.24037 0.02069
#
# Static dielectric constant tensor:
#      x y z
#    x 4.967930 0.000000 0.000000 
#    y 0.000000 4.311830 0.000000 
#    z 0.000000 0.000000 4.913340 
# 
# 
# High freq. dielectric constant tensor:
#      x y z
#    x 2.124890 0.000000 0.000000 
#    y 0.000000 2.056370 0.000000 
#    z 0.000000 0.000000 2.061870 
# 
# From -- ./inp_files/32431.got.cif
#   From: 2010.03.12/outbox.cif.g09.slc.cpg/sg50_17_cif.got.tgz:32431.got - 2010.04.16 13:23:21.
