data_PCOD8204164
_publ_section_title
;
Structure prediction by ZEFSAII (Michael W. Deem and Ramdas Pophale) SiO2 
 PCOD8204164
Probable space group: P C C M
;
_chemical_formula_sum "Si O2"
_cell_formula_units_Z 60
_cell_length_a 5.160860
_cell_length_b 22.704119
_cell_length_c 25.287951
_cell_angle_alpha 90.000000
_cell_angle_beta 90.000000
_cell_angle_gamma 90.000000
_cell_volume 2963.059509
_symmetry_space_group_name_H-M "P C C M"
_symmetry_group_IT_number 49
_symmetry_cell_setting 'orthorhombic'
loop_
_space_group_symop_operation_xyz
x,y,z
-x,-y,z
x,-y,1/2-z
-x,y,1/2-z
-x,-y,-z
x,y,-z
-x,y,1/2+z
x,-y,1/2+z
loop_
_atom_site_type_symbol
_atom_site_label
_atom_site_fract_x
_atom_site_fract_y
_atom_site_fract_z
Si Si1 0.036074 0.607672 0.937633
Si Si2 0.402840 0.907143 0.440274
Si Si3 0.488502 0.675194 0.312391
Si Si4 0.500000 0.000000 0.360618
Si Si5 0.547018 0.565680 0.881607
Si Si6 0.004912 0.282764 0.631583
Si Si7 0.092408 0.936045 0.809219
Si Si8 0.070398 0.150499 0.398873
O O1 0.318704 0.586411 0.920246
O O2 0.979833 0.674225 0.918622
O O3 0.815838 0.565232 0.913804
O O4 0.018906 0.605877 0.000000
O O5 0.439197 0.929857 0.500000
O O6 0.664138 0.874444 0.422144
O O7 0.164612 0.861522 0.438988
O O8 0.325606 0.962004 0.401957
O O9 0.500000 0.677649 0.250000
O O10 0.431375 0.608476 0.331048
O O11 0.769876 0.695288 0.330341
O O12 0.265232 0.718143 0.335781
O O13 0.395302 0.051481 0.320665
O O14 0.500000 0.500000 0.860149
O O15 0.086491 0.219578 0.610051
O O16 0.998559 0.880642 0.842928
O O17 0.000000 0.924523 0.750000
O O18 0.000000 0.000000 0.830826
#
# Coordination Sequence:
#
# PCOD8204164 Si02
#       8
#     8   8   8   4   8   8   8   8
#     4  10  21  36  56  83 116 159 196 237 292 339
#     4  11  23  39  62  87 114 150 190 233 290 348
#     4  10  21  39  62  86 115 157 194 239 292 340
#     4  10  21  41  58  82 120 148 186 236 286 352
#     4  10  21  36  56  87 121 152 195 241 285 343
#     4  10  22  40  60  84 119 151 197 246 287 342
#     4  10  21  38  58  84 114 153 188 234 296 354
#     4  11  23  42  60  89 118 150 195 245 290 347
#
# _framework density 20.24934
#
# number of rings (size 3 to 8) (size 9 to 14) (size 15 to 20)
#    0.000    1.733    1.333    2.600    0.000    5.067 
#    0.000    2.000    0.000    4.800    0.000    0.000 
#    0.000    0.000    0.000    0.000    0.000    0.000 
#
# Total GULP energy -743555.784098 kJ/mol
# GULP energy per Si atom -12392.596402 kJ/mol
# Density = 2.020325 g / cm^3
# Si number density = 20.249340 Si / 1000 Ang^3
#
#
#
# Elastic Constant Matrix: (Units=GPa)
#
#
# Indices 1 2 3 4 5 6 
#
# 1 82.3401 -1.4401 9.2255 0.0000 0.0000 0.0000
# 2 -1.4401 79.4510 7.5886 0.0000 0.0000 0.0000
# 3 9.2255 7.5886 81.0513 0.0000 0.0000 0.0000
# 4 0.0000 0.0000 0.0000 9.2792 0.0000 0.0000
# 5 0.0000 0.0000 0.0000 0.0000 19.0064 0.0000
# 6 0.0000 0.0000 0.0000 0.0000 0.0000 23.2048
#
#
#
# Elastic Compliance Matrix: (Units=1/GPa)
#
#
# Indices 1 2 3 4 5 6 
#
# 1 0.012312 0.000360 -0.001435 0.000000 0.000000 0.000000
# 2 0.000360 0.012710 -0.001231 0.000000 0.000000 0.000000
# 3 -0.001435 -0.001231 0.012616 0.000000 0.000000 0.000000
# 4 0.000000 0.000000 0.000000 0.107768 0.000000 0.000000
# 5 0.000000 0.000000 0.000000 0.000000 0.052614 0.000000
# 6 0.000000 0.000000 0.000000 0.000000 0.000000 0.043095
#
#
# Mechanical properties :
#
#
# Convention : Reuss Voigt Hill
#
# Bulk Modulus (GPa) = 30.27827 30.39892 30.33860
# Shear Modulus (GPa) = 19.47527 25.46264 22.46895
#
# Velocity S-wave (km/s) = 3.10461 3.54991 3.33470
# Velocity P-wave (km/s) = 5.27605 5.64335 5.46278
#
# Compressibility (1/GPa) = 0.03302698
#
# Stress axis : x y z
#
# Youngs Moduli (GPa) = 81.22257 78.67516 79.26141
#
# Poissons Ratio (x) = -0.02834 0.11375
# Poissons Ratio (y) = -0.02926 0.09758
# Poissons Ratio (z) = 0.11656 0.09685
#
# Static dielectric constant tensor:
#      x y z
#    x 4.338640 0.000000 0.000000 
#    y 0.000000 3.713120 0.000000 
#    z 0.000000 0.000000 3.512490 
# 
# 
# High freq. dielectric constant tensor:
#      x y z
#    x 1.808000 0.000000 0.000000 
#    y 0.000000 1.784100 0.000000 
#    z 0.000000 0.000000 1.785940 
# 
# From -- ./inp_files/21920.got.cif
#   From: 2010.03.12/outbox.cif.g09.slc.cpg/sg49_11_cif.got.tgz:21920.got - 2010.04.14 03:58:27.
