data_PCOD8204833
_publ_section_title
;
Structure prediction by ZEFSAII (Michael W. Deem and Ramdas Pophale) SiO2 
 PCOD8204833
Probable space group: P B A N
;
_chemical_formula_sum "Si O2"
_cell_formula_units_Z 64
_cell_length_a 15.338491
_cell_length_b 24.934134
_cell_length_c 8.808770
_cell_angle_alpha 90.000000
_cell_angle_beta 90.000000
_cell_angle_gamma 90.000000
_cell_volume 3368.931616
_symmetry_space_group_name_H-M "P B A N"
_symmetry_group_IT_number 50
_space_group.IT_coordinate_system_code '2'
_symmetry_cell_setting 'orthorhombic'
loop_
_space_group_symop_operation_xyz
x,y,z
1/2-x,1/2-y,z
x,1/2-y,-z
1/2-x,y,-z
-x,-y,-z
1/2+x,1/2+y,-z
-x,1/2+y,z
1/2+x,-y,z
loop_
_atom_site_type_symbol
_atom_site_label
_atom_site_fract_x
_atom_site_fract_y
_atom_site_fract_z
Si Si1 0.936477 0.889144 0.683384
Si Si2 0.250545 0.413637 0.679688
Si Si3 0.423428 0.689191 0.175753
Si Si4 0.423252 0.813287 0.173001
Si Si5 0.474801 0.507039 0.671545
Si Si6 0.442038 0.389605 0.678178
Si Si7 0.777695 0.029377 0.327717
Si Si8 0.252069 0.645255 0.319255
O O1 0.834726 0.879732 0.728128
O O2 0.952524 0.885607 0.503077
O O3 0.993319 0.844692 0.765128
O O4 0.959662 0.949311 0.744558
O O5 0.250000 0.421936 0.500000
O O6 0.339993 0.383746 0.726517
O O7 0.246036 0.474036 0.752049
O O8 0.446228 0.751248 0.194329
O O9 0.504779 0.657393 0.244213
O O10 0.334799 0.678349 0.265153
O O11 0.408983 0.672272 0.002369
O O12 0.335643 0.827014 0.261941
O O13 0.500000 0.500000 0.500000
O O14 0.477361 0.447095 0.742513
O O15 0.381106 0.534145 0.684994
O O16 0.750000 0.027955 0.500000
O O17 0.739444 0.084103 0.254409
O O18 0.250000 0.644990 0.500000
#
# Coordination Sequence:
#
# PCOD8204833 Si02
#       8
#     8   8   8   8   8   8   8   8
#     4  10  18  33  60  84 114 146 185 238 278 336
#     4   8  16  31  54  85 119 145 174 226 288 332
#     4  11  25  40  59  73 114 158 188 240 282 339
#     4  11  24  43  54  79 111 155 197 226 292 338
#     4   9  16  27  52  84 118 142 177 227 280 331
#     4   9  19  34  57  89 110 144 191 232 281 335
#     4   9  16  27  48  85 119 142 176 217 272 342
#     4  11  22  35  61  89 112 143 188 237 277 334
#
# _framework density 18.997121
#
# number of rings (size 3 to 8) (size 9 to 14) (size 15 to 20)
#    0.000    2.250    1.250    3.750    7.000    3.500 
#    0.000    1.875    0.000    3.750    0.000    0.000 
#    0.000    0.000    0.000    0.000    0.000    0.000 
#
# Total GULP energy -793082.444990 kJ/mol
# GULP energy per Si atom -12391.913203 kJ/mol
# Density = 1.895388 g / cm^3
# Si number density = 18.997121 Si / 1000 Ang^3
#
#
#
# Elastic Constant Matrix: (Units=GPa)
#
#
# Indices 1 2 3 4 5 6 
#
# 1 147.0776 68.2252 42.0434 0.0000 0.0000 0.0000
# 2 68.2252 107.2247 41.9198 0.0000 0.0000 0.0000
# 3 42.0434 41.9198 58.7848 0.0000 0.0000 0.0000
# 4 0.0000 0.0000 0.0000 -9.3145 0.0000 0.0000
# 5 0.0000 0.0000 0.0000 0.0000 12.2139 0.0000
# 6 0.0000 0.0000 0.0000 0.0000 0.0000 31.3868
#
#
#
# Elastic Compliance Matrix: (Units=1/GPa)
#
#
# Indices 1 2 3 4 5 6 
#
# 1 0.010194 -0.005042 -0.003696 0.000000 0.000000 0.000000
# 2 -0.005042 0.015425 -0.007394 0.000000 0.000000 0.000000
# 3 -0.003696 -0.007394 0.024927 0.000000 0.000000 0.000000
# 4 0.000000 0.000000 0.000000 -0.107360 0.000000 0.000000
# 5 0.000000 0.000000 0.000000 0.000000 0.081874 0.000000
# 6 0.000000 0.000000 0.000000 0.000000 0.000000 0.031861
#
#
# Mechanical properties :
#
#
# Convention : Reuss Voigt Hill
#
# Bulk Modulus (GPa) = 54.69333 68.60710 61.65022
# Shear Modulus (GPa) = 52.47836 17.58382 35.03109
#
# Velocity S-wave (km/s) = 5.26159 3.04568 4.29887
# Velocity P-wave (km/s) = 8.10958 6.96858 7.56063
#
# Compressibility (1/GPa) = 0.01828376
#
# Stress axis : x y z
#
# Youngs Moduli (GPa) = 98.09445 64.83158 40.11714
#
# Poissons Ratio (x) = 0.32685 0.14827
# Poissons Ratio (y) = 0.49454 0.29661
# Poissons Ratio (z) = 0.36255 0.47934
#
# Static dielectric constant tensor:
#      x y z
#    x 3.758040 0.000000 0.000000 
#    y 0.000000 3.743090 0.000000 
#    z 0.000000 0.000000 3.115910 
# 
# 
# High freq. dielectric constant tensor:
#      x y z
#    x 1.752110 0.000000 0.000000 
#    y 0.000000 1.740840 0.000000 
#    z 0.000000 0.000000 1.692470 
# 
# From -- ./inp_files/13462.got.cif
#   From: 2010.03.12/outbox.cif.g09.slc.cpg/sg50_7_cif.got.tgz:13462.got - 2010.04.16 13:23:21.
