data_PCOD8204894
_publ_section_title
;
Structure prediction by ZEFSAII (Michael W. Deem and Ramdas Pophale) SiO2 
 PCOD8204894
Probable space group: P B A N
;
_chemical_formula_sum "Si O2"
_cell_formula_units_Z 64
_cell_length_a 19.421274
_cell_length_b 7.817252
_cell_length_c 21.911281
_cell_angle_alpha 90.000000
_cell_angle_beta 90.000000
_cell_angle_gamma 90.000000
_cell_volume 3326.592440
_symmetry_space_group_name_H-M "P B A N"
_symmetry_group_IT_number 50
_space_group.IT_coordinate_system_code '2'
_symmetry_cell_setting 'orthorhombic'
loop_
_space_group_symop_operation_xyz
x,y,z
1/2-x,1/2-y,z
x,1/2-y,-z
1/2-x,y,-z
-x,-y,-z
1/2+x,1/2+y,-z
-x,1/2+y,z
1/2+x,-y,z
loop_
_atom_site_type_symbol
_atom_site_label
_atom_site_fract_x
_atom_site_fract_y
_atom_site_fract_z
Si Si1 0.576020 0.951539 0.757193
Si Si2 0.575431 0.951175 0.894111
Si Si3 0.329437 0.558432 0.348640
Si Si4 0.829437 0.058432 0.348640
Si Si5 0.672299 0.545519 0.000000
Si Si6 0.668189 0.750000 0.568126
Si Si7 0.924569 0.951175 0.894111
Si Si8 0.423980 0.048461 0.757193
O O1 0.586918 0.024209 0.825873
O O2 0.588031 0.750000 0.753468
O O3 0.630717 0.045514 0.714853
O O4 0.500000 1.000000 0.734125
O O5 0.632933 0.025690 0.940051
O O6 0.581939 0.750000 0.891621
O O7 0.500000 1.000000 0.918838
O O8 0.250000 0.519367 0.334282
O O9 0.338841 0.750000 0.375620
O O10 0.358235 0.420392 0.397201
O O11 0.369283 0.545514 0.285147
O O12 0.858235 0.920392 0.397201
O O13 0.671961 0.750000 0.000000
O O14 0.750000 0.473792 0.000000
O O15 0.632933 0.474310 0.940051
O O16 0.750000 0.750000 0.564283
O O17 0.636610 0.750000 0.500000
O O18 0.913082 0.024209 0.825873
#
# Coordination Sequence:
#
# PCOD8204894 Si02
#       8
#     8   8   8   8   8   8   8   8
#     4  10  19  32  51  77 105 139 181 225 275 326
#     4   9  18  31  50  72  97 131 174 219 262 316
#     4  10  20  34  54  82 112 143 181 224 272 320
#     4  10  20  34  54  82 112 143 181 224 272 320
#     4   9  17  30  47  71 100 133 174 216 266 319
#     4   9  18  34  56  82 112 145 182 222 263 317
#     4   9  18  31  50  72  97 131 174 219 262 316
#     4  10  19  32  51  77 105 139 181 225 275 326
#
# _framework density 19.238906
#
# number of rings (size 3 to 8) (size 9 to 14) (size 15 to 20)
#    0.000    2.500    1.250    1.125    0.000    2.500 
#    0.000    5.000    0.000    2.250    0.000    0.000 
#    0.000    0.000    0.000    0.000    0.000    0.000 
#
# Total GULP energy -793516.181748 kJ/mol
# GULP energy per Si atom -12398.690340 kJ/mol
# Density = 1.919512 g / cm^3
# Si number density = 19.238906 Si / 1000 Ang^3
#
#
#
# Elastic Constant Matrix: (Units=GPa)
#
#
# Indices 1 2 3 4 5 6 
#
# 1 104.4108 26.2992 71.7104 0.0000 0.0000 0.0000
# 2 26.2992 82.0447 41.1070 0.0000 0.0000 0.0000
# 3 71.7104 41.1070 135.0068 0.0000 0.0000 0.0000
# 4 0.0000 0.0000 0.0000 13.9742 0.0000 0.0000
# 5 0.0000 0.0000 0.0000 0.0000 20.6086 0.0000
# 6 0.0000 0.0000 0.0000 0.0000 0.0000 23.7410
#
#
#
# Elastic Compliance Matrix: (Units=1/GPa)
#
#
# Indices 1 2 3 4 5 6 
#
# 1 0.015144 -0.000972 -0.007748 0.000000 0.000000 0.000000
# 2 -0.000972 0.014445 -0.003882 0.000000 0.000000 0.000000
# 3 -0.007748 -0.003882 0.012704 0.000000 0.000000 0.000000
# 4 0.000000 0.000000 0.000000 0.071561 0.000000 0.000000
# 5 0.000000 0.000000 0.000000 0.000000 0.048523 0.000000
# 6 0.000000 0.000000 0.000000 0.000000 0.000000 0.042121
#
#
# Mechanical properties :
#
#
# Convention : Reuss Voigt Hill
#
# Bulk Modulus (GPa) = 58.51614 66.63283 62.57448
# Shear Modulus (GPa) = 21.24061 23.82114 22.53088
#
# Velocity S-wave (km/s) = 3.32632 3.52259 3.42586
# Velocity P-wave (km/s) = 6.72563 7.15922 6.94581
#
# Compressibility (1/GPa) = 0.01708930
#
# Stress axis : x y z
#
# Youngs Moduli (GPa) = 66.03429 69.22782 78.71423
#
# Poissons Ratio (x) = 0.06732 0.60985
# Poissons Ratio (y) = 0.06421 0.30555
# Poissons Ratio (z) = 0.51161 0.26872
#
# Static dielectric constant tensor:
#      x y z
#    x 3.413680 0.000000 0.000000 
#    y 0.000000 3.478160 0.000000 
#    z 0.000000 0.000000 3.744650 
# 
# 
# High freq. dielectric constant tensor:
#      x y z
#    x 1.728120 0.000000 0.000000 
#    y 0.000000 1.746770 0.000000 
#    z 0.000000 0.000000 1.743090 
# 
# From -- ./inp_files/31118.got.cif
#   From: 2010.03.12/outbox.cif.g09.slc.cpg/sg50_16_cif.got.tgz:31118.got - 2010.04.16 13:23:21.
