data_PCOD8204535
_publ_section_title
;
Structure prediction by ZEFSAII (Michael W. Deem and Ramdas Pophale) SiO2 
 PCOD8204535
Probable space group: P C C M
;
_chemical_formula_sum "Si O2"
_cell_formula_units_Z 38
_cell_length_a 22.737134
_cell_length_b 7.710738
_cell_length_c 9.966132
_cell_angle_alpha 90.000000
_cell_angle_beta 90.000000
_cell_angle_gamma 90.000000
_cell_volume 1747.263091
_symmetry_space_group_name_H-M "P C C M"
_symmetry_group_IT_number 49
_symmetry_cell_setting 'orthorhombic'
loop_
_space_group_symop_operation_xyz
x,y,z
-x,-y,z
x,-y,1/2-z
-x,y,1/2-z
-x,-y,-z
x,y,-z
-x,y,1/2+z
x,-y,1/2+z
loop_
_atom_site_type_symbol
_atom_site_label
_atom_site_fract_x
_atom_site_fract_y
_atom_site_fract_z
Si Si1 0.175201 0.323516 0.000000
Si Si2 0.923915 0.046294 0.500000
Si Si3 0.636849 0.801152 0.263904
Si Si4 0.000000 0.000000 0.250000
Si Si5 0.575724 0.681856 0.000000
Si Si6 0.148940 0.291731 0.500000
Si Si7 0.553146 0.716549 0.500000
Si Si8 0.234008 0.793564 0.237800
O O1 0.134503 0.155351 0.000000
O O2 0.217677 0.309070 0.872619
O O3 0.135460 0.500363 0.000000
O O4 0.958602 0.099481 0.360736
O O5 0.908172 0.837574 0.500000
O O6 0.615614 0.716495 0.127249
O O7 0.585647 0.783807 0.370087
O O8 0.700717 0.724017 0.304474
O O9 0.650018 0.000000 0.250000
O O10 0.554680 0.487488 0.000000
O O11 0.514101 0.789371 0.000000
O O12 0.186624 0.257424 0.370086
O O13 0.232077 0.000000 0.250000
#
# Coordination Sequence:
#
# PCOD8204535 Si02
#       8
#     4   4   8   2   4   4   4   8
#     4  12  24  40  69  99 131 175 215 258 320 375
#     4  11  22  46  66  98 138 168 219 266 298 372
#     4  11  24  39  62  89 120 156 202 261 318 374
#     4  10  24  42  74  94 128 192 208 250 336 342
#     4  11  24  41  59  81 115 160 206 260 320 379
#     4  12  24  40  69  99 131 175 215 258 320 375
#     4  11  24  41  59  81 115 160 206 260 320 379
#     4  11  22  41  61  92 132 167 202 263 325 384
#
# _framework density 21.748298999999999
#
# number of rings (size 3 to 8) (size 9 to 14) (size 15 to 20)
#    0.000    0.842    2.105    5.053    0.000   12.632 
#    0.000    3.158    0.000    0.000    0.000    0.000 
#    0.000    0.000    0.000    0.000    0.000    0.000 
#
# Total GULP energy -470814.201645 kJ/mol
# GULP energy per Si atom -12389.847412 kJ/mol
# Density = 2.169880 g / cm^3
# Si number density = 21.748299 Si / 1000 Ang^3
#
#
#
# Elastic Constant Matrix: (Units=GPa)
#
#
# Indices 1 2 3 4 5 6 
#
# 1 103.7289 9.2641 22.7665 0.0000 0.0000 0.0000
# 2 9.2641 77.8574 -4.5954 0.0000 0.0000 0.0000
# 3 22.7665 -4.5954 137.8323 0.0000 0.0000 0.0000
# 4 0.0000 0.0000 0.0000 37.7201 0.0000 0.0000
# 5 0.0000 0.0000 0.0000 0.0000 40.8131 0.0000
# 6 0.0000 0.0000 0.0000 0.0000 0.0000 14.0623
#
#
#
# Elastic Compliance Matrix: (Units=1/GPa)
#
#
# Indices 1 2 3 4 5 6 
#
# 1 0.010134 -0.001307 -0.001718 0.000000 0.000000 0.000000
# 2 -0.001307 0.013038 0.000651 0.000000 0.000000 0.000000
# 3 -0.001718 0.000651 0.007561 0.000000 0.000000 0.000000
# 4 0.000000 0.000000 0.000000 0.026511 0.000000 0.000000
# 5 0.000000 0.000000 0.000000 0.000000 0.024502 0.000000
# 6 0.000000 0.000000 0.000000 0.000000 0.000000 0.071112
#
#
# Mechanical properties :
#
#
# Convention : Reuss Voigt Hill
#
# Bulk Modulus (GPa) = 38.48448 41.58766 40.03607
# Shear Modulus (GPa) = 30.07201 37.98468 34.02835
#
# Velocity S-wave (km/s) = 3.72254 4.18372 3.95985
# Velocity P-wave (km/s) = 6.01749 6.51934 6.27344
#
# Compressibility (1/GPa) = 0.02598450
#
# Stress axis : x y z
#
# Youngs Moduli (GPa) = 98.67552 76.69926 132.26510
#
# Poissons Ratio (x) = 0.10026 0.22717
# Poissons Ratio (y) = 0.12899 -0.08605
# Poissons Ratio (z) = 0.16948 -0.04990
#
# Static dielectric constant tensor:
#      x y z
#    x 4.539860 0.000000 0.000000 
#    y 0.000000 4.167820 0.000000 
#    z 0.000000 0.000000 4.044390 
# 
# 
# High freq. dielectric constant tensor:
#      x y z
#    x 1.868940 0.000000 0.000000 
#    y 0.000000 1.842470 0.000000 
#    z 0.000000 0.000000 1.868920 
# 
# From -- ./inp_files/1858.got.cif
#   From: 2010.03.12/outbox.cif.g09.slc.cpg/sg49_1_cif.got.tgz:1858.got - 2010.04.14 03:58:27.
