data_PCOD8204514
_publ_section_title
;
Structure prediction by ZEFSAII (Michael W. Deem and Ramdas Pophale) SiO2 
 PCOD8204514
Probable space group: P C C M
;
_chemical_formula_sum "Si O2"
_cell_formula_units_Z 64
_cell_length_a 18.504789
_cell_length_b 9.143486
_cell_length_c 19.524910
_cell_angle_alpha 90.000000
_cell_angle_beta 90.000000
_cell_angle_gamma 90.000000
_cell_volume 3303.581173
_symmetry_space_group_name_H-M "P C C M"
_symmetry_group_IT_number 49
_symmetry_cell_setting 'orthorhombic'
loop_
_space_group_symop_operation_xyz
x,y,z
-x,-y,z
x,-y,1/2-z
-x,y,1/2-z
-x,-y,-z
x,y,-z
-x,y,1/2+z
x,-y,1/2+z
loop_
_atom_site_type_symbol
_atom_site_label
_atom_site_fract_x
_atom_site_fract_y
_atom_site_fract_z
Si Si1 0.682992 0.728155 0.918738
Si Si2 0.300703 0.448857 0.321819
Si Si3 0.808834 0.891325 0.152525
Si Si4 0.032123 0.338250 0.317572
Si Si5 0.539519 0.354945 0.182565
Si Si6 0.811702 0.220868 0.804835
Si Si7 0.475154 0.165304 0.924211
Si Si8 0.042494 0.148975 0.079232
O O1 0.694916 0.573510 0.879923
O O2 0.742893 0.845509 0.896421
O O3 0.606209 0.801522 0.897913
O O4 0.688326 0.699303 0.000000
O O5 0.265335 0.500000 0.250000
O O6 0.378143 0.385720 0.301288
O O7 0.251162 0.311889 0.343571
O O8 0.796755 0.811530 0.224951
O O9 0.882508 0.838505 0.118721
O O10 0.815325 0.066187 0.156740
O O11 0.118142 0.322831 0.313676
O O12 0.000000 0.500000 0.315661
O O13 0.000000 0.254706 0.250000
O O14 0.008472 0.272327 0.389679
O O15 0.500000 0.500000 0.156649
O O16 0.500000 0.292735 0.250000
O O17 0.535112 0.239462 0.122431
O O18 0.500000 0.000000 0.923217
O O19 0.482081 0.231001 0.000000
O O20 0.056456 0.180788 0.000000
O O21 0.000000 0.000000 0.091684
#
# Coordination Sequence:
#
# PCOD8204514 Si02
#       8
#     8   8   8   8   8   8   8   8
#     4  11  24  42  64  93 130 172 210 261 327 383
#     4  12  23  41  63  92 133 164 212 262 315 384
#     4  11  23  42  64  93 128 165 213 262 315 383
#     4  11  24  40  65  95 123 160 211 261 309 368
#     4  11  21  39  62  93 121 164 206 265 317 364
#     4  11  25  40  65  95 126 169 211 262 316 371
#     4  10  23  42  64  90 124 165 214 262 311 378
#     4  11  23  42  67  91 123 166 207 260 320 373
#
# _framework density 19.372916
#
# number of rings (size 3 to 8) (size 9 to 14) (size 15 to 20)
#    0.000    1.000    6.250    0.375    5.250    1.500 
#    0.000    1.875    0.000    0.000    0.000    0.000 
#    0.000    0.000    0.000    0.000    0.000    0.000 
#
# Total GULP energy -793418.430401 kJ/mol
# GULP energy per Si atom -12397.162975 kJ/mol
# Density = 1.932882 g / cm^3
# Si number density = 19.372916 Si / 1000 Ang^3
#
#
#
# Elastic Constant Matrix: (Units=GPa)
#
#
# Indices 1 2 3 4 5 6 
#
# 1 110.4142 44.4515 25.4632 0.0000 0.0000 0.0000
# 2 44.4515 91.8526 48.3777 0.0000 0.0000 0.0000
# 3 25.4632 48.3777 92.4042 0.0000 0.0000 0.0000
# 4 0.0000 0.0000 0.0000 29.3999 0.0000 0.0000
# 5 0.0000 0.0000 0.0000 0.0000 30.0123 0.0000
# 6 0.0000 0.0000 0.0000 0.0000 0.0000 23.8623
#
#
#
# Elastic Compliance Matrix: (Units=1/GPa)
#
#
# Indices 1 2 3 4 5 6 
#
# 1 0.011256 -0.005266 -0.000345 0.000000 0.000000 0.000000
# 2 -0.005266 0.017495 -0.007709 0.000000 0.000000 0.000000
# 3 -0.000345 -0.007709 0.014953 0.000000 0.000000 0.000000
# 4 0.000000 0.000000 0.000000 0.034014 0.000000 0.000000
# 5 0.000000 0.000000 0.000000 0.000000 0.033320 0.000000
# 6 0.000000 0.000000 0.000000 0.000000 0.000000 0.041907
#
#
# Mechanical properties :
#
#
# Convention : Reuss Voigt Hill
#
# Bulk Modulus (GPa) = 58.59612 59.02843 58.81228
# Shear Modulus (GPa) = 26.98735 28.41348 27.70041
#
# Velocity S-wave (km/s) = 3.73640 3.83385 3.78544
# Velocity P-wave (km/s) = 6.99474 7.08051 7.03775
#
# Compressibility (1/GPa) = 0.01706598
#
# Stress axis : x y z
#
# Youngs Moduli (GPa) = 88.83933 57.15818 66.87683
#
# Poissons Ratio (x) = 0.30098 0.02307
# Poissons Ratio (y) = 0.46780 0.51552
# Poissons Ratio (z) = 0.03065 0.44061
#
# Static dielectric constant tensor:
#      x y z
#    x 3.590570 0.000000 0.000000 
#    y 0.000000 3.464060 0.000000 
#    z 0.000000 0.000000 3.630310 
# 
# 
# High freq. dielectric constant tensor:
#      x y z
#    x 1.766810 0.000000 0.000000 
#    y 0.000000 1.750960 0.000000 
#    z 0.000000 0.000000 1.754800 
# 
# From -- ./inp_files/21097.got.cif
#   From: 2010.03.12/outbox.cif.g09.slc.cpg/sg49_11_cif.got.tgz:21097.got - 2010.04.14 03:58:27.
