data_PCOD8204088
_publ_section_title
;
Structure prediction by ZEFSAII (Michael W. Deem and Ramdas Pophale) SiO2 
 PCOD8204088
Probable space group: P C C M
;
_chemical_formula_sum "Si O2"
_cell_formula_units_Z 56
_cell_length_a 7.399299
_cell_length_b 22.920708
_cell_length_c 17.247664
_cell_angle_alpha 90.000000
_cell_angle_beta 90.000000
_cell_angle_gamma 90.000000
_cell_volume 2925.155034
_symmetry_space_group_name_H-M "P C C M"
_symmetry_group_IT_number 49
_symmetry_cell_setting 'orthorhombic'
loop_
_space_group_symop_operation_xyz
x,y,z
-x,-y,z
x,-y,1/2-z
-x,y,1/2-z
-x,-y,-z
x,y,-z
-x,y,1/2+z
x,-y,1/2+z
loop_
_atom_site_type_symbol
_atom_site_label
_atom_site_fract_x
_atom_site_fract_y
_atom_site_fract_z
Si Si1 0.500887 0.354619 0.590013
Si Si2 0.895367 0.169081 0.823165
Si Si3 0.205797 0.565702 0.661167
Si Si4 0.767538 0.864139 0.911117
Si Si5 0.709711 0.065734 0.264666
Si Si6 0.795404 0.564165 0.343571
Si Si7 0.561408 0.776987 0.409466
O O1 0.529136 0.358406 0.500000
O O2 0.675218 0.383333 0.627091
O O3 0.319621 0.388009 0.612440
O O4 0.490741 0.287869 0.616892
O O5 0.824829 0.106427 0.792787
O O6 0.727721 0.205989 0.854295
O O7 0.000000 0.199578 0.750000
O O8 0.036002 0.163381 0.894056
O O9 0.266440 0.501276 0.632268
O O10 0.228037 0.570124 0.752492
O O11 0.001774 0.575947 0.633401
O O12 0.743070 0.919443 0.854982
O O13 0.610967 0.817435 0.892910
O O14 0.759050 0.885259 0.000000
O O15 0.500000 0.074569 0.250000
O O16 0.773773 0.000000 0.250000
O O17 0.618093 0.780236 0.500000
#
# Coordination Sequence:
#
# PCOD8204088 Si02
#       7
#     8   8   8   8   8   8   8
#     4  11  23  36  55  83 115 149 187 235 289 341
#     4  10  21  38  62  87 117 157 198 242 289 341
#     4   9  19  38  59  81 111 147 186 233 286 341
#     4  10  21  39  63  87 116 161 203 235 288 356
#     4  10  20  39  64  91 124 155 188 245 298 337
#     4   9  19  38  59  81 111 146 186 234 287 342
#     4  10  22  41  57  80 122 159 194 243 289 339
#
# _framework density 19.144285
#
# number of rings (size 3 to 8) (size 9 to 14) (size 15 to 20)
#    0.000    2.143    1.429    2.143    0.000    6.571 
#   12.857    7.857    0.000    0.000    0.000    0.000 
#    0.000    0.000    0.000    0.000    0.000    0.000 
#
# Total GULP energy -694302.996998 kJ/mol
# GULP energy per Si atom -12398.267804 kJ/mol
# Density = 1.910071 g / cm^3
# Si number density = 19.144285 Si / 1000 Ang^3
#
#
#
# Elastic Constant Matrix: (Units=GPa)
#
#
# Indices 1 2 3 4 5 6 
#
# 1 125.3406 67.9282 56.8612 0.0000 0.0000 0.0000
# 2 67.9282 137.8020 68.7889 0.0000 0.0000 0.0000
# 3 56.8612 68.7889 84.3612 0.0000 0.0000 0.0000
# 4 0.0000 0.0000 0.0000 30.2685 0.0000 0.0000
# 5 0.0000 0.0000 0.0000 0.0000 606.6963 0.0000
# 6 0.0000 0.0000 0.0000 0.0000 0.0000 38.6150
#
#
#
# Elastic Compliance Matrix: (Units=1/GPa)
#
#
# Indices 1 2 3 4 5 6 
#
# 1 0.012296 -0.003245 -0.005642 0.000000 0.000000 0.000000
# 2 -0.003245 0.013095 -0.008490 0.000000 0.000000 0.000000
# 3 -0.005642 -0.008490 0.022580 0.000000 0.000000 0.000000
# 4 0.000000 0.000000 0.000000 0.033038 0.000000 0.000000
# 5 0.000000 0.000000 0.000000 0.000000 0.001648 0.000000
# 6 0.000000 0.000000 0.000000 0.000000 0.000000 0.025897
#
#
# Mechanical properties :
#
#
# Convention : Reuss Voigt Hill
#
# Bulk Modulus (GPa) = 75.66528 81.62893 78.64711
# Shear Modulus (GPa) = 33.84937 145.37767 89.61352
#
# Velocity S-wave (km/s) = 4.20946 8.72369 6.84917
# Velocity P-wave (km/s) = 7.95208 12.00840 10.18424
#
# Compressibility (1/GPa) = 0.01321610
#
# Stress axis : x y z
#
# Youngs Moduli (GPa) = 81.32463 76.36743 44.28752
#
# Poissons Ratio (x) = 0.24781 0.24987
# Poissons Ratio (y) = 0.26389 0.37601
# Poissons Ratio (z) = 0.45884 0.64838
#
# Static dielectric constant tensor:
#      x y z
#    x 3.644370 0.000000 0.000000 
#    y 0.000000 -6.056100 0.000000 
#    z 0.000000 0.000000 3.872600 
# 
# 
# High freq. dielectric constant tensor:
#      x y z
#    x 1.764640 0.000000 0.000000 
#    y 0.000000 1.734030 0.000000 
#    z 0.000000 0.000000 1.742070 
# 
# From -- ./inp_files/12032.got.cif
#   From: 2010.03.12/outbox.cif.g09.slc.cpg/sg49_7_cif.got.tgz:12032.got - 2010.04.14 03:58:27.
