data_PCOD8204840
_publ_section_title
;
Structure prediction by ZEFSAII (Michael W. Deem and Ramdas Pophale) SiO2 
 PCOD8204840
Probable space group: P B A N
;
_chemical_formula_sum "Si O2"
_cell_formula_units_Z 52
_cell_length_a 17.100579
_cell_length_b 9.816451
_cell_length_c 15.400444
_cell_angle_alpha 90.000000
_cell_angle_beta 90.000000
_cell_angle_gamma 90.000000
_cell_volume 2585.226269
_symmetry_space_group_name_H-M "P B A N"
_symmetry_group_IT_number 50
_space_group.IT_coordinate_system_code '2'
_symmetry_cell_setting 'orthorhombic'
loop_
_space_group_symop_operation_xyz
x,y,z
1/2-x,1/2-y,z
x,1/2-y,-z
1/2-x,y,-z
-x,-y,-z
1/2+x,1/2+y,-z
-x,1/2+y,z
1/2+x,-y,z
loop_
_atom_site_type_symbol
_atom_site_label
_atom_site_fract_x
_atom_site_fract_y
_atom_site_fract_z
Si Si1 0.666671 0.699127 0.178360
Si Si2 0.750000 0.250000 0.000000
Si Si3 0.750000 0.750000 0.500000
Si Si4 0.476507 0.144317 0.809009
Si Si5 0.164931 0.798946 0.679857
Si Si6 0.476196 0.617405 0.308896
Si Si7 0.636800 0.405339 0.128353
Si Si8 0.861570 0.595679 0.629718
O O1 0.750000 0.750000 0.149186
O O2 0.609259 0.825655 0.152133
O O3 0.649470 0.565701 0.122882
O O4 0.665953 0.661788 0.280113
O O5 0.690524 0.340675 0.055087
O O6 0.808156 0.656703 0.554945
O O7 0.499443 0.290429 0.771333
O O8 0.542161 0.111531 0.882023
O O9 0.470586 0.034611 0.730884
O O10 0.250000 0.750000 0.653817
O O11 0.105685 0.675366 0.653941
O O12 0.160580 0.836004 0.781096
O O13 0.146977 0.933110 0.624953
O O14 0.544899 0.623447 0.381944
#
# Coordination Sequence:
#
# PCOD8204840 Si02
#       8
#     8   2   2   8   8   8   8   8
#     4  10  20  36  65  92 120 161 227 264 305 377
#     4  12  24  40  66  88 142 166 204 270 344 388
#     4  12  24  40  66  88 142 166 204 270 344 388
#     4  10  18  34  62  90 122 154 215 270 304 365
#     4  10  20  36  65  92 120 161 227 264 305 377
#     4  10  18  34  62  90 122 154 215 270 304 365
#     4  10  21  38  57  95 122 168 213 258 322 392
#     4  10  21  38  57  95 122 168 213 258 322 392
#
# _framework density 20.114293
#
# number of rings (size 3 to 8) (size 9 to 14) (size 15 to 20)
#    0.000    1.846    7.692    0.000    4.308    0.000 
#    0.000    2.308    0.000    0.000    0.000    0.000 
#    0.000    0.000    0.000    0.000    0.000    0.000 
#
# Total GULP energy -644274.473034 kJ/mol
# GULP energy per Si atom -12389.893712 kJ/mol
# Density = 2.006851 g / cm^3
# Si number density = 20.114293 Si / 1000 Ang^3
#
#
#
# Elastic Constant Matrix: (Units=GPa)
#
#
# Indices 1 2 3 4 5 6 
#
# 1 229.3110 80.6925 45.9505 0.0000 0.0000 0.0000
# 2 80.6925 111.0090 38.3930 0.0000 0.0000 0.0000
# 3 45.9505 38.3930 59.7133 0.0000 0.0000 0.0000
# 4 0.0000 0.0000 0.0000 18.0764 0.0000 0.0000
# 5 0.0000 0.0000 0.0000 0.0000 1.2182 0.0000
# 6 0.0000 0.0000 0.0000 0.0000 0.0000 27.2662
#
#
#
# Elastic Compliance Matrix: (Units=1/GPa)
#
#
# Indices 1 2 3 4 5 6 
#
# 1 0.006111 -0.003621 -0.002374 0.000000 0.000000 0.000000
# 2 -0.003621 0.013730 -0.006041 0.000000 0.000000 0.000000
# 3 -0.002374 -0.006041 0.022458 0.000000 0.000000 0.000000
# 4 0.000000 0.000000 0.000000 0.055321 0.000000 0.000000
# 5 0.000000 0.000000 0.000000 0.000000 0.820912 0.000000
# 6 0.000000 0.000000 0.000000 0.000000 0.000000 0.036675
#
#
# Mechanical properties :
#
#
# Convention : Reuss Voigt Hill
#
# Bulk Modulus (GPa) = 54.86772 81.12283 67.99528
# Shear Modulus (GPa) = 5.07432 24.97865 15.02648
#
# Velocity S-wave (km/s) = 1.59004 3.52779 2.73620
# Velocity P-wave (km/s) = 5.54149 7.55065 6.62270
#
# Compressibility (1/GPa) = 0.01822565
#
# Stress axis : x y z
#
# Youngs Moduli (GPa) = 163.64500 72.83529 44.52727
#
# Poissons Ratio (x) = 0.26372 0.10573
# Poissons Ratio (y) = 0.59252 0.26900
# Poissons Ratio (z) = 0.38856 0.44002
#
# Static dielectric constant tensor:
#      x y z
#    x 4.332720 0.000000 0.000000 
#    y 0.000000 3.905420 0.000000 
#    z 0.000000 0.000000 3.071640 
# 
# 
# High freq. dielectric constant tensor:
#      x y z
#    x 1.812340 0.000000 0.000000 
#    y 0.000000 1.801500 0.000000 
#    z 0.000000 0.000000 1.717050 
# 
# From -- ./inp_files/29694.got.cif
#   From: 2010.03.12/outbox.cif.g09.slc.cpg/sg50_15_cif.got.tgz:29694.got - 2010.04.16 13:23:21.
