data_PCOD8204199
_publ_section_title
;
Structure prediction by ZEFSAII (Michael W. Deem and Ramdas Pophale) SiO2 
 PCOD8204199
Probable space group: P C C M
;
_chemical_formula_sum "Si O2"
_cell_formula_units_Z 48
_cell_length_a 15.745952
_cell_length_b 8.947460
_cell_length_c 16.399594
_cell_angle_alpha 90.000000
_cell_angle_beta 90.000000
_cell_angle_gamma 90.000000
_cell_volume 2310.477721
_symmetry_space_group_name_H-M "P C C M"
_symmetry_group_IT_number 49
_symmetry_cell_setting 'orthorhombic'
loop_
_space_group_symop_operation_xyz
x,y,z
-x,-y,z
x,-y,1/2-z
-x,y,1/2-z
-x,-y,-z
x,y,-z
-x,y,1/2+z
x,-y,1/2+z
loop_
_atom_site_type_symbol
_atom_site_label
_atom_site_fract_x
_atom_site_fract_y
_atom_site_fract_z
Si Si1 0.916509 0.582032 0.096419
Si Si2 0.765533 0.926176 0.663001
Si Si3 0.248222 0.425546 0.663520
Si Si4 0.920660 0.913812 0.094261
Si Si5 0.424293 0.387415 0.594309
Si Si6 0.580365 0.070308 0.840073
O O1 0.832493 0.494887 0.119981
O O2 0.911513 0.749462 0.134085
O O3 0.000000 0.500000 0.132560
O O4 0.922466 0.587451 0.000000
O O5 0.770437 0.749214 0.673122
O O6 0.673368 0.969968 0.624159
O O7 0.781169 0.000000 0.750000
O O8 0.836166 0.987454 0.602175
O O9 0.263896 0.500000 0.750000
O O10 0.331926 0.460881 0.609472
O O11 0.940960 0.891249 0.000000
O O12 0.000000 0.000000 0.135992
O O13 0.500000 0.500000 0.616209
O O14 0.430576 0.335706 0.500000
O O15 0.432827 0.248485 0.656474
O O16 0.500000 0.000000 0.889416
O O17 0.578549 0.000000 0.750000
#
# Coordination Sequence:
#
# PCOD8204199 Si02
#       6
#     8   8   8   8   8   8
#     4  10  21  38  60  86 118 155 196 244 299 361
#     4  10  21  37  56  82 115 148 189 236 286 343
#     4  11  23  38  60  87 118 155 198 248 303 362
#     4  10  21  37  58  83 111 148 191 235 288 348
#     4  10  23  41  62  90 123 160 204 254 306 364
#     4   9  20  38  60  87 120 158 198 243 298 360
#
# _framework density 20.774925
#
# number of rings (size 3 to 8) (size 9 to 14) (size 15 to 20)
#    0.000    2.000    0.000    2.500    0.000   14.000 
#    0.000    5.000    0.000    0.000    0.000    0.000 
#    0.000    0.000    0.000    0.000    0.000    0.000 
#
# Total GULP energy -594932.209538 kJ/mol
# GULP energy per Si atom -12394.421032 kJ/mol
# Density = 2.072764 g / cm^3
# Si number density = 20.774925 Si / 1000 Ang^3
#
#
#
# Elastic Constant Matrix: (Units=GPa)
#
#
# Indices 1 2 3 4 5 6 
#
# 1 213.6003 95.7168 20.7086 0.0000 0.0000 0.0000
# 2 95.7168 154.8737 35.8667 0.0000 0.0000 0.0000
# 3 20.7086 35.8667 39.5613 0.0000 0.0000 0.0000
# 4 0.0000 0.0000 0.0000 31.0463 0.0000 0.0000
# 5 0.0000 0.0000 0.0000 0.0000 9.6622 0.0000
# 6 0.0000 0.0000 0.0000 0.0000 0.0000 32.9307
#
#
#
# Elastic Compliance Matrix: (Units=1/GPa)
#
#
# Indices 1 2 3 4 5 6 
#
# 1 0.006478 -0.004073 0.000302 0.000000 0.000000 0.000000
# 2 -0.004073 0.010734 -0.007600 0.000000 0.000000 0.000000
# 3 0.000302 -0.007600 0.032009 0.000000 0.000000 0.000000
# 4 0.000000 0.000000 0.000000 0.032210 0.000000 0.000000
# 5 0.000000 0.000000 0.000000 0.000000 0.103496 0.000000
# 6 0.000000 0.000000 0.000000 0.000000 0.000000 0.030367
#
#
# Mechanical properties :
#
#
# Convention : Reuss Voigt Hill
#
# Bulk Modulus (GPa) = 37.76528 79.17993 58.47261
# Shear Modulus (GPa) = 20.25421 31.77739 26.01580
#
# Velocity S-wave (km/s) = 3.12578 3.91526 3.54258
# Velocity P-wave (km/s) = 5.58973 7.65735 6.70373
#
# Compressibility (1/GPa) = 0.02647935
#
# Stress axis : x y z
#
# Youngs Moduli (GPa) = 154.37625 93.15902 31.24125
#
# Poissons Ratio (x) = 0.37947 -0.00944
# Poissons Ratio (y) = 0.62884 0.23742
# Poissons Ratio (z) = -0.04665 0.70797
#
# Static dielectric constant tensor:
#      x y z
#    x 4.386850 0.000000 0.000000 
#    y 0.000000 4.228690 0.000000 
#    z 0.000000 0.000000 3.414070 
# 
# 
# High freq. dielectric constant tensor:
#      x y z
#    x 1.842090 0.000000 0.000000 
#    y 0.000000 1.821800 0.000000 
#    z 0.000000 0.000000 1.781570 
# 
# From -- ./inp_files/16267.got.cif
#   From: 2010.03.12/outbox.cif.g09.slc.cpg/sg49_9_cif.got.tgz:16267.got - 2010.04.14 03:58:27.
