data_PCOD8204355
_publ_section_title
;
Structure prediction by ZEFSAII (Michael W. Deem and Ramdas Pophale) SiO2 
 PCOD8204355
Probable space group: P C C M
;
_chemical_formula_sum "Si O2"
_cell_formula_units_Z 48
_cell_length_a 15.233398
_cell_length_b 8.559075
_cell_length_c 15.505962
_cell_angle_alpha 90.000000
_cell_angle_beta 90.000000
_cell_angle_gamma 90.000000
_cell_volume 2021.726186
_symmetry_space_group_name_H-M "P C C M"
_symmetry_group_IT_number 49
_symmetry_cell_setting 'orthorhombic'
loop_
_space_group_symop_operation_xyz
x,y,z
-x,-y,z
x,-y,1/2-z
-x,y,1/2-z
-x,-y,-z
x,y,-z
-x,y,1/2+z
x,-y,1/2+z
loop_
_atom_site_type_symbol
_atom_site_label
_atom_site_fract_x
_atom_site_fract_y
_atom_site_fract_z
Si Si1 0.010600 0.175420 0.850921
Si Si2 0.531074 0.674763 0.397788
Si Si3 0.357105 0.179463 0.904728
Si Si4 0.680882 0.121169 0.831300
Si Si5 0.166912 0.308779 0.401290
Si Si6 0.188162 0.658099 0.397876
O O1 0.105737 0.238706 0.872650
O O2 0.000000 0.185122 0.750000
O O3 0.936593 0.277592 0.897523
O O4 0.000000 0.000000 0.885761
O O5 0.500000 0.500000 0.375137
O O6 0.553187 0.690456 0.500000
O O7 0.451437 0.783643 0.363808
O O8 0.614228 0.731314 0.339750
O O9 0.275749 0.264621 0.855132
O O10 0.341107 0.993809 0.910644
O O11 0.360382 0.251802 0.000000
O O12 0.779680 0.187510 0.840806
O O13 0.670142 0.000000 0.750000
O O14 0.199872 0.296047 0.500000
O O15 0.181110 0.482050 0.363572
O O16 0.195643 0.660198 0.500000
#
# Coordination Sequence:
#
# PCOD8204355 Si02
#       6
#     8   8   8   8   8   8
#     4  11  25  41  65  97 138 179 226 286 354 417
#     4  10  21  42  71 100 132 177 233 289 344 416
#     4  10  21  39  66  94 128 174 222 278 340 413
#     4  12  26  41  64  99 140 181 223 286 352 418
#     4  11  24  43  68  96 131 182 237 289 340 415
#     4  10  22  42  67  99 134 175 233 288 345 412
#
# _framework density 23.742087999999999
#
# number of rings (size 3 to 8) (size 9 to 14) (size 15 to 20)
#    0.000    1.333    0.000    5.000    4.667   10.667 
#    0.000    3.333    0.000    0.000    0.000    0.000 
#    0.000    0.000    0.000    0.000    0.000    0.000 
#
# Total GULP energy -594993.382303 kJ/mol
# GULP energy per Si atom -12395.695465 kJ/mol
# Density = 2.368805 g / cm^3
# Si number density = 23.742088 Si / 1000 Ang^3
#
#
#
# Elastic Constant Matrix: (Units=GPa)
#
#
# Indices 1 2 3 4 5 6 
#
# 1 120.5053 14.6493 10.0247 0.0000 0.0000 0.0000
# 2 14.6493 116.2661 14.2084 0.0000 0.0000 0.0000
# 3 10.0247 14.2084 52.6189 0.0000 0.0000 0.0000
# 4 0.0000 0.0000 0.0000 33.7014 0.0000 0.0000
# 5 0.0000 0.0000 0.0000 0.0000 22.9696 0.0000
# 6 0.0000 0.0000 0.0000 0.0000 0.0000 57.0278
#
#
#
# Elastic Compliance Matrix: (Units=1/GPa)
#
#
# Indices 1 2 3 4 5 6 
#
# 1 0.008523 -0.000905 -0.001379 0.000000 0.000000 0.000000
# 2 -0.000905 0.008991 -0.002255 0.000000 0.000000 0.000000
# 3 -0.001379 -0.002255 0.019876 0.000000 0.000000 0.000000
# 4 0.000000 0.000000 0.000000 0.029672 0.000000 0.000000
# 5 0.000000 0.000000 0.000000 0.000000 0.043536 0.000000
# 6 0.000000 0.000000 0.000000 0.000000 0.000000 0.017535
#
#
# Mechanical properties :
#
#
# Convention : Reuss Voigt Hill
#
# Bulk Modulus (GPa) = 35.32275 40.79502 38.05888
# Shear Modulus (GPa) = 34.09476 39.44031 36.76753
#
# Velocity S-wave (km/s) = 3.79363 4.08020 3.93952
# Velocity P-wave (km/s) = 5.83942 6.27832 6.06284
#
# Compressibility (1/GPa) = 0.02831037
#
# Stress axis : x y z
#
# Youngs Moduli (GPa) = 117.32694 111.22693 50.31114
#
# Poissons Ratio (x) = 0.10070 0.06940
# Poissons Ratio (y) = 0.10622 0.11346
# Poissons Ratio (z) = 0.16183 0.25084
#
# Static dielectric constant tensor:
#      x y z
#    x 4.321990 0.000000 0.000000 
#    y 0.000000 4.608980 0.000000 
#    z 0.000000 0.000000 4.102980 
# 
# 
# High freq. dielectric constant tensor:
#      x y z
#    x 1.955320 0.000000 0.000000 
#    y 0.000000 1.952140 0.000000 
#    z 0.000000 0.000000 1.925180 
# 
# From -- ./inp_files/17720.got.cif
#   From: 2010.03.12/outbox.cif.g09.slc.cpg/sg49_9_cif.got.tgz:17720.got - 2010.04.14 03:58:27.
