data_PCOD8204813
_publ_section_title
;
Structure prediction by ZEFSAII (Michael W. Deem and Ramdas Pophale) SiO2 
 PCOD8204813
Probable space group: P B A N
;
_chemical_formula_sum "Si O2"
_cell_formula_units_Z 40
_cell_length_a 20.445452
_cell_length_b 8.985560
_cell_length_c 10.572617
_cell_angle_alpha 90.000000
_cell_angle_beta 90.000000
_cell_angle_gamma 90.000000
_cell_volume 1942.336022
_symmetry_space_group_name_H-M "P B A N"
_symmetry_group_IT_number 50
_space_group.IT_coordinate_system_code '2'
_symmetry_cell_setting 'orthorhombic'
loop_
_space_group_symop_operation_xyz
x,y,z
1/2-x,1/2-y,z
x,1/2-y,-z
1/2-x,y,-z
-x,-y,-z
1/2+x,1/2+y,-z
-x,1/2+y,z
1/2+x,-y,z
loop_
_atom_site_type_symbol
_atom_site_label
_atom_site_fract_x
_atom_site_fract_y
_atom_site_fract_z
Si Si1 0.693663 0.998504 0.660705
Si Si2 0.750000 0.250000 0.500000
Si Si3 0.250000 0.750000 0.000000
Si Si4 0.073207 0.430075 0.152812
Si Si5 0.557996 0.589103 0.855328
Si Si6 0.810100 0.002428 0.840066
Si Si7 0.750000 0.750000 0.000000
Si Si8 0.750000 0.750000 0.500000
O O1 0.635921 0.991081 0.767158
O O2 0.763758 0.003474 0.723184
O O3 0.697409 0.848981 0.577906
O O4 0.697027 0.150055 0.578717
O O5 0.200457 0.650831 0.920191
O O6 0.058472 0.260176 0.184666
O O7 0.010715 0.527172 0.192853
O O8 0.078346 0.445775 0.001518
O O9 0.616457 0.502810 0.783830
O O10 0.798801 0.850914 0.919271
#
# Coordination Sequence:
#
# PCOD8204813 Si02
#       8
#     8   2   2   8   8   8   2   2
#     4  11  22  40  62  84 113 153 202 259 302 333
#     4  10  26  42  60  86 112 154 222 268 288 328
#     4  10  22  30  52  94 124 154 194 228 292 384
#     4  10  21  37  58  86 125 161 188 234 298 362
#     4  10  21  35  57  92 124 154 189 224 294 392
#     4  11  20  34  57  85 120 154 189 242 300 357
#     4  10  18  30  56  94 124 150 194 232 292 388
#     4  10  22  38  64  86 104 150 222 264 288 332
#
# _framework density 20.59376
#
# number of rings (size 3 to 8) (size 9 to 14) (size 15 to 20)
#    0.000    1.600    0.000    7.200    0.000    6.400 
#    0.000    0.000    0.000   20.400    0.000    0.000 
#    0.000    0.000    0.000    0.000    0.000    0.000 
#
# Total GULP energy -495568.223037 kJ/mol
# GULP energy per Si atom -12389.205576 kJ/mol
# Density = 2.054689 g / cm^3
# Si number density = 20.593760 Si / 1000 Ang^3
#
#
#
# Elastic Constant Matrix: (Units=GPa)
#
#
# Indices 1 2 3 4 5 6 
#
# 1 147.6599 47.9099 34.2346 0.0000 0.0000 0.0000
# 2 47.9099 135.9686 35.4164 0.0000 0.0000 0.0000
# 3 34.2346 35.4164 72.7432 0.0000 0.0000 0.0000
# 4 0.0000 0.0000 0.0000 10.7759 0.0000 0.0000
# 5 0.0000 0.0000 0.0000 0.0000 21.8017 0.0000
# 6 0.0000 0.0000 0.0000 0.0000 0.0000 28.2038
#
#
#
# Elastic Compliance Matrix: (Units=1/GPa)
#
#
# Indices 1 2 3 4 5 6 
#
# 1 0.008109 -0.002134 -0.002777 0.000000 0.000000 0.000000
# 2 -0.002134 0.008984 -0.003370 0.000000 0.000000 0.000000
# 3 -0.002777 -0.003370 0.016695 0.000000 0.000000 0.000000
# 4 0.000000 0.000000 0.000000 0.092800 0.000000 0.000000
# 5 0.000000 0.000000 0.000000 0.000000 0.045868 0.000000
# 6 0.000000 0.000000 0.000000 0.000000 0.000000 0.035456
#
#
# Mechanical properties :
#
#
# Convention : Reuss Voigt Hill
#
# Bulk Modulus (GPa) = 58.05275 65.72148 61.88711
# Shear Modulus (GPa) = 21.71882 28.07700 24.89791
#
# Velocity S-wave (km/s) = 3.25103 3.69640 3.48084
# Velocity P-wave (km/s) = 6.50715 7.08522 6.80233
#
# Compressibility (1/GPa) = 0.01722571
#
# Stress axis : x y z
#
# Youngs Moduli (GPa) = 123.32712 111.30560 59.89911
#
# Poissons Ratio (x) = 0.23750 0.16635
# Poissons Ratio (y) = 0.26315 0.20186
# Poissons Ratio (z) = 0.34250 0.37510
#
# Static dielectric constant tensor:
#      x y z
#    x 3.787280 0.000000 0.000000 
#    y 0.000000 4.078800 0.000000 
#    z 0.000000 0.000000 3.642370 
# 
# 
# High freq. dielectric constant tensor:
#      x y z
#    x 1.802970 0.000000 0.000000 
#    y 0.000000 1.827550 0.000000 
#    z 0.000000 0.000000 1.775400 
# 
# From -- ./inp_files/22295.got.cif
#   From: 2010.03.12/outbox.cif.g09.slc.cpg/sg50_12_cif.got.tgz:22295.got - 2010.04.16 13:23:21.
