data_PCOD8204921
_publ_section_title
;
Structure prediction by ZEFSAII (Michael W. Deem and Ramdas Pophale) SiO2 
 PCOD8204921
Probable space group: P B A N
;
_chemical_formula_sum "Si O2"
_cell_formula_units_Z 56
_cell_length_a 14.231897
_cell_length_b 20.266911
_cell_length_c 10.270607
_cell_angle_alpha 90.000000
_cell_angle_beta 90.000000
_cell_angle_gamma 90.000000
_cell_volume 2962.418859
_symmetry_space_group_name_H-M "P B A N"
_symmetry_group_IT_number 50
_space_group.IT_coordinate_system_code '2'
_symmetry_cell_setting 'orthorhombic'
loop_
_space_group_symop_operation_xyz
x,y,z
1/2-x,1/2-y,z
x,1/2-y,-z
1/2-x,y,-z
-x,-y,-z
1/2+x,1/2+y,-z
-x,1/2+y,z
1/2+x,-y,z
loop_
_atom_site_type_symbol
_atom_site_label
_atom_site_fract_x
_atom_site_fract_y
_atom_site_fract_z
Si Si1 0.646970 0.538367 0.999999
Si Si2 0.146710 0.750000 0.650650
Si Si3 0.500562 0.642702 0.723298
Si Si4 0.500562 0.642702 0.276703
Si Si5 0.500000 0.500000 0.790617
Si Si6 0.581356 0.824510 0.999999
Si Si7 0.354827 0.173125 0.500000
O O1 0.592690 0.514188 0.873622
O O2 0.659792 0.618291 0.000002
O O3 0.750000 0.506415 0.000000
O O4 0.592686 0.514186 0.126370
O O5 0.250000 0.750000 0.720056
O O6 0.164475 0.750000 0.500000
O O7 0.090069 0.816124 0.683171
O O8 0.090069 0.683875 0.683169
O O9 0.477263 0.564998 0.706546
O O10 0.518660 0.664120 0.871926
O O11 0.590020 0.654901 0.631305
O O12 0.477265 0.564998 0.293454
O O13 0.590020 0.654901 0.368695
O O14 0.518659 0.664121 0.128074
O O15 0.623785 0.750000 0.000000
O O16 0.341040 0.250000 0.500000
O O17 0.250000 0.140063 0.500000
#
# Coordination Sequence:
#
# PCOD8204921 Si02
#       7
#     8   8   8   8   8   8   8
#     4   9  19  37  54  81 124 162 191 231 297 365
#     4  11  22  39  63  87 118 164 205 242 293 349
#     4  11  20  41  59  88 122 155 197 249 291 355
#     4  11  20  41  59  88 122 155 197 249 291 355
#     4   9  22  35  60  84 118 162 196 242 304 344
#     4  10  19  33  63  90 117 149 186 246 303 346
#     4  11  22  39  64  88 116 156 191 238 307 363
#
# _framework density 18.903471
#
# number of rings (size 3 to 8) (size 9 to 14) (size 15 to 20)
#    0.000    1.714    4.286    0.857    0.000    6.571 
#    0.000    1.429    0.000    0.000    0.000    0.000 
#    0.000    0.000    0.000    0.000    0.000    0.000 
#
# Total GULP energy -693968.247155 kJ/mol
# GULP energy per Si atom -12392.290128 kJ/mol
# Density = 1.886045 g / cm^3
# Si number density = 18.903471 Si / 1000 Ang^3
#
#
#
# Elastic Constant Matrix: (Units=GPa)
#
#
# Indices 1 2 3 4 5 6 
#
# 1 168.1726 64.8112 47.0273 0.0000 0.0000 0.0000
# 2 64.8112 162.8675 31.5977 0.0000 0.0000 0.0000
# 3 47.0273 31.5977 100.9161 0.0000 0.0000 0.0000
# 4 0.0000 0.0000 0.0000 42.8172 0.0000 0.0000
# 5 0.0000 0.0000 0.0000 0.0000 0.8156 0.0000
# 6 0.0000 0.0000 0.0000 0.0000 0.0000 -7.2595
#
#
#
# Elastic Compliance Matrix: (Units=1/GPa)
#
#
# Indices 1 2 3 4 5 6 
#
# 1 0.007701 -0.002521 -0.002799 0.000000 0.000000 0.000000
# 2 -0.002521 0.007363 -0.001130 0.000000 0.000000 0.000000
# 3 -0.002799 -0.001130 0.011568 0.000000 0.000000 0.000000
# 4 0.000000 0.000000 0.000000 0.023355 0.000000 0.000000
# 5 0.000000 0.000000 0.000000 0.000000 1.226123 0.000000
# 6 0.000000 0.000000 0.000000 0.000000 0.000000 -0.137750
#
#
# Mechanical properties :
#
#
# Convention : Reuss Voigt Hill
#
# Bulk Modulus (GPa) = 72.83717 79.86987 76.35352
# Shear Modulus (GPa) = 4.32587 26.50932 15.41759
#
# Velocity S-wave (km/s) = 1.51439 3.74886 2.85896
# Velocity P-wave (km/s) = 6.45543 7.81548 7.16779
#
# Compressibility (1/GPa) = 0.01372925
#
# Stress axis : x y z
#
# Youngs Moduli (GPa) = 129.85843 135.82170 86.44893
#
# Poissons Ratio (x) = 0.34245 0.24198
# Poissons Ratio (y) = 0.32742 0.09772
# Poissons Ratio (z) = 0.36349 0.15352
#
# Static dielectric constant tensor:
#      x y z
#    x 3.644460 0.000000 0.000000 
#    y 0.000000 3.839100 0.000000 
#    z 0.000000 0.000000 3.552950 
# 
# 
# High freq. dielectric constant tensor:
#      x y z
#    x 1.723070 0.000000 0.000000 
#    y 0.000000 1.745160 0.000000 
#    z 0.000000 0.000000 1.732830 
# 
# From -- ./inp_files/13310.got.cif
#   From: 2010.03.12/outbox.cif.g09.slc.cpg/sg50_7_cif.got.tgz:13310.got - 2010.04.16 13:23:21.
