data_PCOD8204080
_publ_section_title
;
Structure prediction by ZEFSAII (Michael W. Deem and Ramdas Pophale) SiO2 
 PCOD8204080
Probable space group: P C C M
;
_chemical_formula_sum "Si O2"
_cell_formula_units_Z 64
_cell_length_a 12.297594
_cell_length_b 14.842628
_cell_length_c 17.775148
_cell_angle_alpha 90.000000
_cell_angle_beta 90.000000
_cell_angle_gamma 90.000000
_cell_volume 3244.473111
_symmetry_space_group_name_H-M "P C C M"
_symmetry_group_IT_number 49
_symmetry_cell_setting 'orthorhombic'
loop_
_space_group_symop_operation_xyz
x,y,z
-x,-y,z
x,-y,1/2-z
-x,y,1/2-z
-x,-y,-z
x,y,-z
-x,y,1/2+z
x,-y,1/2+z
loop_
_atom_site_type_symbol
_atom_site_label
_atom_site_fract_x
_atom_site_fract_y
_atom_site_fract_z
Si Si1 0.754921 0.547124 0.168068
Si Si2 0.175986 0.007641 0.661127
Si Si3 0.604540 0.055172 0.089312
Si Si4 0.448277 0.597916 0.413131
Si Si5 0.006258 0.861654 0.660868
Si Si6 0.182781 0.379093 0.412850
Si Si7 0.029597 0.336458 0.164770
Si Si8 0.373705 0.741892 0.910740
O O1 0.750211 0.500000 0.250000
O O2 0.650309 0.606952 0.146799
O O3 0.753983 0.471215 0.103641
O O4 0.857908 0.611800 0.158017
O O5 0.290550 0.003609 0.619642
O O6 0.110602 0.097940 0.635289
O O7 0.195393 0.000000 0.750000
O O8 0.105347 0.923188 0.632571
O O9 0.603359 0.157925 0.120973
O O10 0.500000 0.000000 0.118819
O O11 0.607480 0.056109 0.000000
O O12 0.500000 0.500000 0.405106
O O13 0.412376 0.615311 0.500000
O O14 0.531811 0.674167 0.384701
O O15 0.029847 0.762796 0.626733
O O16 0.000000 0.863056 0.750000
O O17 0.161813 0.367498 0.500000
O O18 0.256593 0.296063 0.381413
O O19 0.067180 0.391824 0.372922
O O20 0.000000 0.322409 0.250000
O O21 0.369515 0.742163 0.000000
#
# Coordination Sequence:
#
# PCOD8204080 Si02
#       8
#     8   8   8   8   8   8   8   8
#     4  12  24  37  55  82 118 151 187 236 291 340
#     4   9  17  35  60  82 111 145 190 233 272 336
#     4  10  21  36  57  84 117 151 182 228 293 344
#     4  10  20  39  62  80 107 149 197 241 280 331
#     4   8  17  34  58  83 108 150 188 225 283 340
#     4  11  22  38  61  83 109 151 200 235 274 339
#     4  11  22  37  55  80 119 153 184 231 292 343
#     4   9  19  38  62  85 109 147 193 236 284 339
#
# _framework density 19.725852
#
# number of rings (size 3 to 8) (size 9 to 14) (size 15 to 20)
#    0.000    2.000    2.500    2.250    0.000    3.000 
#    0.000    1.875    2.750    0.000    0.000    0.000 
#    0.000    0.000    0.000    0.000    0.000    0.000 
#
# Total GULP energy -793313.650856 kJ/mol
# GULP energy per Si atom -12395.525795 kJ/mol
# Density = 1.968096 g / cm^3
# Si number density = 19.725852 Si / 1000 Ang^3
#
#
#
# Elastic Constant Matrix: (Units=GPa)
#
#
# Indices 1 2 3 4 5 6 
#
# 1 154.7329 43.1422 37.7508 0.0000 0.0000 0.0000
# 2 43.1422 93.4390 17.8994 0.0000 0.0000 0.0000
# 3 37.7508 17.8994 34.8751 0.0000 0.0000 0.0000
# 4 0.0000 0.0000 0.0000 18.4943 0.0000 0.0000
# 5 0.0000 0.0000 0.0000 0.0000 24.0304 0.0000
# 6 0.0000 0.0000 0.0000 0.0000 0.0000 37.3461
#
#
#
# Elastic Compliance Matrix: (Units=1/GPa)
#
#
# Indices 1 2 3 4 5 6 
#
# 1 0.009331 -0.002632 -0.008750 0.000000 0.000000 0.000000
# 2 -0.002632 0.012612 -0.003623 0.000000 0.000000 0.000000
# 3 -0.008750 -0.003623 0.040005 0.000000 0.000000 0.000000
# 4 0.000000 0.000000 0.000000 0.054071 0.000000 0.000000
# 5 0.000000 0.000000 0.000000 0.000000 0.041614 0.000000
# 6 0.000000 0.000000 0.000000 0.000000 0.000000 0.026777
#
#
# Mechanical properties :
#
#
# Convention : Reuss Voigt Hill
#
# Bulk Modulus (GPa) = 31.31201 53.40353 42.35777
# Shear Modulus (GPa) = 22.21572 28.25781 25.23676
#
# Velocity S-wave (km/s) = 3.35957 3.78898 3.58072
# Velocity P-wave (km/s) = 5.56390 6.80246 6.21411
#
# Compressibility (1/GPa) = 0.03193662
#
# Stress axis : x y z
#
# Youngs Moduli (GPa) = 107.16479 79.29158 24.99699
#
# Poissons Ratio (x) = 0.20872 0.21872
# Poissons Ratio (y) = 0.28209 0.09058
# Poissons Ratio (z) = 0.93768 0.28731
#
# Static dielectric constant tensor:
#      x y z
#    x -4.759210 0.000000 0.000000 
#    y 0.000000 3.986460 0.000000 
#    z 0.000000 0.000000 3.215300 
# 
# 
# High freq. dielectric constant tensor:
#      x y z
#    x 1.778050 0.000000 0.000000 
#    y 0.000000 1.774480 0.000000 
#    z 0.000000 0.000000 1.734900 
# 
# From -- ./inp_files/17340.got.cif
#   From: 2010.03.12/outbox.cif.g09.slc.cpg/sg49_9_cif.got.tgz:17340.got - 2010.04.14 03:58:27.
