data_PCOD8204297
_publ_section_title
;
Structure prediction by ZEFSAII (Michael W. Deem and Ramdas Pophale) SiO2 
 PCOD8204297
Probable space group: P C C M
;
_chemical_formula_sum "Si O2"
_cell_formula_units_Z 34
_cell_length_a 9.377178
_cell_length_b 20.255768
_cell_length_c 8.771874
_cell_angle_alpha 90.000000
_cell_angle_beta 90.000000
_cell_angle_gamma 90.000000
_cell_volume 1666.146783
_symmetry_space_group_name_H-M "P C C M"
_symmetry_group_IT_number 49
_symmetry_cell_setting 'orthorhombic'
loop_
_space_group_symop_operation_xyz
x,y,z
-x,-y,z
x,-y,1/2-z
-x,y,1/2-z
-x,-y,-z
x,y,-z
-x,y,1/2+z
x,-y,1/2+z
loop_
_atom_site_type_symbol
_atom_site_label
_atom_site_fract_x
_atom_site_fract_y
_atom_site_fract_z
Si Si1 0.650913 0.931768 0.821109
Si Si2 0.000000 0.500000 0.750000
Si Si3 0.651265 0.301050 0.819733
Si Si4 0.725502 0.563220 0.830923
Si Si5 0.153886 0.191289 0.820653
O O1 0.500000 0.911509 0.750000
O O2 0.761788 0.875013 0.780154
O O3 0.708329 0.000000 0.750000
O O4 0.631061 0.941256 0.000000
O O5 0.103965 0.451680 0.847354
O O6 0.500000 0.280041 0.750000
O O7 0.692625 0.375061 0.775223
O O8 0.771998 0.253693 0.755446
O O9 0.643044 0.294627 0.000000
O O10 0.650799 0.500000 0.750000
O O11 0.662443 0.575313 0.000000
O O12 0.000000 0.182535 0.750000
O O13 0.144180 0.203855 0.000000
#
# Coordination Sequence:
#
# PCOD8204297 Si02
#       5
#     8   2   8   8   8
#     4  10  21  38  64  94 126 165 208 254 306 368
#     4   8  22  36  64  88 126 160 202 248 310 364
#     4  12  26  44  66  91 124 165 210 261 316 375
#     4  10  21  38  62  90 123 160 205 253 308 369
#     4  11  25  43  64  93 127 166 210 258 314 371
#
# _framework density 20.406365999999998
#
# number of rings (size 3 to 8) (size 9 to 14) (size 15 to 20)
#    0.706    0.706    0.000    6.000    1.647    6.588 
#    0.000    4.706    0.000    0.000    0.000    0.000 
#    0.000    0.000    0.000    0.000    0.000    0.000 
#
# Total GULP energy -421569.146281 kJ/mol
# GULP energy per Si atom -12399.092538 kJ/mol
# Density = 2.035992 g / cm^3
# Si number density = 20.406366 Si / 1000 Ang^3
#
#
#
# Elastic Constant Matrix: (Units=GPa)
#
#
# Indices 1 2 3 4 5 6 
#
# 1 108.9148 67.0977 51.3817 0.0000 0.0000 0.0000
# 2 67.0977 151.7325 76.5359 0.0000 0.0000 0.0000
# 3 51.3817 76.5359 153.5557 0.0000 0.0000 0.0000
# 4 0.0000 0.0000 0.0000 36.1628 0.0000 0.0000
# 5 0.0000 0.0000 0.0000 0.0000 27.9232 0.0000
# 6 0.0000 0.0000 0.0000 0.0000 0.0000 37.0172
#
#
#
# Elastic Compliance Matrix: (Units=1/GPa)
#
#
# Indices 1 2 3 4 5 6 
#
# 1 0.013060 -0.004770 -0.001992 0.000000 0.000000 0.000000
# 2 -0.004770 0.010546 -0.003660 0.000000 0.000000 0.000000
# 3 -0.001992 -0.003660 0.009003 0.000000 0.000000 0.000000
# 4 0.000000 0.000000 0.000000 0.027653 0.000000 0.000000
# 5 0.000000 0.000000 0.000000 0.000000 0.035813 0.000000
# 6 0.000000 0.000000 0.000000 0.000000 0.000000 0.027014
#
#
# Mechanical properties :
#
#
# Convention : Reuss Voigt Hill
#
# Bulk Modulus (GPa) = 85.00726 89.35927 87.18327
# Shear Modulus (GPa) = 33.81638 34.83316 34.32477
#
# Velocity S-wave (km/s) = 4.07523 4.13604 4.10574
# Velocity P-wave (km/s) = 7.99318 8.16664 8.08038
#
# Compressibility (1/GPa) = 0.01176370
#
# Stress axis : x y z
#
# Youngs Moduli (GPa) = 76.56811 94.81937 111.06908
#
# Poissons Ratio (x) = 0.45232 0.22130
# Poissons Ratio (y) = 0.36526 0.40655
# Poissons Ratio (z) = 0.15256 0.34707
#
# Static dielectric constant tensor:
#      x y z
#    x 3.678040 0.000000 0.000000 
#    y 0.000000 3.800480 0.000000 
#    z 0.000000 0.000000 3.746270 
# 
# 
# High freq. dielectric constant tensor:
#      x y z
#    x 1.797150 0.000000 0.000000 
#    y 0.000000 1.807000 0.000000 
#    z 0.000000 0.000000 1.812730 
# 
# From -- ./inp_files/1545.got.cif
#   From: 2010.03.12/outbox.cif.g09.slc.cpg/sg49_1_cif.got.tgz:1545.got - 2010.04.14 03:58:27.
