data_PCOD8204672
_publ_section_title
;
Structure prediction by ZEFSAII (Michael W. Deem and Ramdas Pophale) SiO2 
 PCOD8204672
Probable space group: P C C M
;
_chemical_formula_sum "Si O2"
_cell_formula_units_Z 32
_cell_length_a 8.718514
_cell_length_b 18.471089
_cell_length_c 9.107513
_cell_angle_alpha 90.000000
_cell_angle_beta 90.000000
_cell_angle_gamma 90.000000
_cell_volume 1466.677974
_symmetry_space_group_name_H-M "P C C M"
_symmetry_group_IT_number 49
_symmetry_cell_setting 'orthorhombic'
loop_
_space_group_symop_operation_xyz
x,y,z
-x,-y,z
x,-y,1/2-z
-x,y,1/2-z
-x,-y,-z
x,y,-z
-x,y,1/2+z
x,-y,1/2+z
loop_
_atom_site_type_symbol
_atom_site_label
_atom_site_fract_x
_atom_site_fract_y
_atom_site_fract_z
Si Si1 0.349049 0.197069 0.666414
Si Si2 0.179547 0.662843 0.229441
Si Si3 0.700943 0.563228 0.500000
Si Si4 0.350360 0.395227 0.000000
Si Si5 0.838343 0.075584 0.321685
O O1 0.500000 0.224338 0.750000
O O2 0.381290 0.168837 0.500000
O O3 0.233425 0.264212 0.650183
O O4 0.283566 0.134585 0.771233
O O5 0.284026 0.652187 0.370130
O O6 0.000000 0.671478 0.250000
O O7 0.205913 0.589740 0.139476
O O8 0.533958 0.601282 0.500000
O O9 0.706381 0.477383 0.500000
O O10 0.849181 0.070955 0.500000
O O11 0.000000 0.097977 0.250000
O O12 0.785332 0.000000 0.250000
#
# Coordination Sequence:
#
# PCOD8204672 Si02
#       5
#     8   8   4   4   8
#     4  12  26  45  69  98 137 181 234 289 353 422
#     4  12  26  42  67  98 135 176 228 287 348 414
#     4  11  23  47  63 101 128 181 224 283 345 421
#     4  11  25  41  73  91 136 175 228 279 351 421
#     4  11  23  43  72 105 144 186 232 285 347 410
#
# _framework density 21.818013000000001
#
# number of rings (size 3 to 8) (size 9 to 14) (size 15 to 20)
#    0.000    0.500    1.250    8.250    3.500    5.500 
#    0.000    2.500    0.000    0.000    0.000    0.000 
#    0.000    0.000    0.000    0.000    0.000    0.000 
#
# Total GULP energy -396717.669820 kJ/mol
# GULP energy per Si atom -12397.427182 kJ/mol
# Density = 2.176835 g / cm^3
# Si number density = 21.818013 Si / 1000 Ang^3
#
#
#
# Elastic Constant Matrix: (Units=GPa)
#
#
# Indices 1 2 3 4 5 6 
#
# 1 116.2428 47.9267 29.7549 0.0000 0.0000 0.0000
# 2 47.9267 86.2220 33.2526 0.0000 0.0000 0.0000
# 3 29.7549 33.2526 177.7556 0.0000 0.0000 0.0000
# 4 0.0000 0.0000 0.0000 39.2085 0.0000 0.0000
# 5 0.0000 0.0000 0.0000 0.0000 33.2360 0.0000
# 6 0.0000 0.0000 0.0000 0.0000 0.0000 40.4825
#
#
#
# Elastic Compliance Matrix: (Units=1/GPa)
#
#
# Indices 1 2 3 4 5 6 
#
# 1 0.011257 -0.005961 -0.000769 0.000000 0.000000 0.000000
# 2 -0.005961 0.015656 -0.001931 0.000000 0.000000 0.000000
# 3 -0.000769 -0.001931 0.006116 0.000000 0.000000 0.000000
# 4 0.000000 0.000000 0.000000 0.025505 0.000000 0.000000
# 5 0.000000 0.000000 0.000000 0.000000 0.030088 0.000000
# 6 0.000000 0.000000 0.000000 0.000000 0.000000 0.024702
#
#
# Mechanical properties :
#
#
# Convention : Reuss Voigt Hill
#
# Bulk Modulus (GPa) = 63.66612 66.89876 65.28244
# Shear Modulus (GPa) = 36.79697 40.53782 38.66740
#
# Velocity S-wave (km/s) = 4.11121 4.31513 4.21440
# Velocity P-wave (km/s) = 7.19583 7.45358 7.32584
#
# Compressibility (1/GPa) = 0.01570694
#
# Stress axis : x y z
#
# Youngs Moduli (GPa) = 88.83237 63.87375 163.51342
#
# Poissons Ratio (x) = 0.38073 0.12579
# Poissons Ratio (y) = 0.52950 0.31574
# Poissons Ratio (z) = 0.06834 0.12334
#
# Static dielectric constant tensor:
#      x y z
#    x 3.946160 0.000000 0.000000 
#    y 0.000000 3.880890 0.000000 
#    z 0.000000 0.000000 4.148940 
# 
# 
# High freq. dielectric constant tensor:
#      x y z
#    x 1.861220 0.000000 0.000000 
#    y 0.000000 1.866700 0.000000 
#    z 0.000000 0.000000 1.877800 
# 
# From -- ./inp_files/1451.got.cif
#   From: 2010.03.12/outbox.cif.g09.slc.cpg/sg49_1_cif.got.tgz:1451.got - 2010.04.14 03:58:27.
