data_PCOD8204924
_publ_section_title
;
Structure prediction by ZEFSAII (Michael W. Deem and Ramdas Pophale) SiO2 
 PCOD8204924
Probable space group: P B A N
;
_chemical_formula_sum "Si O2"
_cell_formula_units_Z 60
_cell_length_a 17.936842
_cell_length_b 18.213756
_cell_length_c 8.970963
_cell_angle_alpha 90.000000
_cell_angle_beta 90.000000
_cell_angle_gamma 90.000000
_cell_volume 2930.789064
_symmetry_space_group_name_H-M "P B A N"
_symmetry_group_IT_number 50
_space_group.IT_coordinate_system_code '2'
_symmetry_cell_setting 'orthorhombic'
loop_
_space_group_symop_operation_xyz
x,y,z
1/2-x,1/2-y,z
x,1/2-y,-z
1/2-x,y,-z
-x,-y,-z
1/2+x,1/2+y,-z
-x,1/2+y,z
1/2+x,-y,z
loop_
_atom_site_type_symbol
_atom_site_label
_atom_site_fract_x
_atom_site_fract_y
_atom_site_fract_z
Si Si1 0.380348 0.943585 0.293892
Si Si2 0.384119 0.019620 0.699245
Si Si3 0.250000 0.978393 0.500000
Si Si4 0.484625 0.722238 0.170631
Si Si5 0.480399 0.148375 0.634507
Si Si6 0.180296 0.788240 0.157358
Si Si7 0.481018 0.416268 0.671946
Si Si8 0.827635 0.055204 0.968845
O O1 0.303447 0.932583 0.387650
O O2 0.436453 0.881032 0.342511
O O3 0.412401 0.026850 0.311300
O O4 0.369483 0.925451 0.120193
O O5 0.418155 0.099563 0.713816
O O6 0.307067 0.023793 0.605492
O O7 0.444186 0.962449 0.627460
O O8 0.376933 0.998606 0.871294
O O9 0.529342 0.772285 0.289115
O O10 0.399605 0.724876 0.232877
O O11 0.510508 0.636298 0.181919
O O12 0.494208 0.750000 0.000000
O O13 0.464116 0.142990 0.458129
O O14 0.250000 0.750000 0.247118
O O15 0.193214 0.874431 0.132940
O O16 0.176410 0.750000 0.000000
O O17 0.750000 0.013772 0.000000
#
# Coordination Sequence:
#
# PCOD8204924 Si02
#       8
#     8   8   4   8   8   8   8   8
#     4  11  23  37  65  90 122 158 209 253 303 363
#     4  11  23  39  63  89 123 157 212 253 299 366
#     4  12  20  40  62  92 122 154 196 254 310 362
#     4  11  24  38  60  88 123 161 204 252 303 357
#     4  11  23  41  61  88 121 167 204 250 310 364
#     4  10  19  34  53  80 129 163 194 234 290 363
#     4  11  22  43  60  88 123 163 204 252 308 369
#     4  12  22  34  60  94 121 166 204 251 302 354
#
# _framework density 20.472303
#
# number of rings (size 3 to 8) (size 9 to 14) (size 15 to 20)
#    0.000    0.933    6.667    2.800    1.867    1.067 
#    0.000    0.000    0.000    3.200    0.000    1.867 
#    0.000    0.000    0.000    0.000    0.000    0.000 
#
# Total GULP energy -743356.584888 kJ/mol
# GULP energy per Si atom -12389.276415 kJ/mol
# Density = 2.042571 g / cm^3
# Si number density = 20.472303 Si / 1000 Ang^3
#
#
#
# Elastic Constant Matrix: (Units=GPa)
#
#
# Indices 1 2 3 4 5 6 
#
# 1 81.9965 31.4217 17.8377 0.0000 0.0000 0.0000
# 2 31.4217 87.7079 17.5324 0.0000 0.0000 0.0000
# 3 17.8377 17.5324 68.2964 0.0000 0.0000 0.0000
# 4 0.0000 0.0000 0.0000 32.4093 0.0000 0.0000
# 5 0.0000 0.0000 0.0000 0.0000 26.2409 0.0000
# 6 0.0000 0.0000 0.0000 0.0000 0.0000 14.3565
#
#
#
# Elastic Compliance Matrix: (Units=1/GPa)
#
#
# Indices 1 2 3 4 5 6 
#
# 1 0.014561 -0.004697 -0.002597 0.000000 0.000000 0.000000
# 2 -0.004697 0.013534 -0.002247 0.000000 0.000000 0.000000
# 3 -0.002597 -0.002247 0.015897 0.000000 0.000000 0.000000
# 4 0.000000 0.000000 0.000000 0.030855 0.000000 0.000000
# 5 0.000000 0.000000 0.000000 0.000000 0.038108 0.000000
# 6 0.000000 0.000000 0.000000 0.000000 0.000000 0.069655
#
#
# Mechanical properties :
#
#
# Convention : Reuss Voigt Hill
#
# Bulk Modulus (GPa) = 40.14777 41.28716 40.71747
# Shear Modulus (GPa) = 23.80996 26.01528 24.91262
#
# Velocity S-wave (km/s) = 3.41403 3.56863 3.49219
# Velocity P-wave (km/s) = 5.93246 6.09847 6.01604
#
# Compressibility (1/GPa) = 0.02490798
#
# Stress axis : x y z
#
# Youngs Moduli (GPa) = 68.67823 73.89051 62.90380
#
# Poissons Ratio (x) = 0.34708 0.16337
# Poissons Ratio (y) = 0.32260 0.14137
# Poissons Ratio (z) = 0.17837 0.16606
#
# Static dielectric constant tensor:
#      x y z
#    x 6.284310 0.000000 0.000000 
#    y 0.000000 3.698430 0.000000 
#    z 0.000000 0.000000 3.711450 
# 
# 
# High freq. dielectric constant tensor:
#      x y z
#    x 1.792120 0.000000 0.000000 
#    y 0.000000 1.777680 0.000000 
#    z 0.000000 0.000000 1.800660 
# 
# From -- ./inp_files/14504.got.cif
#   From: 2010.03.12/outbox.cif.g09.slc.cpg/sg50_8_cif.got.tgz:14504.got - 2010.04.16 13:23:21.
