data_PCOD8204819
_publ_section_title
;
Structure prediction by ZEFSAII (Michael W. Deem and Ramdas Pophale) SiO2 
 PCOD8204819
Probable space group: P B A N
;
_chemical_formula_sum "Si O2"
_cell_formula_units_Z 56
_cell_length_a 13.377862
_cell_length_b 12.911054
_cell_length_c 18.278045
_cell_angle_alpha 90.000000
_cell_angle_beta 90.000000
_cell_angle_gamma 90.000000
_cell_volume 3157.025948
_symmetry_space_group_name_H-M "P B A N"
_symmetry_group_IT_number 50
_space_group.IT_coordinate_system_code '2'
_symmetry_cell_setting 'orthorhombic'
loop_
_space_group_symop_operation_xyz
x,y,z
1/2-x,1/2-y,z
x,1/2-y,-z
1/2-x,y,-z
-x,-y,-z
1/2+x,1/2+y,-z
-x,1/2+y,z
1/2+x,-y,z
loop_
_atom_site_type_symbol
_atom_site_label
_atom_site_fract_x
_atom_site_fract_y
_atom_site_fract_z
Si Si1 0.756583 0.922541 0.579814
Si Si2 0.366373 0.762164 0.919243
Si Si3 0.530889 0.676907 0.275559
Si Si4 0.686099 0.501133 0.271930
Si Si5 0.972375 0.129258 0.195768
Si Si6 0.407721 0.253876 0.421302
Si Si7 0.382864 0.947492 0.811942
O O1 0.750000 0.979705 0.500000
O O2 0.681541 0.827437 0.574688
O O3 0.865270 0.869964 0.595633
O O4 0.729419 0.002834 0.645067
O O5 0.250000 0.750000 0.925383
O O6 0.407978 0.667551 0.872219
O O7 0.385818 0.874018 0.882892
O O8 0.414947 0.750000 0.000000
O O9 0.632483 0.612415 0.260850
O O10 0.540482 0.778323 0.225866
O O11 0.517038 0.715674 0.358736
O O12 0.431018 0.613039 0.256960
O O13 0.603248 0.412152 0.258997
O O14 0.773385 0.486181 0.212066
O O15 0.047869 0.043237 0.166289
O O16 0.463781 0.250000 0.500000
#
# Coordination Sequence:
#
# PCOD8204819 Si02
#       7
#     8   8   8   8   8   8   8
#     4   8  14  24  43  67  93 132 172 206 253 296
#     4  10  20  37  58  77 103 136 165 197 247 304
#     4   9  19  31  48  75 101 133 173 210 255 299
#     4  10  18  32  50  72 105 133 168 218 251 291
#     4  10  20  34  53  79 102 130 171 206 249 303
#     4   8  13  25  43  65  95 131 171 211 248 293
#     4  10  20  33  54  80 100 133 170 203 251 302
#
# _framework density 17.738212999999998
#
# number of rings (size 3 to 8) (size 9 to 14) (size 15 to 20)
#    0.000    2.714    1.429    1.714    0.000    2.286 
#    0.000    1.429    0.000    6.857    0.000    4.000 
#    0.000    0.000    0.000    0.000    0.000    0.000 
#
# Total GULP energy -693933.932084 kJ/mol
# GULP energy per Si atom -12391.677359 kJ/mol
# Density = 1.769784 g / cm^3
# Si number density = 17.738213 Si / 1000 Ang^3
#
#
#
# Elastic Constant Matrix: (Units=GPa)
#
#
# Indices 1 2 3 4 5 6 
#
# 1 63.6560 37.0049 38.2904 0.0000 0.0000 0.0000
# 2 37.0049 92.6615 53.6751 0.0000 0.0000 0.0000
# 3 38.2904 53.6751 133.7090 0.0000 0.0000 0.0000
# 4 0.0000 0.0000 0.0000 24.6883 0.0000 0.0000
# 5 0.0000 0.0000 0.0000 0.0000 21.3685 0.0000
# 6 0.0000 0.0000 0.0000 0.0000 0.0000 18.9899
#
#
#
# Elastic Compliance Matrix: (Units=1/GPa)
#
#
# Indices 1 2 3 4 5 6 
#
# 1 0.021688 -0.006598 -0.003562 0.000000 0.000000 0.000000
# 2 -0.006598 0.016069 -0.004561 0.000000 0.000000 0.000000
# 3 -0.003562 -0.004561 0.010330 0.000000 0.000000 0.000000
# 4 0.000000 0.000000 0.000000 0.040505 0.000000 0.000000
# 5 0.000000 0.000000 0.000000 0.000000 0.046798 0.000000
# 6 0.000000 0.000000 0.000000 0.000000 0.000000 0.052660
#
#
# Mechanical properties :
#
#
# Convention : Reuss Voigt Hill
#
# Bulk Modulus (GPa) = 53.63521 60.88525 57.26023
# Shear Modulus (GPa) = 22.35078 23.74640 23.04859
#
# Velocity S-wave (km/s) = 3.55355 3.66281 3.60859
# Velocity P-wave (km/s) = 6.86583 7.23098 7.05077
#
# Compressibility (1/GPa) = 0.01864447
#
# Stress axis : x y z
#
# Youngs Moduli (GPa) = 46.10947 62.23207 96.80493
#
# Poissons Ratio (x) = 0.41058 0.34484
# Poissons Ratio (y) = 0.30421 0.44155
# Poissons Ratio (z) = 0.16425 0.28385
#
# Static dielectric constant tensor:
#      x y z
#    x 3.149680 0.000000 0.000000 
#    y 0.000000 3.367170 0.000000 
#    z 0.000000 0.000000 3.685190 
# 
# 
# High freq. dielectric constant tensor:
#      x y z
#    x 1.667670 0.000000 0.000000 
#    y 0.000000 1.676400 0.000000 
#    z 0.000000 0.000000 1.681390 
# 
# From -- ./inp_files/26558.got.cif
#   From: 2010.03.12/outbox.cif.g09.slc.cpg/sg50_14_cif.got.tgz:26558.got - 2010.04.16 13:23:21.
