data_PCOD8204881
_publ_section_title
;
Structure prediction by ZEFSAII (Michael W. Deem and Ramdas Pophale) SiO2 
 PCOD8204881
Probable space group: P B A N
;
_chemical_formula_sum "Si O2"
_cell_formula_units_Z 48
_cell_length_a 5.186530
_cell_length_b 26.184220
_cell_length_c 16.933017
_cell_angle_alpha 90.000000
_cell_angle_beta 90.000000
_cell_angle_gamma 90.000000
_cell_volume 2299.592481
_symmetry_space_group_name_H-M "P B A N"
_symmetry_group_IT_number 50
_space_group.IT_coordinate_system_code '2'
_symmetry_cell_setting 'orthorhombic'
loop_
_space_group_symop_operation_xyz
x,y,z
1/2-x,1/2-y,z
x,1/2-y,-z
1/2-x,y,-z
-x,-y,-z
1/2+x,1/2+y,-z
-x,1/2+y,z
1/2+x,-y,z
loop_
_atom_site_type_symbol
_atom_site_label
_atom_site_fract_x
_atom_site_fract_y
_atom_site_fract_z
Si Si1 0.775559 0.366755 0.187091
Si Si2 0.073965 0.979273 0.412944
Si Si3 0.726019 0.032403 0.089742
Si Si4 0.777508 0.132250 0.625437
Si Si5 0.278324 0.193185 0.812676
Si Si6 0.225939 0.307086 0.625305
O O1 0.735354 0.421324 0.148788
O O2 0.770974 0.374438 0.280738
O O3 0.545190 0.330527 0.157084
O O4 0.041647 0.341560 0.158119
O O5 0.191106 0.922726 0.415136
O O6 0.294917 0.014873 0.369685
O O7 0.000000 0.000000 0.500000
O O8 0.445778 0.009156 0.106711
O O9 0.750000 0.052289 0.000000
O O10 0.523414 0.161707 0.594212
O O11 0.020536 0.164363 0.596133
O O12 0.250000 0.250000 0.848294
O O13 0.284591 0.196247 0.718920
O O14 0.250000 0.250000 0.589844
#
# Coordination Sequence:
#
# PCOD8204881 Si02
#       6
#     8   8   8   8   8   8
#     4  10  19  31  51  76 101 132 169 214 256 299
#     4  10  21  36  52  73 101 138 172 202 248 304
#     4  10  21  36  52  70  96 134 175 215 263 311
#     4  10  19  31  51  79 105 132 171 211 253 307
#     4   9  17  30  49  74 105 136 164 201 259 315
#     4   9  17  30  49  77 109 135 162 207 261 306
#
# _framework density 20.873263000000001
#
# number of rings (size 3 to 8) (size 9 to 14) (size 15 to 20)
#    0.000    2.333    0.000    3.000    0.000    5.333 
#    0.000    0.000    0.000    3.000    0.000   35.000 
#    0.000    0.000    0.000    0.000    0.000    0.000 
#
# Total GULP energy -594968.141038 kJ/mol
# GULP energy per Si atom -12395.169605 kJ/mol
# Density = 2.082575 g / cm^3
# Si number density = 20.873263 Si / 1000 Ang^3
#
#
#
# Elastic Constant Matrix: (Units=GPa)
#
#
# Indices 1 2 3 4 5 6 
#
# 1 190.0202 66.1736 19.3924 0.0000 0.0000 0.0000
# 2 66.1736 152.7341 29.9566 0.0000 0.0000 0.0000
# 3 19.3924 29.9566 33.1901 0.0000 0.0000 0.0000
# 4 0.0000 0.0000 0.0000 -49.7160 0.0000 0.0000
# 5 0.0000 0.0000 0.0000 0.0000 6.0372 0.0000
# 6 0.0000 0.0000 0.0000 0.0000 0.0000 39.5461
#
#
#
# Elastic Compliance Matrix: (Units=1/GPa)
#
#
# Indices 1 2 3 4 5 6 
#
# 1 0.006256 -0.002422 -0.001469 0.000000 0.000000 0.000000
# 2 -0.002422 0.008894 -0.006612 0.000000 0.000000 0.000000
# 3 -0.001469 -0.006612 0.036955 0.000000 0.000000 0.000000
# 4 0.000000 0.000000 0.000000 -0.020114 0.000000 0.000000
# 5 0.000000 0.000000 0.000000 0.000000 0.165641 0.000000
# 6 0.000000 0.000000 0.000000 0.000000 0.000000 0.025287
#
#
# Mechanical properties :
#
#
# Convention : Reuss Voigt Hill
#
# Bulk Modulus (GPa) = 32.15552 67.44330 49.79941
# Shear Modulus (GPa) = 19.66246 16.53489 18.09868
#
# Velocity S-wave (km/s) = 3.07252 2.81758 2.94781
# Velocity P-wave (km/s) = 5.29393 6.55485 5.95784
#
# Compressibility (1/GPa) = 0.03109886
#
# Stress axis : x y z
#
# Youngs Moduli (GPa) = 159.84391 112.43939 27.05959
#
# Poissons Ratio (x) = 0.27237 0.03975
# Poissons Ratio (y) = 0.38721 0.17891
# Poissons Ratio (z) = 0.23480 0.74343
#
# Static dielectric constant tensor:
#      x y z
#    x 0.601590 0.000000 0.000000 
#    y 0.000000 3.855450 0.000000 
#    z 0.000000 0.000000 7.296220 
# 
# 
# High freq. dielectric constant tensor:
#      x y z
#    x 1.848350 0.000000 0.000000 
#    y 0.000000 1.826530 0.000000 
#    z 0.000000 0.000000 1.764850 
# 
# From -- ./inp_files/28270.got.cif
#   From: 2010.03.12/outbox.cif.g09.slc.cpg/sg50_15_cif.got.tgz:28270.got - 2010.04.16 13:23:21.
