data_PCOD8204512
_publ_section_title
;
Structure prediction by ZEFSAII (Michael W. Deem and Ramdas Pophale) SiO2 
 PCOD8204512
Probable space group: P C C M
;
_chemical_formula_sum "Si O2"
_cell_formula_units_Z 58
_cell_length_a 18.095825
_cell_length_b 17.064306
_cell_length_c 8.731020
_cell_angle_alpha 90.000000
_cell_angle_beta 90.000000
_cell_angle_gamma 90.000000
_cell_volume 2696.075197
_symmetry_space_group_name_H-M "P C C M"
_symmetry_group_IT_number 49
_symmetry_cell_setting 'orthorhombic'
loop_
_space_group_symop_operation_xyz
x,y,z
-x,-y,z
x,-y,1/2-z
-x,y,1/2-z
-x,-y,-z
x,y,-z
-x,y,1/2+z
x,-y,1/2+z
loop_
_atom_site_type_symbol
_atom_site_label
_atom_site_fract_x
_atom_site_fract_y
_atom_site_fract_z
Si Si1 0.880682 0.874097 0.671170
Si Si2 0.171135 0.582686 0.671476
Si Si3 0.694299 0.684522 0.826745
Si Si4 0.721513 0.156894 0.180604
Si Si5 0.925959 0.290616 0.179721
Si Si6 0.000000 0.000000 0.750000
Si Si7 0.580608 0.579535 0.682216
Si Si8 0.424756 0.914330 0.318352
O O1 0.864425 0.847187 0.500000
O O2 0.796679 0.892017 0.732849
O O3 0.912449 0.796536 0.754238
O O4 0.941259 0.944385 0.663062
O O5 0.158665 0.500000 0.750000
O O6 0.137171 0.580374 0.500000
O O7 0.256540 0.606100 0.665257
O O8 0.137037 0.649981 0.775122
O O9 0.734541 0.753052 0.729821
O O10 0.621265 0.658228 0.737486
O O11 0.676445 0.713659 0.000000
O O12 0.649311 0.130745 0.272498
O O13 0.706364 0.148345 0.000000
O O14 0.000000 0.325532 0.250000
O O15 0.934392 0.285592 0.000000
O O16 0.617388 0.500000 0.750000
O O17 0.500000 0.587159 0.750000
O O18 0.579700 0.575121 0.500000
O O19 0.500000 0.874870 0.250000
O O20 0.431515 0.917558 0.500000
O O21 0.417118 0.000000 0.250000
#
# Coordination Sequence:
#
# PCOD8204512 Si02
#       8
#     8   8   8   8   8   2   8   8
#     4  10  23  41  64  96 136 177 220 268 328 392
#     4  11  24  41  64  94 125 166 214 267 325 391
#     4  11  23  40  62  92 125 165 215 267 325 390
#     4  11  23  42  65  95 132 175 220 271 330 391
#     4  11  22  42  66  93 129 171 213 266 325 385
#     4  12  22  44  68 106 136 180 222 268 326 396
#     4  11  22  38  60  88 125 169 215 269 325 385
#     4  11  23  43  68  98 131 173 218 271 331 396
#
# _framework density 21.512754000000001
#
# number of rings (size 3 to 8) (size 9 to 14) (size 15 to 20)
#    0.000    1.103    2.069    5.586    0.966    3.586 
#    0.000    6.207    0.000    0.000    0.000    0.000 
#    0.000    0.000    0.000    0.000    0.000    0.000 
#
# Total GULP energy -718642.949837 kJ/mol
# GULP energy per Si atom -12390.395687 kJ/mol
# Density = 2.146379 g / cm^3
# Si number density = 21.512754 Si / 1000 Ang^3
#
#
#
# Elastic Constant Matrix: (Units=GPa)
#
#
# Indices 1 2 3 4 5 6 
#
# 1 136.9673 48.3031 44.9662 0.0000 0.0000 0.0000
# 2 48.3031 104.3275 28.5708 0.0000 0.0000 0.0000
# 3 44.9662 28.5708 137.2977 0.0000 0.0000 0.0000
# 4 0.0000 0.0000 0.0000 31.6238 0.0000 0.0000
# 5 0.0000 0.0000 0.0000 0.0000 27.4971 0.0000
# 6 0.0000 0.0000 0.0000 0.0000 0.0000 53.7225
#
#
#
# Elastic Compliance Matrix: (Units=1/GPa)
#
#
# Indices 1 2 3 4 5 6 
#
# 1 0.009361 -0.003706 -0.002295 0.000000 0.000000 0.000000
# 2 -0.003706 0.011631 -0.001207 0.000000 0.000000 0.000000
# 3 -0.002295 -0.001207 0.008286 0.000000 0.000000 0.000000
# 4 0.000000 0.000000 0.000000 0.031622 0.000000 0.000000
# 5 0.000000 0.000000 0.000000 0.000000 0.036367 0.000000
# 6 0.000000 0.000000 0.000000 0.000000 0.000000 0.018614
#
#
# Mechanical properties :
#
#
# Convention : Reuss Voigt Hill
#
# Bulk Modulus (GPa) = 67.27551 69.14139 68.20845
# Shear Modulus (GPa) = 36.96816 39.68551 38.32683
#
# Velocity S-wave (km/s) = 4.14989 4.29971 4.22546
# Velocity P-wave (km/s) = 7.36902 7.54052 7.45526
#
# Compressibility (1/GPa) = 0.01486425
#
# Stress axis : x y z
#
# Youngs Moduli (GPa) = 106.82319 85.97389 120.68385
#
# Poissons Ratio (x) = 0.31860 0.27694
# Poissons Ratio (y) = 0.39586 0.14564
# Poissons Ratio (z) = 0.24513 0.10375
#
# Static dielectric constant tensor:
#      x y z
#    x 4.143480 0.000000 0.000000 
#    y 0.000000 3.845210 0.000000 
#    z 0.000000 0.000000 3.825850 
# 
# 
# High freq. dielectric constant tensor:
#      x y z
#    x 1.859280 0.000000 0.000000 
#    y 0.000000 1.838440 0.000000 
#    z 0.000000 0.000000 1.843680 
# 
# From -- ./inp_files/5075.got.cif
#   From: 2010.03.12/outbox.cif.g09.slc.cpg/sg49_3_cif.got.tgz:5075.got - 2010.04.14 03:58:27.
