data_PCOD8204655
_publ_section_title
;
Structure prediction by ZEFSAII (Michael W. Deem and Ramdas Pophale) SiO2 
 PCOD8204655
Probable space group: P C C M
;
_chemical_formula_sum "Si O2"
_cell_formula_units_Z 64
_cell_length_a 17.898701
_cell_length_b 20.312080
_cell_length_c 9.372260
_cell_angle_alpha 90.000000
_cell_angle_beta 90.000000
_cell_angle_gamma 90.000000
_cell_volume 3407.377408
_symmetry_space_group_name_H-M "P C C M"
_symmetry_group_IT_number 49
_symmetry_cell_setting 'orthorhombic'
loop_
_space_group_symop_operation_xyz
x,y,z
-x,-y,z
x,-y,1/2-z
-x,y,1/2-z
-x,-y,-z
x,y,-z
-x,y,1/2+z
x,-y,1/2+z
loop_
_atom_site_type_symbol
_atom_site_label
_atom_site_fract_x
_atom_site_fract_y
_atom_site_fract_z
Si Si1 0.687334 0.936978 0.834581
Si Si2 0.358582 0.705495 0.833834
Si Si3 0.573259 0.823214 0.168896
Si Si4 0.817409 0.441155 0.842854
Si Si5 0.857915 0.062762 0.664989
Si Si6 0.074874 0.201599 0.168650
Si Si7 0.360023 0.558797 0.842805
Si Si8 0.816108 0.294146 0.833917
O O1 0.639407 0.873451 0.793885
O O2 0.772607 0.921749 0.790092
O O3 0.656304 0.000000 0.750000
O O4 0.680174 0.954068 0.000000
O O5 0.405768 0.752342 0.731739
O O6 0.380609 0.631416 0.785217
O O7 0.271212 0.718170 0.810017
O O8 0.379033 0.717147 0.000000
O O9 0.500000 0.849455 0.250000
O O10 0.558848 0.817640 0.000000
O O11 0.853069 0.500000 0.750000
O O12 0.728752 0.447596 0.847586
O O13 0.838509 0.368398 0.786244
O O14 0.850976 0.450152 0.000000
O O15 0.862781 0.044605 0.500000
O O16 0.908017 0.125546 0.702571
O O17 0.889576 0.000000 0.750000
O O18 0.141834 0.244995 0.229371
O O19 0.000000 0.222380 0.250000
O O20 0.066919 0.214179 0.000000
O O21 0.395621 0.500000 0.750000
O O22 0.393413 0.550012 0.000000
O O23 0.837035 0.282285 0.000000
#
# Coordination Sequence:
#
# PCOD8204655 Si02
#       8
#     8   8   8   8   8   8   8   8
#     4   9  19  36  57  80 104 131 166 208 253 303
#     4   9  18  33  53  77 105 137 173 213 258 308
#     4  11  23  37  53  75 105 139 176 216 257 304
#     4   8  14  25  43  70 102 132 164 205 252 302
#     4   9  19  36  57  80 104 131 166 208 253 303
#     4  11  23  37  53  75 105 139 176 216 257 304
#     4   8  14  25  43  70 102 132 164 205 252 302
#     4   9  18  33  53  77 105 137 173 213 258 308
#
# _framework density 18.782772999999999
#
# number of rings (size 3 to 8) (size 9 to 14) (size 15 to 20)
#    0.000    2.750    0.000    3.000    0.000    5.000 
#    0.000    7.500    0.000    0.750    0.000    5.250 
#    0.000    0.000    0.000    0.000    0.000    0.000 
#
# Total GULP energy -793455.788128 kJ/mol
# GULP energy per Si atom -12397.746689 kJ/mol
# Density = 1.874002 g / cm^3
# Si number density = 18.782773 Si / 1000 Ang^3
#
#
#
# Elastic Constant Matrix: (Units=GPa)
#
#
# Indices 1 2 3 4 5 6 
#
# 1 29.1686 4.8600 18.6667 0.0000 0.0000 0.0000
# 2 4.8600 83.9152 40.6865 0.0000 0.0000 0.0000
# 3 18.6667 40.6865 72.8168 0.0000 0.0000 0.0000
# 4 0.0000 0.0000 0.0000 39.8159 0.0000 0.0000
# 5 0.0000 0.0000 0.0000 0.0000 18.4599 0.0000
# 6 0.0000 0.0000 0.0000 0.0000 0.0000 3.7514
#
#
#
# Elastic Compliance Matrix: (Units=1/GPa)
#
#
# Indices 1 2 3 4 5 6 
#
# 1 0.041883 0.003813 -0.012867 0.000000 0.000000 0.000000
# 2 0.003813 0.016692 -0.010304 0.000000 0.000000 0.000000
# 3 -0.012867 -0.010304 0.022789 0.000000 0.000000 0.000000
# 4 0.000000 0.000000 0.000000 0.025116 0.000000 0.000000
# 5 0.000000 0.000000 0.000000 0.000000 0.054171 0.000000
# 6 0.000000 0.000000 0.000000 0.000000 0.000000 0.266569
#
#
# Mechanical properties :
#
#
# Convention : Reuss Voigt Hill
#
# Bulk Modulus (GPa) = 23.44827 34.92522 29.18675
# Shear Modulus (GPa) = 10.41336 20.51793 15.46564
#
# Velocity S-wave (km/s) = 2.35715 3.30870 2.87260
# Velocity P-wave (km/s) = 4.46309 5.76466 5.15512
#
# Compressibility (1/GPa) = 0.04264707
#
# Stress axis : x y z
#
# Youngs Moduli (GPa) = 23.87624 59.90909 43.88064
#
# Poissons Ratio (x) = -0.22844 0.56462
# Poissons Ratio (y) = -0.09104 0.45215
# Poissons Ratio (z) = 0.30722 0.61731
#
# Static dielectric constant tensor:
#      x y z
#    x 3.141860 0.000000 0.000000 
#    y 0.000000 3.586300 0.000000 
#    z 0.000000 0.000000 3.538530 
# 
# 
# High freq. dielectric constant tensor:
#      x y z
#    x 1.698570 0.000000 0.000000 
#    y 0.000000 1.739440 0.000000 
#    z 0.000000 0.000000 1.728030 
# 
# From -- ./inp_files/5244.got.cif
#   From: 2010.03.12/outbox.cif.g09.slc.cpg/sg49_3_cif.got.tgz:5244.got - 2010.04.14 03:58:27.
