data_PCOD8204191
_publ_section_title
;
Structure prediction by ZEFSAII (Michael W. Deem and Ramdas Pophale) SiO2 
 PCOD8204191
Probable space group: P C C M
;
_chemical_formula_sum "Si O2"
_cell_formula_units_Z 58
_cell_length_a 12.744928
_cell_length_b 25.790853
_cell_length_c 8.999143
_cell_angle_alpha 90.000000
_cell_angle_beta 90.000000
_cell_angle_gamma 90.000000
_cell_volume 2958.041383
_symmetry_space_group_name_H-M "P C C M"
_symmetry_group_IT_number 49
_symmetry_cell_setting 'orthorhombic'
loop_
_space_group_symop_operation_xyz
x,y,z
-x,-y,z
x,-y,1/2-z
-x,y,1/2-z
-x,-y,-z
x,y,-z
-x,y,1/2+z
x,-y,1/2+z
loop_
_atom_site_type_symbol
_atom_site_label
_atom_site_fract_x
_atom_site_fract_y
_atom_site_fract_z
Si Si1 0.000000 0.000000 0.250000
Si Si2 0.102844 0.808402 0.328994
Si Si3 0.896947 0.605808 0.167983
Si Si4 0.400357 0.652646 0.174519
Si Si5 0.315971 0.554354 0.677043
Si Si6 0.778815 0.293464 0.668921
Si Si7 0.177974 0.919214 0.331055
Si Si8 0.603424 0.944316 0.679270
O O1 0.916586 0.962185 0.166548
O O2 0.075194 0.812937 0.500000
O O3 0.192353 0.765963 0.299275
O O4 0.134618 0.864841 0.268560
O O5 0.000000 0.787650 0.250000
O O6 0.800253 0.571656 0.227384
O O7 0.876671 0.667365 0.189273
O O8 0.000000 0.587574 0.250000
O O9 0.917249 0.591434 0.000000
O O10 0.500000 0.680287 0.250000
O O11 0.392716 0.597199 0.255699
O O12 0.305613 0.691319 0.208569
O O13 0.412353 0.644897 0.000000
O O14 0.345327 0.500000 0.750000
O O15 0.329144 0.552122 0.500000
O O16 0.735383 0.300282 0.500000
O O17 0.218459 0.914717 0.500000
O O18 0.279763 0.927007 0.227696
O O19 0.500000 0.913817 0.750000
O O20 0.597194 0.943774 0.500000
O O21 0.592810 0.000000 0.750000
#
# Coordination Sequence:
#
# PCOD8204191 Si02
#       8
#     2   8   8   8   8   8   8   8
#     4  12  22  36  62  86 130 164 210 246 300 356
#     4  10  21  37  58  86 121 157 194 239 290 348
#     4   9  18  31  50  75 105 142 183 226 274 329
#     4  11  22  38  61  86 111 144 187 234 288 348
#     4  10  21  37  54  79 114 150 190 236 284 335
#     4   9  19  37  57  80 111 145 184 234 285 337
#     4  11  23  38  58  89 125 163 205 248 299 356
#     4  11  22  38  61  85 112 148 192 241 290 345
#
# _framework density 19.607569000000002
#
# number of rings (size 3 to 8) (size 9 to 14) (size 15 to 20)
#    0.000    1.793    1.379    4.759    0.000    4.966 
#    0.000    3.448    0.000    0.000    0.000    0.000 
#    0.000    0.000    0.000    0.000    0.000    0.000 
#
# Total GULP energy -718586.343496 kJ/mol
# GULP energy per Si atom -12389.419715 kJ/mol
# Density = 1.956294 g / cm^3
# Si number density = 19.607569 Si / 1000 Ang^3
#
#
#
# Elastic Constant Matrix: (Units=GPa)
#
#
# Indices 1 2 3 4 5 6 
#
# 1 109.6247 20.6840 54.1751 0.0000 0.0000 0.0000
# 2 20.6840 94.1286 30.6309 0.0000 0.0000 0.0000
# 3 54.1751 30.6309 112.2006 0.0000 0.0000 0.0000
# 4 0.0000 0.0000 0.0000 22.9241 0.0000 0.0000
# 5 0.0000 0.0000 0.0000 0.0000 31.2880 0.0000
# 6 0.0000 0.0000 0.0000 0.0000 0.0000 -21.3505
#
#
#
# Elastic Compliance Matrix: (Units=1/GPa)
#
#
# Indices 1 2 3 4 5 6 
#
# 1 0.012039 -0.000827 -0.005587 0.000000 0.000000 0.000000
# 2 -0.000827 0.011716 -0.002799 0.000000 0.000000 0.000000
# 3 -0.005587 -0.002799 0.012374 0.000000 0.000000 0.000000
# 4 0.000000 0.000000 0.000000 0.043622 0.000000 0.000000
# 5 0.000000 0.000000 0.000000 0.000000 0.031961 0.000000
# 6 0.000000 0.000000 0.000000 0.000000 0.000000 -0.046837
#
#
# Mechanical properties :
#
#
# Convention : Reuss Voigt Hill
#
# Bulk Modulus (GPa) = 56.48804 58.54821 57.51813
# Shear Modulus (GPa) = 56.05099 20.60324 38.32712
#
# Velocity S-wave (km/s) = 5.35243 3.24509 4.42601
# Velocity P-wave (km/s) = 8.18962 6.63066 7.45102
#
# Compressibility (1/GPa) = 0.01770286
#
# Stress axis : x y z
#
# Youngs Moduli (GPa) = 83.06161 85.35007 80.81137
#
# Poissons Ratio (x) = 0.07062 0.45151
# Poissons Ratio (y) = 0.06872 0.22620
# Poissons Ratio (z) = 0.46408 0.23890
#
# Static dielectric constant tensor:
#      x y z
#    x 4.997130 0.000000 0.000000 
#    y 0.000000 3.540220 0.000000 
#    z 0.000000 0.000000 3.542350 
# 
# 
# High freq. dielectric constant tensor:
#      x y z
#    x 1.773310 0.000000 0.000000 
#    y 0.000000 1.749590 0.000000 
#    z 0.000000 0.000000 1.764000 
# 
# From -- ./inp_files/3012.got.cif
#   From: 2010.03.12/outbox.cif.g09.slc.cpg/sg49_2_cif.got.tgz:3012.got - 2010.04.14 03:58:27.
