data_PCOD8204545
_publ_section_title
;
Structure prediction by ZEFSAII (Michael W. Deem and Ramdas Pophale) SiO2 
 PCOD8204545
Probable space group: P C C M
;
_chemical_formula_sum "Si O2"
_cell_formula_units_Z 32
_cell_length_a 11.293433
_cell_length_b 7.284356
_cell_length_c 17.666446
_cell_angle_alpha 90.000000
_cell_angle_beta 90.000000
_cell_angle_gamma 90.000000
_cell_volume 1453.337007
_symmetry_space_group_name_H-M "P C C M"
_symmetry_group_IT_number 49
_symmetry_cell_setting 'orthorhombic'
loop_
_space_group_symop_operation_xyz
x,y,z
-x,-y,z
x,-y,1/2-z
-x,y,1/2-z
-x,-y,-z
x,y,-z
-x,y,1/2+z
x,-y,1/2+z
loop_
_atom_site_type_symbol
_atom_site_label
_atom_site_fract_x
_atom_site_fract_y
_atom_site_fract_z
Si Si1 0.482340 0.296954 0.162150
Si Si2 0.129035 0.582677 0.588212
Si Si3 0.285693 0.757425 0.087122
Si Si4 0.763418 0.906437 0.166751
O O1 0.500000 0.500000 0.125021
O O2 0.500000 0.312745 0.250000
O O3 0.592857 0.185463 0.129230
O O4 0.359887 0.195356 0.145449
O O5 0.150570 0.639692 0.500000
O O6 0.224554 0.430115 0.615016
O O7 0.138682 0.751250 0.647807
O O8 0.000000 0.500000 0.597610
O O9 0.204832 0.932250 0.107536
O O10 0.311695 0.743728 0.000000
O O11 0.769002 0.000000 0.250000
#
# Coordination Sequence:
#
# PCOD8204545 Si02
#       4
#     8   8   8   8
#     4  11  22  40  66  92 138 185 214 270 350 421
#     4  10  24  48  72  96 136 186 235 288 343 398
#     4  11  24  41  67 101 133 178 232 282 339 412
#     4  12  24  41  70 101 137 179 224 284 347 412
#
# _framework density 22.018291999999999
#
# number of rings (size 3 to 8) (size 9 to 14) (size 15 to 20)
#    0.000    1.000    5.000    1.500    0.000    5.500 
#    0.000    7.500    0.000    0.000    0.000    0.000 
#    0.000    0.000    0.000    0.000    0.000    0.000 
#
# Total GULP energy -396497.651929 kJ/mol
# GULP energy per Si atom -12390.551623 kJ/mol
# Density = 2.196818 g / cm^3
# Si number density = 22.018292 Si / 1000 Ang^3
#
#
#
# Elastic Constant Matrix: (Units=GPa)
#
#
# Indices 1 2 3 4 5 6 
#
# 1 82.2577 35.2256 45.1233 0.0000 0.0000 0.0000
# 2 35.2256 158.3424 68.8297 0.0000 0.0000 0.0000
# 3 45.1233 68.8297 77.7547 0.0000 0.0000 0.0000
# 4 0.0000 0.0000 0.0000 44.6607 0.0000 0.0000
# 5 0.0000 0.0000 0.0000 0.0000 25.8826 0.0000
# 6 0.0000 0.0000 0.0000 0.0000 0.0000 26.8387
#
#
#
# Elastic Compliance Matrix: (Units=1/GPa)
#
#
# Indices 1 2 3 4 5 6 
#
# 1 0.017907 0.000867 -0.011160 0.000000 0.000000 0.000000
# 2 0.000867 0.010308 -0.009628 0.000000 0.000000 0.000000
# 3 -0.011160 -0.009628 0.027860 0.000000 0.000000 0.000000
# 4 0.000000 0.000000 0.000000 0.022391 0.000000 0.000000
# 5 0.000000 0.000000 0.000000 0.000000 0.038636 0.000000
# 6 0.000000 0.000000 0.000000 0.000000 0.000000 0.037260
#
#
# Mechanical properties :
#
#
# Convention : Reuss Voigt Hill
#
# Bulk Modulus (GPa) = 61.59816 68.52355 65.06085
# Shear Modulus (GPa) = 25.04836 30.75481 27.90158
#
# Velocity S-wave (km/s) = 3.37652 3.74141 3.56364
# Velocity P-wave (km/s) = 6.57554 7.06066 6.82242
#
# Compressibility (1/GPa) = 0.01623425
#
# Stress axis : x y z
#
# Youngs Moduli (GPa) = 55.84277 97.01627 35.89366
#
# Poissons Ratio (x) = -0.08415 0.40057
# Poissons Ratio (y) = -0.04844 0.34558
# Poissons Ratio (z) = 0.62320 0.93405
#
# Static dielectric constant tensor:
#      x y z
#    x 4.319000 0.000000 0.000000 
#    y 0.000000 4.684770 0.000000 
#    z 0.000000 0.000000 3.745260 
# 
# 
# High freq. dielectric constant tensor:
#      x y z
#    x 1.852920 0.000000 0.000000 
#    y 0.000000 1.892360 0.000000 
#    z 0.000000 0.000000 1.852780 
# 
# From -- ./inp_files/12372.got.cif
#   From: 2010.03.12/outbox.cif.g09.slc.cpg/sg49_7_cif.got.tgz:12372.got - 2010.04.14 03:58:27.
