data_PCOD8204788
_publ_section_title
;
Structure prediction by ZEFSAII (Michael W. Deem and Ramdas Pophale) SiO2 
 PCOD8204788
Probable space group: P B A N
;
_chemical_formula_sum "Si O2"
_cell_formula_units_Z 40
_cell_length_a 8.762527
_cell_length_b 26.861681
_cell_length_c 7.884473
_cell_angle_alpha 90.000000
_cell_angle_beta 90.000000
_cell_angle_gamma 90.000000
_cell_volume 1855.817333
_symmetry_space_group_name_H-M "P B A N"
_symmetry_group_IT_number 50
_space_group.IT_coordinate_system_code '2'
_symmetry_cell_setting 'orthorhombic'
loop_
_space_group_symop_operation_xyz
x,y,z
1/2-x,1/2-y,z
x,1/2-y,-z
1/2-x,y,-z
-x,-y,-z
1/2+x,1/2+y,-z
-x,1/2+y,z
1/2+x,-y,z
loop_
_atom_site_type_symbol
_atom_site_label
_atom_site_fract_x
_atom_site_fract_y
_atom_site_fract_z
Si Si1 0.604934 0.843206 0.911092
Si Si2 0.690125 0.935278 0.685341
Si Si3 0.519486 0.512859 0.803922
Si Si4 0.637202 0.108400 0.852717
Si Si5 0.692616 0.300862 0.807154
O O1 0.672057 0.883830 0.783353
O O2 0.492471 0.805409 0.807356
O O3 0.750000 0.815420 0.000000
O O4 0.513506 0.868741 0.062926
O O5 0.750000 0.921760 0.500000
O O6 0.804982 0.973570 0.776097
O O7 0.529447 0.965556 0.687870
O O8 0.416024 0.560546 0.746790
O O9 0.500000 0.500000 0.000000
O O10 0.723843 0.149584 0.731660
O O11 0.750000 0.089627 0.000000
O O12 0.750000 0.250000 0.714533
O O13 0.750000 0.299783 0.000000
#
# Coordination Sequence:
#
# PCOD8204788 Si02
#       5
#     8   8   8   8   8
#     4  10  17  34  57  81 113 155 192 230 290 364
#     4  12  25  36  51  85 124 155 199 248 290 337
#     4  12  21  37  58  78 111 162 204 235 288 354
#     4   9  17  30  55  80 108 143 198 227 293 343
#     4   8  17  32  54  87 119 131 181 252 305 335
#
# _framework density 21.553847999999999
#
# number of rings (size 3 to 8) (size 9 to 14) (size 15 to 20)
#    0.000    2.200    4.000    2.400    2.800    0.000 
#    0.000    8.000    0.000    0.000    0.000    5.600 
#    0.000    0.000    0.000    0.000    0.000    0.000 
#
# Total GULP energy -495567.768712 kJ/mol
# GULP energy per Si atom -12389.194218 kJ/mol
# Density = 2.150479 g / cm^3
# Si number density = 21.553848 Si / 1000 Ang^3
#
#
#
# Elastic Constant Matrix: (Units=GPa)
#
#
# Indices 1 2 3 4 5 6 
#
# 1 132.5240 38.3291 27.6245 0.0000 0.0000 0.0000
# 2 38.3291 103.0738 12.8256 0.0000 0.0000 0.0000
# 3 27.6245 12.8256 39.7662 0.0000 0.0000 0.0000
# 4 0.0000 0.0000 0.0000 9.2217 0.0000 0.0000
# 5 0.0000 0.0000 0.0000 0.0000 18.0523 0.0000
# 6 0.0000 0.0000 0.0000 0.0000 0.0000 34.5118
#
#
#
# Elastic Compliance Matrix: (Units=1/GPa)
#
#
# Indices 1 2 3 4 5 6 
#
# 1 0.009562 -0.002843 -0.005725 0.000000 0.000000 0.000000
# 2 -0.002843 0.010953 -0.001557 0.000000 0.000000 0.000000
# 3 -0.005725 -0.001557 0.029626 0.000000 0.000000 0.000000
# 4 0.000000 0.000000 0.000000 0.108440 0.000000 0.000000
# 5 0.000000 0.000000 0.000000 0.000000 0.055395 0.000000
# 6 0.000000 0.000000 0.000000 0.000000 0.000000 0.028976
#
#
# Mechanical properties :
#
#
# Convention : Reuss Voigt Hill
#
# Bulk Modulus (GPa) = 33.45692 48.10248 40.77970
# Shear Modulus (GPa) = 18.30394 25.46281 21.88338
#
# Velocity S-wave (km/s) = 2.91730 3.44082 3.18982
# Velocity P-wave (km/s) = 5.18688 6.17668 5.70329
#
# Compressibility (1/GPa) = 0.02988918
#
# Stress axis : x y z
#
# Youngs Moduli (GPa) = 104.58596 91.30046 33.75369
#
# Poissons Ratio (x) = 0.25958 0.19324
# Poissons Ratio (y) = 0.29736 0.05257
# Poissons Ratio (z) = 0.59877 0.14220
#
# Static dielectric constant tensor:
#      x y z
#    x 4.447370 0.000000 0.000000 
#    y 0.000000 4.786790 0.000000 
#    z 0.000000 0.000000 3.177140 
# 
# 
# High freq. dielectric constant tensor:
#      x y z
#    x 1.868680 0.000000 0.000000 
#    y 0.000000 1.840570 0.000000 
#    z 0.000000 0.000000 1.772030 
# 
# From -- ./inp_files/9912.got.cif
#   From: 2010.03.12/outbox.cif.g09.slc.cpg/sg50_5_cif.got.tgz:9912.got - 2010.04.16 13:23:21.
