data_PCOD8204006
_publ_section_title
;
Structure prediction by ZEFSAII (Michael W. Deem and Ramdas Pophale) SiO2 
 PCOD8204006
Probable space group: P C C M
;
_chemical_formula_sum "Si O2"
_cell_formula_units_Z 48
_cell_length_a 12.194750
_cell_length_b 11.653473
_cell_length_c 15.805062
_cell_angle_alpha 90.000000
_cell_angle_beta 90.000000
_cell_angle_gamma 90.000000
_cell_volume 2246.076167
_symmetry_space_group_name_H-M "P C C M"
_symmetry_group_IT_number 49
_symmetry_cell_setting 'orthorhombic'
loop_
_space_group_symop_operation_xyz
x,y,z
-x,-y,z
x,-y,1/2-z
-x,y,1/2-z
-x,-y,-z
x,y,-z
-x,y,1/2+z
x,-y,1/2+z
loop_
_atom_site_type_symbol
_atom_site_label
_atom_site_fract_x
_atom_site_fract_y
_atom_site_fract_z
Si Si1 0.566612 0.853261 0.162985
Si Si2 0.181171 0.742524 0.903840
Si Si3 0.354874 0.917118 0.095371
Si Si4 0.976969 0.129768 0.348317
Si Si5 0.229943 0.735828 0.399642
Si Si6 0.876841 0.500132 0.899105
O O1 0.500000 0.839937 0.250000
O O2 0.472628 0.852994 0.090767
O O3 0.652890 0.751679 0.146479
O O4 0.634739 0.972641 0.156409
O O5 0.265074 0.832501 0.860079
O O6 0.185104 0.614220 0.864063
O O7 0.056758 0.787021 0.900330
O O8 0.220891 0.734493 0.000000
O O9 0.320153 0.953731 0.000000
O O10 0.852960 0.163697 0.371088
O O11 0.000000 0.146600 0.250000
O O12 0.000000 0.000000 0.377357
O O13 0.245694 0.740258 0.500000
O O14 0.186085 0.612968 0.367770
O O15 0.000000 0.500000 0.862176
O O16 0.881733 0.494959 0.000000
#
# Coordination Sequence:
#
# PCOD8204006 Si02
#       6
#     8   8   8   8   8   8
#     4  11  23  38  60  87 122 164 207 265 328 373
#     4  10  20  37  63  91 124 164 212 262 312 379
#     4  10  20  37  61  88 119 160 214 258 313 390
#     4  11  24  37  55  90 134 166 205 260 326 386
#     4  11  22  40  67  93 125 170 223 263 308 386
#     4   9  17  35  62  94 126 165 211 258 313 368
#
# _framework density 21.370602000000002
#
# number of rings (size 3 to 8) (size 9 to 14) (size 15 to 20)
#    0.000    1.667    1.667    4.500    2.333    2.667 
#    3.000    2.500    0.000    6.000    0.000    0.000 
#    0.000    0.000    0.000    0.000    0.000    0.000 
#
# Total GULP energy -595025.333264 kJ/mol
# GULP energy per Si atom -12396.361110 kJ/mol
# Density = 2.132196 g / cm^3
# Si number density = 21.370602 Si / 1000 Ang^3
#
#
#
# Elastic Constant Matrix: (Units=GPa)
#
#
# Indices 1 2 3 4 5 6 
#
# 1 120.2617 58.9613 23.5472 0.0000 0.0000 0.0000
# 2 58.9613 138.1655 30.9057 0.0000 0.0000 0.0000
# 3 23.5472 30.9057 67.5999 0.0000 0.0000 0.0000
# 4 0.0000 0.0000 0.0000 7.7004 0.0000 0.0000
# 5 0.0000 0.0000 0.0000 0.0000 31.2261 0.0000
# 6 0.0000 0.0000 0.0000 0.0000 0.0000 44.0001
#
#
#
# Elastic Compliance Matrix: (Units=1/GPa)
#
#
# Indices 1 2 3 4 5 6 
#
# 1 0.010714 -0.004163 -0.001829 0.000000 0.000000 0.000000
# 2 -0.004163 0.009680 -0.002975 0.000000 0.000000 0.000000
# 3 -0.001829 -0.002975 0.016790 0.000000 0.000000 0.000000
# 4 0.000000 0.000000 0.000000 0.129864 0.000000 0.000000
# 5 0.000000 0.000000 0.000000 0.000000 0.032024 0.000000
# 6 0.000000 0.000000 0.000000 0.000000 0.000000 0.022727
#
#
# Mechanical properties :
#
#
# Convention : Reuss Voigt Hill
#
# Bulk Modulus (GPa) = 51.94856 61.42840 56.68848
# Shear Modulus (GPa) = 20.31272 30.75951 25.53611
#
# Velocity S-wave (km/s) = 3.08636 3.79798 3.46051
# Velocity P-wave (km/s) = 6.08786 6.93106 6.52310
#
# Compressibility (1/GPa) = 0.01924981
#
# Stress axis : x y z
#
# Youngs Moduli (GPa) = 93.33229 103.30715 59.55846
#
# Poissons Ratio (x) = 0.43009 0.10892
# Poissons Ratio (y) = 0.38856 0.17721
# Poissons Ratio (z) = 0.17069 0.30737
#
# Static dielectric constant tensor:
#      x y z
#    x 4.028300 0.000000 0.000000 
#    y 0.000000 4.051270 0.000000 
#    z 0.000000 0.000000 3.574540 
# 
# 
# High freq. dielectric constant tensor:
#      x y z
#    x 1.838880 0.000000 0.000000 
#    y 0.000000 1.832630 0.000000 
#    z 0.000000 0.000000 1.820140 
# 
# From -- ./inp_files/17077.got.cif
#   From: 2010.03.12/outbox.cif.g09.slc.cpg/sg49_9_cif.got.tgz:17077.got - 2010.04.14 03:58:27.
