data_PCOD8204300
_publ_section_title
;
Structure prediction by ZEFSAII (Michael W. Deem and Ramdas Pophale) SiO2 
 PCOD8204300
Probable space group: P C C M
;
_chemical_formula_sum "Si O2"
_cell_formula_units_Z 56
_cell_length_a 8.971568
_cell_length_b 21.493838
_cell_length_c 14.308262
_cell_angle_alpha 90.000000
_cell_angle_beta 90.000000
_cell_angle_gamma 90.000000
_cell_volume 2759.111227
_symmetry_space_group_name_H-M "P C C M"
_symmetry_group_IT_number 49
_symmetry_cell_setting 'orthorhombic'
loop_
_space_group_symop_operation_xyz
x,y,z
-x,-y,z
x,-y,1/2-z
-x,y,1/2-z
-x,-y,-z
x,y,-z
-x,y,1/2+z
x,-y,1/2+z
loop_
_atom_site_type_symbol
_atom_site_label
_atom_site_fract_x
_atom_site_fract_y
_atom_site_fract_z
Si Si1 0.409786 0.904174 0.000000
Si Si2 0.190598 0.633821 0.396171
Si Si3 0.163407 0.061673 0.794972
Si Si4 0.138431 0.392631 0.396448
Si Si5 0.649249 0.836259 0.304055
Si Si6 0.663126 0.491648 0.359071
Si Si7 0.264316 0.962362 0.500000
Si Si8 0.173747 0.715814 0.234963
O O1 0.375811 0.863833 0.907435
O O2 0.582606 0.923505 0.000000
O O3 0.302352 0.964293 0.000000
O O4 0.184299 0.660434 0.500000
O O5 0.306142 0.578540 0.387951
O O6 0.237243 0.694139 0.335443
O O7 0.033598 0.603182 0.363399
O O8 0.267084 0.117517 0.765258
O O9 0.000000 0.071220 0.750000
O O10 0.235752 0.000000 0.750000
O O11 0.165152 0.055109 0.908360
O O12 0.144568 0.364771 0.500000
O O13 0.216058 0.459920 0.398205
O O14 0.216271 0.342751 0.330081
O O15 0.500000 0.818477 0.250000
O O16 0.747591 0.774485 0.311484
O O17 0.500000 0.500000 0.403071
O O18 0.660579 0.500000 0.250000
O O19 0.000000 0.731242 0.250000
#
# Coordination Sequence:
#
# PCOD8204300 Si02
#       8
#     4   8   8   8   8   8   4   8
#     4  11  24  41  74 103 136 181 221 268 327 408
#     4  10  21  40  63  87 116 161 214 260 320 394
#     4  11  24  42  69 101 141 172 218 280 328 383
#     4  10  21  38  63  89 113 156 209 258 319 387
#     4  12  25  44  66  97 133 177 223 264 329 394
#     4  11  22  35  57  88 125 156 200 259 329 384
#     4  11  22  44  73 104 139 182 222 266 342 394
#     4  10  23  43  64  87 126 166 211 272 323 381
#
# _framework density 20.296392000000001
#
# number of rings (size 3 to 8) (size 9 to 14) (size 15 to 20)
#    0.000    1.286    4.286    1.286    1.000    6.000 
#    2.571    0.000    0.000    0.000    0.000    0.000 
#    0.000    0.000    0.000    0.000    0.000    0.000 
#
# Total GULP energy -694136.588778 kJ/mol
# GULP energy per Si atom -12395.296228 kJ/mol
# Density = 2.025020 g / cm^3
# Si number density = 20.296392 Si / 1000 Ang^3
#
#
#
# Elastic Constant Matrix: (Units=GPa)
#
#
# Indices 1 2 3 4 5 6 
#
# 1 82.9306 34.1488 33.6833 0.0000 0.0000 0.0000
# 2 34.1488 105.5123 40.2262 0.0000 0.0000 0.0000
# 3 33.6833 40.2262 150.8571 0.0000 0.0000 0.0000
# 4 0.0000 0.0000 0.0000 20.9891 0.0000 0.0000
# 5 0.0000 0.0000 0.0000 0.0000 22.6575 0.0000
# 6 0.0000 0.0000 0.0000 0.0000 0.0000 22.4985
#
#
#
# Elastic Compliance Matrix: (Units=1/GPa)
#
#
# Indices 1 2 3 4 5 6 
#
# 1 0.014550 -0.003863 -0.002219 0.000000 0.000000 0.000000
# 2 -0.003863 0.011576 -0.002224 0.000000 0.000000 0.000000
# 3 -0.002219 -0.002224 0.007717 0.000000 0.000000 0.000000
# 4 0.000000 0.000000 0.000000 0.047644 0.000000 0.000000
# 5 0.000000 0.000000 0.000000 0.000000 0.044136 0.000000
# 6 0.000000 0.000000 0.000000 0.000000 0.000000 0.044447
#
#
# Mechanical properties :
#
#
# Convention : Reuss Voigt Hill
#
# Bulk Modulus (GPa) = 58.03417 61.71295 59.87356
# Shear Modulus (GPa) = 25.98402 28.64511 27.31457
#
# Velocity S-wave (km/s) = 3.58191 3.76086 3.67247
# Velocity P-wave (km/s) = 6.76478 7.02357 6.89539
#
# Compressibility (1/GPa) = 0.01723123
#
# Stress axis : x y z
#
# Youngs Moduli (GPa) = 68.72751 86.38666 129.58024
#
# Poissons Ratio (x) = 0.33374 0.28749
# Poissons Ratio (y) = 0.26552 0.28820
# Poissons Ratio (z) = 0.15248 0.19213
#
# Static dielectric constant tensor:
#      x y z
#    x 3.786450 0.000000 0.000000 
#    y 0.000000 3.479210 0.000000 
#    z 0.000000 0.000000 3.903280 
# 
# 
# High freq. dielectric constant tensor:
#      x y z
#    x 1.787330 0.000000 0.000000 
#    y 0.000000 1.784150 0.000000 
#    z 0.000000 0.000000 1.813520 
# 
# From -- ./inp_files/12069.got.cif
#   From: 2010.03.12/outbox.cif.g09.slc.cpg/sg49_7_cif.got.tgz:12069.got - 2010.04.14 03:58:27.
