data_PCOD8204259
_publ_section_title
;
Structure prediction by ZEFSAII (Michael W. Deem and Ramdas Pophale) SiO2 
 PCOD8204259
Probable space group: P C C M
;
_chemical_formula_sum "Si O2"
_cell_formula_units_Z 64
_cell_length_a 7.767801
_cell_length_b 25.630406
_cell_length_c 15.608970
_cell_angle_alpha 90.000000
_cell_angle_beta 90.000000
_cell_angle_gamma 90.000000
_cell_volume 3107.619391
_symmetry_space_group_name_H-M "P C C M"
_symmetry_group_IT_number 49
_symmetry_cell_setting 'orthorhombic'
loop_
_space_group_symop_operation_xyz
x,y,z
-x,-y,z
x,-y,1/2-z
-x,y,1/2-z
-x,-y,-z
x,y,-z
-x,y,1/2+z
x,-y,1/2+z
loop_
_atom_site_type_symbol
_atom_site_label
_atom_site_fract_x
_atom_site_fract_y
_atom_site_fract_z
Si Si1 0.699362 0.611633 0.092068
Si Si2 0.197526 0.787564 0.250000
Si Si3 0.198377 0.133953 0.099371
Si Si4 0.696210 0.327659 0.250000
Si Si5 0.801625 0.866048 0.400629
Si Si6 0.699362 0.388368 0.907932
Si Si7 0.797162 0.500000 0.152246
Si Si8 0.500000 0.942525 0.899506
O O1 0.787809 0.647297 0.165987
O O2 0.500000 0.625704 0.087543
O O3 0.720235 0.550541 0.107758
O O4 0.784730 0.625577 0.000000
O O5 0.242946 0.818686 0.336971
O O6 0.303764 0.734619 0.249999
O O7 0.242945 0.818686 0.163030
O O8 0.000000 0.771665 0.250000
O O9 0.325660 0.087434 0.127668
O O10 0.000001 0.115681 0.112071
O O11 0.230690 0.150732 0.000000
O O12 0.500000 0.347052 0.250000
O O13 0.787809 0.352703 0.165987
O O14 0.769313 0.849268 0.500000
O O15 0.674342 0.912567 0.372334
O O16 0.720234 0.449460 0.892242
O O17 0.784730 0.374424 0.000000
O O18 0.737369 0.500000 0.250000
O O19 0.000000 0.500000 0.142191
O O20 0.500000 0.000000 0.856075
O O21 0.500003 0.949294 0.000000
#
# Coordination Sequence:
#
# PCOD8204259 Si02
#       8
#     8   8   8   8   8   8   8   8
#     4  10  21  38  58  81 109 142 180 221 273 335
#     4  10  22  38  57  80 108 145 190 231 279 337
#     4   9  19  36  56  81 115 152 190 235 285 337
#     4  10  22  37  55  80 108 139 179 231 278 323
#     4   9  19  36  56  81 115 152 190 235 285 337
#     4  10  21  38  58  81 109 142 180 221 273 335
#     4  11  22  35  56  83 111 144 181 220 269 331
#     4   9  18  33  57  89 118 151 195 234 279 340
#
# _framework density 20.594542000000001
#
# number of rings (size 3 to 8) (size 9 to 14) (size 15 to 20)
#    0.000    2.250    1.250    0.750    1.750    5.000 
#    0.000    3.750    0.000    2.250    0.000    0.000 
#    0.000    0.000    0.000    0.000    0.000    0.000 
#
# Total GULP energy -793272.582507 kJ/mol
# GULP energy per Si atom -12394.884102 kJ/mol
# Density = 2.054767 g / cm^3
# Si number density = 20.594542 Si / 1000 Ang^3
#
#
#
# Elastic Constant Matrix: (Units=GPa)
#
#
# Indices 1 2 3 4 5 6 
#
# 1 56.9184 35.0537 30.7812 0.0000 0.0000 0.0000
# 2 35.0537 151.9814 77.2680 0.0000 0.0000 0.0000
# 3 30.7812 77.2680 171.7083 0.0000 0.0000 0.0000
# 4 0.0000 0.0000 0.0000 22.7812 0.0000 0.0000
# 5 0.0000 0.0000 0.0000 0.0000 13.8972 0.0000
# 6 0.0000 0.0000 0.0000 0.0000 0.0000 70.2299
#
#
#
# Elastic Compliance Matrix: (Units=1/GPa)
#
#
# Indices 1 2 3 4 5 6 
#
# 1 0.021024 -0.003803 -0.002057 0.000000 0.000000 0.000000
# 2 -0.003803 0.009220 -0.003467 0.000000 0.000000 0.000000
# 3 -0.002057 -0.003467 0.007753 0.000000 0.000000 0.000000
# 4 0.000000 0.000000 0.000000 0.043896 0.000000 0.000000
# 5 0.000000 0.000000 0.000000 0.000000 0.071957 0.000000
# 6 0.000000 0.000000 0.000000 0.000000 0.000000 0.014239
#
#
# Mechanical properties :
#
#
# Convention : Reuss Voigt Hill
#
# Bulk Modulus (GPa) = 51.70320 74.09045 62.89683
# Shear Modulus (GPa) = 25.88127 37.21533 31.54830
#
# Velocity S-wave (km/s) = 3.54885 4.25555 3.91817
# Velocity P-wave (km/s) = 6.47706 7.75888 7.14676
#
# Compressibility (1/GPa) = 0.01934116
#
# Stress axis : x y z
#
# Youngs Moduli (GPa) = 47.56510 108.46530 128.98557
#
# Poissons Ratio (x) = 0.41249 0.26539
# Poissons Ratio (y) = 0.18089 0.44719
# Poissons Ratio (z) = 0.09786 0.37605
#
# Static dielectric constant tensor:
#      x y z
#    x 3.625450 0.000000 0.000000 
#    y 0.000000 3.567430 0.000000 
#    z 0.000000 0.000000 4.265960 
# 
# 
# High freq. dielectric constant tensor:
#      x y z
#    x 1.796770 0.000000 0.000000 
#    y 0.000000 1.786650 0.000000 
#    z 0.000000 0.000000 1.820890 
# 
# From -- ./inp_files/12115.got.cif
#   From: 2010.03.12/outbox.cif.g09.slc.cpg/sg49_7_cif.got.tgz:12115.got - 2010.04.14 03:58:27.
