data_PCOD8204899
_publ_section_title
;
Structure prediction by ZEFSAII (Michael W. Deem and Ramdas Pophale) SiO2 
 PCOD8204899
Probable space group: P B A N
;
_chemical_formula_sum "Si O2"
_cell_formula_units_Z 64
_cell_length_a 15.063137
_cell_length_b 24.940482
_cell_length_c 9.084972
_cell_angle_alpha 90.000000
_cell_angle_beta 90.000000
_cell_angle_gamma 90.000000
_cell_volume 3413.059517
_symmetry_space_group_name_H-M "P B A N"
_symmetry_group_IT_number 50
_space_group.IT_coordinate_system_code '2'
_symmetry_cell_setting 'orthorhombic'
loop_
_space_group_symop_operation_xyz
x,y,z
1/2-x,1/2-y,z
x,1/2-y,-z
1/2-x,y,-z
-x,-y,-z
1/2+x,1/2+y,-z
-x,1/2+y,z
1/2+x,-y,z
loop_
_atom_site_type_symbol
_atom_site_label
_atom_site_fract_x
_atom_site_fract_y
_atom_site_fract_z
Si Si1 0.752042 0.646147 0.825129
Si Si2 0.946401 0.101869 0.673471
Si Si3 0.060383 0.895122 0.671513
Si Si4 0.478715 0.493975 0.170649
Si Si5 0.775720 0.971549 0.832560
Si Si6 0.251246 0.924447 0.332257
Si Si7 0.563540 0.812358 0.170744
Si Si8 0.061454 0.311647 0.171397
O O1 0.757862 0.585049 0.767131
O O2 0.662503 0.675113 0.768483
O O3 0.839289 0.676808 0.767626
O O4 0.750000 0.647124 0.000000
O O5 0.963496 0.098912 0.499820
O O6 0.841393 0.103213 0.714327
O O7 0.988772 0.155776 0.737345
O O8 0.993001 0.050865 0.749394
O O9 0.166056 0.884096 0.694436
O O10 0.041559 0.950565 0.754310
O O11 0.008173 0.845453 0.738363
O O12 0.380298 0.472340 0.191573
O O13 0.500000 0.500000 0.000000
O O14 0.728868 0.020585 0.752440
O O15 0.750000 0.977332 0.000000
O O16 0.250000 0.942413 0.500000
O O17 0.540973 0.750493 0.195621
O O18 0.555224 0.828302 0.999573
#
# Coordination Sequence:
#
# PCOD8204899 Si02
#       8
#     8   8   8   8   8   8   8   8
#     4   9  18  33  55  83 114 147 187 227 273 330
#     4  10  23  38  56  84 111 146 191 232 281 335
#     4  11  21  38  59  80 113 150 185 233 283 333
#     4  11  21  34  57  84 116 146 186 232 278 333
#     4  10  19  32  52  85 114 145 186 223 270 336
#     4   9  21  39  55  76 112 149 185 227 279 335
#     4  10  20  38  60  85 111 148 193 229 282 329
#     4  10  21  37  60  84 113 148 188 239 275 330
#
# _framework density 18.751505000000002
#
# number of rings (size 3 to 8) (size 9 to 14) (size 15 to 20)
#    0.000    2.000    1.250    2.250    5.250    3.000 
#    0.000    1.250    0.000    5.250    0.000    0.000 
#    0.000    0.000    0.000    0.000    0.000    0.000 
#
# Total GULP energy -793598.552082 kJ/mol
# GULP energy per Si atom -12399.977376 kJ/mol
# Density = 1.870883 g / cm^3
# Si number density = 18.751505 Si / 1000 Ang^3
#
#
#
# Elastic Constant Matrix: (Units=GPa)
#
#
# Indices 1 2 3 4 5 6 
#
# 1 100.1835 63.4210 46.7699 0.0000 0.0000 0.0000
# 2 63.4210 113.5901 56.0432 0.0000 0.0000 0.0000
# 3 46.7699 56.0432 88.3965 0.0000 0.0000 0.0000
# 4 0.0000 0.0000 0.0000 31.9486 0.0000 0.0000
# 5 0.0000 0.0000 0.0000 0.0000 27.2089 0.0000
# 6 0.0000 0.0000 0.0000 0.0000 0.0000 27.2163
#
#
#
# Elastic Compliance Matrix: (Units=1/GPa)
#
#
# Indices 1 2 3 4 5 6 
#
# 1 0.016439 -0.007112 -0.004189 0.000000 0.000000 0.000000
# 2 -0.007112 0.015888 -0.006310 0.000000 0.000000 0.000000
# 3 -0.004189 -0.006310 0.017530 0.000000 0.000000 0.000000
# 4 0.000000 0.000000 0.000000 0.031300 0.000000 0.000000
# 5 0.000000 0.000000 0.000000 0.000000 0.036753 0.000000
# 6 0.000000 0.000000 0.000000 0.000000 0.000000 0.036743
#
#
# Mechanical properties :
#
#
# Convention : Reuss Voigt Hill
#
# Bulk Modulus (GPa) = 68.32968 70.51537 69.42253
# Shear Modulus (GPa) = 25.67367 26.33716 26.00542
#
# Velocity S-wave (km/s) = 3.70422 3.75178 3.72808
# Velocity P-wave (km/s) = 7.40363 7.51363 7.45883
#
# Compressibility (1/GPa) = 0.01463493
#
# Stress axis : x y z
#
# Youngs Moduli (GPa) = 60.82915 62.94247 57.04668
#
# Poissons Ratio (x) = 0.44764 0.23897
# Poissons Ratio (y) = 0.43261 0.35995
# Poissons Ratio (z) = 0.25482 0.39716
#
# Static dielectric constant tensor:
#      x y z
#    x 3.675410 0.000000 0.000000 
#    y 0.000000 3.384010 0.000000 
#    z 0.000000 0.000000 3.324970 
# 
# 
# High freq. dielectric constant tensor:
#      x y z
#    x 1.740040 0.000000 0.000000 
#    y 0.000000 1.721690 0.000000 
#    z 0.000000 0.000000 1.714640 
# 
# From -- ./inp_files/13486.got.cif
#   From: 2010.03.12/outbox.cif.g09.slc.cpg/sg50_7_cif.got.tgz:13486.got - 2010.04.16 13:23:21.
