data_PCOD8204429
_publ_section_title
;
Structure prediction by ZEFSAII (Michael W. Deem and Ramdas Pophale) SiO2 
 PCOD8204429
Probable space group: P C C M
;
_chemical_formula_sum "Si O2"
_cell_formula_units_Z 58
_cell_length_a 9.251621
_cell_length_b 18.020527
_cell_length_c 15.465864
_cell_angle_alpha 90.000000
_cell_angle_beta 90.000000
_cell_angle_gamma 90.000000
_cell_volume 2578.454711
_symmetry_space_group_name_H-M "P C C M"
_symmetry_group_IT_number 49
_symmetry_cell_setting 'orthorhombic'
loop_
_space_group_symop_operation_xyz
x,y,z
-x,-y,z
x,-y,1/2-z
-x,y,1/2-z
-x,-y,-z
x,y,-z
-x,y,1/2+z
x,-y,1/2+z
loop_
_atom_site_type_symbol
_atom_site_label
_atom_site_fract_x
_atom_site_fract_y
_atom_site_fract_z
Si Si1 0.840717 0.511531 0.648567
Si Si2 0.354913 0.722162 0.669921
Si Si3 0.782852 0.321527 0.849231
Si Si4 0.124883 0.101815 0.398099
Si Si5 0.605769 0.801283 0.406207
Si Si6 0.000000 0.000000 0.750000
Si Si7 0.048907 0.752669 0.402714
Si Si8 0.579946 0.570117 0.902726
O O1 0.841967 0.500000 0.750000
O O2 0.767929 0.591568 0.629933
O O3 0.750350 0.447688 0.601424
O O4 0.000000 0.500000 0.609945
O O5 0.301032 0.708586 0.765426
O O6 0.472299 0.788718 0.660669
O O7 0.218595 0.741515 0.611004
O O8 0.445548 0.648821 0.642079
O O9 0.706423 0.271977 0.922019
O O10 0.954015 0.302220 0.841885
O O11 0.119267 0.072355 0.500000
O O12 0.285265 0.133323 0.377263
O O13 0.099854 0.044419 0.319269
O O14 0.998392 0.162628 0.385884
O O15 0.537593 0.819689 0.500000
O O16 0.013552 0.729301 0.500000
O O17 0.500000 0.500000 0.855952
O O18 0.523576 0.577069 0.000000
#
# Coordination Sequence:
#
# PCOD8204429 Si02
#       8
#     8   8   8   8   8   2   8   8
#     4  11  23  38  53  75 112 159 206 266 336 390
#     4  12  22  37  63  93 122 165 219 273 328 389
#     4  11  22  37  60  86 120 162 217 277 334 390
#     4   9  22  42  67 105 140 173 212 255 308 374
#     4  10  22  41  63  91 130 167 208 264 323 377
#     4  12  22  40  80 108 136 184 210 248 296 386
#     4  10  22  39  64  97 131 164 212 272 326 381
#     4  11  24  39  56  80 114 157 212 267 327 400
#
# _framework density 22.494091000000001
#
# number of rings (size 3 to 8) (size 9 to 14) (size 15 to 20)
#    0.000    1.379    1.379    5.172    5.793    2.759 
#    0.000    0.000    0.000    1.655    0.000    3.862 
#    0.000    0.000    0.000    0.000    0.000    0.000 
#
# Total GULP energy -718583.257882 kJ/mol
# GULP energy per Si atom -12389.366515 kJ/mol
# Density = 2.244289 g / cm^3
# Si number density = 22.494091 Si / 1000 Ang^3
#
#
#
# Elastic Constant Matrix: (Units=GPa)
#
#
# Indices 1 2 3 4 5 6 
#
# 1 110.1793 30.9238 35.9545 0.0000 0.0000 0.0000
# 2 30.9238 83.9245 46.9273 0.0000 0.0000 0.0000
# 3 35.9545 46.9273 107.1233 0.0000 0.0000 0.0000
# 4 0.0000 0.0000 0.0000 27.1162 0.0000 0.0000
# 5 0.0000 0.0000 0.0000 0.0000 36.5160 0.0000
# 6 0.0000 0.0000 0.0000 0.0000 0.0000 -64.5937
#
#
#
# Elastic Compliance Matrix: (Units=1/GPa)
#
#
# Indices 1 2 3 4 5 6 
#
# 1 0.010584 -0.002534 -0.002442 0.000000 0.000000 0.000000
# 2 -0.002534 0.016388 -0.006328 0.000000 0.000000 0.000000
# 3 -0.002442 -0.006328 0.012927 0.000000 0.000000 0.000000
# 4 0.000000 0.000000 0.000000 0.036878 0.000000 0.000000
# 5 0.000000 0.000000 0.000000 0.000000 0.027385 0.000000
# 6 0.000000 0.000000 0.000000 0.000000 0.000000 -0.015481
#
#
# Mechanical properties :
#
#
# Convention : Reuss Voigt Hill
#
# Bulk Modulus (GPa) = 57.83958 58.75981 58.29969
# Shear Modulus (GPa) = 42.71507 12.30247 27.50877
#
# Velocity S-wave (km/s) = 4.36242 2.34117 3.50084
# Velocity P-wave (km/s) = 7.15145 5.78681 6.50502
#
# Compressibility (1/GPa) = 0.01728920
#
# Stress axis : x y z
#
# Youngs Moduli (GPa) = 94.47841 61.02060 77.35740
#
# Poissons Ratio (x) = 0.15465 0.18893
# Poissons Ratio (y) = 0.23945 0.48955
# Poissons Ratio (z) = 0.23074 0.38616
#
# Static dielectric constant tensor:
#      x y z
#    x 4.332540 0.000000 0.000000 
#    y 0.000000 3.823970 0.000000 
#    z 0.000000 0.000000 4.007240 
# 
# 
# High freq. dielectric constant tensor:
#      x y z
#    x 1.902590 0.000000 0.000000 
#    y 0.000000 1.848150 0.000000 
#    z 0.000000 0.000000 1.891530 
# 
# From -- ./inp_files/16497.got.cif
#   From: 2010.03.12/outbox.cif.g09.slc.cpg/sg49_9_cif.got.tgz:16497.got - 2010.04.14 03:58:27.
