data_PCOD8204497
_publ_section_title
;
Structure prediction by ZEFSAII (Michael W. Deem and Ramdas Pophale) SiO2 
 PCOD8204497
Probable space group: P C C M
;
_chemical_formula_sum "Si O2"
_cell_formula_units_Z 48
_cell_length_a 17.471608
_cell_length_b 10.061685
_cell_length_c 13.566849
_cell_angle_alpha 90.000000
_cell_angle_beta 90.000000
_cell_angle_gamma 90.000000
_cell_volume 2384.968159
_symmetry_space_group_name_H-M "P C C M"
_symmetry_group_IT_number 49
_symmetry_cell_setting 'orthorhombic'
loop_
_space_group_symop_operation_xyz
x,y,z
-x,-y,z
x,-y,1/2-z
-x,y,1/2-z
-x,-y,-z
x,y,-z
-x,y,1/2+z
x,-y,1/2+z
loop_
_atom_site_type_symbol
_atom_site_label
_atom_site_fract_x
_atom_site_fract_y
_atom_site_fract_z
Si Si1 0.207984 0.705246 0.611578
Si Si2 0.084443 0.656305 0.249823
Si Si3 0.457432 0.365811 0.110233
Si Si4 0.439625 0.110752 0.610947
Si Si5 0.219039 0.609188 0.112512
Si Si6 0.334060 0.749478 0.753241
O O1 0.211586 0.754391 0.500000
O O2 0.122330 0.722529 0.653217
O O3 0.223954 0.548825 0.626140
O O4 0.268889 0.792504 0.674118
O O5 0.072493 0.500000 0.250000
O O6 0.142967 0.679199 0.158429
O O7 0.000000 0.723472 0.250000
O O8 0.500000 0.500000 0.139204
O O9 0.521017 0.252872 0.110511
O O10 0.394908 0.336652 0.192475
O O11 0.420069 0.375043 0.000000
O O12 0.409591 0.075278 0.500000
O O13 0.371341 0.121841 0.691909
O O14 0.500000 0.000000 0.646365
O O15 0.296553 0.659884 0.162201
O O16 0.219173 0.652559 0.000000
#
# Coordination Sequence:
#
# PCOD8204497 Si02
#       6
#     8   8   8   8   8   8
#     4   9  18  29  43  68 101 136 176 224 279 325
#     4   8  14  25  41  63  93 135 184 225 264 320
#     4  10  23  37  53  78 104 132 172 225 281 332
#     4  10  23  41  57  75 101 134 175 225 284 340
#     4   9  18  29  43  68 100 137 176 224 277 326
#     4  11  20  32  52  71  97 131 179 225 276 334
#
# _framework density 20.126055000000001
#
# number of rings (size 3 to 8) (size 9 to 14) (size 15 to 20)
#    0.000    2.500    0.000    3.000    4.667    2.667 
#    0.000    3.333    0.000    2.000    0.000    0.000 
#    0.000    0.000    0.000   48.000    0.000  274.667 
#
# Total GULP energy -594718.188337 kJ/mol
# GULP energy per Si atom -12389.962257 kJ/mol
# Density = 2.008025 g / cm^3
# Si number density = 20.126055 Si / 1000 Ang^3
#
#
#
# Elastic Constant Matrix: (Units=GPa)
#
#
# Indices 1 2 3 4 5 6 
#
# 1 129.7409 20.9300 87.5282 0.0000 0.0000 0.0000
# 2 20.9300 44.6839 26.0768 0.0000 0.0000 0.0000
# 3 87.5282 26.0768 162.4860 0.0000 0.0000 0.0000
# 4 0.0000 0.0000 0.0000 16.6637 0.0000 0.0000
# 5 0.0000 0.0000 0.0000 0.0000 27.6726 0.0000
# 6 0.0000 0.0000 0.0000 0.0000 0.0000 16.0856
#
#
#
# Elastic Compliance Matrix: (Units=1/GPa)
#
#
# Indices 1 2 3 4 5 6 
#
# 1 0.012282 -0.002087 -0.006281 0.000000 0.000000 0.000000
# 2 -0.002087 0.025047 -0.002895 0.000000 0.000000 0.000000
# 3 -0.006281 -0.002895 0.010002 0.000000 0.000000 0.000000
# 4 0.000000 0.000000 0.000000 0.060011 0.000000 0.000000
# 5 0.000000 0.000000 0.000000 0.000000 0.036137 0.000000
# 6 0.000000 0.000000 0.000000 0.000000 0.000000 0.062167
#
#
# Mechanical properties :
#
#
# Convention : Reuss Voigt Hill
#
# Bulk Modulus (GPa) = 40.31624 67.33120 53.82372
# Shear Modulus (GPa) = 21.14693 25.57610 23.36151
#
# Velocity S-wave (km/s) = 3.24500 3.56869 3.41069
# Velocity P-wave (km/s) = 5.84084 7.10690 6.50475
#
# Compressibility (1/GPa) = 0.02480390
#
# Stress axis : x y z
#
# Youngs Moduli (GPa) = 81.42131 39.92529 99.97523
#
# Poissons Ratio (x) = 0.08334 0.62794
# Poissons Ratio (y) = 0.16995 0.28945
# Poissons Ratio (z) = 0.51141 0.11559
#
# Static dielectric constant tensor:
#      x y z
#    x 3.958580 0.000000 0.000000 
#    y 0.000000 2.999800 0.000000 
#    z 0.000000 0.000000 4.194800 
# 
# 
# High freq. dielectric constant tensor:
#      x y z
#    x 1.782110 0.000000 0.000000 
#    y 0.000000 1.723560 0.000000 
#    z 0.000000 0.000000 1.809660 
# 
# From -- ./inp_files/14044.got.cif
#   From: 2010.03.12/outbox.cif.g09.slc.cpg/sg49_8_cif.got.tgz:14044.got - 2010.04.14 03:58:27.
