data_PCOD8204269
_publ_section_title
;
Structure prediction by ZEFSAII (Michael W. Deem and Ramdas Pophale) SiO2 
 PCOD8204269
Probable space group: P C C M
;
_chemical_formula_sum "Si O2"
_cell_formula_units_Z 48
_cell_length_a 29.855467
_cell_length_b 9.450773
_cell_length_c 8.659064
_cell_angle_alpha 90.000000
_cell_angle_beta 90.000000
_cell_angle_gamma 90.000000
_cell_volume 2443.217612
_symmetry_space_group_name_H-M "P C C M"
_symmetry_group_IT_number 49
_symmetry_cell_setting 'orthorhombic'
loop_
_space_group_symop_operation_xyz
x,y,z
-x,-y,z
x,-y,1/2-z
-x,y,1/2-z
-x,-y,-z
x,y,-z
-x,y,1/2+z
x,-y,1/2+z
loop_
_atom_site_type_symbol
_atom_site_label
_atom_site_fract_x
_atom_site_fract_y
_atom_site_fract_z
Si Si1 0.045122 0.654972 0.817705
Si Si2 0.221500 0.149091 0.820193
Si Si3 0.377420 0.845348 0.817576
Si Si4 0.117727 0.851551 0.680559
Si Si5 0.451035 0.351804 0.816416
Si Si6 0.706840 0.346453 0.819045
O O1 0.049060 0.500000 0.750000
O O2 0.089738 0.733943 0.767789
O O3 0.000000 0.728589 0.750000
O O4 0.041538 0.649441 0.000000
O O5 0.169635 0.177261 0.783726
O O6 0.247906 0.279354 0.747036
O O7 0.237588 0.000000 0.750000
O O8 0.231660 0.142326 0.000000
O O9 0.420412 0.777396 0.736617
O O10 0.334480 0.752698 0.772972
O O11 0.369486 0.000000 0.750000
O O12 0.385304 0.852587 0.000000
O O13 0.107241 0.848631 0.500000
O O14 0.102434 0.000000 0.750000
O O15 0.431891 0.500000 0.750000
O O16 0.500000 0.322460 0.750000
O O17 0.452881 0.361206 0.000000
O O18 0.698244 0.500000 0.750000
O O19 0.712274 0.362039 0.000000
#
# Coordination Sequence:
#
# PCOD8204269 Si02
#       6
#     8   8   8   8   8   8
#     4  11  22  38  59  83 113 150 190 236 286 341
#     4  10  21  38  61  86 117 152 190 235 286 342
#     4  11  24  41  61  88 119 155 196 241 291 345
#     4  10  21  38  59  86 116 150 190 235 285 340
#     4  11  22  39  63  90 121 157 196 241 290 345
#     4  11  24  40  61  87 118 153 194 240 288 342
#
# _framework density 19.646224
#
# number of rings (size 3 to 8) (size 9 to 14) (size 15 to 20)
#    0.000    1.333    0.000    7.000    0.000    8.667 
#    0.000    3.333    0.000    0.000    0.000    0.000 
#    0.000    0.000    0.000    0.000    0.000    0.000 
#
# Total GULP energy -595476.126643 kJ/mol
# GULP energy per Si atom -12405.752638 kJ/mol
# Density = 1.960151 g / cm^3
# Si number density = 19.646224 Si / 1000 Ang^3
#
#
#
# Elastic Constant Matrix: (Units=GPa)
#
#
# Indices 1 2 3 4 5 6 
#
# 1 96.9759 73.1802 66.2744 0.0000 0.0000 0.0000
# 2 73.1802 143.4478 73.4809 0.0000 0.0000 0.0000
# 3 66.2744 73.4809 150.2982 0.0000 0.0000 0.0000
# 4 0.0000 0.0000 0.0000 41.0786 0.0000 0.0000
# 5 0.0000 0.0000 0.0000 0.0000 28.1528 0.0000
# 6 0.0000 0.0000 0.0000 0.0000 0.0000 36.8142
#
#
#
# Elastic Compliance Matrix: (Units=1/GPa)
#
#
# Indices 1 2 3 4 5 6 
#
# 1 0.019125 -0.007253 -0.004887 0.000000 0.000000 0.000000
# 2 -0.007253 0.012051 -0.002693 0.000000 0.000000 0.000000
# 3 -0.004887 -0.002693 0.010125 0.000000 0.000000 0.000000
# 4 0.000000 0.000000 0.000000 0.024344 0.000000 0.000000
# 5 0.000000 0.000000 0.000000 0.000000 0.035520 0.000000
# 6 0.000000 0.000000 0.000000 0.000000 0.000000 0.027163
#
#
# Mechanical properties :
#
#
# Convention : Reuss Voigt Hill
#
# Bulk Modulus (GPa) = 85.95633 90.73255 88.34444
# Shear Modulus (GPa) = 30.88796 33.06156 31.97476
#
# Velocity S-wave (km/s) = 3.96941 4.10670 4.03864
# Velocity P-wave (km/s) = 8.05328 8.29277 8.17391
#
# Compressibility (1/GPa) = 0.01163381
#
# Stress axis : x y z
#
# Youngs Moduli (GPa) = 52.28646 82.97910 98.76258
#
# Poissons Ratio (x) = 0.60188 0.48267
# Poissons Ratio (y) = 0.37925 0.26601
# Poissons Ratio (z) = 0.25554 0.22350
#
# Static dielectric constant tensor:
#      x y z
#    x 3.755420 0.000000 0.000000 
#    y 0.000000 3.589000 0.000000 
#    z 0.000000 0.000000 3.715110 
# 
# 
# High freq. dielectric constant tensor:
#      x y z
#    x 1.775930 0.000000 0.000000 
#    y 0.000000 1.768330 0.000000 
#    z 0.000000 0.000000 1.787140 
# 
# From -- ./inp_files/2113.got.cif
#   From: 2010.03.12/outbox.cif.g09.slc.cpg/sg49_2_cif.got.tgz:2113.got - 2010.04.14 03:58:27.
