data_PCOD8204793
_publ_section_title
;
Structure prediction by ZEFSAII (Michael W. Deem and Ramdas Pophale) SiO2 
 PCOD8204793
Probable space group: P B A N
;
_chemical_formula_sum "Si O2"
_cell_formula_units_Z 56
_cell_length_a 14.457887
_cell_length_b 10.720409
_cell_length_c 16.608863
_cell_angle_alpha 90.000000
_cell_angle_beta 90.000000
_cell_angle_gamma 90.000000
_cell_volume 2574.281784
_symmetry_space_group_name_H-M "P B A N"
_symmetry_group_IT_number 50
_space_group.IT_coordinate_system_code '2'
_symmetry_cell_setting 'orthorhombic'
loop_
_space_group_symop_operation_xyz
x,y,z
1/2-x,1/2-y,z
x,1/2-y,-z
1/2-x,y,-z
-x,-y,-z
1/2+x,1/2+y,-z
-x,1/2+y,z
1/2+x,-y,z
loop_
_atom_site_type_symbol
_atom_site_label
_atom_site_fract_x
_atom_site_fract_y
_atom_site_fract_z
Si Si1 0.231026 0.880553 0.285991
Si Si2 0.359066 0.118518 0.476529
Si Si3 0.924318 0.503639 0.196636
Si Si4 0.396990 0.445638 0.703437
Si Si5 0.355329 0.232323 0.153625
Si Si6 0.651693 0.131261 0.458074
Si Si7 0.498115 0.628066 0.048639
O O1 0.250000 0.750000 0.240526
O O2 0.168467 0.848395 0.363913
O O3 0.176314 0.978486 0.232419
O O4 0.330772 0.935896 0.303902
O O5 0.404851 0.250000 0.500000
O O6 0.250000 0.123149 0.500000
O O7 0.392674 0.112864 0.384546
O O8 0.402436 0.999104 0.524400
O O9 0.917828 0.642400 0.160406
O O10 0.002809 0.492780 0.265822
O O11 0.937576 0.398540 0.128150
O O12 0.357986 0.340812 0.762726
O O13 0.250000 0.250000 0.128582
O O14 0.398069 0.154933 0.079390
O O15 0.600011 0.250000 0.500000
O O16 0.750000 0.117048 0.500000
O O17 0.459543 0.750000 0.000000
O O18 0.500000 0.500000 0.000000
#
# Coordination Sequence:
#
# PCOD8204793 Si02
#       7
#     8   8   8   8   8   8   8
#     4  12  23  40  69  94 137 185 237 291 345 418
#     4  10  20  33  61  91 130 183 238 289 353 387
#     4  11  27  44  69 108 136 185 229 285 357 424
#     4  11  24  41  65  97 144 184 233 298 343 419
#     4  11  24  44  74 105 139 184 237 278 356 424
#     4  10  17  36  58  88 123 183 234 276 342 396
#     4  11  24  49  77 101 145 180 218 283 350 414
#
# _framework density 21.753640000000001
#
# number of rings (size 3 to 8) (size 9 to 14) (size 15 to 20)
#    0.000    1.143    7.143    0.000    8.000    0.286 
#    0.000    1.429    0.000    0.000    0.000    0.000 
#    0.000    0.000    0.000    0.000    0.000    0.000 
#
# Total GULP energy -693883.778346 kJ/mol
# GULP energy per Si atom -12390.781756 kJ/mol
# Density = 2.170413 g / cm^3
# Si number density = 21.753640 Si / 1000 Ang^3
#
#
#
# Elastic Constant Matrix: (Units=GPa)
#
#
# Indices 1 2 3 4 5 6 
#
# 1 81.4651 33.4413 34.1206 0.0000 0.0000 0.0000
# 2 33.4413 190.7427 46.3489 0.0000 0.0000 0.0000
# 3 34.1206 46.3489 99.5987 0.0000 0.0000 0.0000
# 4 0.0000 0.0000 0.0000 32.9038 0.0000 0.0000
# 5 0.0000 0.0000 0.0000 0.0000 22.1665 0.0000
# 6 0.0000 0.0000 0.0000 0.0000 0.0000 14.5843
#
#
#
# Elastic Compliance Matrix: (Units=1/GPa)
#
#
# Indices 1 2 3 4 5 6 
#
# 1 0.014716 -0.001528 -0.004330 0.000000 0.000000 0.000000
# 2 -0.001528 0.006070 -0.002301 0.000000 0.000000 0.000000
# 3 -0.004330 -0.002301 0.012595 0.000000 0.000000 0.000000
# 4 0.000000 0.000000 0.000000 0.030392 0.000000 0.000000
# 5 0.000000 0.000000 0.000000 0.000000 0.045113 0.000000
# 6 0.000000 0.000000 0.000000 0.000000 0.000000 0.068567
#
#
# Mechanical properties :
#
#
# Convention : Reuss Voigt Hill
#
# Bulk Modulus (GPa) = 58.61114 66.62534 62.61824
# Shear Modulus (GPa) = 25.06792 31.12398 28.09595
#
# Velocity S-wave (km/s) = 3.39832 3.78663 3.59772
# Velocity P-wave (km/s) = 6.51151 7.05774 6.79012
#
# Compressibility (1/GPa) = 0.01706160
#
# Stress axis : x y z
#
# Youngs Moduli (GPa) = 67.95272 164.75318 79.39849
#
# Poissons Ratio (x) = 0.25171 0.34383
# Poissons Ratio (y) = 0.10382 0.18271
# Poissons Ratio (z) = 0.29427 0.37913
#
# Static dielectric constant tensor:
#      x y z
#    x 3.615410 0.000000 0.000000 
#    y 0.000000 5.232300 0.000000 
#    z 0.000000 0.000000 4.003690 
# 
# 
# High freq. dielectric constant tensor:
#      x y z
#    x 1.829120 0.000000 0.000000 
#    y 0.000000 1.881420 0.000000 
#    z 0.000000 0.000000 1.851860 
# 
# From -- ./inp_files/26512.got.cif
#   From: 2010.03.12/outbox.cif.g09.slc.cpg/sg50_14_cif.got.tgz:26512.got - 2010.04.16 13:23:21.
