data_PCOD8204248
_publ_section_title
;
Structure prediction by ZEFSAII (Michael W. Deem and Ramdas Pophale) SiO2 
 PCOD8204248
Probable space group: P C C M
;
_chemical_formula_sum "Si O2"
_cell_formula_units_Z 64
_cell_length_a 12.045339
_cell_length_b 15.129313
_cell_length_c 18.409175
_cell_angle_alpha 90.000000
_cell_angle_beta 90.000000
_cell_angle_gamma 90.000000
_cell_volume 3354.845783
_symmetry_space_group_name_H-M "P C C M"
_symmetry_group_IT_number 49
_symmetry_cell_setting 'orthorhombic'
loop_
_space_group_symop_operation_xyz
x,y,z
-x,-y,z
x,-y,1/2-z
-x,y,1/2-z
-x,-y,-z
x,y,-z
-x,y,1/2+z
x,-y,1/2+z
loop_
_atom_site_type_symbol
_atom_site_label
_atom_site_fract_x
_atom_site_fract_y
_atom_site_fract_z
Si Si1 0.797842 0.541294 0.173140
Si Si2 0.169160 0.031179 0.585832
Si Si3 0.411391 0.928891 0.086696
Si Si4 0.449563 0.593159 0.327256
Si Si5 0.039713 0.860201 0.585917
Si Si6 0.199263 0.368043 0.414185
Si Si7 0.021702 0.313113 0.165340
Si Si8 0.422969 0.729748 0.914518
O O1 0.834107 0.500000 0.250000
O O2 0.682393 0.592194 0.181728
O O3 0.781591 0.468124 0.111258
O O4 0.894660 0.607070 0.148747
O O5 0.176020 0.031636 0.500000
O O6 0.290572 0.047305 0.619451
O O7 0.084612 0.109178 0.608532
O O8 0.125039 0.936012 0.610936
O O9 0.440395 0.829977 0.113425
O O10 0.500000 0.000000 0.117178
O O11 0.408889 0.932230 0.000000
O O12 0.500000 0.500000 0.354927
O O13 0.500000 0.618130 0.250000
O O14 0.478713 0.670056 0.383192
O O15 0.047372 0.840873 0.500000
O O16 0.075012 0.774926 0.631669
O O17 0.181080 0.366275 0.500000
O O18 0.303512 0.308081 0.390202
O O19 0.092770 0.328920 0.375455
O O20 0.000000 0.300520 0.250000
O O21 0.433893 0.725467 0.000000
#
# Coordination Sequence:
#
# PCOD8204248 Si02
#       8
#     8   8   8   8   8   8   8   8
#     4  12  23  41  58  82 115 158 203 241 297 359
#     4   8  15  32  58  80 112 155 189 233 291 352
#     4   9  17  30  52  84 119 150 183 230 294 355
#     4  11  21  39  64  83 111 156 203 240 290 357
#     4   9  18  35  58  85 111 147 198 242 288 344
#     4  11  23  39  61  86 116 155 201 247 295 349
#     4  12  25  36  57  84 121 156 194 246 299 359
#     4  10  21  37  62  94 119 149 197 250 294 344
#
# _framework density 19.076882000000001
#
# number of rings (size 3 to 8) (size 9 to 14) (size 15 to 20)
#    0.000    1.750    3.750    2.250    0.000    5.250 
#    0.000    2.500    0.000    0.375    0.000    0.000 
#    0.000    0.000    0.000    0.000    0.000    0.000 
#
# Total GULP energy -793667.319637 kJ/mol
# GULP energy per Si atom -12401.051869 kJ/mol
# Density = 1.903346 g / cm^3
# Si number density = 19.076882 Si / 1000 Ang^3
#
#
#
# Elastic Constant Matrix: (Units=GPa)
#
#
# Indices 1 2 3 4 5 6 
#
# 1 69.7866 53.0258 16.5651 0.0000 0.0000 0.0000
# 2 53.0258 149.0508 36.6694 0.0000 0.0000 0.0000
# 3 16.5651 36.6694 49.9580 0.0000 0.0000 0.0000
# 4 0.0000 0.0000 0.0000 -0.4130 0.0000 0.0000
# 5 0.0000 0.0000 0.0000 0.0000 21.6350 0.0000
# 6 0.0000 0.0000 0.0000 0.0000 0.0000 28.4310
#
#
#
# Elastic Compliance Matrix: (Units=1/GPa)
#
#
# Indices 1 2 3 4 5 6 
#
# 1 0.019755 -0.006610 -0.001699 0.000000 0.000000 0.000000
# 2 -0.006610 0.010399 -0.005441 0.000000 0.000000 0.000000
# 3 -0.001699 -0.005441 0.024574 0.000000 0.000000 0.000000
# 4 0.000000 0.000000 0.000000 -2.421392 0.000000 0.000000
# 5 0.000000 0.000000 0.000000 0.000000 0.046221 0.000000
# 6 0.000000 0.000000 0.000000 0.000000 0.000000 0.035173
#
#
# Mechanical properties :
#
#
# Convention : Reuss Voigt Hill
#
# Bulk Modulus (GPa) = 36.72638 53.47954 45.10296
# Shear Modulus (GPa) = -2.22351 20.76626 9.27137
#
# Velocity S-wave (km/s) = -1.08078 3.30291 2.20693
# Velocity P-wave (km/s) = 4.21143 6.52994 5.49437
#
# Compressibility (1/GPa) = 0.02722838
#
# Stress axis : x y z
#
# Youngs Moduli (GPa) = 50.61965 96.15918 40.69334
#
# Poissons Ratio (x) = 0.63563 0.06912
# Poissons Ratio (y) = 0.33460 0.22143
# Poissons Ratio (z) = 0.08598 0.52324
#
# Static dielectric constant tensor:
#      x y z
#    x 3.802760 0.000000 0.000000 
#    y 0.000000 3.676090 0.000000 
#    z 0.000000 0.000000 3.289930 
# 
# 
# High freq. dielectric constant tensor:
#      x y z
#    x 1.748460 0.000000 0.000000 
#    y 0.000000 1.750490 0.000000 
#    z 0.000000 0.000000 1.709510 
# 
# From -- ./inp_files/17341.got.cif
#   From: 2010.03.12/outbox.cif.g09.slc.cpg/sg49_9_cif.got.tgz:17341.got - 2010.04.14 03:58:27.
