data_PCOD8204966
_publ_section_title
;
Structure prediction by ZEFSAII (Michael W. Deem and Ramdas Pophale) SiO2 
 PCOD8204966
Probable space group: P B A N
;
_chemical_formula_sum "Si O2"
_cell_formula_units_Z 56
_cell_length_a 9.483885
_cell_length_b 14.456843
_cell_length_c 18.242556
_cell_angle_alpha 90.000000
_cell_angle_beta 90.000000
_cell_angle_gamma 90.000000
_cell_volume 2501.182791
_symmetry_space_group_name_H-M "P B A N"
_symmetry_group_IT_number 50
_space_group.IT_coordinate_system_code '2'
_symmetry_cell_setting 'orthorhombic'
loop_
_space_group_symop_operation_xyz
x,y,z
1/2-x,1/2-y,z
x,1/2-y,-z
1/2-x,y,-z
-x,-y,-z
1/2+x,1/2+y,-z
-x,1/2+y,z
1/2+x,-y,z
loop_
_atom_site_type_symbol
_atom_site_label
_atom_site_fract_x
_atom_site_fract_y
_atom_site_fract_z
Si Si1 0.657887 0.945786 0.848186
Si Si2 0.153704 0.171458 0.712724
Si Si3 0.464882 0.395978 0.175232
Si Si4 0.910660 0.909015 0.652348
Si Si5 0.586153 0.769923 0.920825
Si Si6 0.105990 0.562679 0.543006
Si Si7 0.585228 0.246123 0.382048
O O1 0.623756 0.913298 0.765515
O O2 0.825827 0.943030 0.860598
O O3 0.570707 0.878459 0.902474
O O4 0.599897 0.049128 0.855885
O O5 0.250000 0.250000 0.755090
O O6 0.254786 0.137768 0.645407
O O7 0.005323 0.211840 0.687117
O O8 0.461110 0.403155 0.263398
O O9 0.482932 0.291657 0.144482
O O10 0.022951 0.849556 0.601235
O O11 0.892614 0.014210 0.623913
O O12 0.750000 0.750000 0.925133
O O13 0.514547 0.750000 0.000000
O O14 0.250000 0.557449 0.500000
O O15 0.065315 0.671327 0.552196
O O16 0.000000 0.500000 0.500000
O O17 0.750000 0.250000 0.361005
#
# Coordination Sequence:
#
# PCOD8204966 Si02
#       7
#     8   8   8   8   8   8   8
#     4  10  19  35  57  85 121 153 197 245 284 346
#     4   9  18  36  59  83 114 155 194 233 288 354
#     4  10  21  36  61  90 115 155 201 244 296 351
#     4  10  22  41  62  84 117 158 197 236 294 368
#     4   9  18  35  58  84 119 162 201 238 290 358
#     4  12  26  42  60  85 117 154 194 241 301 360
#     4  11  23  39  62  88 114 144 190 249 298 343
#
# _framework density 22.389406000000001
#
# number of rings (size 3 to 8) (size 9 to 14) (size 15 to 20)
#    0.000    1.857    0.000    5.571    0.000    7.143 
#    0.000    1.429    0.000    0.857    0.000    0.000 
#    0.000    0.000    0.000    0.000    0.000    0.000 
#
# Total GULP energy -693853.055223 kJ/mol
# GULP energy per Si atom -12390.233129 kJ/mol
# Density = 2.233845 g / cm^3
# Si number density = 22.389406 Si / 1000 Ang^3
#
#
#
# Elastic Constant Matrix: (Units=GPa)
#
#
# Indices 1 2 3 4 5 6 
#
# 1 84.0682 22.8162 13.7344 0.0000 0.0000 0.0000
# 2 22.8162 111.0485 26.1898 0.0000 0.0000 0.0000
# 3 13.7344 26.1898 87.5411 0.0000 0.0000 0.0000
# 4 0.0000 0.0000 0.0000 25.2557 0.0000 0.0000
# 5 0.0000 0.0000 0.0000 0.0000 12.1321 0.0000
# 6 0.0000 0.0000 0.0000 0.0000 0.0000 35.3141
#
#
#
# Elastic Compliance Matrix: (Units=1/GPa)
#
#
# Indices 1 2 3 4 5 6 
#
# 1 0.012735 -0.002308 -0.001307 0.000000 0.000000 0.000000
# 2 -0.002308 0.010107 -0.002662 0.000000 0.000000 0.000000
# 3 -0.001307 -0.002662 0.012425 0.000000 0.000000 0.000000
# 4 0.000000 0.000000 0.000000 0.039595 0.000000 0.000000
# 5 0.000000 0.000000 0.000000 0.000000 0.082426 0.000000
# 6 0.000000 0.000000 0.000000 0.000000 0.000000 0.028317
#
#
# Mechanical properties :
#
#
# Convention : Reuss Voigt Hill
#
# Bulk Modulus (GPa) = 44.02916 45.34871 44.68894
# Shear Modulus (GPa) = 24.30366 29.20155 26.75260
#
# Velocity S-wave (km/s) = 3.29826 3.61537 3.46045
# Velocity P-wave (km/s) = 5.84915 6.14218 5.99746
#
# Compressibility (1/GPa) = 0.02271222
#
# Stress axis : x y z
#
# Youngs Moduli (GPa) = 78.52271 98.94095 80.48546
#
# Poissons Ratio (x) = 0.22838 0.10523
# Poissons Ratio (y) = 0.18125 0.21422
# Poissons Ratio (z) = 0.10267 0.26334
#
# Static dielectric constant tensor:
#      x y z
#    x 3.903950 0.000000 0.000000 
#    y 0.000000 4.644160 0.000000 
#    z 0.000000 0.000000 4.063130 
# 
# 
# High freq. dielectric constant tensor:
#      x y z
#    x 1.860460 0.000000 0.000000 
#    y 0.000000 1.893140 0.000000 
#    z 0.000000 0.000000 1.862520 
# 
# From -- ./inp_files/30650.got.cif
#   From: 2010.03.12/outbox.cif.g09.slc.cpg/sg50_16_cif.got.tgz:30650.got - 2010.04.16 13:23:21.
