data_PCOD8204708
_publ_section_title
;
Structure prediction by ZEFSAII (Michael W. Deem and Ramdas Pophale) SiO2 
 PCOD8204708
Probable space group: P C C M
;
_chemical_formula_sum "Si O2"
_cell_formula_units_Z 48
_cell_length_a 9.301138
_cell_length_b 13.154769
_cell_length_c 22.662482
_cell_angle_alpha 90.000000
_cell_angle_beta 90.000000
_cell_angle_gamma 90.000000
_cell_volume 2772.852616
_symmetry_space_group_name_H-M "P C C M"
_symmetry_group_IT_number 49
_symmetry_cell_setting 'orthorhombic'
loop_
_space_group_symop_operation_xyz
x,y,z
-x,-y,z
x,-y,1/2-z
-x,y,1/2-z
-x,-y,-z
x,y,-z
-x,y,1/2+z
x,-y,1/2+z
loop_
_atom_site_type_symbol
_atom_site_label
_atom_site_fract_x
_atom_site_fract_y
_atom_site_fract_z
Si Si1 0.148583 0.697883 0.066281
Si Si2 0.337959 0.509277 0.933222
Si Si3 0.092180 0.593206 0.635816
Si Si4 0.166595 0.204188 0.799035
Si Si5 0.862708 0.148241 0.830495
Si Si6 0.345695 0.974047 0.681695
O O1 0.287661 0.625839 0.069349
O O2 0.173958 0.787227 0.111978
O O3 0.004653 0.635973 0.082643
O O4 0.129288 0.741103 0.000000
O O5 0.500000 0.500000 0.909702
O O6 0.242422 0.441670 0.890370
O O7 0.326464 0.467244 0.000000
O O8 0.135576 0.679918 0.682630
O O9 0.000000 0.500000 0.665500
O O10 0.192641 0.205465 0.728656
O O11 0.304354 0.145672 0.827856
O O12 0.032855 0.133620 0.819984
O O13 0.782661 0.042833 0.843883
O O14 0.500000 0.000000 0.651455
O O15 0.356300 0.000000 0.750000
#
# Coordination Sequence:
#
# PCOD8204708 Si02
#       6
#     8   8   8   8   8   8
#     4   9  17  30  48  67  88 118 155 193 231 272
#     4   9  17  29  45  65  89 121 160 195 228 271
#     4   9  17  30  48  68  93 121 152 191 233 277
#     4   9  17  30  48  70  93 121 153 189 232 279
#     4   9  17  30  48  69  91 118 153 189 230 276
#     4   9  17  29  47  70  94 121 153 189 229 277
#
# _framework density 17.310693000000001
#
# number of rings (size 3 to 8) (size 9 to 14) (size 15 to 20)
#    0.000    3.000    0.000    1.000    0.000    5.333 
#    0.000   14.167    0.000   10.500    0.000    0.000 
#    0.000    0.000    0.000    0.000    0.000    0.000 
#
# Total GULP energy -594690.136974 kJ/mol
# GULP energy per Si atom -12389.377854 kJ/mol
# Density = 1.727129 g / cm^3
# Si number density = 17.310693 Si / 1000 Ang^3
#
#
#
# Elastic Constant Matrix: (Units=GPa)
#
#
# Indices 1 2 3 4 5 6 
#
# 1 99.5731 46.7813 26.1742 0.0000 0.0000 0.0000
# 2 46.7813 105.5503 44.4934 0.0000 0.0000 0.0000
# 3 26.1742 44.4934 76.9282 0.0000 0.0000 0.0000
# 4 0.0000 0.0000 0.0000 15.5384 0.0000 0.0000
# 5 0.0000 0.0000 0.0000 0.0000 12.9367 0.0000
# 6 0.0000 0.0000 0.0000 0.0000 0.0000 22.9001
#
#
#
# Elastic Compliance Matrix: (Units=1/GPa)
#
#
# Indices 1 2 3 4 5 6 
#
# 1 0.012800 -0.005075 -0.001420 0.000000 0.000000 0.000000
# 2 -0.005075 0.014541 -0.006683 0.000000 0.000000 0.000000
# 3 -0.001420 -0.006683 0.017348 0.000000 0.000000 0.000000
# 4 0.000000 0.000000 0.000000 0.064357 0.000000 0.000000
# 5 0.000000 0.000000 0.000000 0.000000 0.077299 0.000000
# 6 0.000000 0.000000 0.000000 0.000000 0.000000 0.043668
#
#
# Mechanical properties :
#
#
# Convention : Reuss Voigt Hill
#
# Bulk Modulus (GPa) = 54.54795 57.43881 55.99338
# Shear Modulus (GPa) = 19.04910 21.24856 20.14883
#
# Velocity S-wave (km/s) = 3.32086 3.50734 3.41538
# Velocity P-wave (km/s) = 6.80321 7.04664 6.92599
#
# Compressibility (1/GPa) = 0.01833249
#
# Stress axis : x y z
#
# Youngs Moduli (GPa) = 78.12289 68.77310 57.64423
#
# Poissons Ratio (x) = 0.34900 0.08186
# Poissons Ratio (y) = 0.39644 0.38525
# Poissons Ratio (z) = 0.11095 0.45963
#
# Static dielectric constant tensor:
#      x y z
#    x 3.467880 0.000000 0.000000 
#    y 0.000000 3.168040 0.000000 
#    z 0.000000 0.000000 2.960910 
# 
# 
# High freq. dielectric constant tensor:
#      x y z
#    x 1.670280 0.000000 0.000000 
#    y 0.000000 1.659550 0.000000 
#    z 0.000000 0.000000 1.637110 
# 
# From -- ./inp_files/22389.got.cif
#   From: 2010.03.12/outbox.cif.g09.slc.cpg/sg49_12_cif.got.tgz:22389.got - 2010.04.14 03:58:27.
