data_PCOD8204216
_publ_section_title
;
Structure prediction by ZEFSAII (Michael W. Deem and Ramdas Pophale) SiO2 
 PCOD8204216
Probable space group: P C C M
;
_chemical_formula_sum "Si O2"
_cell_formula_units_Z 64
_cell_length_a 14.837222
_cell_length_b 24.466081
_cell_length_c 8.910700
_cell_angle_alpha 90.000000
_cell_angle_beta 90.000000
_cell_angle_gamma 90.000000
_cell_volume 3234.661403
_symmetry_space_group_name_H-M "P C C M"
_symmetry_group_IT_number 49
_symmetry_cell_setting 'orthorhombic'
loop_
_space_group_symop_operation_xyz
x,y,z
-x,-y,z
x,-y,1/2-z
-x,y,1/2-z
-x,-y,-z
x,y,-z
-x,y,1/2+z
x,-y,1/2+z
loop_
_atom_site_type_symbol
_atom_site_label
_atom_site_fract_x
_atom_site_fract_y
_atom_site_fract_z
Si Si1 0.597550 0.158483 0.677387
Si Si2 0.085939 0.792080 0.333011
Si Si3 0.912523 0.078463 0.667629
Si Si4 0.757118 0.631657 0.326437
Si Si5 0.413639 0.442852 0.327835
Si Si6 0.285348 0.055134 0.179040
Si Si7 0.902326 0.557159 0.819381
Si Si8 0.728579 0.254716 0.321540
O O1 0.500000 0.156821 0.750000
O O2 0.586962 0.155698 0.500000
O O3 0.655685 0.106567 0.734388
O O4 0.647398 0.214408 0.725885
O O5 0.079857 0.769276 0.500000
O O6 0.083479 0.856750 0.328308
O O7 0.178929 0.772036 0.261138
O O8 0.000000 0.766365 0.250000
O O9 0.916889 0.055883 0.500000
O O10 0.817438 0.060641 0.741214
O O11 0.000000 0.053386 0.750000
O O12 0.786428 0.637357 0.500000
O O13 0.673956 0.592299 0.305309
O O14 0.839565 0.607709 0.229471
O O15 0.720021 0.688404 0.262828
O O16 0.394114 0.500000 0.250000
O O17 0.500000 0.413916 0.250000
O O18 0.437157 0.452564 0.500000
O O19 0.327322 0.000000 0.250000
O O20 0.285924 0.052348 0.000000
O O21 0.865060 0.500000 0.750000
O O22 0.000000 0.568872 0.750000
O O23 0.906679 0.552964 0.000000
O O24 0.728984 0.263086 0.500000
#
# Coordination Sequence:
#
# PCOD8204216 Si02
#       8
#     8   8   8   8   8   8   8   8
#     4  10  22  42  64  84 111 148 192 242 298 358
#     4   9  17  32  55  80 106 141 182 222 269 325
#     4   9  17  32  54  80 112 148 184 223 270 328
#     4  11  24  39  57  87 122 155 197 246 293 351
#     4  10  21  37  59  84 113 147 185 232 284 341
#     4  10  21  38  59  84 117 152 188 236 289 349
#     4  11  22  39  63  90 123 165 209 254 302 353
#     4  10  21  39  60  81 111 153 192 233 292 351
#
# _framework density 19.785688
#
# number of rings (size 3 to 8) (size 9 to 14) (size 15 to 20)
#    0.000    2.000    1.250    3.000    0.000    6.500 
#    0.000    6.250    0.000    0.000    0.000    0.000 
#    0.000    0.000    0.000    0.000    0.000    0.000 
#
# Total GULP energy -793455.239344 kJ/mol
# GULP energy per Si atom -12397.738115 kJ/mol
# Density = 1.974065 g / cm^3
# Si number density = 19.785688 Si / 1000 Ang^3
#
#
#
# Elastic Constant Matrix: (Units=GPa)
#
#
# Indices 1 2 3 4 5 6 
#
# 1 138.7029 60.4585 57.4439 0.0000 0.0000 0.0000
# 2 60.4585 99.8584 49.7218 0.0000 0.0000 0.0000
# 3 57.4439 49.7218 92.7996 0.0000 0.0000 0.0000
# 4 0.0000 0.0000 0.0000 29.6807 0.0000 0.0000
# 5 0.0000 0.0000 0.0000 0.0000 34.2018 0.0000
# 6 0.0000 0.0000 0.0000 0.0000 0.0000 -23.0300
#
#
#
# Elastic Compliance Matrix: (Units=1/GPa)
#
#
# Indices 1 2 3 4 5 6 
#
# 1 0.010975 -0.004449 -0.004410 0.000000 0.000000 0.000000
# 2 -0.004449 0.015461 -0.005530 0.000000 0.000000 0.000000
# 3 -0.004410 -0.005530 0.016469 0.000000 0.000000 0.000000
# 4 0.000000 0.000000 0.000000 0.033692 0.000000 0.000000
# 5 0.000000 0.000000 0.000000 0.000000 0.029238 0.000000
# 6 0.000000 0.000000 0.000000 0.000000 0.000000 -0.043422
#
#
# Mechanical properties :
#
#
# Convention : Reuss Voigt Hill
#
# Bulk Modulus (GPa) = 70.78639 74.06772 72.42705
# Shear Modulus (GPa) = 52.13671 19.08629 35.61150
#
# Velocity S-wave (km/s) = 5.13886 3.10925 4.24708
# Velocity P-wave (km/s) = 8.42999 7.09973 7.79330
#
# Compressibility (1/GPa) = 0.01412701
#
# Stress axis : x y z
#
# Youngs Moduli (GPa) = 91.11308 64.67699 60.72077
#
# Poissons Ratio (x) = 0.28775 0.26778
# Poissons Ratio (y) = 0.40537 0.33580
# Poissons Ratio (z) = 0.40181 0.35768
#
# Static dielectric constant tensor:
#      x y z
#    x 3.775900 0.000000 0.000000 
#    y 0.000000 3.598940 0.000000 
#    z 0.000000 0.000000 3.637660 
# 
# 
# High freq. dielectric constant tensor:
#      x y z
#    x 1.781020 0.000000 0.000000 
#    y 0.000000 1.769630 0.000000 
#    z 0.000000 0.000000 1.765010 
# 
# From -- ./inp_files/4294.got.cif
#   From: 2010.03.12/outbox.cif.g09.slc.cpg/sg49_3_cif.got.tgz:4294.got - 2010.04.14 03:58:27.
