data_PCOD8204089
_publ_section_title
;
Structure prediction by ZEFSAII (Michael W. Deem and Ramdas Pophale) SiO2 
 PCOD8204089
Probable space group: P C C M
;
_chemical_formula_sum "Si O2"
_cell_formula_units_Z 30
_cell_length_a 14.082649
_cell_length_b 10.070274
_cell_length_c 9.061285
_cell_angle_alpha 90.000000
_cell_angle_beta 90.000000
_cell_angle_gamma 90.000000
_cell_volume 1285.036408
_symmetry_space_group_name_H-M "P C C M"
_symmetry_group_IT_number 49
_symmetry_cell_setting 'orthorhombic'
loop_
_space_group_symop_operation_xyz
x,y,z
-x,-y,z
x,-y,1/2-z
-x,y,1/2-z
-x,-y,-z
x,y,-z
-x,y,1/2+z
x,-y,1/2+z
loop_
_atom_site_type_symbol
_atom_site_label
_atom_site_fract_x
_atom_site_fract_y
_atom_site_fract_z
Si Si1 0.000000 0.500000 0.250000
Si Si2 0.571291 0.704923 0.500000
Si Si3 0.944767 0.317732 0.500000
Si Si4 0.214002 0.906324 0.500000
Si Si5 0.632796 0.597805 0.000000
Si Si6 0.704784 0.241123 0.248587
Si Si7 0.154498 0.206370 0.500000
O O1 0.933888 0.408675 0.354575
O O2 0.609547 0.555062 0.500000
O O3 0.458132 0.697767 0.500000
O O4 0.611410 0.779408 0.354468
O O5 0.045642 0.244050 0.500000
O O6 0.864745 0.207848 0.500000
O O7 0.278677 0.887945 0.353309
O O8 0.164600 0.047608 0.500000
O O9 0.692411 0.630349 0.853300
O O10 0.795890 0.266472 0.144996
#
# Coordination Sequence:
#
# PCOD8204089 Si02
#       7
#     2   4   4   4   4   8   4
#     4  10  24  42  58  90 136 150 194 264 324 382
#     4  10  20  39  64  91 126 167 211 254 310 390
#     4  11  23  46  64  94 121 181 202 262 312 371
#     4  11  23  43  67  89 124 169 228 264 295 363
#     4  10  20  39  64  91 126 167 211 254 310 390
#     4  10  22  37  57  99 122 157 200 275 319 348
#     4  11  23  43  67  89 124 169 228 264 295 363
#
# _framework density 23.345642999999999
#
# number of rings (size 3 to 8) (size 9 to 14) (size 15 to 20)
#    0.000    1.600    0.000    4.400    0.000    2.133 
#   48.000    4.000    0.000   56.000    0.000    0.000 
#    0.000    0.000    0.000    0.000    0.000    0.000 
#
# Total GULP energy -371926.439925 kJ/mol
# GULP energy per Si atom -12397.547998 kJ/mol
# Density = 2.329251 g / cm^3
# Si number density = 23.345643 Si / 1000 Ang^3
#
#
#
# Elastic Constant Matrix: (Units=GPa)
#
#
# Indices 1 2 3 4 5 6 
#
# 1 103.6388 61.1075 50.4038 0.0000 0.0000 0.0000
# 2 61.1075 108.1315 55.3831 0.0000 0.0000 0.0000
# 3 50.4038 55.3831 191.7790 0.0000 0.0000 0.0000
# 4 0.0000 0.0000 0.0000 -575.1333 0.0000 0.0000
# 5 0.0000 0.0000 0.0000 0.0000 21.2518 0.0000
# 6 0.0000 0.0000 0.0000 0.0000 0.0000 21.3149
#
#
#
# Elastic Compliance Matrix: (Units=1/GPa)
#
#
# Indices 1 2 3 4 5 6 
#
# 1 0.014954 -0.007555 -0.001748 0.000000 0.000000 0.000000
# 2 -0.007555 0.014671 -0.002251 0.000000 0.000000 0.000000
# 3 -0.001748 -0.002251 0.006324 0.000000 0.000000 0.000000
# 4 0.000000 0.000000 0.000000 -0.001739 0.000000 0.000000
# 5 0.000000 0.000000 0.000000 0.000000 0.047055 0.000000
# 6 0.000000 0.000000 0.000000 0.000000 0.000000 0.046915
#
#
# Mechanical properties :
#
#
# Convention : Reuss Voigt Hill
#
# Bulk Modulus (GPa) = 77.88681 81.92646 79.90664
# Shear Modulus (GPa) = 32.14004 -90.73634 -29.29815
#
# Velocity S-wave (km/s) = 3.71442 -6.24106 -3.54640
# Velocity P-wave (km/s) = 7.19936 4.09457 4.18720
#
# Compressibility (1/GPa) = 0.01283914
#
# Stress axis : x y z
#
# Youngs Moduli (GPa) = 66.87177 68.16353 158.13057
#
# Poissons Ratio (x) = 0.51500 0.27647
# Poissons Ratio (y) = 0.50524 0.35594
# Poissons Ratio (z) = 0.11692 0.15343
#
# Static dielectric constant tensor:
#      x y z
#    x 4.138000 0.000000 0.000000 
#    y 0.000000 3.911990 0.000000 
#    z 0.000000 0.000000 4.720940 
# 
# 
# High freq. dielectric constant tensor:
#      x y z
#    x 1.912770 0.000000 0.000000 
#    y 0.000000 1.901210 0.000000 
#    z 0.000000 0.000000 1.954750 
# 
# From -- ./inp_files/3261.got.cif
#   From: 2010.03.12/outbox.cif.g09.slc.cpg/sg49_2_cif.got.tgz:3261.got - 2010.04.14 03:58:27.
