data_PCOD8204183
_publ_section_title
;
Structure prediction by ZEFSAII (Michael W. Deem and Ramdas Pophale) SiO2 
 PCOD8204183
Probable space group: P C C M
;
_chemical_formula_sum "Si O2"
_cell_formula_units_Z 48
_cell_length_a 8.433368
_cell_length_b 8.778877
_cell_length_c 27.261913
_cell_angle_alpha 90.000000
_cell_angle_beta 90.000000
_cell_angle_gamma 90.000000
_cell_volume 2018.349370
_symmetry_space_group_name_H-M "P C C M"
_symmetry_group_IT_number 49
_symmetry_cell_setting 'orthorhombic'
loop_
_space_group_symop_operation_xyz
x,y,z
-x,-y,z
x,-y,1/2-z
-x,y,1/2-z
-x,-y,-z
x,y,-z
-x,y,1/2+z
x,-y,1/2+z
loop_
_atom_site_type_symbol
_atom_site_label
_atom_site_fract_x
_atom_site_fract_y
_atom_site_fract_z
Si Si1 0.164089 0.454017 0.553254
Si Si2 0.841060 0.172784 0.348148
Si Si3 0.189786 0.832656 0.817556
Si Si4 0.308522 0.226670 0.054587
Si Si5 0.420187 0.665473 0.883637
Si Si6 0.320803 0.329127 0.234503
O O1 0.123578 0.380480 0.500000
O O2 0.277567 0.597065 0.545389
O O3 0.257249 0.336814 0.585929
O O4 0.000000 0.500000 0.579874
O O5 0.821000 0.159171 0.407441
O O6 0.716528 0.297488 0.324068
O O7 0.022337 0.224143 0.339677
O O8 0.796595 0.012081 0.324440
O O9 0.352135 0.746910 0.835391
O O10 0.197049 0.788267 0.760148
O O11 0.474352 0.219253 0.083894
O O12 0.311894 0.146353 0.000000
O O13 0.500000 0.500000 0.871117
O O14 0.275012 0.500000 0.250000
O O15 0.500000 0.293015 0.250000
#
# Coordination Sequence:
#
# PCOD8204183 Si02
#       6
#     8   8   8   8   8   8
#     4   9  17  31  54  84 120 164 215 272 329 385
#     4  11  25  46  67  98 137 183 225 274 340 405
#     4  11  25  44  68  97 137 181 223 276 339 406
#     4  10  21  38  62  92 131 177 226 277 333 396
#     4  10  21  36  61  91 128 172 217 278 327 395
#     4  11  26  44  72 106 136 171 220 276 339 407
#
# _framework density 23.781811000000001
#
# number of rings (size 3 to 8) (size 9 to 14) (size 15 to 20)
#    0.000    1.667    0.000    3.500    7.000    8.000 
#    0.000    5.000    0.000    0.000    0.000    0.000 
#    0.000    0.000    0.000    0.000    0.000    0.000 
#
# Total GULP energy -594705.124859 kJ/mol
# GULP energy per Si atom -12389.690101 kJ/mol
# Density = 2.372768 g / cm^3
# Si number density = 23.781811 Si / 1000 Ang^3
#
#
#
# Elastic Constant Matrix: (Units=GPa)
#
#
# Indices 1 2 3 4 5 6 
#
# 1 124.5548 18.2561 36.5293 0.0000 0.0000 0.0000
# 2 18.2561 68.8158 35.2137 0.0000 0.0000 0.0000
# 3 36.5293 35.2137 134.6839 0.0000 0.0000 0.0000
# 4 0.0000 0.0000 0.0000 15.8137 0.0000 0.0000
# 5 0.0000 0.0000 0.0000 0.0000 34.7262 0.0000
# 6 0.0000 0.0000 0.0000 0.0000 0.0000 32.5870
#
#
#
# Elastic Compliance Matrix: (Units=1/GPa)
#
#
# Indices 1 2 3 4 5 6 
#
# 1 0.008820 -0.001288 -0.002055 0.000000 0.000000 0.000000
# 2 -0.001288 0.016964 -0.004086 0.000000 0.000000 0.000000
# 3 -0.002055 -0.004086 0.009051 0.000000 0.000000 0.000000
# 4 0.000000 0.000000 0.000000 0.063236 0.000000 0.000000
# 5 0.000000 0.000000 0.000000 0.000000 0.028797 0.000000
# 6 0.000000 0.000000 0.000000 0.000000 0.000000 0.030687
#
#
# Mechanical properties :
#
#
# Convention : Reuss Voigt Hill
#
# Bulk Modulus (GPa) = 50.06056 56.45031 53.25544
# Shear Modulus (GPa) = 27.92163 32.49575 30.20869
#
# Velocity S-wave (km/s) = 3.43020 3.70051 3.56791
# Velocity P-wave (km/s) = 6.06498 6.48434 6.27816
#
# Compressibility (1/GPa) = 0.01997580
#
# Stress axis : x y z
#
# Youngs Moduli (GPa) = 113.37588 58.94799 110.49017
#
# Poissons Ratio (x) = 0.07593 0.22711
# Poissons Ratio (y) = 0.14604 0.45146
# Poissons Ratio (z) = 0.23304 0.24086
#
# Static dielectric constant tensor:
#      x y z
#    x 4.318170 0.000000 0.000000 
#    y 0.000000 3.733680 0.000000 
#    z 0.000000 0.000000 4.758250 
# 
# 
# High freq. dielectric constant tensor:
#      x y z
#    x 1.955590 0.000000 0.000000 
#    y 0.000000 1.896280 0.000000 
#    z 0.000000 0.000000 1.962960 
# 
# From -- ./inp_files/26258.got.cif
#   From: 2010.03.12/outbox.cif.g09.slc.cpg/sg49_14_cif.got.tgz:26258.got - 2010.04.14 03:58:27.
