data_PCOD8204659
_publ_section_title
;
Structure prediction by ZEFSAII (Michael W. Deem and Ramdas Pophale) SiO2 
 PCOD8204659
Probable space group: P C C M
;
_chemical_formula_sum "Si O2"
_cell_formula_units_Z 48
_cell_length_a 10.092986
_cell_length_b 8.929434
_cell_length_c 26.294198
_cell_angle_alpha 90.000000
_cell_angle_beta 90.000000
_cell_angle_gamma 90.000000
_cell_volume 2369.755454
_symmetry_space_group_name_H-M "P C C M"
_symmetry_group_IT_number 49
_symmetry_cell_setting 'orthorhombic'
loop_
_space_group_symop_operation_xyz
x,y,z
-x,-y,z
x,-y,1/2-z
-x,y,1/2-z
-x,-y,-z
x,y,-z
-x,y,1/2+z
x,-y,1/2+z
loop_
_atom_site_type_symbol
_atom_site_label
_atom_site_fract_x
_atom_site_fract_y
_atom_site_fract_z
Si Si1 0.878480 0.085860 0.942829
Si Si2 0.117866 0.409434 0.399700
Si Si3 0.633738 0.920419 0.904655
Si Si4 0.984569 0.753864 0.692615
Si Si5 0.214693 0.975406 0.692853
Si Si6 0.637975 0.415293 0.440395
O O1 0.851652 0.247658 0.921064
O O2 0.749424 0.984169 0.939923
O O3 0.922202 0.112341 0.000000
O O4 0.000000 0.000000 0.914261
O O5 0.059080 0.385438 0.342521
O O6 0.252641 0.502609 0.405408
O O7 0.000000 0.500000 0.428792
O O8 0.662438 0.962159 0.845700
O O9 0.619092 0.746052 0.915681
O O10 0.500000 0.000000 0.921776
O O11 0.000000 0.695180 0.750000
O O12 0.128655 0.826191 0.681652
O O13 0.874218 0.879856 0.682645
O O14 0.269664 0.000000 0.750000
O O15 0.500000 0.500000 0.434753
O O16 0.681003 0.408648 0.500000
#
# Coordination Sequence:
#
# PCOD8204659 Si02
#       6
#     8   8   8   8   8   8
#     4  11  23  39  62  91 123 161 215 268 311 374
#     4  12  23  37  62  92 131 166 208 264 325 386
#     4  12  24  40  66  93 122 169 221 270 321 386
#     4   9  18  35  63  95 125 160 205 263 322 381
#     4   9  18  36  63  96 126 156 206 269 326 378
#     4  11  26  45  62  90 135 180 218 267 333 394
#
# _framework density 20.255254000000001
#
# number of rings (size 3 to 8) (size 9 to 14) (size 15 to 20)
#    0.000    1.333    1.667    6.000    0.000    6.000 
#    0.000    0.000    0.000    0.000    0.000    0.000 
#    0.000    0.000    0.000    0.000    0.000    0.000 
#
# Total GULP energy -594833.909945 kJ/mol
# GULP energy per Si atom -12392.373124 kJ/mol
# Density = 2.020915 g / cm^3
# Si number density = 20.255254 Si / 1000 Ang^3
#
#
#
# Elastic Constant Matrix: (Units=GPa)
#
#
# Indices 1 2 3 4 5 6 
#
# 1 121.6812 52.6668 27.1302 0.0000 0.0000 0.0000
# 2 52.6668 132.7893 39.7391 0.0000 0.0000 0.0000
# 3 27.1302 39.7391 100.8221 0.0000 0.0000 0.0000
# 4 0.0000 0.0000 0.0000 31.4032 0.0000 0.0000
# 5 0.0000 0.0000 0.0000 0.0000 -57.7922 0.0000
# 6 0.0000 0.0000 0.0000 0.0000 0.0000 40.9169
#
#
#
# Elastic Compliance Matrix: (Units=1/GPa)
#
#
# Indices 1 2 3 4 5 6 
#
# 1 0.010067 -0.003607 -0.001287 0.000000 0.000000 0.000000
# 2 -0.003607 0.009831 -0.002904 0.000000 0.000000 0.000000
# 3 -0.001287 -0.002904 0.011409 0.000000 0.000000 0.000000
# 4 0.000000 0.000000 0.000000 0.031844 0.000000 0.000000
# 5 0.000000 0.000000 0.000000 0.000000 -0.017303 0.000000
# 6 0.000000 0.000000 0.000000 0.000000 0.000000 0.024440
#
#
# Mechanical properties :
#
#
# Convention : Reuss Voigt Hill
#
# Bulk Modulus (GPa) = 63.65479 66.04052 64.84766
# Shear Modulus (GPa) = 54.87260 18.62267 36.74764
#
# Velocity S-wave (km/s) = 5.21051 3.03545 4.26400
# Velocity P-wave (km/s) = 8.22762 6.70524 7.50513
#
# Compressibility (1/GPa) = 0.01570974
#
# Stress axis : x y z
#
# Youngs Moduli (GPa) = 99.33916 101.72343 87.64722
#
# Poissons Ratio (x) = 0.36696 0.11280
# Poissons Ratio (y) = 0.35836 0.25453
# Poissons Ratio (z) = 0.12784 0.29540
#
# Static dielectric constant tensor:
#      x y z
#    x 3.886010 0.000000 0.000000 
#    y 0.000000 3.742410 0.000000 
#    z 0.000000 0.000000 4.002520 
# 
# 
# High freq. dielectric constant tensor:
#      x y z
#    x 1.781200 0.000000 0.000000 
#    y 0.000000 1.802130 0.000000 
#    z 0.000000 0.000000 1.795640 
# 
# From -- ./inp_files/26264.got.cif
#   From: 2010.03.12/outbox.cif.g09.slc.cpg/sg49_14_cif.got.tgz:26264.got - 2010.04.14 03:58:27.
