data_PCOD8204398
_publ_section_title
;
Structure prediction by ZEFSAII (Michael W. Deem and Ramdas Pophale) SiO2 
 PCOD8204398
Probable space group: P C C M
;
_chemical_formula_sum "Si O2"
_cell_formula_units_Z 56
_cell_length_a 15.729233
_cell_length_b 11.545523
_cell_length_c 14.094815
_cell_angle_alpha 90.000000
_cell_angle_beta 90.000000
_cell_angle_gamma 90.000000
_cell_volume 2559.649714
_symmetry_space_group_name_H-M "P C C M"
_symmetry_group_IT_number 49
_symmetry_cell_setting 'orthorhombic'
loop_
_space_group_symop_operation_xyz
x,y,z
-x,-y,z
x,-y,1/2-z
-x,y,1/2-z
-x,-y,-z
x,y,-z
-x,y,1/2+z
x,-y,1/2+z
loop_
_atom_site_type_symbol
_atom_site_label
_atom_site_fract_x
_atom_site_fract_y
_atom_site_fract_z
Si Si1 0.859368 0.035343 0.104122
Si Si2 0.093643 0.179984 0.225212
Si Si3 0.609113 0.201195 0.607188
Si Si4 0.243670 0.331156 0.801459
Si Si5 0.325963 0.031962 0.353447
Si Si6 0.426711 0.257522 0.608536
Si Si7 0.285143 0.429022 0.391532
O O1 0.866542 0.145153 0.173461
O O2 0.758976 0.018636 0.084335
O O3 0.908699 0.927137 0.151898
O O4 0.900505 0.057344 0.000000
O O5 0.150405 0.280243 0.175029
O O6 0.000000 0.226928 0.250000
O O7 0.625210 0.246774 0.500000
O O8 0.684634 0.235990 0.678461
O O9 0.522031 0.254472 0.651871
O O10 0.604677 0.060926 0.608478
O O11 0.234245 0.361204 0.689844
O O12 0.272619 0.436138 0.869460
O O13 0.365745 0.159625 0.348621
O O14 0.293487 0.000000 0.250000
O O15 0.438957 0.222526 0.500000
O O16 0.383440 0.384931 0.619373
O O17 0.253940 0.402495 0.500000
#
# Coordination Sequence:
#
# PCOD8204398 Si02
#       7
#     8   8   8   8   8   8   8
#     4  11  21  38  63  93 134 177 210 252 324 404
#     4  11  24  42  63  96 130 159 213 272 329 408
#     4  11  22  37  59  91 131 172 222 272 323 385
#     4  11  23  42  67  90 118 168 214 266 339 387
#     4  12  21  34  56  90 132 176 220 265 319 385
#     4  10  22  37  56  88 129 176 223 273 316 366
#     4  10  23  43  65  89 121 163 219 271 319 386
#
# _framework density 21.877994000000001
#
# number of rings (size 3 to 8) (size 9 to 14) (size 15 to 20)
#    0.000    1.143    2.857    4.714    0.000    8.000 
#    0.000    5.000    0.000    0.857    0.000    0.000 
#    0.000    0.000    0.000    0.000    0.000    0.000 
#
# Total GULP energy -693962.333161 kJ/mol
# GULP energy per Si atom -12392.184521 kJ/mol
# Density = 2.182820 g / cm^3
# Si number density = 21.877994 Si / 1000 Ang^3
#
#
#
# Elastic Constant Matrix: (Units=GPa)
#
#
# Indices 1 2 3 4 5 6 
#
# 1 129.1487 54.5915 9.9454 0.0000 0.0000 0.0000
# 2 54.5915 106.7870 21.5641 0.0000 0.0000 0.0000
# 3 9.9454 21.5641 118.6282 0.0000 0.0000 0.0000
# 4 0.0000 0.0000 0.0000 25.4855 0.0000 0.0000
# 5 0.0000 0.0000 0.0000 0.0000 9.7903 0.0000
# 6 0.0000 0.0000 0.0000 0.0000 0.0000 26.3463
#
#
#
# Elastic Compliance Matrix: (Units=1/GPa)
#
#
# Indices 1 2 3 4 5 6 
#
# 1 0.009878 -0.005069 0.000093 0.000000 0.000000 0.000000
# 2 -0.005069 0.012322 -0.001815 0.000000 0.000000 0.000000
# 3 0.000093 -0.001815 0.008752 0.000000 0.000000 0.000000
# 4 0.000000 0.000000 0.000000 0.039238 0.000000 0.000000
# 5 0.000000 0.000000 0.000000 0.000000 0.102141 0.000000
# 6 0.000000 0.000000 0.000000 0.000000 0.000000 0.037956
#
#
# Mechanical properties :
#
#
# Convention : Reuss Voigt Hill
#
# Bulk Modulus (GPa) = 57.56623 58.52955 58.04789
# Shear Modulus (GPa) = 21.77136 30.22196 25.99666
#
# Velocity S-wave (km/s) = 3.15798 3.72073 3.45085
# Velocity P-wave (km/s) = 6.29815 6.72824 6.51674
#
# Compressibility (1/GPa) = 0.01737129
#
# Stress axis : x y z
#
# Youngs Moduli (GPa) = 101.23034 81.15403 114.26212
#
# Poissons Ratio (x) = 0.41136 -0.01065
# Poissons Ratio (y) = 0.51312 0.20738
# Poissons Ratio (z) = -0.00944 0.14729
#
# Static dielectric constant tensor:
#      x y z
#    x 3.769410 0.000000 0.000000 
#    y 0.000000 3.906170 0.000000 
#    z 0.000000 0.000000 4.046820 
# 
# 
# High freq. dielectric constant tensor:
#      x y z
#    x 1.837200 0.000000 0.000000 
#    y 0.000000 1.840480 0.000000 
#    z 0.000000 0.000000 1.877460 
# 
# From -- ./inp_files/13612.got.cif
#   From: 2010.03.12/outbox.cif.g09.slc.cpg/sg49_7_cif.got.tgz:13612.got - 2010.04.14 03:58:27.
