data_PCOD8204851
_publ_section_title
;
Structure prediction by ZEFSAII (Michael W. Deem and Ramdas Pophale) SiO2 
 PCOD8204851
Probable space group: P B A N
;
_chemical_formula_sum "Si O2"
_cell_formula_units_Z 56
_cell_length_a 13.793680
_cell_length_b 12.973548
_cell_length_c 15.335836
_cell_angle_alpha 90.000000
_cell_angle_beta 90.000000
_cell_angle_gamma 90.000000
_cell_volume 2744.393393
_symmetry_space_group_name_H-M "P B A N"
_symmetry_group_IT_number 50
_space_group.IT_coordinate_system_code '2'
_symmetry_cell_setting 'orthorhombic'
loop_
_space_group_symop_operation_xyz
x,y,z
1/2-x,1/2-y,z
x,1/2-y,-z
1/2-x,y,-z
-x,-y,-z
1/2+x,1/2+y,-z
-x,1/2+y,z
1/2+x,-y,z
loop_
_atom_site_type_symbol
_atom_site_label
_atom_site_fract_x
_atom_site_fract_y
_atom_site_fract_z
Si Si1 0.651361 0.189598 0.135708
Si Si2 0.504170 0.436451 0.589159
Si Si3 0.137209 0.270735 0.403489
Si Si4 0.143079 0.775219 0.336739
Si Si5 0.142890 0.492924 0.983731
Si Si6 0.487248 0.122387 0.703740
Si Si7 0.980587 0.128471 0.098012
O O1 0.750000 0.250000 0.110890
O O2 0.643664 0.175089 0.239877
O O3 0.646078 0.076998 0.093905
O O4 0.561166 0.254848 0.094704
O O5 0.500000 0.500000 0.500000
O O6 0.398110 0.388242 0.612210
O O7 0.587033 0.347314 0.593008
O O8 0.533767 0.511478 0.665702
O O9 0.250000 0.250000 0.403016
O O10 0.093583 0.250000 0.500000
O O11 0.096038 0.199935 0.327278
O O12 0.250000 0.750000 0.372134
O O13 0.090228 0.665024 0.329707
O O14 0.074430 0.394534 0.962432
O O15 0.250000 0.448728 0.000000
O O16 0.104014 0.548324 0.071266
O O17 0.483578 0.105892 0.805648
#
# Coordination Sequence:
#
# PCOD8204851 Si02
#       7
#     8   8   8   8   8   8   8
#     4  10  18  36  64  87 113 162 203 243 299 359
#     4  11  21  38  63  86 118 160 190 245 305 352
#     4  10  21  40  62  85 115 156 203 242 287 362
#     4   9  21  37  58  91 123 149 198 250 295 354
#     4  11  21  36  61  93 121 156 204 247 291 361
#     4  10  21  40  59  86 124 152 197 247 297 354
#     4  10  22  36  59  91 123 157 196 249 300 346
#
# _framework density 20.405237
#
# number of rings (size 3 to 8) (size 9 to 14) (size 15 to 20)
#    0.000    1.857    2.857    1.286    0.000    1.143 
#    2.571    0.714    0.000    0.857    0.000    0.000 
#    0.000    0.000    0.000    0.000    0.000    0.000 
#
# Total GULP energy -694096.445801 kJ/mol
# GULP energy per Si atom -12394.579389 kJ/mol
# Density = 2.035879 g / cm^3
# Si number density = 20.405237 Si / 1000 Ang^3
#
#
#
# Elastic Constant Matrix: (Units=GPa)
#
#
# Indices 1 2 3 4 5 6 
#
# 1 133.5698 35.4767 28.8897 0.0000 0.0000 0.0000
# 2 35.4767 76.1272 17.3182 0.0000 0.0000 0.0000
# 3 28.8897 17.3182 85.6263 0.0000 0.0000 0.0000
# 4 0.0000 0.0000 0.0000 18.0221 0.0000 0.0000
# 5 0.0000 0.0000 0.0000 0.0000 25.9843 0.0000
# 6 0.0000 0.0000 0.0000 0.0000 0.0000 20.6749
#
#
#
# Elastic Compliance Matrix: (Units=1/GPa)
#
#
# Indices 1 2 3 4 5 6 
#
# 1 0.008950 -0.003652 -0.002281 0.000000 0.000000 0.000000
# 2 -0.003652 0.015260 -0.001854 0.000000 0.000000 0.000000
# 3 -0.002281 -0.001854 0.012823 0.000000 0.000000 0.000000
# 4 0.000000 0.000000 0.000000 0.055488 0.000000 0.000000
# 5 0.000000 0.000000 0.000000 0.000000 0.038485 0.000000
# 6 0.000000 0.000000 0.000000 0.000000 0.000000 0.048368
#
#
# Mechanical properties :
#
#
# Convention : Reuss Voigt Hill
#
# Bulk Modulus (GPa) = 46.60145 50.96583 48.78364
# Shear Modulus (GPa) = 24.74017 27.17882 25.95950
#
# Velocity S-wave (km/s) = 3.48579 3.65355 3.57066
# Velocity P-wave (km/s) = 6.25208 6.54439 6.39990
#
# Compressibility (1/GPa) = 0.02145856
#
# Stress axis : x y z
#
# Youngs Moduli (GPa) = 111.73088 65.53245 77.98315
#
# Poissons Ratio (x) = 0.23932 0.17788
# Poissons Ratio (y) = 0.40804 0.14459
# Poissons Ratio (z) = 0.25487 0.12151
#
# Static dielectric constant tensor:
#      x y z
#    x 3.652840 0.000000 0.000000 
#    y 0.000000 3.657250 0.000000 
#    z 0.000000 0.000000 3.728170 
# 
# 
# High freq. dielectric constant tensor:
#      x y z
#    x 1.795500 0.000000 0.000000 
#    y 0.000000 1.785810 0.000000 
#    z 0.000000 0.000000 1.800400 
# 
# From -- ./inp_files/25927.got.cif
#   From: 2010.03.12/outbox.cif.g09.slc.cpg/sg50_13_cif.got.tgz:25927.got - 2010.04.16 13:23:21.
