data_PCOD8204765
_publ_section_title
;
Structure prediction by ZEFSAII (Michael W. Deem and Ramdas Pophale) SiO2 
 PCOD8204765
Probable space group: P B A N
;
_chemical_formula_sum "Si O2"
_cell_formula_units_Z 40
_cell_length_a 22.697620
_cell_length_b 10.141530
_cell_length_c 8.939101
_cell_angle_alpha 90.000000
_cell_angle_beta 90.000000
_cell_angle_gamma 90.000000
_cell_volume 2057.679092
_symmetry_space_group_name_H-M "P B A N"
_symmetry_group_IT_number 50
_space_group.IT_coordinate_system_code '2'
_symmetry_cell_setting 'orthorhombic'
loop_
_space_group_symop_operation_xyz
x,y,z
1/2-x,1/2-y,z
x,1/2-y,-z
1/2-x,y,-z
-x,-y,-z
1/2+x,1/2+y,-z
-x,1/2+y,z
1/2+x,-y,z
loop_
_atom_site_type_symbol
_atom_site_label
_atom_site_fract_x
_atom_site_fract_y
_atom_site_fract_z
Si Si1 0.438626 0.369999 0.606818
Si Si2 0.929858 0.375271 0.405591
Si Si3 0.328378 0.193492 0.238830
Si Si4 0.327605 0.500271 0.250272
Si Si5 0.250000 0.413824 0.500000
Si Si6 0.750000 0.544030 0.000000
O O1 0.419326 0.250000 0.500000
O O2 0.505441 0.348099 0.665099
O O3 0.433191 0.504711 0.518854
O O4 0.392596 0.375125 0.744616
O O5 0.907409 0.250000 0.500000
O O6 0.885896 0.410253 0.268831
O O7 0.340760 0.347522 0.213021
O O8 0.290084 0.176030 0.389847
O O9 0.292883 0.135253 0.099809
O O10 0.291523 0.511217 0.404864
O O11 0.288835 0.550377 0.108692
#
# Coordination Sequence:
#
# PCOD8204765 Si02
#       6
#     8   8   8   8   4   4
#     4  10  18  34  57  84 109 146 186 243 286 326
#     4  10  21  33  54  85 115 141 189 236 287 336
#     4  11  17  31  53  84 111 144 183 241 284 331
#     4  11  18  33  52  84 113 145 181 243 282 334
#     4  10  17  26  53  80 103 136 189 232 281 322
#     4  10  23  32  56  89 122 145 194 237 292 337
#
# _framework density 19.439378000000001
#
# number of rings (size 3 to 8) (size 9 to 14) (size 15 to 20)
#    0.000    1.600    4.000    4.800    0.000    0.000 
#    0.000    1.500    0.000    2.400    0.000    0.000 
#    0.000    0.000    0.000    0.000    0.000    0.000 
#
# Total GULP energy -495773.217650 kJ/mol
# GULP energy per Si atom -12394.330441 kJ/mol
# Density = 1.939513 g / cm^3
# Si number density = 19.439378 Si / 1000 Ang^3
#
#
#
# Elastic Constant Matrix: (Units=GPa)
#
#
# Indices 1 2 3 4 5 6 
#
# 1 161.1635 33.4828 66.4039 0.0000 0.0000 0.0000
# 2 33.4828 68.4725 20.5471 0.0000 0.0000 0.0000
# 3 66.4039 20.5471 109.1689 0.0000 0.0000 0.0000
# 4 0.0000 0.0000 0.0000 14.2057 0.0000 0.0000
# 5 0.0000 0.0000 0.0000 0.0000 37.9943 0.0000
# 6 0.0000 0.0000 0.0000 0.0000 0.0000 27.0715
#
#
#
# Elastic Compliance Matrix: (Units=1/GPa)
#
#
# Indices 1 2 3 4 5 6 
#
# 1 0.008775 -0.002850 -0.004801 0.000000 0.000000 0.000000
# 2 -0.002850 0.016404 -0.001354 0.000000 0.000000 0.000000
# 3 -0.004801 -0.001354 0.012335 0.000000 0.000000 0.000000
# 4 0.000000 0.000000 0.000000 0.070394 0.000000 0.000000
# 5 0.000000 0.000000 0.000000 0.000000 0.026320 0.000000
# 6 0.000000 0.000000 0.000000 0.000000 0.000000 0.036939
#
#
# Mechanical properties :
#
#
# Convention : Reuss Voigt Hill
#
# Bulk Modulus (GPa) = 51.27055 64.40804 57.83930
# Shear Modulus (GPa) = 25.55185 30.41237 27.98211
#
# Velocity S-wave (km/s) = 3.62945 3.95963 3.79813
# Velocity P-wave (km/s) = 6.63293 7.35592 7.00376
#
# Compressibility (1/GPa) = 0.01950437
#
# Stress axis : x y z
#
# Youngs Moduli (GPa) = 113.95609 60.95909 81.06773
#
# Poissons Ratio (x) = 0.17375 0.38923
# Poissons Ratio (y) = 0.32481 0.10975
# Poissons Ratio (z) = 0.54713 0.08252
#
# Static dielectric constant tensor:
#      x y z
#    x 4.192060 0.000000 0.000000 
#    y 0.000000 2.809010 0.000000 
#    z 0.000000 0.000000 3.589570 
# 
# 
# High freq. dielectric constant tensor:
#      x y z
#    x 1.775590 0.000000 0.000000 
#    y 0.000000 1.722870 0.000000 
#    z 0.000000 0.000000 1.731520 
# 
# From -- ./inp_files/16393.got.cif
#   From: 2010.03.12/outbox.cif.g09.slc.cpg/sg50_9_cif.got.tgz:16393.got - 2010.04.16 13:23:21.
