data_PCOD8204117
_publ_section_title
;
Structure prediction by ZEFSAII (Michael W. Deem and Ramdas Pophale) SiO2 
 PCOD8204117
Probable space group: P C C M
;
_chemical_formula_sum "Si O2"
_cell_formula_units_Z 38
_cell_length_a 16.544620
_cell_length_b 12.809935
_cell_length_c 9.636658
_cell_angle_alpha 90.000000
_cell_angle_beta 90.000000
_cell_angle_gamma 90.000000
_cell_volume 2042.349997
_symmetry_space_group_name_H-M "P C C M"
_symmetry_group_IT_number 49
_symmetry_cell_setting 'orthorhombic'
loop_
_space_group_symop_operation_xyz
x,y,z
-x,-y,z
x,-y,1/2-z
-x,y,1/2-z
-x,-y,-z
x,y,-z
-x,y,1/2+z
x,-y,1/2+z
loop_
_atom_site_type_symbol
_atom_site_label
_atom_site_fract_x
_atom_site_fract_y
_atom_site_fract_z
Si Si1 0.250873 0.253932 0.163660
Si Si2 0.569069 0.201902 0.654909
Si Si3 0.119040 0.094150 0.151788
Si Si4 0.000000 0.257200 0.250000
Si Si5 0.859525 0.398509 0.160736
Si Si6 0.500000 0.000000 0.250000
O O1 0.343044 0.235189 0.208786
O O2 0.203933 0.146198 0.195605
O O3 0.216259 0.344595 0.262030
O O4 0.241861 0.283380 0.000000
O O5 0.500000 0.255977 0.750000
O O6 0.556568 0.243066 0.500000
O O7 0.558066 0.075395 0.658326
O O8 0.051266 0.184085 0.147492
O O9 0.094318 0.000000 0.250000
O O10 0.125742 0.044494 0.000000
O O11 0.060863 0.326642 0.340923
O O12 0.881082 0.500000 0.250000
O O13 0.837370 0.424286 0.000000
#
# Coordination Sequence:
#
# PCOD8204117 Si02
#       6
#     8   8   8   4   8   2
#     4   9  20  38  54  77 112 148 183 225 271 321
#     4   9  18  31  51  77 111 147 182 221 263 309
#     4  10  21  34  51  74 106 146 184 222 262 312
#     4  10  22  38  56  76 108 140 180 222 268 326
#     4  11  23  39  61  85 105 136 177 226 282 333
#     4   8  18  28  50  80 112 146 190 220 266 312
#
# _framework density 18.606017999999999
#
# number of rings (size 3 to 8) (size 9 to 14) (size 15 to 20)
#    0.632    1.684    0.000    2.211    1.474    9.263 
#    0.000    0.000    0.000    0.632    0.000    4.421 
#    0.000    0.000    0.000    0.000    0.000    0.000 
#
# Total GULP energy -470955.260991 kJ/mol
# GULP energy per Si atom -12393.559500 kJ/mol
# Density = 1.856367 g / cm^3
# Si number density = 18.606018 Si / 1000 Ang^3
#
#
#
# Elastic Constant Matrix: (Units=GPa)
#
#
# Indices 1 2 3 4 5 6 
#
# 1 150.7368 44.5169 47.9271 0.0000 0.0000 0.0000
# 2 44.5169 87.0324 47.8281 0.0000 0.0000 0.0000
# 3 47.9271 47.8281 103.0488 0.0000 0.0000 0.0000
# 4 0.0000 0.0000 0.0000 27.1811 0.0000 0.0000
# 5 0.0000 0.0000 0.0000 0.0000 13.8328 0.0000
# 6 0.0000 0.0000 0.0000 0.0000 0.0000 17.7938
#
#
#
# Elastic Compliance Matrix: (Units=1/GPa)
#
#
# Indices 1 2 3 4 5 6 
#
# 1 0.008278 -0.002844 -0.002530 0.000000 0.000000 0.000000
# 2 -0.002844 0.016401 -0.006290 0.000000 0.000000 0.000000
# 3 -0.002530 -0.006290 0.013800 0.000000 0.000000 0.000000
# 4 0.000000 0.000000 0.000000 0.036790 0.000000 0.000000
# 5 0.000000 0.000000 0.000000 0.000000 0.072292 0.000000
# 6 0.000000 0.000000 0.000000 0.000000 0.000000 0.056199
#
#
# Mechanical properties :
#
#
# Convention : Reuss Voigt Hill
#
# Bulk Modulus (GPa) = 65.99738 69.04025 67.51882
# Shear Modulus (GPa) = 21.53876 25.13126 23.33501
#
# Velocity S-wave (km/s) = 3.40608 3.67918 3.54526
# Velocity P-wave (km/s) = 7.14258 7.43206 7.28876
#
# Compressibility (1/GPa) = 0.01515212
#
# Stress axis : x y z
#
# Youngs Moduli (GPa) = 120.79505 60.97188 72.46307
#
# Poissons Ratio (x) = 0.17340 0.18335
# Poissons Ratio (y) = 0.34353 0.45576
# Poissons Ratio (z) = 0.30565 0.38348
#
# Static dielectric constant tensor:
#      x y z
#    x 3.423980 0.000000 0.000000 
#    y 0.000000 3.204930 0.000000 
#    z 0.000000 0.000000 3.266610 
# 
# 
# High freq. dielectric constant tensor:
#      x y z
#    x 1.721820 0.000000 0.000000 
#    y 0.000000 1.699570 0.000000 
#    z 0.000000 0.000000 1.720740 
# 
# From -- ./inp_files/4666.got.cif
#   From: 2010.03.12/outbox.cif.g09.slc.cpg/sg49_3_cif.got.tgz:4666.got - 2010.04.14 03:58:27.
