data_PCOD8204587
_publ_section_title
;
Structure prediction by ZEFSAII (Michael W. Deem and Ramdas Pophale) SiO2 
 PCOD8204587
Probable space group: P C C M
;
_chemical_formula_sum "Si O2"
_cell_formula_units_Z 48
_cell_length_a 14.383625
_cell_length_b 20.477412
_cell_length_c 8.403895
_cell_angle_alpha 90.000000
_cell_angle_beta 90.000000
_cell_angle_gamma 90.000000
_cell_volume 2475.278319
_symmetry_space_group_name_H-M "P C C M"
_symmetry_group_IT_number 49
_symmetry_cell_setting 'orthorhombic'
loop_
_space_group_symop_operation_xyz
x,y,z
-x,-y,z
x,-y,1/2-z
-x,y,1/2-z
-x,-y,-z
x,y,-z
-x,y,1/2+z
x,-y,1/2+z
loop_
_atom_site_type_symbol
_atom_site_label
_atom_site_fract_x
_atom_site_fract_y
_atom_site_fract_z
Si Si1 0.599966 0.883110 0.686640
Si Si2 0.899733 0.427905 0.689003
Si Si3 0.786624 0.068998 0.314233
Si Si4 0.896692 0.808839 0.686138
Si Si5 0.596752 0.260033 0.686728
Si Si6 0.221554 0.686861 0.811797
O O1 0.500000 0.906328 0.750000
O O2 0.607974 0.896076 0.500000
O O3 0.677493 0.925269 0.776106
O O4 0.617195 0.807116 0.721327
O O5 0.877366 0.500000 0.750000
O O6 0.898021 0.425854 0.500000
O O7 0.822347 0.381414 0.762214
O O8 0.000000 0.404052 0.750000
O O9 0.804893 0.074219 0.500000
O O10 0.843924 0.125275 0.228645
O O11 0.824116 0.000000 0.250000
O O12 0.902032 0.801628 0.500000
O O13 0.841386 0.746357 0.755205
O O14 0.000000 0.809785 0.750000
O O15 0.500000 0.290287 0.750000
O O16 0.590283 0.245479 0.500000
O O17 0.678288 0.310447 0.727054
O O18 0.234639 0.690732 0.000000
#
# Coordination Sequence:
#
# PCOD8204587 Si02
#       6
#     8   8   8   8   8   8
#     4  11  21  37  59  86 117 151 192 239 295 353
#     4  11  22  38  60  89 126 165 206 247 297 352
#     4  12  25  42  62  84 114 151 195 243 299 359
#     4  11  24  41  62  87 117 151 195 245 296 350
#     4  11  21  35  58  88 121 157 197 242 295 348
#     4  11  22  38  62  91 124 158 199 246 295 348
#
# _framework density 19.391759
#
# number of rings (size 3 to 8) (size 9 to 14) (size 15 to 20)
#    0.000    0.833    1.667    9.000    0.000    4.000 
#    0.000    3.333    0.000    0.500    0.000    3.500 
#    0.000    0.000    0.000    0.000    0.000    0.000 
#
# Total GULP energy -595512.321504 kJ/mol
# GULP energy per Si atom -12406.506698 kJ/mol
# Density = 1.934762 g / cm^3
# Si number density = 19.391759 Si / 1000 Ang^3
#
#
#
# Elastic Constant Matrix: (Units=GPa)
#
#
# Indices 1 2 3 4 5 6 
#
# 1 116.0735 45.2245 8.6288 0.0000 0.0000 0.0000
# 2 45.2245 79.5447 0.1643 0.0000 0.0000 0.0000
# 3 8.6288 0.1643 51.8748 0.0000 0.0000 0.0000
# 4 0.0000 0.0000 0.0000 30.1419 0.0000 0.0000
# 5 0.0000 0.0000 0.0000 0.0000 36.4562 0.0000
# 6 0.0000 0.0000 0.0000 0.0000 0.0000 29.8811
#
#
#
# Elastic Compliance Matrix: (Units=1/GPa)
#
#
# Indices 1 2 3 4 5 6 
#
# 1 0.011241 -0.006387 -0.001850 0.000000 0.000000 0.000000
# 2 -0.006387 0.016201 0.001011 0.000000 0.000000 0.000000
# 3 -0.001850 0.001011 0.019582 0.000000 0.000000 0.000000
# 4 0.000000 0.000000 0.000000 0.033176 0.000000 0.000000
# 5 0.000000 0.000000 0.000000 0.000000 0.027430 0.000000
# 6 0.000000 0.000000 0.000000 0.000000 0.000000 0.033466
#
#
# Mechanical properties :
#
#
# Convention : Reuss Voigt Hill
#
# Bulk Modulus (GPa) = 30.70100 39.50314 35.10207
# Shear Modulus (GPa) = 30.04704 32.19419 31.12061
#
# Velocity S-wave (km/s) = 3.94061 4.07897 4.01039
# Velocity P-wave (km/s) = 6.04739 6.52682 6.29167
#
# Compressibility (1/GPa) = 0.03257223
#
# Stress axis : x y z
#
# Youngs Moduli (GPa) = 88.95706 61.72472 51.06826
#
# Poissons Ratio (x) = 0.39426 0.09446
# Poissons Ratio (y) = 0.56820 -0.05164
# Poissons Ratio (z) = 0.16454 -0.06241
#
# Static dielectric constant tensor:
#      x y z
#    x 3.736470 0.000000 0.000000 
#    y 0.000000 3.319710 0.000000 
#    z 0.000000 0.000000 3.656590 
# 
# 
# High freq. dielectric constant tensor:
#      x y z
#    x 1.762540 0.000000 0.000000 
#    y 0.000000 1.739850 0.000000 
#    z 0.000000 0.000000 1.775370 
# 
# From -- ./inp_files/3693.got.cif
#   From: 2010.03.12/outbox.cif.g09.slc.cpg/sg49_2_cif.got.tgz:3693.got - 2010.04.14 03:58:27.
