data_PCOD8204570
_publ_section_title
;
Structure prediction by ZEFSAII (Michael W. Deem and Ramdas Pophale) SiO2 
 PCOD8204570
Probable space group: P C C M
;
_chemical_formula_sum "Si O2"
_cell_formula_units_Z 64
_cell_length_a 11.311932
_cell_length_b 8.268122
_cell_length_c 29.078000
_cell_angle_alpha 90.000000
_cell_angle_beta 90.000000
_cell_angle_gamma 90.000000
_cell_volume 2719.619799
_symmetry_space_group_name_H-M "P C C M"
_symmetry_group_IT_number 49
_symmetry_cell_setting 'orthorhombic'
loop_
_space_group_symop_operation_xyz
x,y,z
-x,-y,z
x,-y,1/2-z
-x,y,1/2-z
-x,-y,-z
x,y,-z
-x,y,1/2+z
x,-y,1/2+z
loop_
_atom_site_type_symbol
_atom_site_label
_atom_site_fract_x
_atom_site_fract_y
_atom_site_fract_z
Si Si1 0.263835 0.284896 0.793853
Si Si2 0.826911 0.093904 0.051096
Si Si3 0.336772 0.684890 0.896954
Si Si4 0.979560 0.812549 0.177771
Si Si5 0.708629 0.351723 0.552648
Si Si6 0.218368 0.343934 0.696146
Si Si7 0.941219 0.774750 0.077690
Si Si8 0.429578 0.830155 0.625010
O O1 0.142192 0.187026 0.794453
O O2 0.300213 0.286883 0.739621
O O3 0.230679 0.464443 0.810128
O O4 0.362843 0.202529 0.826434
O O5 0.705578 0.174162 0.068496
O O6 0.934546 0.224607 0.050375
O O7 0.874973 0.948327 0.081805
O O8 0.802875 0.027575 0.000000
O O9 0.324865 0.512427 0.920389
O O10 0.262250 0.728432 0.851585
O O11 0.473127 0.692878 0.883063
O O12 0.964642 0.717695 0.129583
O O13 0.084324 0.718322 0.204640
O O14 0.000000 0.000000 0.169089
O O15 0.660457 0.352674 0.500000
O O16 0.851250 0.345940 0.552120
O O17 0.659234 0.194633 0.581317
O O18 0.500000 0.000000 0.625510
#
# Coordination Sequence:
#
# PCOD8204570 Si02
#       8
#     8   8   8   8   8   8   8   8
#     4  11  26  47  72 105 141 187 240 297 360 443
#     4  11  22  39  66 101 142 187 239 291 359 440
#     4  12  25  45  68 100 137 188 242 303 364 426
#     4  12  22  41  73 111 149 184 225 296 369 443
#     4  12  26  45  72 105 143 187 247 312 370 440
#     4  11  24  46  75 104 140 185 234 291 374 447
#     4  11  20  40  67 101 142 188 229 290 369 437
#     4  12  28  48  74 100 143 196 250 306 362 432
#
# _framework density 23.532702
#
# number of rings (size 3 to 8) (size 9 to 14) (size 15 to 20)
#    0.000    0.500    5.000    3.750    1.750    4.750 
#    0.000    3.125    0.000    0.000    0.000    0.000 
#    0.000    0.000    0.000    0.000    0.000    0.000 
#
# Total GULP energy -793204.752384 kJ/mol
# GULP energy per Si atom -12393.824256 kJ/mol
# Density = 2.347914 g / cm^3
# Si number density = 23.532702 Si / 1000 Ang^3
#
#
#
# Elastic Constant Matrix: (Units=GPa)
#
#
# Indices 1 2 3 4 5 6 
#
# 1 114.7275 17.6520 37.1767 0.0000 0.0000 0.0000
# 2 17.6520 60.0935 32.3788 0.0000 0.0000 0.0000
# 3 37.1767 32.3788 155.1490 0.0000 0.0000 0.0000
# 4 0.0000 0.0000 0.0000 19.8014 0.0000 0.0000
# 5 0.0000 0.0000 0.0000 0.0000 26.9212 0.0000
# 6 0.0000 0.0000 0.0000 0.0000 0.0000 39.2182
#
#
#
# Elastic Compliance Matrix: (Units=1/GPa)
#
#
# Indices 1 2 3 4 5 6 
#
# 1 0.009617 -0.001784 -0.001932 0.000000 0.000000 0.000000
# 2 -0.001784 0.019080 -0.003554 0.000000 0.000000 0.000000
# 3 -0.001932 -0.003554 0.007650 0.000000 0.000000 0.000000
# 4 0.000000 0.000000 0.000000 0.050502 0.000000 0.000000
# 5 0.000000 0.000000 0.000000 0.000000 0.037145 0.000000
# 6 0.000000 0.000000 0.000000 0.000000 0.000000 0.025498
#
#
# Mechanical properties :
#
#
# Convention : Reuss Voigt Hill
#
# Bulk Modulus (GPa) = 45.85859 56.04278 50.95069
# Shear Modulus (GPa) = 29.18826 33.37231 31.28029
#
# Velocity S-wave (km/s) = 3.52565 3.76989 3.64981
# Velocity P-wave (km/s) = 6.00858 6.54339 6.28168
#
# Compressibility (1/GPa) = 0.02180616
#
# Stress axis : x y z
#
# Youngs Moduli (GPa) = 103.98409 52.41120 130.71592
#
# Poissons Ratio (x) = 0.09349 0.25256
# Poissons Ratio (y) = 0.18549 0.46462
# Poissons Ratio (z) = 0.20091 0.18629
#
# Static dielectric constant tensor:
#      x y z
#    x 4.513390 0.000000 0.000000 
#    y 0.000000 4.049940 0.000000 
#    z 0.000000 0.000000 4.283740 
# 
# 
# High freq. dielectric constant tensor:
#      x y z
#    x 1.929650 0.000000 0.000000 
#    y 0.000000 1.923060 0.000000 
#    z 0.000000 0.000000 1.940920 
# 
# From -- ./inp_files/26687.got.cif
#   From: 2010.03.12/outbox.cif.g09.slc.cpg/sg49_14_cif.got.tgz:26687.got - 2010.04.14 03:58:27.
