data_PCOD8204681
_publ_section_title
;
Structure prediction by ZEFSAII (Michael W. Deem and Ramdas Pophale) SiO2 
 PCOD8204681
Probable space group: P C C M
;
_chemical_formula_sum "Si O2"
_cell_formula_units_Z 30
_cell_length_a 10.773393
_cell_length_b 5.346172
_cell_length_c 22.773852
_cell_angle_alpha 90.000000
_cell_angle_beta 90.000000
_cell_angle_gamma 90.000000
_cell_volume 1311.692163
_symmetry_space_group_name_H-M "P C C M"
_symmetry_group_IT_number 49
_symmetry_cell_setting 'orthorhombic'
loop_
_space_group_symop_operation_xyz
x,y,z
-x,-y,z
x,-y,1/2-z
-x,y,1/2-z
-x,-y,-z
x,y,-z
-x,y,1/2+z
x,-y,1/2+z
loop_
_atom_site_type_symbol
_atom_site_label
_atom_site_fract_x
_atom_site_fract_y
_atom_site_fract_z
Si Si1 0.921248 0.248436 0.380553
Si Si2 0.774171 0.741899 0.000000
Si Si3 0.611998 0.240252 0.000000
Si Si4 0.688942 0.651954 0.808605
Si Si5 0.500000 0.500000 0.600018
Si Si6 0.500000 0.000000 0.750000
O O1 0.863089 0.246713 0.444491
O O2 0.816431 0.230170 0.330499
O O3 0.000000 0.500000 0.370963
O O4 0.000000 0.000000 0.371232
O O5 0.703262 0.479213 0.000000
O O6 0.684322 0.981067 0.000000
O O7 0.521643 0.259328 0.942766
O O8 0.717973 0.500000 0.750000
O O9 0.626024 0.497977 0.861514
O O10 0.585211 0.853042 0.794642
#
# Coordination Sequence:
#
# PCOD8204681 Si02
#       6
#     8   4   4   8   4   2
#     4  12  29  51  77 107 151 199 255 307 364 445
#     4  12  24  48  76 109 151 195 250 305 381 439
#     4  11  26  41  78 115 151 188 240 310 379 457
#     4  12  27  48  76 108 150 199 247 308 377 439
#     4  11  23  48  70 114 153 187 244 310 382 451
#     4  12  26  44  82 108 144 192 246 310 376 448
#
# _framework density 22.871219
#
# number of rings (size 3 to 8) (size 9 to 14) (size 15 to 20)
#    0.000    0.267    5.333    2.400    7.467    2.667 
#    0.000    0.000    0.000    0.000    0.000    0.000 
#    0.000    0.000    0.000    0.000    0.000    0.000 
#
# Total GULP energy -371891.163826 kJ/mol
# GULP energy per Si atom -12396.372128 kJ/mol
# Density = 2.281916 g / cm^3
# Si number density = 22.871219 Si / 1000 Ang^3
#
#
#
# Elastic Constant Matrix: (Units=GPa)
#
#
# Indices 1 2 3 4 5 6 
#
# 1 160.5060 84.9791 85.8230 0.0000 0.0000 0.0000
# 2 84.9791 156.2943 46.6597 0.0000 0.0000 0.0000
# 3 85.8230 46.6597 169.7268 0.0000 0.0000 0.0000
# 4 0.0000 0.0000 0.0000 116.7793 0.0000 0.0000
# 5 0.0000 0.0000 0.0000 0.0000 21.3240 0.0000
# 6 0.0000 0.0000 0.0000 0.0000 0.0000 64.6682
#
#
#
# Elastic Compliance Matrix: (Units=1/GPa)
#
#
# Indices 1 2 3 4 5 6 
#
# 1 0.011008 -0.004710 -0.004271 0.000000 0.000000 0.000000
# 2 -0.004710 0.008985 -0.000089 0.000000 0.000000 0.000000
# 3 -0.004271 -0.000089 0.008076 0.000000 0.000000 0.000000
# 4 0.000000 0.000000 0.000000 0.008563 0.000000 0.000000
# 5 0.000000 0.000000 0.000000 0.000000 0.046895 0.000000
# 6 0.000000 0.000000 0.000000 0.000000 0.000000 0.015464
#
#
# Mechanical properties :
#
#
# Convention : Reuss Voigt Hill
#
# Bulk Modulus (GPa) = 100.70948 102.38340 101.54644
# Shear Modulus (GPa) = 41.51405 58.49200 50.00303
#
# Velocity S-wave (km/s) = 4.26505 5.06261 4.68085
# Velocity P-wave (km/s) = 8.26940 8.89020 8.58542
#
# Compressibility (1/GPa) = 0.00992955
#
# Stress axis : x y z
#
# Youngs Moduli (GPa) = 90.84414 111.29052 123.82352
#
# Poissons Ratio (x) = 0.52417 0.52889
# Poissons Ratio (y) = 0.42787 0.01097
# Poissons Ratio (z) = 0.38803 0.00986
#
# Static dielectric constant tensor:
#      x y z
#    x 4.498760 0.000000 0.000000 
#    y 0.000000 4.247310 0.000000 
#    z 0.000000 0.000000 4.200960 
# 
# 
# High freq. dielectric constant tensor:
#      x y z
#    x 1.919510 0.000000 0.000000 
#    y 0.000000 1.901580 0.000000 
#    z 0.000000 0.000000 1.928090 
# 
# From -- ./inp_files/20209.got.cif
#   From: 2010.03.12/outbox.cif.g09.slc.cpg/sg49_11_cif.got.tgz:20209.got - 2010.04.14 03:58:27.
