data_PCOD8204454
_publ_section_title
;
Structure prediction by ZEFSAII (Michael W. Deem and Ramdas Pophale) SiO2 
 PCOD8204454
Probable space group: P C C M
;
_chemical_formula_sum "Si O2"
_cell_formula_units_Z 48
_cell_length_a 10.245331
_cell_length_b 13.630188
_cell_length_c 17.100517
_cell_angle_alpha 90.000000
_cell_angle_beta 90.000000
_cell_angle_gamma 90.000000
_cell_volume 2388.015166
_symmetry_space_group_name_H-M "P C C M"
_symmetry_group_IT_number 49
_symmetry_cell_setting 'orthorhombic'
loop_
_space_group_symop_operation_xyz
x,y,z
-x,-y,z
x,-y,1/2-z
-x,y,1/2-z
-x,-y,-z
x,y,-z
-x,y,1/2+z
x,-y,1/2+z
loop_
_atom_site_type_symbol
_atom_site_label
_atom_site_fract_x
_atom_site_fract_y
_atom_site_fract_z
Si Si1 0.634761 0.448560 0.408124
Si Si2 0.119761 0.243843 0.306103
Si Si3 0.119392 0.427039 0.588708
Si Si4 0.868880 0.054502 0.090555
Si Si5 0.634451 0.955535 0.164996
Si Si6 0.629451 0.267996 0.297126
O O1 0.500000 0.500000 0.384739
O O2 0.645292 0.428185 0.500000
O O3 0.750376 0.520142 0.379484
O O4 0.648137 0.343968 0.367210
O O5 0.080138 0.334059 0.360304
O O6 0.153550 0.151170 0.359107
O O7 0.246852 0.274085 0.258763
O O8 0.000000 0.217080 0.250000
O O9 0.142181 0.391723 0.500000
O O10 0.000000 0.500000 0.594927
O O11 0.749428 0.980651 0.105154
O O12 0.875210 0.084092 0.000000
O O13 0.000000 0.000000 0.117359
O O14 0.616788 0.839430 0.166524
O O15 0.500000 0.000000 0.132520
O O16 0.667863 0.000000 0.250000
O O17 0.500000 0.296019 0.250000
#
# Coordination Sequence:
#
# PCOD8204454 Si02
#       6
#     8   8   8   8   8   8
#     4  10  23  42  62  88 126 166 204 256 315 370
#     4  12  24  38  63  92 120 162 204 258 316 373
#     4  10  22  41  60  82 120 161 199 252 307 367
#     4  11  25  42  63  93 126 166 212 260 316 383
#     4  11  21  42  65  90 128 166 205 257 319 370
#     4  12  23  38  65  93 121 161 205 255 311 370
#
# _framework density 20.100376000000001
#
# number of rings (size 3 to 8) (size 9 to 14) (size 15 to 20)
#    0.000    1.000    3.333    3.500    0.000    5.000 
#    0.000    8.333    0.000    0.000    0.000    0.000 
#    0.000    0.000    0.000    0.000    0.000    0.000 
#
# Total GULP energy -595522.985642 kJ/mol
# GULP energy per Si atom -12406.728868 kJ/mol
# Density = 2.005463 g / cm^3
# Si number density = 20.100376 Si / 1000 Ang^3
#
#
#
# Elastic Constant Matrix: (Units=GPa)
#
#
# Indices 1 2 3 4 5 6 
#
# 1 127.7842 6.0026 31.8945 0.0000 0.0000 0.0000
# 2 6.0026 94.5523 44.0106 0.0000 0.0000 0.0000
# 3 31.8945 44.0106 67.4356 0.0000 0.0000 0.0000
# 4 0.0000 0.0000 0.0000 62.8732 0.0000 0.0000
# 5 0.0000 0.0000 0.0000 0.0000 0.1244 0.0000
# 6 0.0000 0.0000 0.0000 0.0000 0.0000 29.6825
#
#
#
# Elastic Compliance Matrix: (Units=1/GPa)
#
#
# Indices 1 2 3 4 5 6 
#
# 1 0.009144 0.002057 -0.005667 0.000000 0.000000 0.000000
# 2 0.002057 0.015654 -0.011189 0.000000 0.000000 0.000000
# 3 -0.005667 -0.011189 0.024812 0.000000 0.000000 0.000000
# 4 0.000000 0.000000 0.000000 0.015905 0.000000 0.000000
# 5 0.000000 0.000000 0.000000 0.000000 8.036903 0.000000
# 6 0.000000 0.000000 0.000000 0.000000 0.000000 0.033690
#
#
# Mechanical properties :
#
#
# Convention : Reuss Voigt Hill
#
# Bulk Modulus (GPa) = 49.97260 50.39861 50.18560
# Shear Modulus (GPa) = 0.61182 32.39366 16.50274
#
# Velocity S-wave (km/s) = 0.55231 4.01882 2.86845
# Velocity P-wave (km/s) = 5.03212 6.83099 5.99936
#
# Compressibility (1/GPa) = 0.02001097
#
# Stress axis : x y z
#
# Youngs Moduli (GPa) = 109.36629 63.88269 40.30339
#
# Poissons Ratio (x) = -0.13144 0.22841
# Poissons Ratio (y) = -0.22502 0.45096
# Poissons Ratio (z) = 0.61981 0.71480
#
# Static dielectric constant tensor:
#      x y z
#    x 3.856400 0.000000 0.000000 
#    y 0.000000 3.579510 0.000000 
#    z 0.000000 0.000000 3.608120 
# 
# 
# High freq. dielectric constant tensor:
#      x y z
#    x 1.805230 0.000000 0.000000 
#    y 0.000000 1.794410 0.000000 
#    z 0.000000 0.000000 1.779510 
# 
# From -- ./inp_files/16336.got.cif
#   From: 2010.03.12/outbox.cif.g09.slc.cpg/sg49_9_cif.got.tgz:16336.got - 2010.04.14 03:58:27.
