data_PCOD8204342
_publ_section_title
;
Structure prediction by ZEFSAII (Michael W. Deem and Ramdas Pophale) SiO2 
 PCOD8204342
Probable space group: P C C M
;
_chemical_formula_sum "Si O2"
_cell_formula_units_Z 64
_cell_length_a 11.872672
_cell_length_b 9.262603
_cell_length_c 30.153514
_cell_angle_alpha 90.000000
_cell_angle_beta 90.000000
_cell_angle_gamma 90.000000
_cell_volume 3316.037637
_symmetry_space_group_name_H-M "P C C M"
_symmetry_group_IT_number 49
_symmetry_cell_setting 'orthorhombic'
loop_
_space_group_symop_operation_xyz
x,y,z
-x,-y,z
x,-y,1/2-z
-x,y,1/2-z
-x,-y,-z
x,y,-z
-x,y,1/2+z
x,-y,1/2+z
loop_
_atom_site_type_symbol
_atom_site_label
_atom_site_fract_x
_atom_site_fract_y
_atom_site_fract_z
Si Si1 0.748516 0.590060 0.708699
Si Si2 0.021839 0.337923 0.925969
Si Si3 0.206783 0.176268 0.446684
Si Si4 0.157048 0.660066 0.662518
Si Si5 0.372998 0.346155 0.383117
Si Si6 0.773220 0.850429 0.951346
Si Si7 0.869492 0.158098 0.742145
Si Si8 0.625561 0.333201 0.608398
O O1 0.689548 0.500000 0.750000
O O2 0.850412 0.487840 0.690890
O O3 0.668773 0.634937 0.667660
O O4 0.801788 0.736758 0.725836
O O5 0.063344 0.346464 0.875378
O O6 0.119037 0.255421 0.952676
O O7 0.000000 0.500000 0.944246
O O8 0.907561 0.250843 0.931109
O O9 0.227018 0.198762 0.500000
O O10 0.304937 0.240791 0.415750
O O11 0.195253 0.008418 0.432524
O O12 0.140125 0.803283 0.690675
O O13 0.286888 0.676264 0.648407
O O14 0.371905 0.500593 0.408245
O O15 0.499966 0.286827 0.377728
O O16 0.666663 0.778467 0.928305
O O17 0.728298 0.876662 0.000000
O O18 0.000000 0.164859 0.750000
O O19 0.818628 0.000000 0.750000
#
# Coordination Sequence:
#
# PCOD8204342 Si02
#       8
#     8   8   8   8   8   8   8   8
#     4   9  19  37  60  85 114 153 191 241 296 357
#     4  11  22  36  60  88 116 151 198 250 300 355
#     4  11  24  39  57  87 123 160 199 239 299 364
#     4   9  20  37  57  83 114 149 191 239 297 351
#     4  10  21  39  64  88 119 150 201 252 298 348
#     4  10  22  40  58  82 120 161 199 243 296 357
#     4  10  22  36  52  82 118 152 192 233 285 357
#     4   9  20  40  60  87 114 150 199 249 290 347
#
# _framework density 19.300142999999998
#
# number of rings (size 3 to 8) (size 9 to 14) (size 15 to 20)
#    0.000    2.125    0.000    3.000    3.500    8.250 
#    4.500   13.125    0.000    0.750    0.000    0.000 
#    0.000    0.000    0.000    0.000    0.000    0.000 
#
# Total GULP energy -792948.861015 kJ/mol
# GULP energy per Si atom -12389.825953 kJ/mol
# Density = 1.925622 g / cm^3
# Si number density = 19.300143 Si / 1000 Ang^3
#
#
#
# Elastic Constant Matrix: (Units=GPa)
#
#
# Indices 1 2 3 4 5 6 
#
# 1 115.2201 67.4921 50.6560 0.0000 0.0000 0.0000
# 2 67.4921 154.3076 60.3276 0.0000 0.0000 0.0000
# 3 50.6560 60.3276 100.3969 0.0000 0.0000 0.0000
# 4 0.0000 0.0000 0.0000 32.9721 0.0000 0.0000
# 5 0.0000 0.0000 0.0000 0.0000 -3.3805 0.0000
# 6 0.0000 0.0000 0.0000 0.0000 0.0000 53.7738
#
#
#
# Elastic Compliance Matrix: (Units=1/GPa)
#
#
# Indices 1 2 3 4 5 6 
#
# 1 0.012815 -0.004022 -0.004049 0.000000 0.000000 0.000000
# 2 -0.004022 0.009733 -0.003819 0.000000 0.000000 0.000000
# 3 -0.004049 -0.003819 0.014298 0.000000 0.000000 0.000000
# 4 0.000000 0.000000 0.000000 0.030329 0.000000 0.000000
# 5 0.000000 0.000000 0.000000 0.000000 -0.295811 0.000000
# 6 0.000000 0.000000 0.000000 0.000000 0.000000 0.018596
#
#
# Mechanical properties :
#
#
# Convention : Reuss Voigt Hill
#
# Bulk Modulus (GPa) = 76.53560 80.76401 78.64981
# Shear Modulus (GPa) = -27.48708 29.43633 0.97462
#
# Velocity S-wave (km/s) = -3.77794 3.90960 0.71139
# Velocity P-wave (km/s) = 4.55095 7.89412 6.44315
#
# Compressibility (1/GPa) = 0.01306581
#
# Stress axis : x y z
#
# Youngs Moduli (GPa) = 78.03171 102.74463 69.93847
#
# Poissons Ratio (x) = 0.41326 0.28319
# Poissons Ratio (y) = 0.31386 0.26709
# Poissons Ratio (z) = 0.31596 0.39238
#
# Static dielectric constant tensor:
#      x y z
#    x 3.434410 0.000000 0.000000 
#    y 0.000000 3.986380 0.000000 
#    z 0.000000 0.000000 3.683950 
# 
# 
# High freq. dielectric constant tensor:
#      x y z
#    x 1.740980 0.000000 0.000000 
#    y 0.000000 1.761180 0.000000 
#    z 0.000000 0.000000 1.754380 
# 
# From -- ./inp_files/26700.got.cif
#   From: 2010.03.12/outbox.cif.g09.slc.cpg/sg49_14_cif.got.tgz:26700.got - 2010.04.14 03:58:27.
