data_PCOD8204781
_publ_section_title
;
Structure prediction by ZEFSAII (Michael W. Deem and Ramdas Pophale) SiO2 
 PCOD8204781
Probable space group: P B A N
;
_chemical_formula_sum "Si O2"
_cell_formula_units_Z 40
_cell_length_a 7.898378
_cell_length_b 27.255121
_cell_length_c 8.845419
_cell_angle_alpha 90.000000
_cell_angle_beta 90.000000
_cell_angle_gamma 90.000000
_cell_volume 1904.164388
_symmetry_space_group_name_H-M "P B A N"
_symmetry_group_IT_number 50
_space_group.IT_coordinate_system_code '2'
_symmetry_cell_setting 'orthorhombic'
loop_
_space_group_symop_operation_xyz
x,y,z
1/2-x,1/2-y,z
x,1/2-y,-z
1/2-x,y,-z
-x,-y,-z
1/2+x,1/2+y,-z
-x,1/2+y,z
1/2+x,-y,z
loop_
_atom_site_type_symbol
_atom_site_label
_atom_site_fract_x
_atom_site_fract_y
_atom_site_fract_z
Si Si1 0.316247 0.657648 0.159609
Si Si2 0.513374 0.559803 0.122744
Si Si3 0.391248 0.038179 0.794698
Si Si4 0.439242 0.700892 0.437617
Si Si5 0.091928 0.609678 0.399261
O O1 0.448645 0.614108 0.142301
O O2 0.419944 0.699490 0.254403
O O3 0.153645 0.637775 0.249175
O O4 0.250000 0.679035 0.000000
O O5 0.397557 0.521302 0.218794
O O6 0.702166 0.557148 0.187293
O O7 0.498600 0.549302 0.944257
O O8 0.474031 0.064040 0.648085
O O9 0.534913 0.750000 0.500000
O O10 0.250000 0.700999 0.500000
O O11 0.518251 0.649857 0.502762
O O12 0.250000 0.590158 0.500000
#
# Coordination Sequence:
#
# PCOD8204781 Si02
#       5
#     8   8   8   8   8
#     4  10  17  31  55  81 106 137 186 223 267 332
#     4  10  20  30  53  77 107 145 185 230 269 325
#     4  10  19  33  49  77 111 149 182 224 278 326
#     4   8  17  34  53  77 109 139 169 229 287 323
#     4   9  18  33  53  75 110 147 174 230 275 330
#
# _framework density 21.006591
#
# number of rings (size 3 to 8) (size 9 to 14) (size 15 to 20)
#    0.000    3.000    2.000    1.200    2.800    0.000 
#    0.000   21.000    0.000    2.400    0.000    2.800 
#    0.000    0.000    0.000    0.000    0.000    0.000 
#
# Total GULP energy -495530.338888 kJ/mol
# GULP energy per Si atom -12388.258472 kJ/mol
# Density = 2.095878 g / cm^3
# Si number density = 21.006591 Si / 1000 Ang^3
#
#
#
# Elastic Constant Matrix: (Units=GPa)
#
#
# Indices 1 2 3 4 5 6 
#
# 1 38.0923 23.2854 25.4552 0.0000 0.0000 0.0000
# 2 23.2854 103.2129 48.3548 0.0000 0.0000 0.0000
# 3 25.4552 48.3548 136.4337 0.0000 0.0000 0.0000
# 4 0.0000 0.0000 0.0000 30.0243 0.0000 0.0000
# 5 0.0000 0.0000 0.0000 0.0000 24.9484 0.0000
# 6 0.0000 0.0000 0.0000 0.0000 0.0000 10.3140
#
#
#
# Elastic Compliance Matrix: (Units=1/GPa)
#
#
# Indices 1 2 3 4 5 6 
#
# 1 0.032280 -0.005349 -0.004127 0.000000 0.000000 0.000000
# 2 -0.005349 0.012504 -0.003434 0.000000 0.000000 0.000000
# 3 -0.004127 -0.003434 0.009317 0.000000 0.000000 0.000000
# 4 0.000000 0.000000 0.000000 0.033306 0.000000 0.000000
# 5 0.000000 0.000000 0.000000 0.000000 0.040083 0.000000
# 6 0.000000 0.000000 0.000000 0.000000 0.000000 0.096956
#
#
# Mechanical properties :
#
#
# Convention : Reuss Voigt Hill
#
# Bulk Modulus (GPa) = 35.35926 52.43664 43.89795
# Shear Modulus (GPa) = 19.25362 25.10023 22.17693
#
# Velocity S-wave (km/s) = 3.03074 3.46045 3.25270
# Velocity P-wave (km/s) = 5.39594 6.40175 5.92025
#
# Compressibility (1/GPa) = 0.02828113
#
# Stress axis : x y z
#
# Youngs Moduli (GPa) = 30.97935 79.97335 107.33641
#
# Poissons Ratio (x) = 0.42778 0.44295
# Poissons Ratio (y) = 0.16571 0.36856
# Poissons Ratio (z) = 0.12784 0.27461
#
# Static dielectric constant tensor:
#      x y z
#    x 3.249110 0.000000 0.000000 
#    y 0.000000 4.886410 0.000000 
#    z 0.000000 0.000000 4.143620 
# 
# 
# High freq. dielectric constant tensor:
#      x y z
#    x 1.774410 0.000000 0.000000 
#    y 0.000000 1.814770 0.000000 
#    z 0.000000 0.000000 1.825480 
# 
# From -- ./inp_files/9741.got.cif
#   From: 2010.03.12/outbox.cif.g09.slc.cpg/sg50_5_cif.got.tgz:9741.got - 2010.04.16 13:23:21.
