data_PCOD8204590
_publ_section_title
;
Structure prediction by ZEFSAII (Michael W. Deem and Ramdas Pophale) SiO2 
 PCOD8204590
Probable space group: P C C M
;
_chemical_formula_sum "Si O2"
_cell_formula_units_Z 48
_cell_length_a 20.519082
_cell_length_b 14.335597
_cell_length_c 8.473553
_cell_angle_alpha 90.000000
_cell_angle_beta 90.000000
_cell_angle_gamma 90.000000
_cell_volume 2492.523496
_symmetry_space_group_name_H-M "P C C M"
_symmetry_group_IT_number 49
_symmetry_cell_setting 'orthorhombic'
loop_
_space_group_symop_operation_xyz
x,y,z
-x,-y,z
x,-y,1/2-z
-x,y,1/2-z
-x,-y,-z
x,y,-z
-x,y,1/2+z
x,-y,1/2+z
loop_
_atom_site_type_symbol
_atom_site_label
_atom_site_fract_x
_atom_site_fract_y
_atom_site_fract_z
Si Si1 0.569298 0.599798 0.816276
Si Si2 0.267838 0.099622 0.814142
Si Si3 0.193289 0.603735 0.685438
Si Si4 0.932659 0.278031 0.685248
Si Si5 0.685026 0.285570 0.183745
Si Si6 0.874703 0.903142 0.314334
O O1 0.591320 0.500000 0.750000
O O2 0.500000 0.633390 0.750000
O O3 0.623734 0.675002 0.777162
O O4 0.561561 0.588527 0.000000
O O5 0.310679 0.177035 0.726952
O O6 0.192319 0.117068 0.776442
O O7 0.291504 0.000000 0.750000
O O8 0.278707 0.106683 0.000000
O O9 0.193409 0.500000 0.750000
O O10 0.206978 0.603934 0.500000
O O11 0.124177 0.649683 0.728204
O O12 0.249003 0.662485 0.769397
O O13 0.935955 0.258980 0.500000
O O14 0.923631 0.180300 0.776030
O O15 0.000000 0.321812 0.750000
O O16 0.672513 0.298842 0.000000
O O17 0.860932 0.910603 0.500000
O O18 0.905089 0.000000 0.250000
#
# Coordination Sequence:
#
# PCOD8204590 Si02
#       6
#     8   8   8   8   8   8
#     4  11  22  39  61  90 127 165 204 247 295 351
#     4  11  21  36  58  88 121 155 195 241 294 348
#     4  11  24  41  61  85 115 150 194 247 297 351
#     4  11  24  41  60  82 113 150 194 243 298 357
#     4  12  23  38  62  91 122 159 200 244 295 347
#     4  11  21  36  59  85 115 150 189 237 294 353
#
# _framework density 19.257591000000001
#
# number of rings (size 3 to 8) (size 9 to 14) (size 15 to 20)
#    0.000    0.833    1.667    9.000    0.000    2.667 
#    0.000    3.333    0.000    0.500    0.000    3.500 
#    0.000    0.000    0.000    0.000    0.000    0.000 
#
# Total GULP energy -595511.060770 kJ/mol
# GULP energy per Si atom -12406.480433 kJ/mol
# Density = 1.921376 g / cm^3
# Si number density = 19.257591 Si / 1000 Ang^3
#
#
#
# Elastic Constant Matrix: (Units=GPa)
#
#
# Indices 1 2 3 4 5 6 
#
# 1 92.3541 45.8027 20.1241 0.0000 0.0000 0.0000
# 2 45.8027 115.7753 22.7104 0.0000 0.0000 0.0000
# 3 20.1241 22.7104 114.9737 0.0000 0.0000 0.0000
# 4 0.0000 0.0000 0.0000 1.8533 0.0000 0.0000
# 5 0.0000 0.0000 0.0000 0.0000 31.1477 0.0000
# 6 0.0000 0.0000 0.0000 0.0000 0.0000 21.6068
#
#
#
# Elastic Compliance Matrix: (Units=1/GPa)
#
#
# Indices 1 2 3 4 5 6 
#
# 1 0.013678 -0.005141 -0.001379 0.000000 0.000000 0.000000
# 2 -0.005141 0.010918 -0.001257 0.000000 0.000000 0.000000
# 3 -0.001379 -0.001257 0.009187 0.000000 0.000000 0.000000
# 4 0.000000 0.000000 0.000000 0.539586 0.000000 0.000000
# 5 0.000000 0.000000 0.000000 0.000000 0.032105 0.000000
# 6 0.000000 0.000000 0.000000 0.000000 0.000000 0.046282
#
#
# Mechanical properties :
#
#
# Convention : Reuss Voigt Hill
#
# Bulk Modulus (GPa) = 54.85320 55.59752 55.22536
# Shear Modulus (GPa) = 7.42518 26.55263 16.98891
#
# Velocity S-wave (km/s) = 1.96573 3.71727 2.97340
# Velocity P-wave (km/s) = 5.80499 6.88166 6.36613
#
# Compressibility (1/GPa) = 0.01823048
#
# Stress axis : x y z
#
# Youngs Moduli (GPa) = 73.11104 91.59431 108.84730
#
# Poissons Ratio (x) = 0.47086 0.15006
# Poissons Ratio (y) = 0.37585 0.13679
# Poissons Ratio (z) = 0.10079 0.11511
#
# Static dielectric constant tensor:
#      x y z
#    x 3.438460 0.000000 0.000000 
#    y 0.000000 3.701300 0.000000 
#    z 0.000000 0.000000 3.652090 
# 
# 
# High freq. dielectric constant tensor:
#      x y z
#    x 1.735280 0.000000 0.000000 
#    y 0.000000 1.755080 0.000000 
#    z 0.000000 0.000000 1.772950 
# 
# From -- ./inp_files/4878.got.cif
#   From: 2010.03.12/outbox.cif.g09.slc.cpg/sg49_3_cif.got.tgz:4878.got - 2010.04.14 03:58:27.
