data_PCOD8204879
_publ_section_title
;
Structure prediction by ZEFSAII (Michael W. Deem and Ramdas Pophale) SiO2 
 PCOD8204879
Probable space group: P B A N
;
_chemical_formula_sum "Si O2"
_cell_formula_units_Z 64
_cell_length_a 30.764731
_cell_length_b 22.395179
_cell_length_c 5.150306
_cell_angle_alpha 90.000000
_cell_angle_beta 90.000000
_cell_angle_gamma 90.000000
_cell_volume 3548.466365
_symmetry_space_group_name_H-M "P B A N"
_symmetry_group_IT_number 50
_space_group.IT_coordinate_system_code '2'
_symmetry_cell_setting 'orthorhombic'
loop_
_space_group_symop_operation_xyz
x,y,z
1/2-x,1/2-y,z
x,1/2-y,-z
1/2-x,y,-z
-x,-y,-z
1/2+x,1/2+y,-z
-x,1/2+y,z
1/2+x,-y,z
loop_
_atom_site_type_symbol
_atom_site_label
_atom_site_fract_x
_atom_site_fract_y
_atom_site_fract_z
Si Si1 0.126126 0.460005 0.777900
Si Si2 0.626614 0.404551 0.656368
Si Si3 0.511821 0.119808 0.207250
Si Si4 0.924007 0.936209 0.265582
Si Si5 0.726268 0.957339 0.250805
Si Si6 0.273746 0.901737 0.744750
Si Si7 0.444376 0.567872 0.701224
Si Si8 0.924942 0.288274 0.249179
O O1 0.119247 0.531801 0.800888
O O2 0.097440 0.431675 0.548238
O O3 0.175729 0.441719 0.732301
O O4 0.112904 0.429623 0.047678
O O5 0.676341 0.385568 0.689040
O O6 0.606757 0.413217 0.360769
O O7 0.601052 0.350276 0.787516
O O8 0.459724 0.115164 0.215668
O O9 0.531070 0.076404 0.427374
O O10 0.524854 0.189196 0.266497
O O11 0.532190 0.105475 0.924174
O O12 0.948375 0.998964 0.223127
O O13 0.750000 0.929303 0.500000
O O14 0.732901 0.027905 0.246693
O O15 0.750000 0.929277 0.000000
O O16 0.250000 0.872664 0.500000
O O17 0.250000 0.874041 0.000000
O O18 0.911574 0.250000 0.500000
O O19 0.914455 0.250000 0.000000
#
# Coordination Sequence:
#
# PCOD8204879 Si02
#       8
#     8   8   8   8   8   8   8   8
#     4  10  20  30  48  74  97 126 159 188 234 281
#     4   9  20  35  51  69  94 118 152 202 238 274
#     4  11  21  34  49  68  93 121 153 192 239 282
#     4  11  19  30  46  70  99 122 150 189 231 283
#     4   9  16  28  43  64  95 127 159 188 211 259
#     4   9  18  29  47  69  88 114 147 186 238 288
#     4  10  19  31  49  71  93 122 151 183 234 289
#     4  11  23  37  52  68  85 116 161 199 239 284
#
# _framework density 18.035962000000001
#
# number of rings (size 3 to 8) (size 9 to 14) (size 15 to 20)
#    0.000    2.000    0.000    6.000    0.000   10.000 
#    0.000    0.000    0.000    2.250    0.000    0.000 
#    0.000    0.000    0.000    0.000    0.000   43.750 
#
# Total GULP energy -793006.989506 kJ/mol
# GULP energy per Si atom -12390.734211 kJ/mol
# Density = 1.799491 g / cm^3
# Si number density = 18.035962 Si / 1000 Ang^3
#
#
#
# Elastic Constant Matrix: (Units=GPa)
#
#
# Indices 1 2 3 4 5 6 
#
# 1 118.8478 27.1373 48.8057 0.0000 0.0000 0.0000
# 2 27.1373 20.4029 14.1016 0.0000 0.0000 0.0000
# 3 48.8057 14.1016 122.0426 0.0000 0.0000 0.0000
# 4 0.0000 0.0000 0.0000 11.8163 0.0000 0.0000
# 5 0.0000 0.0000 0.0000 0.0000 34.8946 0.0000
# 6 0.0000 0.0000 0.0000 0.0000 0.0000 13.3149
#
#
#
# Elastic Compliance Matrix: (Units=1/GPa)
#
#
# Indices 1 2 3 4 5 6 
#
# 1 0.013385 -0.015327 -0.003582 0.000000 0.000000 0.000000
# 2 -0.015327 0.070818 -0.002053 0.000000 0.000000 0.000000
# 3 -0.003582 -0.002053 0.009863 0.000000 0.000000 0.000000
# 4 0.000000 0.000000 0.000000 0.084629 0.000000 0.000000
# 5 0.000000 0.000000 0.000000 0.000000 0.028658 0.000000
# 6 0.000000 0.000000 0.000000 0.000000 0.000000 0.075104
#
#
# Mechanical properties :
#
#
# Convention : Reuss Voigt Hill
#
# Bulk Modulus (GPa) = 19.17846 49.04251 34.11049
# Shear Modulus (GPa) = 14.63011 23.42176 19.02593
#
# Velocity S-wave (km/s) = 2.85118 3.60754 3.25143
# Velocity P-wave (km/s) = 4.63633 6.67855 5.74885
#
# Compressibility (1/GPa) = 0.05214183
#
# Stress axis : x y z
#
# Youngs Moduli (GPa) = 74.71228 14.12073 101.38451
#
# Poissons Ratio (x) = 0.21643 0.36312
# Poissons Ratio (y) = 1.14512 0.20818
# Poissons Ratio (z) = 0.26759 0.02899
#
# Static dielectric constant tensor:
#      x y z
#    x 3.510830 0.000000 0.000000 
#    y 0.000000 2.966710 0.000000 
#    z 0.000000 0.000000 3.673850 
# 
# 
# High freq. dielectric constant tensor:
#      x y z
#    x 1.700230 0.000000 0.000000 
#    y 0.000000 1.621710 0.000000 
#    z 0.000000 0.000000 1.719670 
# 
# From -- ./inp_files/6842.got.cif
#   From: 2010.03.12/outbox.cif.g09.slc.cpg/sg50_4_cif.got.tgz:6842.got - 2010.04.16 13:23:21.
