data_PCOD8204883
_publ_section_title
;
Structure prediction by ZEFSAII (Michael W. Deem and Ramdas Pophale) SiO2 
 PCOD8204883
Probable space group: P B A N
;
_chemical_formula_sum "Si O2"
_cell_formula_units_Z 56
_cell_length_a 5.147948
_cell_length_b 17.329532
_cell_length_c 32.236636
_cell_angle_alpha 90.000000
_cell_angle_beta 90.000000
_cell_angle_gamma 90.000000
_cell_volume 2875.879607
_symmetry_space_group_name_H-M "P B A N"
_symmetry_group_IT_number 50
_space_group.IT_coordinate_system_code '2'
_symmetry_cell_setting 'orthorhombic'
loop_
_space_group_symop_operation_xyz
x,y,z
1/2-x,1/2-y,z
x,1/2-y,-z
1/2-x,y,-z
-x,-y,-z
1/2+x,1/2+y,-z
-x,1/2+y,z
1/2+x,-y,z
loop_
_atom_site_type_symbol
_atom_site_label
_atom_site_fract_x
_atom_site_fract_y
_atom_site_fract_z
Si Si1 0.507254 0.798952 0.280222
Si Si2 0.870549 0.448625 0.868111
Si Si3 0.044389 0.547799 0.429039
Si Si4 0.500163 0.215955 0.546093
Si Si5 0.996093 0.700281 0.184587
Si Si6 0.146217 0.549784 0.039659
Si Si7 0.953283 0.451572 0.667259
O O1 0.750000 0.750000 0.296861
O O2 0.550575 0.821509 0.232392
O O3 0.492691 0.876130 0.306171
O O4 0.250000 0.750000 0.287088
O O5 0.586479 0.485049 0.860090
O O6 0.954978 0.379339 0.838816
O O7 0.845937 0.412609 0.914699
O O8 0.822629 0.486869 0.440975
O O9 0.000781 0.623937 0.456127
O O10 0.028258 0.571000 0.380946
O O11 0.250000 0.250000 0.570116
O O12 0.500001 0.250000 0.500000
O O13 0.750000 0.250000 0.570286
O O14 0.250000 0.750000 0.178153
O O15 0.750000 0.750000 0.167653
O O16 0.350581 0.478431 0.035738
O O17 0.250000 0.602819 0.000000
O O18 0.175472 0.512846 0.678675
#
# Coordination Sequence:
#
# PCOD8204883 Si02
#       7
#     8   8   8   8   8   8   8
#     4  10  21  36  54  77 105 141 179 212 257 316
#     4  10  19  31  51  77  98 128 177 218 253 305
#     4  10  21  38  58  81 110 143 175 214 267 320
#     4  10  21  38  56  81 110 138 178 221 258 305
#     4  10  21  36  51  72 107 143 172 210 265 319
#     4   8  14  25  42  67  96 121 154 206 256 295
#     4  10  21  36  56  82 109 137 174 220 268 310
#
# _framework density 19.472303
#
# number of rings (size 3 to 8) (size 9 to 14) (size 15 to 20)
#    0.000    2.286    0.000    2.571    0.000    2.286 
#    0.000    8.571    0.000    0.429    0.000    1.000 
#    0.000    0.000    0.000    0.000    0.000    0.000 
#
# Total GULP energy -693873.562081 kJ/mol
# GULP energy per Si atom -12390.599323 kJ/mol
# Density = 1.942798 g / cm^3
# Si number density = 19.472303 Si / 1000 Ang^3
#
#
#
# Elastic Constant Matrix: (Units=GPa)
#
#
# Indices 1 2 3 4 5 6 
#
# 1 118.6777 18.0146 17.7546 0.0000 0.0000 0.0000
# 2 18.0146 99.9696 52.3766 0.0000 0.0000 0.0000
# 3 17.7546 52.3766 63.4124 0.0000 0.0000 0.0000
# 4 0.0000 0.0000 0.0000 -5.1637 0.0000 0.0000
# 5 0.0000 0.0000 0.0000 0.0000 14.8988 0.0000
# 6 0.0000 0.0000 0.0000 0.0000 0.0000 24.9938
#
#
#
# Elastic Compliance Matrix: (Units=1/GPa)
#
#
# Indices 1 2 3 4 5 6 
#
# 1 0.008810 -0.000520 -0.002037 0.000000 0.000000 0.000000
# 2 -0.000520 0.017665 -0.014445 0.000000 0.000000 0.000000
# 3 -0.002037 -0.014445 0.028271 0.000000 0.000000 0.000000
# 4 0.000000 0.000000 0.000000 -0.193659 0.000000 0.000000
# 5 0.000000 0.000000 0.000000 0.000000 0.067120 0.000000
# 6 0.000000 0.000000 0.000000 0.000000 0.000000 0.040010
#
#
# Mechanical properties :
#
#
# Convention : Reuss Voigt Hill
#
# Bulk Modulus (GPa) = 48.21227 50.92791 49.57009
# Shear Modulus (GPa) = 547.37051 19.87335 283.62193
#
# Velocity S-wave (km/s) = 16.78429 3.19814 12.08181
# Velocity P-wave (km/s) = 20.01074 6.31255 14.83708
#
# Compressibility (1/GPa) = 0.02074161
#
# Stress axis : x y z
#
# Youngs Moduli (GPa) = 113.50876 56.60946 35.37180
#
# Poissons Ratio (x) = 0.02946 0.07205
# Poissons Ratio (y) = 0.05907 0.51094
# Poissons Ratio (z) = 0.23119 0.81772
#
# Static dielectric constant tensor:
#      x y z
#    x 3.437900 0.000000 0.000000 
#    y 0.000000 2.984690 0.000000 
#    z 0.000000 0.000000 3.710220 
# 
# 
# High freq. dielectric constant tensor:
#      x y z
#    x 1.792520 0.000000 0.000000 
#    y 0.000000 1.728550 0.000000 
#    z 0.000000 0.000000 1.753800 
# 
# From -- ./inp_files/32381.got.cif
#   From: 2010.03.12/outbox.cif.g09.slc.cpg/sg50_17_cif.got.tgz:32381.got - 2010.04.16 13:23:21.
