data_PCOD8204182
_publ_section_title
;
Structure prediction by ZEFSAII (Michael W. Deem and Ramdas Pophale) SiO2 
 PCOD8204182
Probable space group: P C C M
;
_chemical_formula_sum "Si O2"
_cell_formula_units_Z 64
_cell_length_a 12.450146
_cell_length_b 14.568365
_cell_length_c 17.881298
_cell_angle_alpha 90.000000
_cell_angle_beta 90.000000
_cell_angle_gamma 90.000000
_cell_volume 3243.278919
_symmetry_space_group_name_H-M "P C C M"
_symmetry_group_IT_number 49
_symmetry_cell_setting 'orthorhombic'
loop_
_space_group_symop_operation_xyz
x,y,z
-x,-y,z
x,-y,1/2-z
-x,y,1/2-z
-x,-y,-z
x,y,-z
-x,y,1/2+z
x,-y,1/2+z
loop_
_atom_site_type_symbol
_atom_site_label
_atom_site_fract_x
_atom_site_fract_y
_atom_site_fract_z
Si Si1 0.697125 0.498182 0.663879
Si Si2 0.187495 0.782210 0.088017
Si Si3 0.882763 0.978271 0.412955
Si Si4 0.384983 0.306571 0.337396
Si Si5 0.982259 0.722830 0.837655
Si Si6 0.627625 0.704688 0.164894
Si Si7 0.804250 0.170416 0.412592
Si Si8 0.893075 0.444549 0.582332
O O1 0.731975 0.500000 0.750000
O O2 0.617446 0.583297 0.648107
O O3 0.645830 0.400800 0.640298
O O4 0.802151 0.512813 0.613095
O O5 0.168031 0.884889 0.120858
O O6 0.305718 0.748401 0.109008
O O7 0.098222 0.714971 0.123429
O O8 0.175220 0.777423 0.000000
O O9 0.901481 0.960535 0.500000
O O10 0.796201 0.060431 0.400420
O O11 0.000000 0.000000 0.376783
O O12 0.350159 0.284708 0.252737
O O13 0.504613 0.271044 0.354445
O O14 0.916166 0.807920 0.870780
O O15 0.907266 0.636130 0.857468
O O16 0.000000 0.731000 0.750000
O O17 0.702829 0.776114 0.121355
O O18 0.813666 0.195225 0.500000
O O19 0.861330 0.405608 0.500000
O O20 0.000000 0.500000 0.574394
#
# Coordination Sequence:
#
# PCOD8204182 Si02
#       8
#     8   8   8   8   8   8   8   8
#     4  10  21  36  60  84 114 155 202 244 291 352
#     4  11  22  39  62  88 120 155 197 248 297 351
#     4   9  18  36  61  87 117 156 194 236 295 358
#     4  10  22  40  60  86 119 157 200 247 297 352
#     4  12  24  36  57  85 122 159 194 236 300 363
#     4  10  21  40  62  85 118 159 202 243 293 357
#     4  11  21  38  63  89 116 151 200 248 294 353
#     4  11  24  37  53  81 119 159 200 245 291 348
#
# _framework density 19.733115000000002
#
# number of rings (size 3 to 8) (size 9 to 14) (size 15 to 20)
#    0.000    1.500    2.500    3.000    3.500    3.500 
#    0.000    3.750    0.000    6.000    0.000    0.000 
#    0.000    0.000    0.000    0.000    0.000    0.000 
#
# Total GULP energy -793502.539845 kJ/mol
# GULP energy per Si atom -12398.477185 kJ/mol
# Density = 1.968820 g / cm^3
# Si number density = 19.733115 Si / 1000 Ang^3
#
#
#
# Elastic Constant Matrix: (Units=GPa)
#
#
# Indices 1 2 3 4 5 6 
#
# 1 106.0306 32.2533 47.3435 0.0000 0.0000 0.0000
# 2 32.2533 88.0816 33.2977 0.0000 0.0000 0.0000
# 3 47.3435 33.2977 99.6069 0.0000 0.0000 0.0000
# 4 0.0000 0.0000 0.0000 25.4807 0.0000 0.0000
# 5 0.0000 0.0000 0.0000 0.0000 17.7986 0.0000
# 6 0.0000 0.0000 0.0000 0.0000 0.0000 22.7919
#
#
#
# Elastic Compliance Matrix: (Units=1/GPa)
#
#
# Indices 1 2 3 4 5 6 
#
# 1 0.012497 -0.002668 -0.005048 0.000000 0.000000 0.000000
# 2 -0.002668 0.013565 -0.003267 0.000000 0.000000 0.000000
# 3 -0.005048 -0.003267 0.013531 0.000000 0.000000 0.000000
# 4 0.000000 0.000000 0.000000 0.039245 0.000000 0.000000
# 5 0.000000 0.000000 0.000000 0.000000 0.056184 0.000000
# 6 0.000000 0.000000 0.000000 0.000000 0.000000 0.043875
#
#
# Mechanical properties :
#
#
# Convention : Reuss Voigt Hill
#
# Bulk Modulus (GPa) = 56.72868 57.72312 57.22590
# Shear Modulus (GPa) = 24.18525 25.26921 24.72723
#
# Velocity S-wave (km/s) = 3.50468 3.58236 3.54373
# Velocity P-wave (km/s) = 6.72216 6.81370 6.76808
#
# Compressibility (1/GPa) = 0.01762777
#
# Stress axis : x y z
#
# Youngs Moduli (GPa) = 80.02136 73.71995 73.90567
#
# Poissons Ratio (x) = 0.19666 0.37307
# Poissons Ratio (y) = 0.21347 0.24142
# Poissons Ratio (z) = 0.40394 0.24082
#
# Static dielectric constant tensor:
#      x y z
#    x 3.532260 0.000000 0.000000 
#    y 0.000000 3.870480 0.000000 
#    z 0.000000 0.000000 3.522260 
# 
# 
# High freq. dielectric constant tensor:
#      x y z
#    x 1.764000 0.000000 0.000000 
#    y 0.000000 1.769130 0.000000 
#    z 0.000000 0.000000 1.757990 
# 
# From -- ./inp_files/17300.got.cif
#   From: 2010.03.12/outbox.cif.g09.slc.cpg/sg49_9_cif.got.tgz:17300.got - 2010.04.14 03:58:27.
