data_PCOD8204510
_publ_section_title
;
Structure prediction by ZEFSAII (Michael W. Deem and Ramdas Pophale) SiO2 
 PCOD8204510
Probable space group: P C C M
;
_chemical_formula_sum "Si O2"
_cell_formula_units_Z 26
_cell_length_a 5.342633
_cell_length_b 14.031176
_cell_length_c 14.449396
_cell_angle_alpha 90.000000
_cell_angle_beta 90.000000
_cell_angle_gamma 90.000000
_cell_volume 1083.176198
_symmetry_space_group_name_H-M "P C C M"
_symmetry_group_IT_number 49
_symmetry_cell_setting 'orthorhombic'
loop_
_space_group_symop_operation_xyz
x,y,z
-x,-y,z
x,-y,1/2-z
-x,y,1/2-z
-x,-y,-z
x,y,-z
-x,y,1/2+z
x,-y,1/2+z
loop_
_atom_site_type_symbol
_atom_site_label
_atom_site_fract_x
_atom_site_fract_y
_atom_site_fract_z
Si Si1 0.020823 0.391766 0.889901
Si Si2 0.332977 0.908119 0.398222
Si Si3 0.000000 0.000000 0.750000
Si Si4 0.522095 0.705046 0.607694
O O1 0.781034 0.334375 0.848981
O O2 0.000000 0.500000 0.855434
O O3 0.277046 0.346598 0.849267
O O4 0.023938 0.385136 0.000000
O O5 0.202366 0.890253 0.500000
O O6 0.504701 0.817852 0.372264
O O7 0.143875 0.926031 0.315247
O O8 0.500000 0.000000 0.407180
O O9 0.528222 0.681583 0.500000
#
# Coordination Sequence:
#
# PCOD8204510 Si02
#       4
#     8   8   2   8
#     4   9  16  28  49  81 121 160 203 255 308 371
#     4  10  23  41  62  90 131 173 214 273 336 398
#     4  12  24  40  64  92 126 168 232 276 326 402
#     4   9  18  31  52  82 120 165 205 251 316 377
#
# _framework density 24.003481000000001
#
# number of rings (size 3 to 8) (size 9 to 14) (size 15 to 20)
#    0.000    2.462    0.000    1.846    4.308    3.692 
#    0.000    0.000    0.000    0.000    0.000    1.077 
#    0.000    0.000    0.000    0.000    0.000    3.077 
#
# Total GULP energy -322218.180887 kJ/mol
# GULP energy per Si atom -12393.006957 kJ/mol
# Density = 2.394885 g / cm^3
# Si number density = 24.003481 Si / 1000 Ang^3
#
#
#
# Elastic Constant Matrix: (Units=GPa)
#
#
# Indices 1 2 3 4 5 6 
#
# 1 148.7944 48.1856 -6.1530 0.0000 0.0000 0.0000
# 2 48.1856 163.1227 -17.5908 0.0000 0.0000 0.0000
# 3 -6.1530 -17.5908 78.2070 0.0000 0.0000 0.0000
# 4 0.0000 0.0000 0.0000 -359.8266 0.0000 0.0000
# 5 0.0000 0.0000 0.0000 0.0000 -14.5938 0.0000
# 6 0.0000 0.0000 0.0000 0.0000 0.0000 45.5911
#
#
#
# Elastic Compliance Matrix: (Units=1/GPa)
#
#
# Indices 1 2 3 4 5 6 
#
# 1 0.007432 -0.002185 0.000093 0.000000 0.000000 0.000000
# 2 -0.002185 0.006925 0.001386 0.000000 0.000000 0.000000
# 3 0.000093 0.001386 0.013106 0.000000 0.000000 0.000000
# 4 0.000000 0.000000 0.000000 -0.002779 0.000000 0.000000
# 5 0.000000 0.000000 0.000000 0.000000 -0.068522 0.000000
# 6 0.000000 0.000000 0.000000 0.000000 0.000000 0.021934
#
#
# Mechanical properties :
#
#
# Convention : Reuss Voigt Hill
#
# Bulk Modulus (GPa) = 38.38731 48.77864 43.58297
# Shear Modulus (GPa) = -423.45956 -41.38705 -232.42331
#
# Velocity S-wave (km/s) = -13.29657 -4.15687 -9.85085
# Velocity P-wave (km/s) = 14.82244 1.63517 10.54463
#
# Compressibility (1/GPa) = 0.02605028
#
# Stress axis : x y z
#
# Youngs Moduli (GPa) = 134.54860 144.39715 76.30327
#
# Poissons Ratio (x) = 0.31557 -0.00711
# Poissons Ratio (y) = 0.29404 -0.10574
# Poissons Ratio (z) = -0.01254 -0.20010
#
# Static dielectric constant tensor:
#      x y z
#    x 4.537200 0.000000 0.000000 
#    y 0.000000 4.282870 0.000000 
#    z 0.000000 0.000000 4.543560 
# 
# 
# High freq. dielectric constant tensor:
#      x y z
#    x 1.945420 0.000000 0.000000 
#    y 0.000000 1.961290 0.000000 
#    z 0.000000 0.000000 1.935750 
# 
# From -- ./inp_files/15038.got.cif
#   From: 2010.03.12/outbox.cif.g09.slc.cpg/sg49_8_cif.got.tgz:15038.got - 2010.04.14 03:58:27.
