data_PCOD8204018
_publ_section_title
;
Structure prediction by ZEFSAII (Michael W. Deem and Ramdas Pophale) SiO2 
 PCOD8204018
Probable space group: P C C M
;
_chemical_formula_sum "Si O2"
_cell_formula_units_Z 48
_cell_length_a 15.069614
_cell_length_b 8.877837
_cell_length_c 17.485483
_cell_angle_alpha 90.000000
_cell_angle_beta 90.000000
_cell_angle_gamma 90.000000
_cell_volume 2339.305428
_symmetry_space_group_name_H-M "P C C M"
_symmetry_group_IT_number 49
_symmetry_cell_setting 'orthorhombic'
loop_
_space_group_symop_operation_xyz
x,y,z
-x,-y,z
x,-y,1/2-z
-x,y,1/2-z
-x,-y,-z
x,y,-z
-x,y,1/2+z
x,-y,1/2+z
loop_
_atom_site_type_symbol
_atom_site_label
_atom_site_fract_x
_atom_site_fract_y
_atom_site_fract_z
Si Si1 0.490578 0.325397 0.412677
Si Si2 0.187809 0.412719 0.830972
Si Si3 0.331801 0.145274 0.348922
Si Si4 0.973270 0.672274 0.084499
Si Si5 0.832905 0.288830 0.087963
Si Si6 0.350345 0.812062 0.673489
O O1 0.500000 0.500000 0.391062
O O2 0.518981 0.300038 0.500000
O O3 0.392661 0.254280 0.401028
O O4 0.556105 0.241443 0.356746
O O5 0.180257 0.500000 0.750000
O O6 0.101641 0.307094 0.849542
O O7 0.189838 0.535889 0.897927
O O8 0.274159 0.310717 0.840140
O O9 0.229312 0.190625 0.357449
O O10 0.362824 0.164571 0.262774
O O11 0.333445 0.968996 0.370850
O O12 0.000000 0.500000 0.076768
O O13 0.065126 0.755576 0.108537
O O14 0.941210 0.729377 0.000000
O O15 0.812113 0.253103 0.000000
#
# Coordination Sequence:
#
# PCOD8204018 Si02
#       6
#     8   8   8   8   8   8
#     4  11  25  42  65  93 120 155 204 256 306 366
#     4  11  20  36  60  92 119 161 204 260 306 369
#     4  11  23  43  60  86 125 165 202 251 308 370
#     4   8  17  33  55  87 122 154 199 256 307 355
#     4  10  20  37  62  89 122 162 207 257 306 367
#     4  11  25  40  60  89 124 160 205 252 309 366
#
# _framework density 20.518910000000002
#
# number of rings (size 3 to 8) (size 9 to 14) (size 15 to 20)
#    0.000    1.667    1.667    4.000    0.000    9.667 
#    0.000    0.833    0.000    4.000    0.000    0.000 
#    0.000    0.000    0.000    0.000    0.000    0.000 
#
# Total GULP energy -594951.110289 kJ/mol
# GULP energy per Si atom -12394.814798 kJ/mol
# Density = 2.047221 g / cm^3
# Si number density = 20.518910 Si / 1000 Ang^3
#
#
#
# Elastic Constant Matrix: (Units=GPa)
#
#
# Indices 1 2 3 4 5 6 
#
# 1 111.6579 29.5071 19.1078 0.0000 0.0000 0.0000
# 2 29.5071 76.8930 14.6140 0.0000 0.0000 0.0000
# 3 19.1078 14.6140 42.3417 0.0000 0.0000 0.0000
# 4 0.0000 0.0000 0.0000 77.7570 0.0000 0.0000
# 5 0.0000 0.0000 0.0000 0.0000 35.7308 0.0000
# 6 0.0000 0.0000 0.0000 0.0000 0.0000 11.9205
#
#
#
# Elastic Compliance Matrix: (Units=1/GPa)
#
#
# Indices 1 2 3 4 5 6 
#
# 1 0.010446 -0.003331 -0.003564 0.000000 0.000000 0.000000
# 2 -0.003331 0.014980 -0.003667 0.000000 0.000000 0.000000
# 3 -0.003564 -0.003667 0.026492 0.000000 0.000000 0.000000
# 4 0.000000 0.000000 0.000000 0.012861 0.000000 0.000000
# 5 0.000000 0.000000 0.000000 0.000000 0.027987 0.000000
# 6 0.000000 0.000000 0.000000 0.000000 0.000000 0.083889
#
#
# Mechanical properties :
#
#
# Convention : Reuss Voigt Hill
#
# Bulk Modulus (GPa) = 32.47512 39.70558 36.09035
# Shear Modulus (GPa) = 24.03331 36.25925 30.14628
#
# Velocity S-wave (km/s) = 3.42610 4.20827 3.83717
# Velocity P-wave (km/s) = 5.61357 6.55785 6.10400
#
# Compressibility (1/GPa) = 0.03079280
#
# Stress axis : x y z
#
# Youngs Moduli (GPa) = 95.72848 66.75408 37.74786
#
# Poissons Ratio (x) = 0.22237 0.13455
# Poissons Ratio (y) = 0.31889 0.13842
# Poissons Ratio (z) = 0.34121 0.24479
#
# Static dielectric constant tensor:
#      x y z
#    x 4.049290 0.000000 0.000000 
#    y 0.000000 3.716460 0.000000 
#    z 0.000000 0.000000 3.682910 
# 
# 
# High freq. dielectric constant tensor:
#      x y z
#    x 1.814520 0.000000 0.000000 
#    y 0.000000 1.779550 0.000000 
#    z 0.000000 0.000000 1.801580 
# 
# From -- ./inp_files/17693.got.cif
#   From: 2010.03.12/outbox.cif.g09.slc.cpg/sg49_9_cif.got.tgz:17693.got - 2010.04.14 03:58:27.
