data_PCOD8204023
_publ_section_title
;
Structure prediction by ZEFSAII (Michael W. Deem and Ramdas Pophale) SiO2 
 PCOD8204023
Probable space group: P C C M
;
_chemical_formula_sum "Si O2"
_cell_formula_units_Z 26
_cell_length_a 9.545164
_cell_length_b 16.022711
_cell_length_c 8.664220
_cell_angle_alpha 90.000000
_cell_angle_beta 90.000000
_cell_angle_gamma 90.000000
_cell_volume 1325.100645
_symmetry_space_group_name_H-M "P C C M"
_symmetry_group_IT_number 49
_symmetry_cell_setting 'orthorhombic'
loop_
_space_group_symop_operation_xyz
x,y,z
-x,-y,z
x,-y,1/2-z
-x,y,1/2-z
-x,-y,-z
x,y,-z
-x,y,1/2+z
x,-y,1/2+z
loop_
_atom_site_type_symbol
_atom_site_label
_atom_site_fract_x
_atom_site_fract_y
_atom_site_fract_z
Si Si1 0.000000 0.000000 0.750000
Si Si2 0.346209 0.730764 0.317636
Si Si3 0.151592 0.411594 0.316340
Si Si4 0.135106 0.839621 0.829757
O O1 0.895373 0.060616 0.846061
O O2 0.500000 0.733016 0.250000
O O3 0.350481 0.718731 0.500000
O O4 0.262446 0.656700 0.236952
O O5 0.270640 0.818504 0.273769
O O6 0.203193 0.500000 0.250000
O O7 0.144314 0.416253 0.500000
O O8 0.000000 0.388288 0.250000
O O9 0.000000 0.795788 0.750000
O O10 0.156255 0.801511 0.000000
#
# Coordination Sequence:
#
# PCOD8204023 Si02
#       4
#     2   8   8   8
#     4   8  22  36  68  92 124 148 204 240 306 348
#     4  12  25  41  60  87 123 163 203 248 302 361
#     4  11  22  40  64  92 123 159 205 253 299 350
#     4  10  20  37  62  91 120 154 197 246 296 353
#
# _framework density 19.621151999999999
#
# number of rings (size 3 to 8) (size 9 to 14) (size 15 to 20)
#    0.923    0.308    0.000    8.769    0.000    0.615 
#    0.000    3.846    0.000    3.692    0.000    0.000 
#    0.000    0.000    0.000    0.000    0.000    0.000 
#
# Total GULP energy -322208.844160 kJ/mol
# GULP energy per Si atom -12392.647852 kJ/mol
# Density = 1.957649 g / cm^3
# Si number density = 19.621152 Si / 1000 Ang^3
#
#
#
# Elastic Constant Matrix: (Units=GPa)
#
#
# Indices 1 2 3 4 5 6 
#
# 1 153.7594 61.5573 64.3696 0.0000 0.0000 0.0000
# 2 61.5573 113.3544 36.3677 0.0000 0.0000 0.0000
# 3 64.3696 36.3677 195.9049 0.0000 0.0000 0.0000
# 4 0.0000 0.0000 0.0000 25.9338 0.0000 0.0000
# 5 0.0000 0.0000 0.0000 0.0000 35.3956 0.0000
# 6 0.0000 0.0000 0.0000 0.0000 0.0000 13.2265
#
#
#
# Elastic Compliance Matrix: (Units=1/GPa)
#
#
# Indices 1 2 3 4 5 6 
#
# 1 0.009130 -0.004249 -0.002211 0.000000 0.000000 0.000000
# 2 -0.004249 0.011358 -0.000712 0.000000 0.000000 0.000000
# 3 -0.002211 -0.000712 0.005963 0.000000 0.000000 0.000000
# 4 0.000000 0.000000 0.000000 0.038560 0.000000 0.000000
# 5 0.000000 0.000000 0.000000 0.000000 0.028252 0.000000
# 6 0.000000 0.000000 0.000000 0.000000 0.000000 0.075606
#
#
# Mechanical properties :
#
#
# Convention : Reuss Voigt Hill
#
# Bulk Modulus (GPa) = 82.60010 87.51199 85.05605
# Shear Modulus (GPa) = 26.70232 34.95945 30.83088
#
# Velocity S-wave (km/s) = 3.69303 4.22562 3.96827
# Velocity P-wave (km/s) = 7.77004 8.27681 8.02742
#
# Compressibility (1/GPa) = 0.01210652
#
# Stress axis : x y z
#
# Youngs Moduli (GPa) = 109.52411 88.04530 167.69128
#
# Poissons Ratio (x) = 0.37409 0.37081
# Poissons Ratio (y) = 0.46535 0.11946
# Poissons Ratio (z) = 0.24219 0.06272
#
# Static dielectric constant tensor:
#      x y z
#    x 3.502110 0.000000 0.000000 
#    y 0.000000 3.597390 0.000000 
#    z 0.000000 0.000000 3.760990 
# 
# 
# High freq. dielectric constant tensor:
#      x y z
#    x 1.751640 0.000000 0.000000 
#    y 0.000000 1.765190 0.000000 
#    z 0.000000 0.000000 1.785110 
# 
# From -- ./inp_files/1253.got.cif
#   From: 2010.03.12/outbox.cif.g09.slc.cpg/sg49_1_cif.got.tgz:1253.got - 2010.04.14 03:58:27.
