data_PCOD8204527
_publ_section_title
;
Structure prediction by ZEFSAII (Michael W. Deem and Ramdas Pophale) SiO2 
 PCOD8204527
Probable space group: P C C M
;
_chemical_formula_sum "Si O2"
_cell_formula_units_Z 32
_cell_length_a 5.072916
_cell_length_b 13.371400
_cell_length_c 23.123533
_cell_angle_alpha 90.000000
_cell_angle_beta 90.000000
_cell_angle_gamma 90.000000
_cell_volume 1568.515236
_symmetry_space_group_name_H-M "P C C M"
_symmetry_group_IT_number 49
_symmetry_cell_setting 'orthorhombic'
loop_
_space_group_symop_operation_xyz
x,y,z
-x,-y,z
x,-y,1/2-z
-x,y,1/2-z
-x,-y,-z
x,y,-z
-x,y,1/2+z
x,-y,1/2+z
loop_
_atom_site_type_symbol
_atom_site_label
_atom_site_fract_x
_atom_site_fract_y
_atom_site_fract_z
Si Si1 0.249175 0.430499 0.500000
Si Si2 0.199527 0.259227 0.411218
Si Si3 0.262429 0.191345 0.287592
Si Si4 0.700326 0.135012 0.563222
Si Si5 0.500000 0.000000 0.154486
O O1 0.500000 0.500000 0.500000
O O2 0.248798 0.365223 0.441378
O O3 0.000000 0.500000 0.500000
O O4 0.221739 0.266020 0.341605
O O5 0.407717 0.180129 0.435310
O O6 0.907187 0.223208 0.426780
O O7 0.500000 0.237741 0.250000
O O8 0.345118 0.079645 0.306787
O O9 0.000000 0.183072 0.250000
O O10 0.743772 0.085917 0.500000
O O11 0.721558 0.051877 0.613399
#
# Coordination Sequence:
#
# PCOD8204527 Si02
#       5
#     4   8   8   8   4
#     4  12  24  42  72  97 120 143 188 262 324 392
#     4  11  23  41  62  92 122 159 201 248 321 372
#     4  11  24  41  60  84 126 172 213 253 281 340
#     4  11  20  37  57  85 132 168 201 253 300 366
#     4  10  24  34  58  90 122 175 227 254 284 330
#
# _framework density 20.40146
#
# number of rings (size 3 to 8) (size 9 to 14) (size 15 to 20)
#    0.000    1.000    2.500    5.250    0.000   12.000 
#    0.000    6.250    0.000    4.500    0.000    0.000 
#    0.000    0.000    0.000    0.000    0.000    0.000 
#
# Total GULP energy -396819.233660 kJ/mol
# GULP energy per Si atom -12400.601052 kJ/mol
# Density = 2.035503 g / cm^3
# Si number density = 20.401460 Si / 1000 Ang^3
#
#
#
# Elastic Constant Matrix: (Units=GPa)
#
#
# Indices 1 2 3 4 5 6 
#
# 1 120.5787 34.2262 59.8468 0.0000 0.0000 0.0000
# 2 34.2262 93.5325 54.7498 0.0000 0.0000 0.0000
# 3 59.8468 54.7498 189.1817 0.0000 0.0000 0.0000
# 4 0.0000 0.0000 0.0000 12.3991 0.0000 0.0000
# 5 0.0000 0.0000 0.0000 0.0000 27.9219 0.0000
# 6 0.0000 0.0000 0.0000 0.0000 0.0000 35.1898
#
#
#
# Elastic Compliance Matrix: (Units=1/GPa)
#
#
# Indices 1 2 3 4 5 6 
#
# 1 0.010207 -0.002221 -0.002586 0.000000 0.000000 0.000000
# 2 -0.002221 0.013355 -0.003162 0.000000 0.000000 0.000000
# 3 -0.002586 -0.003162 0.007019 0.000000 0.000000 0.000000
# 4 0.000000 0.000000 0.000000 0.080651 0.000000 0.000000
# 5 0.000000 0.000000 0.000000 0.000000 0.035814 0.000000
# 6 0.000000 0.000000 0.000000 0.000000 0.000000 0.028417
#
#
# Mechanical properties :
#
#
# Convention : Reuss Voigt Hill
#
# Bulk Modulus (GPa) = 68.29544 77.88206 73.08875
# Shear Modulus (GPa) = 25.47314 32.06686 28.77000
#
# Velocity S-wave (km/s) = 3.53738 3.96888 3.75933
# Velocity P-wave (km/s) = 7.08749 7.69807 7.39908
#
# Compressibility (1/GPa) = 0.01464227
#
# Stress axis : x y z
#
# Youngs Moduli (GPa) = 97.96734 74.87582 142.46491
#
# Poissons Ratio (x) = 0.16632 0.36845
# Poissons Ratio (y) = 0.21762 0.45053
# Poissons Ratio (z) = 0.25337 0.23679
#
# Static dielectric constant tensor:
#      x y z
#    x 3.855500 0.000000 0.000000 
#    y 0.000000 3.418380 0.000000 
#    z 0.000000 0.000000 4.601440 
# 
# 
# High freq. dielectric constant tensor:
#      x y z
#    x 1.818670 0.000000 0.000000 
#    y 0.000000 1.747580 0.000000 
#    z 0.000000 0.000000 1.822470 
# 
# From -- ./inp_files/21591.got.cif
#   From: 2010.03.12/outbox.cif.g09.slc.cpg/sg49_11_cif.got.tgz:21591.got - 2010.04.14 03:58:27.
