data_PCOD8204912
_publ_section_title
;
Structure prediction by ZEFSAII (Michael W. Deem and Ramdas Pophale) SiO2 
 PCOD8204912
Probable space group: P B A N
;
_chemical_formula_sum "Si O2"
_cell_formula_units_Z 48
_cell_length_a 9.034041
_cell_length_b 24.495327
_cell_length_c 10.302473
_cell_angle_alpha 90.000000
_cell_angle_beta 90.000000
_cell_angle_gamma 90.000000
_cell_volume 2279.852675
_symmetry_space_group_name_H-M "P B A N"
_symmetry_group_IT_number 50
_space_group.IT_coordinate_system_code '2'
_symmetry_cell_setting 'orthorhombic'
loop_
_space_group_symop_operation_xyz
x,y,z
1/2-x,1/2-y,z
x,1/2-y,-z
1/2-x,y,-z
-x,-y,-z
1/2+x,1/2+y,-z
-x,1/2+y,z
1/2+x,-y,z
loop_
_atom_site_type_symbol
_atom_site_label
_atom_site_fract_x
_atom_site_fract_y
_atom_site_fract_z
Si Si1 0.309094 0.309721 0.137093
Si Si2 0.914628 0.328090 0.554710
Si Si3 0.092304 0.541400 0.664424
Si Si4 0.583949 0.253749 0.214324
Si Si5 0.085449 0.940977 0.642106
Si Si6 0.933017 0.650011 0.704098
O O1 0.250000 0.250000 0.167346
O O2 0.487702 0.300327 0.138595
O O3 0.241278 0.347590 0.253416
O O4 0.250000 0.332853 0.000000
O O5 0.750000 0.340107 0.500000
O O6 0.914981 0.271000 0.632298
O O7 0.952037 0.376826 0.657942
O O8 0.040071 0.330299 0.443690
O O9 0.259667 0.546449 0.713770
O O10 0.090681 0.546971 0.510370
O O11 0.033769 0.481581 0.707297
O O12 0.991801 0.588933 0.727734
O O13 0.750000 0.250000 0.157871
O O14 0.518827 0.192800 0.202285
#
# Coordination Sequence:
#
# PCOD8204912 Si02
#       6
#     8   8   8   8   8   8
#     4   9  21  40  54  74 109 142 189 241 274 325
#     4  11  18  31  51  81 118 145 180 219 269 350
#     4   9  16  28  45  70 101 142 183 213 266 325
#     4  11  20  32  58  81 109 148 181 221 284 339
#     4   9  16  28  44  68 107 146 175 219 261 328
#     4  10  19  33  53  77 111 149 175 225 285 328
#
# _framework density 21.053989999999999
#
# number of rings (size 3 to 8) (size 9 to 14) (size 15 to 20)
#    0.000    2.167    5.000    0.500    0.000    2.000 
#    0.000   12.500    0.000    0.000    0.000    4.667 
#    0.000    0.000    0.000    0.000    0.000    0.000 
#
# Total GULP energy -594629.525264 kJ/mol
# GULP energy per Si atom -12388.115110 kJ/mol
# Density = 2.100607 g / cm^3
# Si number density = 21.053990 Si / 1000 Ang^3
#
#
#
# Elastic Constant Matrix: (Units=GPa)
#
#
# Indices 1 2 3 4 5 6 
#
# 1 136.5318 29.1014 32.8146 0.0000 0.0000 0.0000
# 2 29.1014 89.1840 6.6792 0.0000 0.0000 0.0000
# 3 32.8146 6.6792 54.2238 0.0000 0.0000 0.0000
# 4 0.0000 0.0000 0.0000 8.3531 0.0000 0.0000
# 5 0.0000 0.0000 0.0000 0.0000 13.3412 0.0000
# 6 0.0000 0.0000 0.0000 0.0000 0.0000 29.8382
#
#
#
# Elastic Compliance Matrix: (Units=1/GPa)
#
#
# Indices 1 2 3 4 5 6 
#
# 1 0.009127 -0.002588 -0.005204 0.000000 0.000000 0.000000
# 2 -0.002588 0.012051 0.000082 0.000000 0.000000 0.000000
# 3 -0.005204 0.000082 0.021582 0.000000 0.000000 0.000000
# 4 0.000000 0.000000 0.000000 0.119716 0.000000 0.000000
# 5 0.000000 0.000000 0.000000 0.000000 0.074956 0.000000
# 6 0.000000 0.000000 0.000000 0.000000 0.000000 0.033514
#
#
# Mechanical properties :
#
#
# Convention : Reuss Voigt Hill
#
# Bulk Modulus (GPa) = 36.57926 46.34779 41.46353
# Shear Modulus (GPa) = 16.92160 24.39612 20.65886
#
# Velocity S-wave (km/s) = 2.83808 3.40772 3.13586
# Velocity P-wave (km/s) = 5.30578 6.12740 5.73133
#
# Compressibility (1/GPa) = 0.02733789
#
# Stress axis : x y z
#
# Youngs Moduli (GPa) = 109.56657 82.97894 46.33584
#
# Poissons Ratio (x) = 0.21478 0.24115
# Poissons Ratio (y) = 0.28360 -0.00380
# Poissons Ratio (z) = 0.57024 -0.00680
#
# Static dielectric constant tensor:
#      x y z
#    x 4.176340 0.000000 0.000000 
#    y 0.000000 4.030720 0.000000 
#    z 0.000000 0.000000 3.155270 
# 
# 
# High freq. dielectric constant tensor:
#      x y z
#    x 1.830060 0.000000 0.000000 
#    y 0.000000 1.821380 0.000000 
#    z 0.000000 0.000000 1.749470 
# 
# From -- ./inp_files/19289.got.cif
#   From: 2010.03.12/outbox.cif.g09.slc.cpg/sg50_10_cif.got.tgz:19289.got - 2010.04.16 13:23:21.
