data_PCOD8204362
_publ_section_title
;
Structure prediction by ZEFSAII (Michael W. Deem and Ramdas Pophale) SiO2 
 PCOD8204362
Probable space group: P C C M
;
_chemical_formula_sum "Si O2"
_cell_formula_units_Z 48
_cell_length_a 28.718664
_cell_length_b 9.067854
_cell_length_c 9.245654
_cell_angle_alpha 90.000000
_cell_angle_beta 90.000000
_cell_angle_gamma 90.000000
_cell_volume 2407.722262
_symmetry_space_group_name_H-M "P C C M"
_symmetry_group_IT_number 49
_symmetry_cell_setting 'orthorhombic'
loop_
_space_group_symop_operation_xyz
x,y,z
-x,-y,z
x,-y,1/2-z
-x,y,1/2-z
-x,-y,-z
x,y,-z
-x,y,1/2+z
x,-y,1/2+z
loop_
_atom_site_type_symbol
_atom_site_label
_atom_site_fract_x
_atom_site_fract_y
_atom_site_fract_z
Si Si1 0.289994 0.641791 0.334190
Si Si2 0.065838 0.351928 0.500000
Si Si3 0.101411 0.825234 0.264863
Si Si4 0.044004 0.685226 0.500000
Si Si5 0.814040 0.359616 0.336174
Si Si6 0.374842 0.154117 0.828505
Si Si7 0.546611 0.658622 0.677593
O O1 0.309239 0.500000 0.250000
O O2 0.289915 0.594932 0.500000
O O3 0.237778 0.684937 0.281094
O O4 0.323658 0.778815 0.307527
O O5 0.092442 0.272580 0.373184
O O6 0.072083 0.529213 0.500000
O O7 0.010908 0.328008 0.500000
O O8 0.058519 0.781497 0.364627
O O9 0.152220 0.781236 0.323701
O O10 0.100555 0.000000 0.250000
O O11 0.833886 0.500000 0.250000
O O12 0.811497 0.412135 0.500000
O O13 0.410876 0.246031 0.733652
O O14 0.373230 0.000000 0.750000
O O15 0.388281 0.145118 0.000000
O O16 0.553388 0.500000 0.750000
O O17 0.500000 0.728140 0.750000
O O18 0.544220 0.652247 0.500000
#
# Coordination Sequence:
#
# PCOD8204362 Si02
#       7
#     8   4   8   4   8   8   8
#     4   9  20  38  62  89 117 154 201 251 297 355
#     4  11  25  41  67  87 117 155 209 239 302 355
#     4  12  25  39  61  91 125 156 194 247 309 362
#     4  11  23  45  63  89 115 161 199 253 286 367
#     4  10  21  40  64  89 119 158 203 247 297 362
#     4  11  23  39  59  87 124 165 206 254 314 371
#     4  11  22  39  63  91 123 161 209 260 313 371
#
# _framework density 19.935853000000002
#
# number of rings (size 3 to 8) (size 9 to 14) (size 15 to 20)
#    0.000    1.333    0.833    5.500    1.167    7.000 
#    0.000    1.667    0.000    0.000    0.000    0.000 
#    0.000    0.000    0.000    0.000    0.000    0.000 
#
# Total GULP energy -594904.274137 kJ/mol
# GULP energy per Si atom -12393.839045 kJ/mol
# Density = 1.989048 g / cm^3
# Si number density = 19.935853 Si / 1000 Ang^3
#
#
#
# Elastic Constant Matrix: (Units=GPa)
#
#
# Indices 1 2 3 4 5 6 
#
# 1 88.5621 42.9357 31.9035 0.0000 0.0000 0.0000
# 2 42.9357 104.5027 35.8438 0.0000 0.0000 0.0000
# 3 31.9035 35.8438 122.2375 0.0000 0.0000 0.0000
# 4 0.0000 0.0000 0.0000 35.5904 0.0000 0.0000
# 5 0.0000 0.0000 0.0000 0.0000 31.1693 0.0000
# 6 0.0000 0.0000 0.0000 0.0000 0.0000 8.8453
#
#
#
# Elastic Compliance Matrix: (Units=1/GPa)
#
#
# Indices 1 2 3 4 5 6 
#
# 1 0.014655 -0.005236 -0.002290 0.000000 0.000000 0.000000
# 2 -0.005236 0.012510 -0.002302 0.000000 0.000000 0.000000
# 3 -0.002290 -0.002302 0.009453 0.000000 0.000000 0.000000
# 4 0.000000 0.000000 0.000000 0.028097 0.000000 0.000000
# 5 0.000000 0.000000 0.000000 0.000000 0.032083 0.000000
# 6 0.000000 0.000000 0.000000 0.000000 0.000000 0.113054
#
#
# Mechanical properties :
#
#
# Convention : Reuss Voigt Hill
#
# Bulk Modulus (GPa) = 58.94930 59.62983 59.28957
# Shear Modulus (GPa) = 21.26210 28.76229 25.01219
#
# Velocity S-wave (km/s) = 3.26931 3.80246 3.54592
# Velocity P-wave (km/s) = 6.62457 7.01813 6.82418
#
# Compressibility (1/GPa) = 0.01696373
#
# Stress axis : x y z
#
# Youngs Moduli (GPa) = 68.23802 79.93784 105.78313
#
# Poissons Ratio (x) = 0.41853 0.24219
# Poissons Ratio (y) = 0.35727 0.24349
# Poissons Ratio (z) = 0.15623 0.18400
#
# Static dielectric constant tensor:
#      x y z
#    x 3.994020 0.000000 0.000000 
#    y 0.000000 3.626920 0.000000 
#    z 0.000000 0.000000 3.856360 
# 
# 
# High freq. dielectric constant tensor:
#      x y z
#    x 1.794170 0.000000 0.000000 
#    y 0.000000 1.768680 0.000000 
#    z 0.000000 0.000000 1.793720 
# 
# From -- ./inp_files/6899.got.cif
#   From: 2010.03.12/outbox.cif.g09.slc.cpg/sg49_4_cif.got.tgz:6899.got - 2010.04.14 03:58:27.
