data_PCOD8204467
_publ_section_title
;
Structure prediction by ZEFSAII (Michael W. Deem and Ramdas Pophale) SiO2 
 PCOD8204467
Probable space group: P C C M
;
_chemical_formula_sum "Si O2"
_cell_formula_units_Z 56
_cell_length_a 15.237973
_cell_length_b 10.391869
_cell_length_c 15.857653
_cell_angle_alpha 90.000000
_cell_angle_beta 90.000000
_cell_angle_gamma 90.000000
_cell_volume 2511.075515
_symmetry_space_group_name_H-M "P C C M"
_symmetry_group_IT_number 49
_symmetry_cell_setting 'orthorhombic'
loop_
_space_group_symop_operation_xyz
x,y,z
-x,-y,z
x,-y,1/2-z
-x,y,1/2-z
-x,-y,-z
x,y,-z
-x,y,1/2+z
x,-y,1/2+z
loop_
_atom_site_type_symbol
_atom_site_label
_atom_site_fract_x
_atom_site_fract_y
_atom_site_fract_z
Si Si1 0.714147 0.643154 0.287571
Si Si2 0.543825 0.636291 0.599537
Si Si3 0.130345 0.404929 0.599182
Si Si4 0.944629 0.338285 0.405547
Si Si5 0.269558 0.900625 0.683369
Si Si6 0.905441 0.050496 0.404056
Si Si7 0.556104 0.115068 0.403056
O O1 0.715086 0.500000 0.250000
O O2 0.626134 0.662352 0.340612
O O3 0.790890 0.663002 0.354601
O O4 0.733575 0.754458 0.218520
O O5 0.500000 0.500000 0.620752
O O6 0.569619 0.643213 0.500000
O O7 0.474390 0.744577 0.628840
O O8 0.148823 0.391286 0.500000
O O9 0.119867 0.553188 0.632454
O O10 0.042560 0.331746 0.632785
O O11 0.961531 0.387642 0.500000
O O12 0.898652 0.203319 0.402680
O O13 0.179292 0.975216 0.653679
O O14 0.339551 0.899507 0.608019
O O15 0.309476 0.000000 0.750000
O O16 0.895049 0.996752 0.500000
O O17 0.000000 0.000000 0.367920
O O18 0.533624 0.109657 0.500000
O O19 0.500000 0.000000 0.358708
#
# Coordination Sequence:
#
# PCOD8204467 Si02
#       7
#     8   8   8   8   8   8   8
#     4  12  25  39  59  93 131 169 209 251 325 392
#     4  10  22  41  66  95 125 165 216 269 316 368
#     4   9  18  36  61  86 117 158 209 262 303 366
#     4   8  16  34  61  88 111 149 208 262 307 348
#     4  12  27  42  60  95 133 166 202 257 327 382
#     4  10  22  42  66  88 117 165 215 258 310 376
#     4  10  22  44  70  91 118 164 217 260 305 375
#
# _framework density 22.301200999999999
#
# number of rings (size 3 to 8) (size 9 to 14) (size 15 to 20)
#    0.000    1.857    0.000    4.286    2.000    3.714 
#    0.000   11.429    0.000    0.000    0.000    0.000 
#    0.000    0.000    0.000    0.000    0.000    0.000 
#
# Total GULP energy -693775.434062 kJ/mol
# GULP energy per Si atom -12388.847037 kJ/mol
# Density = 2.225044 g / cm^3
# Si number density = 22.301201 Si / 1000 Ang^3
#
#
#
# Elastic Constant Matrix: (Units=GPa)
#
#
# Indices 1 2 3 4 5 6 
#
# 1 143.8770 23.2456 34.5457 0.0000 0.0000 0.0000
# 2 23.2456 106.4271 14.3519 0.0000 0.0000 0.0000
# 3 34.5457 14.3519 41.2184 0.0000 0.0000 0.0000
# 4 0.0000 0.0000 0.0000 21.0442 0.0000 0.0000
# 5 0.0000 0.0000 0.0000 0.0000 6.0434 0.0000
# 6 0.0000 0.0000 0.0000 0.0000 0.0000 35.2057
#
#
#
# Elastic Compliance Matrix: (Units=1/GPa)
#
#
# Indices 1 2 3 4 5 6 
#
# 1 0.008796 -0.000973 -0.007034 0.000000 0.000000 0.000000
# 2 -0.000973 0.009967 -0.002655 0.000000 0.000000 0.000000
# 3 -0.007034 -0.002655 0.031080 0.000000 0.000000 0.000000
# 4 0.000000 0.000000 0.000000 0.047519 0.000000 0.000000
# 5 0.000000 0.000000 0.000000 0.000000 0.165469 0.000000
# 6 0.000000 0.000000 0.000000 0.000000 0.000000 0.028404
#
#
# Mechanical properties :
#
#
# Convention : Reuss Voigt Hill
#
# Bulk Modulus (GPa) = 35.06239 48.42321 41.74280
# Shear Modulus (GPa) = 15.52479 27.08395 21.30437
#
# Velocity S-wave (km/s) = 2.64131 3.48869 3.09415
# Velocity P-wave (km/s) = 5.00583 6.16347 5.61457
#
# Compressibility (1/GPa) = 0.02852059
#
# Stress axis : x y z
#
# Youngs Moduli (GPa) = 113.68331 100.33507 32.17460
#
# Poissons Ratio (x) = 0.09760 0.22630
# Poissons Ratio (y) = 0.11059 0.08542
# Poissons Ratio (z) = 0.79961 0.26639
#
# Static dielectric constant tensor:
#      x y z
#    x 3.967960 0.000000 0.000000 
#    y 0.000000 4.136530 0.000000 
#    z 0.000000 0.000000 3.828870 
# 
# 
# High freq. dielectric constant tensor:
#      x y z
#    x 1.884270 0.000000 0.000000 
#    y 0.000000 1.888050 0.000000 
#    z 0.000000 0.000000 1.859680 
# 
# From -- ./inp_files/13568.got.cif
#   From: 2010.03.12/outbox.cif.g09.slc.cpg/sg49_7_cif.got.tgz:13568.got - 2010.04.14 03:58:27.
