data_PCOD8204636
_publ_section_title
;
Structure prediction by ZEFSAII (Michael W. Deem and Ramdas Pophale) SiO2 
 PCOD8204636
Probable space group: P C C M
;
_chemical_formula_sum "Si O2"
_cell_formula_units_Z 34
_cell_length_a 7.605830
_cell_length_b 21.520876
_cell_length_c 8.699230
_cell_angle_alpha 90.000000
_cell_angle_beta 90.000000
_cell_angle_gamma 90.000000
_cell_volume 1423.925845
_symmetry_space_group_name_H-M "P C C M"
_symmetry_group_IT_number 49
_symmetry_cell_setting 'orthorhombic'
loop_
_space_group_symop_operation_xyz
x,y,z
-x,-y,z
x,-y,1/2-z
-x,y,1/2-z
-x,-y,-z
x,y,-z
-x,y,1/2+z
x,-y,1/2+z
loop_
_atom_site_type_symbol
_atom_site_label
_atom_site_fract_x
_atom_site_fract_y
_atom_site_fract_z
Si Si1 0.692561 0.563373 0.817488
Si Si2 0.829015 0.918047 0.672496
Si Si3 0.177100 0.312221 0.318266
Si Si4 0.500000 0.000000 0.750000
Si Si5 0.674264 0.804616 0.818892
O O1 0.777031 0.500000 0.750000
O O2 0.500000 0.572541 0.750000
O O3 0.805318 0.621564 0.764159
O O4 0.684822 0.559469 0.000000
O O5 0.879571 0.900393 0.500000
O O6 0.643731 0.956884 0.661537
O O7 0.819790 0.854847 0.772909
O O8 0.000000 0.952805 0.750000
O O9 0.175501 0.321557 0.500000
O O10 0.319867 0.261938 0.267911
O O11 0.000000 0.282607 0.250000
O O12 0.500000 0.835976 0.750000
O O13 0.670385 0.793521 0.000000
#
# Coordination Sequence:
#
# PCOD8204636 Si02
#       5
#     8   8   8   2   8
#     4  11  22  40  64  94 129 172 223 278 339 408
#     4  12  27  48  75 109 148 192 241 297 357 424
#     4  12  25  43  65  95 133 176 225 282 344 411
#     4  12  28  48  80 108 150 192 250 288 358 418
#     4  12  25  45  72 103 138 181 231 288 350 417
#
# _framework density 23.877647
#
# number of rings (size 3 to 8) (size 9 to 14) (size 15 to 20)
#    0.000    0.235    1.176    9.882    0.000    4.235 
#    0.000    2.353    0.000    0.000    0.000    0.000 
#    0.000    0.000    0.000    0.000    0.000    0.000 
#
# Total GULP energy -421265.234215 kJ/mol
# GULP energy per Si atom -12390.153948 kJ/mol
# Density = 2.382330 g / cm^3
# Si number density = 23.877647 Si / 1000 Ang^3
#
#
#
# Elastic Constant Matrix: (Units=GPa)
#
#
# Indices 1 2 3 4 5 6 
#
# 1 119.2740 23.0491 41.7878 0.0000 0.0000 0.0000
# 2 23.0491 137.6962 56.9137 0.0000 0.0000 0.0000
# 3 41.7878 56.9137 238.3932 0.0000 0.0000 0.0000
# 4 0.0000 0.0000 0.0000 -197.0011 0.0000 0.0000
# 5 0.0000 0.0000 0.0000 0.0000 36.4557 0.0000
# 6 0.0000 0.0000 0.0000 0.0000 0.0000 -32.9959
#
#
#
# Elastic Compliance Matrix: (Units=1/GPa)
#
#
# Indices 1 2 3 4 5 6 
#
# 1 0.009044 -0.000953 -0.001358 0.000000 0.000000 0.000000
# 2 -0.000953 0.008158 -0.001781 0.000000 0.000000 0.000000
# 3 -0.001358 -0.001781 0.004858 0.000000 0.000000 0.000000
# 4 0.000000 0.000000 0.000000 -0.005076 0.000000 0.000000
# 5 0.000000 0.000000 0.000000 0.000000 0.027431 0.000000
# 6 0.000000 0.000000 0.000000 0.000000 0.000000 -0.030307
#
#
# Mechanical properties :
#
#
# Convention : Reuss Voigt Hill
#
# Bulk Modulus (GPa) = 72.05975 82.09606 77.07791
# Shear Modulus (GPa) = 185.76886 -13.80075 85.98405
#
# Velocity S-wave (km/s) = 8.83002 -2.40673 6.00737
# Velocity P-wave (km/s) = 11.58461 5.17045 8.97042
#
# Compressibility (1/GPa) = 0.01387737
#
# Stress axis : x y z
#
# Youngs Moduli (GPa) = 110.57206 122.58212 205.85156
#
# Poissons Ratio (x) = 0.11677 0.27952
# Poissons Ratio (y) = 0.10533 0.36654
# Poissons Ratio (z) = 0.15014 0.21827
#
# Static dielectric constant tensor:
#      x y z
#    x 4.341500 0.000000 0.000000 
#    y 0.000000 4.386230 0.000000 
#    z 0.000000 0.000000 4.245400 
# 
# 
# High freq. dielectric constant tensor:
#      x y z
#    x 1.956330 0.000000 0.000000 
#    y 0.000000 1.966360 0.000000 
#    z 0.000000 0.000000 1.950610 
# 
# From -- ./inp_files/1512.got.cif
#   From: 2010.03.12/outbox.cif.g09.slc.cpg/sg49_1_cif.got.tgz:1512.got - 2010.04.14 03:58:27.
