data_PCOD8204525
_publ_section_title
;
Structure prediction by ZEFSAII (Michael W. Deem and Ramdas Pophale) SiO2 
 PCOD8204525
Probable space group: P C C M
;
_chemical_formula_sum "Si O2"
_cell_formula_units_Z 64
_cell_length_a 9.290779
_cell_length_b 14.220431
_cell_length_c 21.102161
_cell_angle_alpha 90.000000
_cell_angle_beta 90.000000
_cell_angle_gamma 90.000000
_cell_volume 2787.993913
_symmetry_space_group_name_H-M "P C C M"
_symmetry_group_IT_number 49
_symmetry_cell_setting 'orthorhombic'
loop_
_space_group_symop_operation_xyz
x,y,z
-x,-y,z
x,-y,1/2-z
-x,y,1/2-z
-x,-y,-z
x,y,-z
-x,y,1/2+z
x,-y,1/2+z
loop_
_atom_site_type_symbol
_atom_site_label
_atom_site_fract_x
_atom_site_fract_y
_atom_site_fract_z
Si Si1 0.345206 0.154926 0.726878
Si Si2 0.476730 0.740967 0.886315
Si Si3 0.233112 0.616161 0.929095
Si Si4 0.620055 0.931767 0.927728
Si Si5 0.021692 0.786202 0.073677
Si Si6 0.835726 0.477851 0.681992
Si Si7 0.849809 0.960920 0.355681
Si Si8 0.229156 0.726670 0.340459
O O1 0.500000 0.116376 0.750000
O O2 0.371992 0.229865 0.671088
O O3 0.248771 0.068603 0.703313
O O4 0.253352 0.202598 0.782314
O O5 0.383205 0.674318 0.931287
O O6 0.554038 0.828599 0.920855
O O7 0.616359 0.685202 0.862640
O O8 0.103366 0.687795 0.914669
O O9 0.239975 0.532991 0.876698
O O10 0.213782 0.572671 0.000000
O O11 0.500000 0.000000 0.898152
O O12 0.769243 0.953520 0.891742
O O13 0.650384 0.956104 0.000000
O O14 0.121621 0.871075 0.098966
O O15 0.865763 0.781806 0.107254
O O16 0.992336 0.804682 0.000000
O O17 0.760047 0.500000 0.750000
O O18 0.850667 0.366636 0.678115
O O19 0.000000 0.500000 0.682629
O O20 0.000000 0.000000 0.329494
#
# Coordination Sequence:
#
# PCOD8204525 Si02
#       8
#     8   8   8   8   8   8   8   8
#     4  10  23  46  70  94 139 189 235 293 353 419
#     4  11  22  44  68  99 137 188 235 283 350 417
#     4  11  23  43  73 104 142 185 227 291 360 420
#     4  11  22  41  70 100 138 191 244 288 345 426
#     4  11  24  44  69 101 143 182 226 291 359 418
#     4  11  24  43  71 105 136 178 234 287 352 428
#     4  12  25  43  70 105 139 184 241 300 352 412
#     4  11  25  44  71 100 134 184 231 285 349 432
#
# _framework density 22.955575
#
# number of rings (size 3 to 8) (size 9 to 14) (size 15 to 20)
#    0.000    1.000    3.750    2.250    0.000    6.750 
#    0.000   13.125    0.000    0.000    0.000    0.000 
#    0.000    0.000    0.000    0.000    0.000    0.000 
#
# Total GULP energy -793314.774086 kJ/mol
# GULP energy per Si atom -12395.543345 kJ/mol
# Density = 2.290333 g / cm^3
# Si number density = 22.955575 Si / 1000 Ang^3
#
#
#
# Elastic Constant Matrix: (Units=GPa)
#
#
# Indices 1 2 3 4 5 6 
#
# 1 130.2350 41.6054 62.1841 0.0000 0.0000 0.0000
# 2 41.6054 88.3670 60.1572 0.0000 0.0000 0.0000
# 3 62.1841 60.1572 143.8989 0.0000 0.0000 0.0000
# 4 0.0000 0.0000 0.0000 44.7222 0.0000 0.0000
# 5 0.0000 0.0000 0.0000 0.0000 21.3998 0.0000
# 6 0.0000 0.0000 0.0000 0.0000 0.0000 43.3987
#
#
#
# Elastic Compliance Matrix: (Units=1/GPa)
#
#
# Indices 1 2 3 4 5 6 
#
# 1 0.010049 -0.002481 -0.003305 0.000000 0.000000 0.000000
# 2 -0.002481 0.016431 -0.005797 0.000000 0.000000 0.000000
# 3 -0.003305 -0.005797 0.010801 0.000000 0.000000 0.000000
# 4 0.000000 0.000000 0.000000 0.022360 0.000000 0.000000
# 5 0.000000 0.000000 0.000000 0.000000 0.046729 0.000000
# 6 0.000000 0.000000 0.000000 0.000000 0.000000 0.023042
#
#
# Mechanical properties :
#
#
# Convention : Reuss Voigt Hill
#
# Bulk Modulus (GPa) = 70.84917 76.71050 73.77983
# Shear Modulus (GPa) = 31.78947 35.14107 33.46527
#
# Velocity S-wave (km/s) = 3.72536 3.91683 3.82229
# Velocity P-wave (km/s) = 7.03100 7.34472 7.18957
#
# Compressibility (1/GPa) = 0.01411449
#
# Stress axis : x y z
#
# Youngs Moduli (GPa) = 99.50880 60.86096 92.58371
#
# Poissons Ratio (x) = 0.15101 0.30603
# Poissons Ratio (y) = 0.24691 0.53668
# Poissons Ratio (z) = 0.32892 0.35279
#
# Static dielectric constant tensor:
#      x y z
#    x 4.175180 0.000000 0.000000 
#    y 0.000000 4.468590 0.000000 
#    z 0.000000 0.000000 2.994980 
# 
# 
# High freq. dielectric constant tensor:
#      x y z
#    x 1.918340 0.000000 0.000000 
#    y 0.000000 1.900540 0.000000 
#    z 0.000000 0.000000 1.909440 
# 
# From -- ./inp_files/22571.got.cif
#   From: 2010.03.12/outbox.cif.g09.slc.cpg/sg49_12_cif.got.tgz:22571.got - 2010.04.14 03:58:27.
