data_PCOD8204168
_publ_section_title
;
Structure prediction by ZEFSAII (Michael W. Deem and Ramdas Pophale) SiO2 
 PCOD8204168
Probable space group: P C C M
;
_chemical_formula_sum "Si O2"
_cell_formula_units_Z 64
_cell_length_a 24.713871
_cell_length_b 15.168809
_cell_length_c 8.669629
_cell_angle_alpha 90.000000
_cell_angle_beta 90.000000
_cell_angle_gamma 90.000000
_cell_volume 3250.070423
_symmetry_space_group_name_H-M "P C C M"
_symmetry_group_IT_number 49
_symmetry_cell_setting 'orthorhombic'
loop_
_space_group_symop_operation_xyz
x,y,z
-x,-y,z
x,-y,1/2-z
-x,y,1/2-z
-x,-y,-z
x,y,-z
-x,y,1/2+z
x,-y,1/2+z
loop_
_atom_site_type_symbol
_atom_site_label
_atom_site_fract_x
_atom_site_fract_y
_atom_site_fract_z
Si Si1 0.943474 0.726320 0.682743
Si Si2 0.859354 0.407681 0.680158
Si Si3 0.328278 0.090869 0.819308
Si Si4 0.643117 0.274693 0.182855
Si Si5 0.238586 0.327561 0.673096
Si Si6 0.217522 0.873167 0.825330
Si Si7 0.901818 0.911584 0.318160
Si Si8 0.441001 0.592019 0.317139
O O1 0.944785 0.721363 0.500000
O O2 0.894749 0.667275 0.741554
O O3 0.933667 0.826088 0.743349
O O4 0.000000 0.691389 0.750000
O O5 0.878127 0.500000 0.750000
O O6 0.869765 0.407977 0.500000
O O7 0.795823 0.390909 0.715698
O O8 0.357441 0.173256 0.737147
O O9 0.263901 0.092554 0.788554
O O10 0.352523 0.000000 0.750000
O O11 0.339887 0.095412 0.000000
O O12 0.699456 0.321532 0.230084
O O13 0.596046 0.326643 0.268338
O O14 0.634701 0.276586 0.000000
O O15 0.235880 0.366450 0.500000
O O16 0.212087 0.231677 0.677153
O O17 0.160677 0.909643 0.763673
O O18 0.231432 0.904172 0.000000
O O19 0.904716 0.913801 0.500000
O O20 0.929080 0.000000 0.250000
O O21 0.417720 0.500000 0.250000
O O22 0.500000 0.610567 0.250000
O O23 0.444004 0.584883 0.500000
#
# Coordination Sequence:
#
# PCOD8204168 Si02
#       8
#     8   8   8   8   8   8   8   8
#     4  11  24  45  65  85 113 146 187 239 291 344
#     4  12  25  41  64  90 116 150 189 233 288 351
#     4  11  21  33  51  81 119 161 204 249 295 350
#     4  10  21  38  60  88 123 163 204 251 302 353
#     4   9  18  36  59  84 120 156 190 235 289 344
#     4   9  17  33  54  79 112 153 190 234 288 339
#     4  10  21  36  57  83 115 149 186 232 282 341
#     4  11  22  39  63  91 123 161 206 255 305 357
#
# _framework density 19.691880000000001
#
# number of rings (size 3 to 8) (size 9 to 14) (size 15 to 20)
#    0.000    1.625    1.250    5.625    0.000    6.000 
#    0.000    2.500    0.000    0.375    0.000    2.625 
#    0.000    0.000    0.000    0.000    0.000    0.000 
#
# Total GULP energy -793745.850700 kJ/mol
# GULP energy per Si atom -12402.278917 kJ/mol
# Density = 1.964706 g / cm^3
# Si number density = 19.691880 Si / 1000 Ang^3
#
#
#
# Elastic Constant Matrix: (Units=GPa)
#
#
# Indices 1 2 3 4 5 6 
#
# 1 77.0051 49.1467 38.7494 0.0000 0.0000 0.0000
# 2 49.1467 113.2062 49.2000 0.0000 0.0000 0.0000
# 3 38.7494 49.2000 113.9748 0.0000 0.0000 0.0000
# 4 0.0000 0.0000 0.0000 34.2522 0.0000 0.0000
# 5 0.0000 0.0000 0.0000 0.0000 9.2018 0.0000
# 6 0.0000 0.0000 0.0000 0.0000 0.0000 10.6159
#
#
#
# Elastic Compliance Matrix: (Units=1/GPa)
#
#
# Indices 1 2 3 4 5 6 
#
# 1 0.019083 -0.006727 -0.003584 0.000000 0.000000 0.000000
# 2 -0.006727 0.013245 -0.003430 0.000000 0.000000 0.000000
# 3 -0.003584 -0.003430 0.011473 0.000000 0.000000 0.000000
# 4 0.000000 0.000000 0.000000 0.029195 0.000000 0.000000
# 5 0.000000 0.000000 0.000000 0.000000 0.108675 0.000000
# 6 0.000000 0.000000 0.000000 0.000000 0.000000 0.094198
#
#
# Mechanical properties :
#
#
# Convention : Reuss Voigt Hill
#
# Bulk Modulus (GPa) = 61.28129 64.26426 62.77278
# Shear Modulus (GPa) = 16.19219 21.95330 19.07274
#
# Velocity S-wave (km/s) = 2.87065 3.34254 3.11554
# Velocity P-wave (km/s) = 6.49424 6.89946 6.69991
#
# Compressibility (1/GPa) = 0.01631819
#
# Stress axis : x y z
#
# Youngs Moduli (GPa) = 52.40279 75.50195 87.15986
#
# Poissons Ratio (x) = 0.50790 0.31238
# Poissons Ratio (y) = 0.35251 0.29899
# Poissons Ratio (z) = 0.18781 0.25900
#
# Static dielectric constant tensor:
#      x y z
#    x 3.433900 0.000000 0.000000 
#    y 0.000000 3.771530 0.000000 
#    z 0.000000 0.000000 3.531540 
# 
# 
# High freq. dielectric constant tensor:
#      x y z
#    x 1.746880 0.000000 0.000000 
#    y 0.000000 1.775590 0.000000 
#    z 0.000000 0.000000 1.770730 
# 
# From -- ./inp_files/6500.got.cif
#   From: 2010.03.12/outbox.cif.g09.slc.cpg/sg49_4_cif.got.tgz:6500.got - 2010.04.14 03:58:27.
