data_PCOD8204474
_publ_section_title
;
Structure prediction by ZEFSAII (Michael W. Deem and Ramdas Pophale) SiO2 
 PCOD8204474
Probable space group: P C C M
;
_chemical_formula_sum "Si O2"
_cell_formula_units_Z 56
_cell_length_a 22.414958
_cell_length_b 8.422793
_cell_length_c 13.912883
_cell_angle_alpha 90.000000
_cell_angle_beta 90.000000
_cell_angle_gamma 90.000000
_cell_volume 2626.704330
_symmetry_space_group_name_H-M "P C C M"
_symmetry_group_IT_number 49
_symmetry_cell_setting 'orthorhombic'
loop_
_space_group_symop_operation_xyz
x,y,z
-x,-y,z
x,-y,1/2-z
-x,y,1/2-z
-x,-y,-z
x,y,-z
-x,y,1/2+z
x,-y,1/2+z
loop_
_atom_site_type_symbol
_atom_site_label
_atom_site_fract_x
_atom_site_fract_y
_atom_site_fract_z
Si Si1 0.048330 0.712870 0.610758
Si Si2 0.148577 0.177126 0.230813
Si Si3 0.740019 0.204141 0.388962
Si Si4 0.327587 0.889360 0.894291
Si Si5 0.364672 0.323195 0.222026
Si Si6 0.443204 0.901763 0.607925
Si Si7 0.083959 0.356121 0.388827
O O1 0.052975 0.756806 0.500000
O O2 0.087361 0.837125 0.670044
O O3 0.078129 0.542290 0.632239
O O4 0.979332 0.721030 0.642054
O O5 0.201992 0.257655 0.170982
O O6 0.137212 0.278830 0.327468
O O7 0.169400 0.000000 0.250000
O O8 0.755047 0.230756 0.500000
O O9 0.684558 0.318758 0.362454
O O10 0.722697 0.019951 0.368397
O O11 0.331270 0.755982 0.813168
O O12 0.390601 0.973844 0.897698
O O13 0.314242 0.814500 0.000000
O O14 0.383809 0.500000 0.250000
O O15 0.424896 0.235728 0.184171
O O16 0.455375 0.831739 0.500000
O O17 0.500000 0.000000 0.646465
O O18 0.098094 0.323757 0.500000
#
# Coordination Sequence:
#
# PCOD8204474 Si02
#       7
#     8   8   8   8   8   8   8
#     4   9  19  38  59  78 106 150 195 236 289 359
#     4  12  23  34  54  85 115 145 188 246 305 354
#     4  10  22  42  61  78 109 156 203 243 289 356
#     4   9  19  37  59  81 113 159 201 233 278 345
#     4  11  22  36  60  94 125 152 190 250 307 344
#     4   9  18  36  62  87 117 164 210 238 271 334
#     4   9  20  38  58  79 109 150 194 236 289 362
#
# _framework density 21.319493000000001
#
# number of rings (size 3 to 8) (size 9 to 14) (size 15 to 20)
#    0.000    2.143    0.000    6.000    0.000    6.857 
#    0.000    3.571    0.000    2.571    0.000    0.000 
#    0.000    0.000    0.000    0.000    0.000    0.000 
#
# Total GULP energy -694243.683327 kJ/mol
# GULP energy per Si atom -12397.208631 kJ/mol
# Density = 2.127097 g / cm^3
# Si number density = 21.319493 Si / 1000 Ang^3
#
#
#
# Elastic Constant Matrix: (Units=GPa)
#
#
# Indices 1 2 3 4 5 6 
#
# 1 110.2142 30.1663 56.5478 0.0000 0.0000 0.0000
# 2 30.1663 66.8922 45.9695 0.0000 0.0000 0.0000
# 3 56.5478 45.9695 118.2817 0.0000 0.0000 0.0000
# 4 0.0000 0.0000 0.0000 27.5078 0.0000 0.0000
# 5 0.0000 0.0000 0.0000 0.0000 36.0923 0.0000
# 6 0.0000 0.0000 0.0000 0.0000 0.0000 20.2642
#
#
#
# Elastic Compliance Matrix: (Units=1/GPa)
#
#
# Indices 1 2 3 4 5 6 
#
# 1 0.012223 -0.002042 -0.005050 0.000000 0.000000 0.000000
# 2 -0.002042 0.020738 -0.007084 0.000000 0.000000 0.000000
# 3 -0.005050 -0.007084 0.013622 0.000000 0.000000 0.000000
# 4 0.000000 0.000000 0.000000 0.036353 0.000000 0.000000
# 5 0.000000 0.000000 0.000000 0.000000 0.027707 0.000000
# 6 0.000000 0.000000 0.000000 0.000000 0.000000 0.049348
#
#
# Mechanical properties :
#
#
# Convention : Reuss Voigt Hill
#
# Bulk Modulus (GPa) = 54.84834 62.30614 58.57724
# Shear Modulus (GPa) = 25.71755 27.61983 26.66869
#
# Velocity S-wave (km/s) = 3.47694 3.60324 3.54065
# Velocity P-wave (km/s) = 6.47314 6.82638 6.65211
#
# Compressibility (1/GPa) = 0.01823209
#
# Stress axis : x y z
#
# Youngs Moduli (GPa) = 81.81207 48.22009 73.41193
#
# Poissons Ratio (x) = 0.09845 0.37074
# Poissons Ratio (y) = 0.16704 0.52003
# Poissons Ratio (z) = 0.41316 0.34158
#
# Static dielectric constant tensor:
#      x y z
#    x 3.801780 0.000000 0.000000 
#    y 0.000000 3.463840 0.000000 
#    z 0.000000 0.000000 4.240700 
# 
# 
# High freq. dielectric constant tensor:
#      x y z
#    x 1.832660 0.000000 0.000000 
#    y 0.000000 1.792400 0.000000 
#    z 0.000000 0.000000 1.858470 
# 
# From -- ./inp_files/14403.got.cif
#   From: 2010.03.12/outbox.cif.g09.slc.cpg/sg49_8_cif.got.tgz:14403.got - 2010.04.14 03:58:27.
