data_PCOD8204606
_publ_section_title
;
Structure prediction by ZEFSAII (Michael W. Deem and Ramdas Pophale) SiO2 
 PCOD8204606
Probable space group: P C C M
;
_chemical_formula_sum "Si O2"
_cell_formula_units_Z 64
_cell_length_a 11.349406
_cell_length_b 14.498234
_cell_length_c 17.091992
_cell_angle_alpha 90.000000
_cell_angle_beta 90.000000
_cell_angle_gamma 90.000000
_cell_volume 2812.424794
_symmetry_space_group_name_H-M "P C C M"
_symmetry_group_IT_number 49
_symmetry_cell_setting 'orthorhombic'
loop_
_space_group_symop_operation_xyz
x,y,z
-x,-y,z
x,-y,1/2-z
-x,y,1/2-z
-x,-y,-z
x,y,-z
-x,y,1/2+z
x,-y,1/2+z
loop_
_atom_site_type_symbol
_atom_site_label
_atom_site_fract_x
_atom_site_fract_y
_atom_site_fract_z
Si Si1 0.412259 0.853833 0.318374
Si Si2 0.371369 0.519801 0.341352
Si Si3 0.063151 0.916128 0.164220
Si Si4 0.757640 0.304316 0.687090
Si Si5 0.705325 0.979073 0.409884
Si Si6 0.789896 0.642753 0.644057
Si Si7 0.602272 0.216804 0.914101
Si Si8 0.011946 0.270750 0.089625
O O1 0.500000 0.891630 0.250000
O O2 0.300867 0.793768 0.287881
O O3 0.365918 0.935084 0.373925
O O4 0.482901 0.773342 0.364866
O O5 0.500000 0.500000 0.379332
O O6 0.379849 0.500000 0.250000
O O7 0.332798 0.625362 0.355445
O O8 0.275806 0.451252 0.381022
O O9 0.000000 0.908566 0.250000
O O10 0.050683 0.820670 0.120593
O O11 0.198789 0.948453 0.156043
O O12 0.000000 0.000000 0.118389
O O13 0.811107 0.353733 0.763132
O O14 0.865090 0.286811 0.630158
O O15 0.750312 0.001554 0.500000
O O16 0.618613 0.893344 0.416463
O O17 0.711925 0.731025 0.622750
O O18 0.917619 0.646830 0.602571
O O19 0.582197 0.257561 0.000000
O O20 0.041285 0.258297 0.000000
#
# Coordination Sequence:
#
# PCOD8204606 Si02
#       8
#     8   8   8   8   8   8   8   8
#     4  12  25  42  67  99 138 185 235 293 354 418
#     4   9  20  39  72 105 137 172 226 295 359 429
#     4  11  24  41  67  96 132 180 242 300 346 417
#     4  11  24  43  68 102 137 176 232 291 353 421
#     4  11  25  44  64  95 140 186 234 288 359 428
#     4  11  21  43  72 100 133 178 234 290 354 427
#     4  11  23  41  66  95 134 179 231 284 349 423
#     4  12  26  44  66  96 141 187 233 289 359 430
#
# _framework density 22.756164999999999
#
# number of rings (size 3 to 8) (size 9 to 14) (size 15 to 20)
#    0.000    1.000    2.500    4.125    1.750    8.500 
#    0.000    3.750    0.000    2.625    0.000    0.000 
#    0.000    0.000    0.000    0.000    0.000    0.000 
#
# Total GULP energy -793070.506428 kJ/mol
# GULP energy per Si atom -12391.726663 kJ/mol
# Density = 2.270437 g / cm^3
# Si number density = 22.756165 Si / 1000 Ang^3
#
#
#
# Elastic Constant Matrix: (Units=GPa)
#
#
# Indices 1 2 3 4 5 6 
#
# 1 111.8676 22.6311 43.2459 0.0000 0.0000 0.0000
# 2 22.6311 94.5709 14.1577 0.0000 0.0000 0.0000
# 3 43.2459 14.1577 116.2224 0.0000 0.0000 0.0000
# 4 0.0000 0.0000 0.0000 -15.1694 0.0000 0.0000
# 5 0.0000 0.0000 0.0000 0.0000 21.6740 0.0000
# 6 0.0000 0.0000 0.0000 0.0000 0.0000 38.0747
#
#
#
# Elastic Compliance Matrix: (Units=1/GPa)
#
#
# Indices 1 2 3 4 5 6 
#
# 1 0.010807 -0.002021 -0.003775 0.000000 0.000000 0.000000
# 2 -0.002021 0.011148 -0.000606 0.000000 0.000000 0.000000
# 3 -0.003775 -0.000606 0.010083 0.000000 0.000000 0.000000
# 4 0.000000 0.000000 0.000000 -0.065922 0.000000 0.000000
# 5 0.000000 0.000000 0.000000 0.000000 0.046138 0.000000
# 6 0.000000 0.000000 0.000000 0.000000 0.000000 0.026264
#
#
# Mechanical properties :
#
#
# Convention : Reuss Voigt Hill
#
# Bulk Modulus (GPa) = 51.99119 53.63670 52.81395
# Shear Modulus (GPa) = 86.60289 25.09095 55.84692
#
# Velocity S-wave (km/s) = 6.17572 3.32414 4.95931
# Velocity P-wave (km/s) = 8.58774 6.19311 7.48679
#
# Compressibility (1/GPa) = 0.01923403
#
# Stress axis : x y z
#
# Youngs Moduli (GPa) = 92.52892 89.69852 99.17924
#
# Poissons Ratio (x) = 0.18129 0.37442
# Poissons Ratio (y) = 0.18701 0.06010
# Poissons Ratio (z) = 0.34932 0.05436
#
# Static dielectric constant tensor:
#      x y z
#    x 4.203670 0.000000 0.000000 
#    y 0.000000 4.186620 0.000000 
#    z 0.000000 0.000000 4.104690 
# 
# 
# High freq. dielectric constant tensor:
#      x y z
#    x 1.907050 0.000000 0.000000 
#    y 0.000000 1.896240 0.000000 
#    z 0.000000 0.000000 1.882520 
# 
# From -- ./inp_files/17271.got.cif
#   From: 2010.03.12/outbox.cif.g09.slc.cpg/sg49_9_cif.got.tgz:17271.got - 2010.04.14 03:58:27.
