data_PCOD8204614
_publ_section_title
;
Structure prediction by ZEFSAII (Michael W. Deem and Ramdas Pophale) SiO2 
 PCOD8204614
Probable space group: P C C M
;
_chemical_formula_sum "Si O2"
_cell_formula_units_Z 48
_cell_length_a 14.526032
_cell_length_b 17.792752
_cell_length_c 9.193510
_cell_angle_alpha 90.000000
_cell_angle_beta 90.000000
_cell_angle_gamma 90.000000
_cell_volume 2376.136988
_symmetry_space_group_name_H-M "P C C M"
_symmetry_group_IT_number 49
_symmetry_cell_setting 'orthorhombic'
loop_
_space_group_symop_operation_xyz
x,y,z
-x,-y,z
x,-y,1/2-z
-x,y,1/2-z
-x,-y,-z
x,y,-z
-x,y,1/2+z
x,-y,1/2+z
loop_
_atom_site_type_symbol
_atom_site_label
_atom_site_fract_x
_atom_site_fract_y
_atom_site_fract_z
Si Si1 0.911167 0.890088 0.000000
Si Si2 0.769879 0.681388 0.332618
Si Si3 0.098834 0.426170 0.176567
Si Si4 0.585806 0.855749 0.840327
Si Si5 0.786883 0.852056 0.741135
Si Si6 0.412092 0.677244 0.665120
Si Si7 0.886393 0.067185 0.000000
O O1 0.861677 0.848281 0.131749
O O2 0.021828 0.879745 0.000000
O O3 0.902518 0.979281 0.000000
O O4 0.776313 0.653344 0.500000
O O5 0.847404 0.647319 0.228279
O O6 0.779818 0.771031 0.333371
O O7 0.674865 0.653644 0.261587
O O8 0.146302 0.500000 0.250000
O O9 0.000000 0.419041 0.250000
O O10 0.094100 0.431246 0.000000
O O11 0.500000 0.888995 0.750000
O O12 0.685600 0.881111 0.784111
O O13 0.581081 0.766330 0.843639
O O14 0.573457 0.889438 0.000000
O O15 0.824797 0.915636 0.637487
O O16 0.500000 0.643694 0.750000
O O17 0.405512 0.644643 0.500000
#
# Coordination Sequence:
#
# PCOD8204614 Si02
#       7
#     4   8   8   8   8   8   4
#     4  11  24  42  63  81 118 152 209 244 307 367
#     4  11  22  37  58  90 124 156 202 249 297 348
#     4  11  23  41  63  87 121 162 203 243 298 360
#     4   9  18  31  54  83 114 150 187 237 297 359
#     4  11  22  39  61  89 121 151 200 255 302 352
#     4   9  17  30  52  83 119 156 194 240 296 351
#     4  11  24  42  61  87 108 164 199 250 301 371
#
# _framework density 20.200856000000002
#
# number of rings (size 3 to 8) (size 9 to 14) (size 15 to 20)
#    0.000    1.667    1.667    4.000    3.500    4.667 
#    0.000    0.000    0.000    3.500    0.000    3.500 
#    0.000    0.000    0.000    0.000    0.000    0.000 
#
# Total GULP energy -594929.717905 kJ/mol
# GULP energy per Si atom -12394.369123 kJ/mol
# Density = 2.015488 g / cm^3
# Si number density = 20.200856 Si / 1000 Ang^3
#
#
#
# Elastic Constant Matrix: (Units=GPa)
#
#
# Indices 1 2 3 4 5 6 
#
# 1 138.6100 20.4257 66.9612 0.0000 0.0000 0.0000
# 2 20.4257 28.0385 16.8642 0.0000 0.0000 0.0000
# 3 66.9612 16.8642 185.0688 0.0000 0.0000 0.0000
# 4 0.0000 0.0000 0.0000 21.1329 0.0000 0.0000
# 5 0.0000 0.0000 0.0000 0.0000 39.0606 0.0000
# 6 0.0000 0.0000 0.0000 0.0000 0.0000 8.0550
#
#
#
# Elastic Compliance Matrix: (Units=1/GPa)
#
#
# Indices 1 2 3 4 5 6 
#
# 1 0.009377 -0.005068 -0.002931 0.000000 0.000000 0.000000
# 2 -0.005068 0.040473 -0.001854 0.000000 0.000000 0.000000
# 3 -0.002931 -0.001854 0.006633 0.000000 0.000000 0.000000
# 4 0.000000 0.000000 0.000000 0.047319 0.000000 0.000000
# 5 0.000000 0.000000 0.000000 0.000000 0.025601 0.000000
# 6 0.000000 0.000000 0.000000 0.000000 0.000000 0.124147
#
#
# Mechanical properties :
#
#
# Convention : Reuss Voigt Hill
#
# Bulk Modulus (GPa) = 27.19184 62.24661 44.71923
# Shear Modulus (GPa) = 17.51215 30.14744 23.82979
#
# Velocity S-wave (km/s) = 2.94751 3.86733 3.43832
# Velocity P-wave (km/s) = 5.00737 7.12898 6.16020
#
# Compressibility (1/GPa) = 0.03677573
#
# Stress axis : x y z
#
# Youngs Moduli (GPa) = 106.64036 24.70798 150.76449
#
# Poissons Ratio (x) = 0.12523 0.44190
# Poissons Ratio (y) = 0.54049 0.27955
# Poissons Ratio (z) = 0.31257 0.04581
#
# Static dielectric constant tensor:
#      x y z
#    x 3.952100 0.000000 0.000000 
#    y 0.000000 3.341200 0.000000 
#    z 0.000000 0.000000 3.820260 
# 
# 
# High freq. dielectric constant tensor:
#      x y z
#    x 1.801680 0.000000 0.000000 
#    y 0.000000 1.745180 0.000000 
#    z 0.000000 0.000000 1.809720 
# 
# From -- ./inp_files/3755.got.cif
#   From: 2010.03.12/outbox.cif.g09.slc.cpg/sg49_2_cif.got.tgz:3755.got - 2010.04.14 03:58:27.
