data_PCOD8204929
_publ_section_title
;
Structure prediction by ZEFSAII (Michael W. Deem and Ramdas Pophale) SiO2 
 PCOD8204929
Probable space group: P B A N
;
_chemical_formula_sum "Si O2"
_cell_formula_units_Z 48
_cell_length_a 5.115519
_cell_length_b 16.325977
_cell_length_c 27.891749
_cell_angle_alpha 90.000000
_cell_angle_beta 90.000000
_cell_angle_gamma 90.000000
_cell_volume 2329.403001
_symmetry_space_group_name_H-M "P B A N"
_symmetry_group_IT_number 50
_space_group.IT_coordinate_system_code '2'
_symmetry_cell_setting 'orthorhombic'
loop_
_space_group_symop_operation_xyz
x,y,z
1/2-x,1/2-y,z
x,1/2-y,-z
1/2-x,y,-z
-x,-y,-z
1/2+x,1/2+y,-z
-x,1/2+y,z
1/2+x,-y,z
loop_
_atom_site_type_symbol
_atom_site_label
_atom_site_fract_x
_atom_site_fract_y
_atom_site_fract_z
Si Si1 0.652529 0.947603 0.046573
Si Si2 0.500307 0.214935 0.553573
Si Si3 0.061124 0.946424 0.700813
Si Si4 0.094552 0.547721 0.409669
Si Si5 0.502579 0.694930 0.773117
Si Si6 0.155651 0.443983 0.846538
O O1 0.676794 0.908031 0.099175
O O2 0.352416 0.975072 0.042476
O O3 0.750000 0.892300 0.000000
O O4 0.750000 0.250000 0.581932
O O5 0.498863 0.250000 0.500000
O O6 0.507561 0.117449 0.553353
O O7 0.250000 0.250000 0.581603
O O8 0.060499 0.923026 0.644863
O O9 0.081349 0.860836 0.728254
O O10 0.299697 0.005247 0.715281
O O11 0.395623 0.526497 0.420087
O O12 0.750000 0.750000 0.758084
O O13 0.601420 0.636620 0.815819
O O14 0.250000 0.750000 0.787964
O O15 0.430061 0.489035 0.835755
#
# Coordination Sequence:
#
# PCOD8204929 Si02
#       6
#     8   8   8   8   8   8
#     4   8  14  25  45  74  99 124 171 225 262 300
#     4  10  21  38  56  81 114 147 179 219 274 329
#     4  10  21  39  60  81 108 144 186 229 274 327
#     4  10  21  38  61  85 109 142 186 231 271 321
#     4  12  24  36  53  82 114 145 182 226 275 331
#     4  10  19  34  55  76 105 145 181 221 272 323
#
# _framework density 20.606135999999999
#
# number of rings (size 3 to 8) (size 9 to 14) (size 15 to 20)
#    0.000    2.000    0.000    4.000    0.000    1.333 
#    0.000   10.000    0.000    0.500    0.000    1.167 
#    0.000    0.000    0.000    0.000    0.000    0.000 
#
# Total GULP energy -594649.823589 kJ/mol
# GULP energy per Si atom -12388.537991 kJ/mol
# Density = 2.055924 g / cm^3
# Si number density = 20.606136 Si / 1000 Ang^3
#
#
#
# Elastic Constant Matrix: (Units=GPa)
#
#
# Indices 1 2 3 4 5 6 
#
# 1 135.0391 26.2954 17.8349 0.0000 0.0000 0.0000
# 2 26.2954 92.9346 47.9463 0.0000 0.0000 0.0000
# 3 17.8349 47.9463 71.3509 0.0000 0.0000 0.0000
# 4 0.0000 0.0000 0.0000 13.4080 0.0000 0.0000
# 5 0.0000 0.0000 0.0000 0.0000 -4.7788 0.0000
# 6 0.0000 0.0000 0.0000 0.0000 0.0000 29.9404
#
#
#
# Elastic Compliance Matrix: (Units=1/GPa)
#
#
# Indices 1 2 3 4 5 6 
#
# 1 0.007861 -0.001853 -0.000720 0.000000 0.000000 0.000000
# 2 -0.001853 0.016907 -0.010898 0.000000 0.000000 0.000000
# 3 -0.000720 -0.010898 0.021518 0.000000 0.000000 0.000000
# 4 0.000000 0.000000 0.000000 0.074582 0.000000 0.000000
# 5 0.000000 0.000000 0.000000 0.000000 -0.209257 0.000000
# 6 0.000000 0.000000 0.000000 0.000000 0.000000 0.033400
#
#
# Mechanical properties :
#
#
# Convention : Reuss Voigt Hill
#
# Bulk Modulus (GPa) = 51.69287 53.71975 52.70631
# Shear Modulus (GPa) = -231.49809 21.53045 -104.98382
#
# Velocity S-wave (km/s) = -10.61076 3.23593 -7.14552
# Velocity P-wave (km/s) = 11.17931 6.33151 6.51494
#
# Compressibility (1/GPa) = 0.01934503
#
# Stress axis : x y z
#
# Youngs Moduli (GPa) = 127.20804 59.14737 46.47188
#
# Poissons Ratio (x) = 0.10959 0.03345
# Poissons Ratio (y) = 0.23570 0.50645
# Poissons Ratio (z) = 0.09158 0.64459
#
# Static dielectric constant tensor:
#      x y z
#    x 4.204110 0.000000 0.000000 
#    y 0.000000 3.387000 0.000000 
#    z 0.000000 0.000000 3.925530 
# 
# 
# High freq. dielectric constant tensor:
#      x y z
#    x 1.840400 0.000000 0.000000 
#    y 0.000000 1.764510 0.000000 
#    z 0.000000 0.000000 1.808560 
# 
# From -- ./inp_files/32347.got.cif
#   From: 2010.03.12/outbox.cif.g09.slc.cpg/sg50_17_cif.got.tgz:32347.got - 2010.04.16 13:23:21.
