data_PCOD8204605
_publ_section_title
;
Structure prediction by ZEFSAII (Michael W. Deem and Ramdas Pophale) SiO2 
 PCOD8204605
Probable space group: P C C M
;
_chemical_formula_sum "Si O2"
_cell_formula_units_Z 30
_cell_length_a 10.926313
_cell_length_b 8.350528
_cell_length_c 16.494658
_cell_angle_alpha 90.000000
_cell_angle_beta 90.000000
_cell_angle_gamma 90.000000
_cell_volume 1504.980557
_symmetry_space_group_name_H-M "P C C M"
_symmetry_group_IT_number 49
_symmetry_cell_setting 'orthorhombic'
loop_
_space_group_symop_operation_xyz
x,y,z
-x,-y,z
x,-y,1/2-z
-x,y,1/2-z
-x,-y,-z
x,y,-z
-x,y,1/2+z
x,-y,1/2+z
loop_
_atom_site_type_symbol
_atom_site_label
_atom_site_fract_x
_atom_site_fract_y
_atom_site_fract_z
Si Si1 0.547802 0.321155 0.332687
Si Si2 0.954129 0.820675 0.000000
Si Si3 0.000000 0.500000 0.750000
Si Si4 0.547712 0.180099 0.000000
Si Si5 0.205003 0.365997 0.500000
Si Si6 0.815638 0.361077 0.629066
O O1 0.500000 0.500000 0.330867
O O2 0.500000 0.233208 0.250000
O O3 0.506105 0.249981 0.417763
O O4 0.693351 0.305683 0.326593
O O5 0.867890 0.784990 0.923658
O O6 0.069619 0.703920 0.000000
O O7 0.000000 0.000000 0.000000
O O8 0.916691 0.386599 0.696451
O O9 0.693625 0.222773 0.000000
O O10 0.500000 0.000000 0.000000
O O11 0.216771 0.478142 0.578798
#
# Coordination Sequence:
#
# PCOD8204605 Si02
#       6
#     8   4   2   4   4   8
#     4  11  23  42  67  99 125 166 222 278 327 391
#     4  11  24  41  63  95 127 173 215 263 333 390
#     4  12  20  38  64 100 116 162 218 254 328 366
#     4  12  26  41  66  95 134 176 212 268 341 395
#     4  11  21  43  64  92 125 168 221 262 317 398
#     4  11  22  40  69  91 127 165 215 278 315 389
#
# _framework density 19.933813000000001
#
# number of rings (size 3 to 8) (size 9 to 14) (size 15 to 20)
#    0.000    0.800    5.333    4.400    3.733    0.533 
#    0.000    0.667    5.867    0.000    0.000    0.000 
#    0.000    0.000    0.000    0.000    0.000    0.000 
#
# Total GULP energy -371843.944196 kJ/mol
# GULP energy per Si atom -12394.798140 kJ/mol
# Density = 1.988844 g / cm^3
# Si number density = 19.933813 Si / 1000 Ang^3
#
#
#
# Elastic Constant Matrix: (Units=GPa)
#
#
# Indices 1 2 3 4 5 6 
#
# 1 175.4471 37.1976 72.4336 0.0000 0.0000 0.0000
# 2 37.1976 93.0171 42.7760 0.0000 0.0000 0.0000
# 3 72.4336 42.7760 184.1412 0.0000 0.0000 0.0000
# 4 0.0000 0.0000 0.0000 -52.0613 0.0000 0.0000
# 5 0.0000 0.0000 0.0000 0.0000 40.1213 0.0000
# 6 0.0000 0.0000 0.0000 0.0000 0.0000 34.0627
#
#
#
# Elastic Compliance Matrix: (Units=1/GPa)
#
#
# Indices 1 2 3 4 5 6 
#
# 1 0.007044 -0.001727 -0.002370 0.000000 0.000000 0.000000
# 2 -0.001727 0.012460 -0.002215 0.000000 0.000000 0.000000
# 3 -0.002370 -0.002215 0.006877 0.000000 0.000000 0.000000
# 4 0.000000 0.000000 0.000000 -0.019208 0.000000 0.000000
# 5 0.000000 0.000000 0.000000 0.000000 0.024924 0.000000
# 6 0.000000 0.000000 0.000000 0.000000 0.000000 0.029358
#
#
# Mechanical properties :
#
#
# Convention : Reuss Voigt Hill
#
# Bulk Modulus (GPa) = 72.68664 84.15774 78.42219
# Shear Modulus (GPa) = 63.56038 24.43777 43.99907
#
# Velocity S-wave (km/s) = 5.65287 3.50515 4.70324
# Velocity P-wave (km/s) = 8.89661 7.66105 8.30185
#
# Compressibility (1/GPa) = 0.01375769
#
# Stress axis : x y z
#
# Youngs Moduli (GPa) = 141.95964 80.25632 145.40573
#
# Poissons Ratio (x) = 0.13862 0.34457
# Poissons Ratio (y) = 0.24520 0.32208
# Poissons Ratio (z) = 0.33640 0.17777
#
# Static dielectric constant tensor:
#      x y z
#    x 3.786550 0.000000 0.000000 
#    y 0.000000 3.373780 0.000000 
#    z 0.000000 0.000000 2.237560 
# 
# 
# High freq. dielectric constant tensor:
#      x y z
#    x 1.804470 0.000000 0.000000 
#    y 0.000000 1.741030 0.000000 
#    z 0.000000 0.000000 1.797560 
# 
# From -- ./inp_files/11254.got.cif
#   From: 2010.03.12/outbox.cif.g09.slc.cpg/sg49_6_cif.got.tgz:11254.got - 2010.04.14 03:58:27.
