data_PCOD8204227
_publ_section_title
;
Structure prediction by ZEFSAII (Michael W. Deem and Ramdas Pophale) SiO2 
 PCOD8204227
Probable space group: P C C M
;
_chemical_formula_sum "Si O2"
_cell_formula_units_Z 64
_cell_length_a 18.524824
_cell_length_b 12.476949
_cell_length_c 13.643812
_cell_angle_alpha 90.000000
_cell_angle_beta 90.000000
_cell_angle_gamma 90.000000
_cell_volume 3153.539078
_symmetry_space_group_name_H-M "P C C M"
_symmetry_group_IT_number 49
_symmetry_cell_setting 'orthorhombic'
loop_
_space_group_symop_operation_xyz
x,y,z
-x,-y,z
x,-y,1/2-z
-x,y,1/2-z
-x,-y,-z
x,y,-z
-x,y,1/2+z
x,-y,1/2+z
loop_
_atom_site_type_symbol
_atom_site_label
_atom_site_fract_x
_atom_site_fract_y
_atom_site_fract_z
Si Si1 0.081310 0.820887 0.737487
Si Si2 0.870762 0.994939 0.612356
Si Si3 0.586626 0.891950 0.206392
Si Si4 0.788612 0.327585 0.281483
Si Si5 0.731797 0.874308 0.112359
Si Si6 0.267812 0.532170 0.115939
Si Si7 0.552117 0.795318 0.608088
Si Si8 0.570728 0.546230 0.607728
O O1 0.080363 0.904305 0.646474
O O2 0.128499 0.714077 0.718713
O O3 0.000000 0.779962 0.750000
O O4 0.112726 0.885636 0.830540
O O5 0.887092 0.971609 0.500000
O O6 0.788220 0.030335 0.633080
O O7 0.653653 0.920489 0.137455
O O8 0.608254 0.827081 0.305943
O O9 0.528258 0.828566 0.141978
O O10 0.552524 0.000000 0.250000
O O11 0.741191 0.228385 0.318381
O O12 0.765577 0.365181 0.172493
O O13 0.778304 0.426796 0.356456
O O14 0.737279 0.836661 0.000000
O O15 0.350921 0.517579 0.153840
O O16 0.263620 0.555540 0.000000
O O17 0.568632 0.846501 0.500000
O O18 0.558219 0.670380 0.598115
O O19 0.500000 0.500000 0.665678
O O20 0.572142 0.492302 0.500000
#
# Coordination Sequence:
#
# PCOD8204227 Si02
#       8
#     8   8   8   8   8   8   8   8
#     4  10  21  37  61  90 125 161 195 247 295 352
#     4   9  19  36  59  90 125 159 196 243 296 356
#     4  11  24  36  55  80 113 156 203 250 295 360
#     4  10  22  38  60  87 120 156 201 244 296 372
#     4  10  21  37  59  87 118 157 201 245 299 365
#     4  10  21  40  61  85 119 157 195 252 312 357
#     4  10  21  39  56  77 110 150 199 255 310 361
#     4   9  19  36  58  83 108 138 187 247 307 360
#
# _framework density 20.29466
#
# number of rings (size 3 to 8) (size 9 to 14) (size 15 to 20)
#    0.000    2.125    0.000    3.000    5.250    3.500 
#    2.250    1.250    0.000    0.750    0.000    0.000 
#    0.000    0.000    0.000    0.000    0.000    0.000 
#
# Total GULP energy -792946.843006 kJ/mol
# GULP energy per Si atom -12389.794422 kJ/mol
# Density = 2.024847 g / cm^3
# Si number density = 20.294660 Si / 1000 Ang^3
#
#
#
# Elastic Constant Matrix: (Units=GPa)
#
#
# Indices 1 2 3 4 5 6 
#
# 1 134.0244 45.1552 27.8877 0.0000 0.0000 0.0000
# 2 45.1552 85.8671 35.2097 0.0000 0.0000 0.0000
# 3 27.8877 35.2097 126.0325 0.0000 0.0000 0.0000
# 4 0.0000 0.0000 0.0000 21.6783 0.0000 0.0000
# 5 0.0000 0.0000 0.0000 0.0000 61.2368 0.0000
# 6 0.0000 0.0000 0.0000 0.0000 0.0000 17.9094
#
#
#
# Elastic Compliance Matrix: (Units=1/GPa)
#
#
# Indices 1 2 3 4 5 6 
#
# 1 0.009133 -0.004488 -0.000767 0.000000 0.000000 0.000000
# 2 -0.004488 0.015358 -0.003298 0.000000 0.000000 0.000000
# 3 -0.000767 -0.003298 0.009025 0.000000 0.000000 0.000000
# 4 0.000000 0.000000 0.000000 0.046129 0.000000 0.000000
# 5 0.000000 0.000000 0.000000 0.000000 0.016330 0.000000
# 6 0.000000 0.000000 0.000000 0.000000 0.000000 0.055837
#
#
# Mechanical properties :
#
#
# Convention : Reuss Voigt Hill
#
# Bulk Modulus (GPa) = 60.93424 62.49215 61.71320
# Shear Modulus (GPa) = 28.67157 36.00965 32.34061
#
# Velocity S-wave (km/s) = 3.76275 4.21686 3.99626
# Velocity P-wave (km/s) = 6.99769 7.38705 7.19501
#
# Compressibility (1/GPa) = 0.01641113
#
# Stress axis : x y z
#
# Youngs Moduli (GPa) = 109.49141 65.11112 110.79832
#
# Poissons Ratio (x) = 0.29224 0.08498
# Poissons Ratio (y) = 0.49144 0.36536
# Poissons Ratio (z) = 0.08398 0.21470
#
# Static dielectric constant tensor:
#      x y z
#    x 3.654060 0.000000 0.000000 
#    y 0.000000 3.427870 0.000000 
#    z 0.000000 0.000000 3.783610 
# 
# 
# High freq. dielectric constant tensor:
#      x y z
#    x 1.780230 0.000000 0.000000 
#    y 0.000000 1.779470 0.000000 
#    z 0.000000 0.000000 1.805250 
# 
# From -- ./inp_files/14171.got.cif
#   From: 2010.03.12/outbox.cif.g09.slc.cpg/sg49_8_cif.got.tgz:14171.got - 2010.04.14 03:58:27.
