data_PCOD8204064
_publ_section_title
;
Structure prediction by ZEFSAII (Michael W. Deem and Ramdas Pophale) SiO2 
 PCOD8204064
Probable space group: P C C M
;
_chemical_formula_sum "Si O2"
_cell_formula_units_Z 48
_cell_length_a 18.834692
_cell_length_b 9.228911
_cell_length_c 13.929982
_cell_angle_alpha 90.000000
_cell_angle_beta 90.000000
_cell_angle_gamma 90.000000
_cell_volume 2421.360959
_symmetry_space_group_name_H-M "P C C M"
_symmetry_group_IT_number 49
_symmetry_cell_setting 'orthorhombic'
loop_
_space_group_symop_operation_xyz
x,y,z
-x,-y,z
x,-y,1/2-z
-x,y,1/2-z
-x,-y,-z
x,y,-z
-x,y,1/2+z
x,-y,1/2+z
loop_
_atom_site_type_symbol
_atom_site_label
_atom_site_fract_x
_atom_site_fract_y
_atom_site_fract_z
Si Si1 0.048316 0.767833 0.000000
Si Si2 0.569221 0.088558 0.108312
Si Si3 0.928597 0.339097 0.791869
Si Si4 0.102984 0.089758 0.000000
Si Si5 0.331889 0.827012 0.608037
Si Si6 0.581783 0.657970 0.247036
Si Si7 0.183493 0.852767 0.306486
O O1 0.068091 0.669746 0.907645
O O2 0.966209 0.810462 0.000000
O O3 0.091056 0.917836 0.000000
O O4 0.595251 0.229254 0.166507
O O5 0.500000 0.000000 0.150402
O O6 0.639449 0.990403 0.110906
O O7 0.550241 0.136711 0.000000
O O8 0.927682 0.500000 0.750000
O O9 0.856472 0.266149 0.756660
O O10 0.000000 0.260526 0.750000
O O11 0.147885 0.131455 0.908628
O O12 0.312216 0.780895 0.500000
O O13 0.394963 0.725621 0.645938
O O14 0.264841 0.806532 0.678080
O O15 0.620566 0.500000 0.250000
O O16 0.500000 0.626518 0.250000
O O17 0.178114 0.000000 0.250000
#
# Coordination Sequence:
#
# PCOD8204064 Si02
#       7
#     4   8   8   4   8   8   8
#     4  11  22  42  67  98 131 164 222 277 317 381
#     4  10  20  38  64  92 119 158 209 256 306 369
#     4  11  25  41  65  97 133 175 216 268 325 385
#     4  11  22  37  70  99 125 164 213 272 327 375
#     4  11  24  41  65  93 125 165 212 264 318 382
#     4  11  23  38  62  93 127 164 204 256 317 379
#     4  12  23  41  66  96 128 167 217 266 325 388
#
# _framework density 19.823561000000002
#
# number of rings (size 3 to 8) (size 9 to 14) (size 15 to 20)
#    0.000    1.000    5.833    1.500    0.000    3.667 
#    0.000    1.667    0.000    0.000    0.000    0.000 
#    0.000    0.000    0.000    0.000    0.000    0.000 
#
# Total GULP energy -594980.314977 kJ/mol
# GULP energy per Si atom -12395.423229 kJ/mol
# Density = 1.977844 g / cm^3
# Si number density = 19.823561 Si / 1000 Ang^3
#
#
#
# Elastic Constant Matrix: (Units=GPa)
#
#
# Indices 1 2 3 4 5 6 
#
# 1 92.9992 31.1536 38.4431 0.0000 0.0000 0.0000
# 2 31.1536 119.1112 65.4166 0.0000 0.0000 0.0000
# 3 38.4431 65.4166 147.3403 0.0000 0.0000 0.0000
# 4 0.0000 0.0000 0.0000 -21.4494 0.0000 0.0000
# 5 0.0000 0.0000 0.0000 0.0000 39.2287 0.0000
# 6 0.0000 0.0000 0.0000 0.0000 0.0000 20.0421
#
#
#
# Elastic Compliance Matrix: (Units=1/GPa)
#
#
# Indices 1 2 3 4 5 6 
#
# 1 0.012381 -0.001936 -0.002371 0.000000 0.000000 0.000000
# 2 -0.001936 0.011406 -0.004559 0.000000 0.000000 0.000000
# 3 -0.002371 -0.004559 0.009430 0.000000 0.000000 0.000000
# 4 0.000000 0.000000 0.000000 -0.046621 0.000000 0.000000
# 5 0.000000 0.000000 0.000000 0.000000 0.025492 0.000000
# 6 0.000000 0.000000 0.000000 0.000000 0.000000 0.049895
#
#
# Mechanical properties :
#
#
# Convention : Reuss Voigt Hill
#
# Bulk Modulus (GPa) = 64.57855 69.94192 67.26024
# Shear Modulus (GPa) = 58.91000 22.52675 40.71838
#
# Velocity S-wave (km/s) = 5.45726 3.37465 4.53707
# Velocity P-wave (km/s) = 8.50625 7.10937 7.83899
#
# Compressibility (1/GPa) = 0.01548502
#
# Stress axis : x y z
#
# Youngs Moduli (GPa) = 80.76601 87.67596 106.04937
#
# Poissons Ratio (x) = 0.16977 0.25142
# Poissons Ratio (y) = 0.15639 0.48345
# Poissons Ratio (z) = 0.19148 0.39969
#
# Static dielectric constant tensor:
#      x y z
#    x 3.792840 0.000000 0.000000 
#    y 0.000000 3.768380 0.000000 
#    z 0.000000 0.000000 4.082660 
# 
# 
# High freq. dielectric constant tensor:
#      x y z
#    x 1.772130 0.000000 0.000000 
#    y 0.000000 1.762670 0.000000 
#    z 0.000000 0.000000 1.785900 
# 
# From -- ./inp_files/11863.got.cif
#   From: 2010.03.12/outbox.cif.g09.slc.cpg/sg49_6_cif.got.tgz:11863.got - 2010.04.14 03:58:27.
