data_PCOD8204909
_publ_section_title
;
Structure prediction by ZEFSAII (Michael W. Deem and Ramdas Pophale) SiO2 
 PCOD8204909
Probable space group: P B A N
;
_chemical_formula_sum "Si O2"
_cell_formula_units_Z 58
_cell_length_a 25.625915
_cell_length_b 9.544163
_cell_length_c 12.220721
_cell_angle_alpha 90.000000
_cell_angle_beta 90.000000
_cell_angle_gamma 90.000000
_cell_volume 2988.918398
_symmetry_space_group_name_H-M "P B A N"
_symmetry_group_IT_number 50
_space_group.IT_coordinate_system_code '2'
_symmetry_cell_setting 'orthorhombic'
loop_
_space_group_symop_operation_xyz
x,y,z
1/2-x,1/2-y,z
x,1/2-y,-z
1/2-x,y,-z
-x,-y,-z
1/2+x,1/2+y,-z
-x,1/2+y,z
1/2+x,-y,z
loop_
_atom_site_type_symbol
_atom_site_label
_atom_site_fract_x
_atom_site_fract_y
_atom_site_fract_z
Si Si1 0.189365 0.096624 0.207788
Si Si2 0.187930 0.907387 0.011298
Si Si3 0.187350 0.091048 0.811243
Si Si4 0.158758 0.592277 0.387477
Si Si5 0.975914 0.958135 0.615026
Si Si6 0.441460 0.751385 0.370846
Si Si7 0.365962 0.384055 0.432448
Si Si8 0.250000 0.750000 0.500000
O O1 0.169038 0.249362 0.169498
O O2 0.251067 0.087256 0.202459
O O3 0.171371 0.075671 0.331949
O O4 0.168266 0.976125 0.125504
O O5 0.166023 0.001036 0.912503
O O6 0.165471 0.750000 0.000000
O O7 0.250000 0.904900 0.000000
O O8 0.163103 0.029580 0.701144
O O9 0.119040 0.712253 0.344780
O O10 0.133115 0.523804 0.494418
O O11 0.214781 0.657230 0.418260
O O12 0.925426 0.856502 0.603890
O O13 0.019841 0.869882 0.681145
O O14 0.956956 0.099161 0.678737
O O15 0.000000 0.000000 0.500000
O O16 0.451712 0.750000 0.500000
O O17 0.344140 0.250000 0.500000
#
# Coordination Sequence:
#
# PCOD8204909 Si02
#       8
#     8   8   8   8   8   8   8   2
#     4  10  21  36  54  80 107 152 193 235 285 335
#     4   9  19  36  57  77 101 140 195 250 289 327
#     4  10  21  36  54  76 110 148 192 238 281 336
#     4  12  22  35  51  78 114 155 187 227 287 344
#     4  10  19  33  53  74 105 146 183 238 279 335
#     4  10  19  34  51  74 105 141 192 228 284 333
#     4  12  21  34  54  81 116 147 189 232 284 353
#     4  12  24  36  46  72 122 160 192 234 280 356
#
# _framework density 19.405013
#
# number of rings (size 3 to 8) (size 9 to 14) (size 15 to 20)
#    0.000    1.517    4.828    2.483    0.000    6.069 
#    0.000    0.000    0.000    0.000    0.000    0.966 
#    0.000    0.276    0.000    0.000    0.000    0.000 
#
# Total GULP energy -718950.291925 kJ/mol
# GULP energy per Si atom -12395.694688 kJ/mol
# Density = 1.936085 g / cm^3
# Si number density = 19.405013 Si / 1000 Ang^3
#
#
#
# Elastic Constant Matrix: (Units=GPa)
#
#
# Indices 1 2 3 4 5 6 
#
# 1 67.5653 36.8657 13.0888 0.0000 0.0000 0.0000
# 2 36.8657 143.4099 50.7554 0.0000 0.0000 0.0000
# 3 13.0888 50.7554 89.5572 0.0000 0.0000 0.0000
# 4 0.0000 0.0000 0.0000 27.4972 0.0000 0.0000
# 5 0.0000 0.0000 0.0000 0.0000 3.8163 0.0000
# 6 0.0000 0.0000 0.0000 0.0000 0.0000 31.4906
#
#
#
# Elastic Compliance Matrix: (Units=1/GPa)
#
#
# Indices 1 2 3 4 5 6 
#
# 1 0.017215 -0.004422 -0.000010 0.000000 0.000000 0.000000
# 2 -0.004422 0.009858 -0.004941 0.000000 0.000000 0.000000
# 3 -0.000010 -0.004941 0.013968 0.000000 0.000000 0.000000
# 4 0.000000 0.000000 0.000000 0.036367 0.000000 0.000000
# 5 0.000000 0.000000 0.000000 0.000000 0.262031 0.000000
# 6 0.000000 0.000000 0.000000 0.000000 0.000000 0.031756
#
#
# Mechanical properties :
#
#
# Convention : Reuss Voigt Hill
#
# Bulk Modulus (GPa) = 44.85147 55.77246 50.31196
# Shear Modulus (GPa) = 12.58264 25.88233 19.23248
#
# Velocity S-wave (km/s) = 2.54918 3.65608 3.15160
# Velocity P-wave (km/s) = 5.64162 6.82834 6.26315
#
# Compressibility (1/GPa) = 0.02229581
#
# Stress axis : x y z
#
# Youngs Moduli (GPa) = 58.08840 101.43635 71.59389
#
# Poissons Ratio (x) = 0.44854 0.00071
# Poissons Ratio (y) = 0.25686 0.35374
# Poissons Ratio (z) = 0.00058 0.50118
#
# Static dielectric constant tensor:
#      x y z
#    x 3.406510 0.000000 0.000000 
#    y 0.000000 4.164320 0.000000 
#    z 0.000000 0.000000 3.222760 
# 
# 
# High freq. dielectric constant tensor:
#      x y z
#    x 1.729260 0.000000 0.000000 
#    y 0.000000 1.781970 0.000000 
#    z 0.000000 0.000000 1.704570 
# 
# From -- ./inp_files/23163.got.cif
#   From: 2010.03.12/outbox.cif.g09.slc.cpg/sg50_12_cif.got.tgz:23163.got - 2010.04.16 13:23:21.
