data_PCOD8204801
_publ_section_title
;
Structure prediction by ZEFSAII (Michael W. Deem and Ramdas Pophale) SiO2 
 PCOD8204801
Probable space group: P B A N
;
_chemical_formula_sum "Si O2"
_cell_formula_units_Z 52
_cell_length_a 20.801044
_cell_length_b 12.031671
_cell_length_c 11.737888
_cell_angle_alpha 90.000000
_cell_angle_beta 90.000000
_cell_angle_gamma 90.000000
_cell_volume 2937.656699
_symmetry_space_group_name_H-M "P B A N"
_symmetry_group_IT_number 50
_space_group.IT_coordinate_system_code '2'
_symmetry_cell_setting 'orthorhombic'
loop_
_space_group_symop_operation_xyz
x,y,z
1/2-x,1/2-y,z
x,1/2-y,-z
1/2-x,y,-z
-x,-y,-z
1/2+x,1/2+y,-z
-x,1/2+y,z
1/2+x,-y,z
loop_
_atom_site_type_symbol
_atom_site_label
_atom_site_fract_x
_atom_site_fract_y
_atom_site_fract_z
Si Si1 0.822962 0.739491 0.247996
Si Si2 0.458639 0.661731 0.289549
Si Si3 0.039474 0.066074 0.911069
Si Si4 0.369531 0.250000 0.000000
Si Si5 0.554593 0.405041 0.278996
Si Si6 0.409578 0.065603 0.660099
Si Si7 0.085792 0.389171 0.403248
O O1 0.750000 0.750000 0.290014
O O2 0.825337 0.751515 0.111891
O O3 0.850780 0.616363 0.269236
O O4 0.863763 0.831277 0.317756
O O5 0.491867 0.639065 0.167603
O O6 0.419946 0.778505 0.282633
O O7 0.406941 0.568409 0.329136
O O8 0.515574 0.664435 0.383029
O O9 0.086625 0.141311 0.985533
O O10 0.075904 0.973519 0.833723
O O11 0.000000 0.000000 0.000000
O O12 0.477159 0.396236 0.286246
O O13 0.582760 0.477327 0.382856
O O14 0.398079 0.120989 0.535804
#
# Coordination Sequence:
#
# PCOD8204801 Si02
#       7
#     8   8   8   4   8   8   8
#     4  12  24  38  56  78 109 151 193 235 274 321
#     4  10  18  32  52  84 116 146 173 222 287 338
#     4  10  18  28  52  79 115 146 176 224 278 337
#     4  12  19  40  52  78 112 142 191 226 276 328
#     4  10  18  32  51  83 114 143 176 222 283 343
#     4  10  20  33  53  81 113 143 185 224 277 335
#     4  10  20  34  51  81 111 147 183 225 278 330
#
# _framework density 17.701184000000001
#
# number of rings (size 3 to 8) (size 9 to 14) (size 15 to 20)
#    0.000    1.846    4.615    5.308    0.000    3.077 
#    0.000    0.000    0.000    0.923    0.000    2.154 
#    0.000    0.000    0.000    0.000    0.000    0.000 
#
# Total GULP energy -644315.343642 kJ/mol
# GULP energy per Si atom -12390.679685 kJ/mol
# Density = 1.766090 g / cm^3
# Si number density = 17.701184 Si / 1000 Ang^3
#
#
#
# Elastic Constant Matrix: (Units=GPa)
#
#
# Indices 1 2 3 4 5 6 
#
# 1 77.9601 34.8848 14.3570 0.0000 0.0000 0.0000
# 2 34.8848 132.3892 16.8221 0.0000 0.0000 0.0000
# 3 14.3570 16.8221 68.1266 0.0000 0.0000 0.0000
# 4 0.0000 0.0000 0.0000 27.8571 0.0000 0.0000
# 5 0.0000 0.0000 0.0000 0.0000 11.9224 0.0000
# 6 0.0000 0.0000 0.0000 0.0000 0.0000 15.6338
#
#
#
# Elastic Compliance Matrix: (Units=1/GPa)
#
#
# Indices 1 2 3 4 5 6 
#
# 1 0.014864 -0.003633 -0.002235 0.000000 0.000000 0.000000
# 2 -0.003633 0.008686 -0.001379 0.000000 0.000000 0.000000
# 3 -0.002235 -0.001379 0.015490 0.000000 0.000000 0.000000
# 4 0.000000 0.000000 0.000000 0.035898 0.000000 0.000000
# 5 0.000000 0.000000 0.000000 0.000000 0.083876 0.000000
# 6 0.000000 0.000000 0.000000 0.000000 0.000000 0.063964
#
#
# Mechanical properties :
#
#
# Convention : Reuss Voigt Hill
#
# Bulk Modulus (GPa) = 40.74048 45.62266 43.18157
# Shear Modulus (GPa) = 20.37037 25.24344 22.80690
#
# Velocity S-wave (km/s) = 3.39601 3.78045 3.59338
# Velocity P-wave (km/s) = 6.20023 6.69967 6.45478
#
# Compressibility (1/GPa) = 0.02454561
#
# Stress axis : x y z
#
# Youngs Moduli (GPa) = 67.27537 115.12826 64.55684
#
# Poissons Ratio (x) = 0.41823 0.14432
# Poissons Ratio (y) = 0.24439 0.08904
# Poissons Ratio (z) = 0.15039 0.15879
#
# Static dielectric constant tensor:
#      x y z
#    x -70.315740 0.000000 0.000000 
#    y 0.000000 3.357190 0.000000 
#    z 0.000000 0.000000 4.763840 
# 
# 
# High freq. dielectric constant tensor:
#      x y z
#    x 1.615140 0.000000 0.000000 
#    y 0.000000 1.698400 0.000000 
#    z 0.000000 0.000000 1.701950 
# 
# From -- ./inp_files/21895.got.cif
#   From: 2010.03.12/outbox.cif.g09.slc.cpg/sg50_11_cif.got.tgz:21895.got - 2010.04.16 13:23:21.
