data_PCOD8204111
_publ_section_title
;
Structure prediction by ZEFSAII (Michael W. Deem and Ramdas Pophale) SiO2 
 PCOD8204111
Probable space group: P C C M
;
_chemical_formula_sum "Si O2"
_cell_formula_units_Z 32
_cell_length_a 8.695063
_cell_length_b 11.535803
_cell_length_c 13.863665
_cell_angle_alpha 90.000000
_cell_angle_beta 90.000000
_cell_angle_gamma 90.000000
_cell_volume 1390.588455
_symmetry_space_group_name_H-M "P C C M"
_symmetry_group_IT_number 49
_symmetry_cell_setting 'orthorhombic'
loop_
_space_group_symop_operation_xyz
x,y,z
-x,-y,z
x,-y,1/2-z
-x,y,1/2-z
-x,-y,-z
x,y,-z
-x,y,1/2+z
x,-y,1/2+z
loop_
_atom_site_type_symbol
_atom_site_label
_atom_site_fract_x
_atom_site_fract_y
_atom_site_fract_z
Si Si1 0.369323 0.227995 0.180998
Si Si2 0.828831 0.530053 0.500000
Si Si3 0.575397 0.629804 0.000000
Si Si4 0.936863 0.876133 0.886794
Si Si5 0.867439 0.662973 0.311141
O O1 0.500000 0.169716 0.250000
O O2 0.459648 0.292291 0.093630
O O3 0.242983 0.135043 0.144285
O O4 0.278613 0.324210 0.242037
O O5 0.755118 0.402078 0.500000
O O6 0.792585 0.601389 0.403709
O O7 0.000000 0.500000 0.500000
O O8 0.500000 0.500000 0.000000
O O9 0.051406 0.783887 0.839377
O O10 0.946359 0.859320 0.000000
O O11 0.000000 0.000000 0.853206
O O12 0.000000 0.593238 0.250000
#
# Coordination Sequence:
#
# PCOD8204111 Si02
#       5
#     8   4   4   8   8
#     4  11  24  43  66  99 134 173 222 271 332 410
#     4  12  22  36  58  89 128 172 230 285 326 383
#     4  12  26  42  64  91 139 184 222 269 337 397
#     4  10  20  42  72  98 131 173 222 279 340 396
#     4  10  22  37  61  93 130 175 225 280 336 387
#
# _framework density 23.011842999999999
#
# number of rings (size 3 to 8) (size 9 to 14) (size 15 to 20)
#    0.000    1.250    2.500    4.500    0.000   10.500 
#    0.000    2.500    0.000    3.000    0.000    0.000 
#    0.000    0.000    0.000    0.000    0.000    0.000 
#
# Total GULP energy -396485.150342 kJ/mol
# GULP energy per Si atom -12390.160948 kJ/mol
# Density = 2.295947 g / cm^3
# Si number density = 23.011843 Si / 1000 Ang^3
#
#
#
# Elastic Constant Matrix: (Units=GPa)
#
#
# Indices 1 2 3 4 5 6 
#
# 1 83.9646 14.7096 24.4931 0.0000 0.0000 0.0000
# 2 14.7096 89.4223 33.2112 0.0000 0.0000 0.0000
# 3 24.4931 33.2112 154.5551 0.0000 0.0000 0.0000
# 4 0.0000 0.0000 0.0000 -129.1910 0.0000 0.0000
# 5 0.0000 0.0000 0.0000 0.0000 42.5462 0.0000
# 6 0.0000 0.0000 0.0000 0.0000 0.0000 28.9491
#
#
#
# Elastic Compliance Matrix: (Units=1/GPa)
#
#
# Indices 1 2 3 4 5 6 
#
# 1 0.012658 -0.001453 -0.001694 0.000000 0.000000 0.000000
# 2 -0.001453 0.012320 -0.002417 0.000000 0.000000 0.000000
# 3 -0.001694 -0.002417 0.007258 0.000000 0.000000 0.000000
# 4 0.000000 0.000000 0.000000 -0.007740 0.000000 0.000000
# 5 0.000000 0.000000 0.000000 0.000000 0.023504 0.000000
# 6 0.000000 0.000000 0.000000 0.000000 0.000000 0.034543
#
#
# Mechanical properties :
#
#
# Convention : Reuss Voigt Hill
#
# Bulk Modulus (GPa) = 47.37513 52.52997 49.95255
# Shear Modulus (GPa) = 49.64914 5.49608 27.57261
#
# Velocity S-wave (km/s) = 4.64998 1.54711 3.46525
# Velocity P-wave (km/s) = 7.03290 5.10572 6.14533
#
# Compressibility (1/GPa) = 0.02110812
#
# Stress axis : x y z
#
# Youngs Moduli (GPa) = 78.99858 81.17155 137.77962
#
# Poissons Ratio (x) = 0.11796 0.23337
# Poissons Ratio (y) = 0.11480 0.33301
# Poissons Ratio (z) = 0.13381 0.19619
#
# Static dielectric constant tensor:
#      x y z
#    x 4.408560 0.000000 0.000000 
#    y 0.000000 3.553640 0.000000 
#    z 0.000000 0.000000 4.772200 
# 
# 
# High freq. dielectric constant tensor:
#      x y z
#    x 1.912820 0.000000 0.000000 
#    y 0.000000 1.878130 0.000000 
#    z 0.000000 0.000000 1.944820 
# 
# From -- ./inp_files/11236.got.cif
#   From: 2010.03.12/outbox.cif.g09.slc.cpg/sg49_6_cif.got.tgz:11236.got - 2010.04.14 03:58:27.
