data_PCOD8204669
_publ_section_title
;
Structure prediction by ZEFSAII (Michael W. Deem and Ramdas Pophale) SiO2 
 PCOD8204669
Probable space group: P C C M
;
_chemical_formula_sum "Si O2"
_cell_formula_units_Z 48
_cell_length_a 8.412179
_cell_length_b 14.671371
_cell_length_c 17.903670
_cell_angle_alpha 90.000000
_cell_angle_beta 90.000000
_cell_angle_gamma 90.000000
_cell_volume 2209.638707
_symmetry_space_group_name_H-M "P C C M"
_symmetry_group_IT_number 49
_symmetry_cell_setting 'orthorhombic'
loop_
_space_group_symop_operation_xyz
x,y,z
-x,-y,z
x,-y,1/2-z
-x,y,1/2-z
-x,-y,-z
x,y,-z
-x,y,1/2+z
x,-y,1/2+z
loop_
_atom_site_type_symbol
_atom_site_label
_atom_site_fract_x
_atom_site_fract_y
_atom_site_fract_z
Si Si1 0.700679 0.820236 0.316088
Si Si2 0.341440 0.140550 0.150260
Si Si3 0.326779 0.484896 0.837606
Si Si4 0.186136 0.686461 0.586268
Si Si5 0.105155 0.355837 0.675197
Si Si6 0.820354 0.030682 0.084961
O O1 0.720901 0.863052 0.234505
O O2 0.524861 0.830064 0.349516
O O3 0.753283 0.715260 0.308308
O O4 0.815858 0.874716 0.370776
O O5 0.249917 0.212228 0.098558
O O6 0.308696 0.040821 0.116919
O O7 0.500000 0.500000 0.875217
O O8 0.343005 0.500000 0.750000
O O9 0.278435 0.383389 0.860012
O O10 0.187297 0.554731 0.861137
O O11 0.205642 0.658603 0.500000
O O12 0.002249 0.685187 0.609551
O O13 0.000000 0.376868 0.750000
O O14 0.773671 0.049467 0.000000
O O15 0.000000 0.000000 0.093603
#
# Coordination Sequence:
#
# PCOD8204669 Si02
#       6
#     8   8   8   8   8   8
#     4  11  24  41  69  98 128 174 230 271 333 402
#     4  11  23  44  66  98 134 172 222 281 330 401
#     4  11  23  42  69  98 131 174 223 268 324 401
#     4  12  26  42  67 100 134 173 219 277 338 400
#     4  12  23  42  69  98 130 177 219 275 332 392
#     4  11  25  42  64  96 135 178 224 277 337 396
#
# _framework density 21.723008
#
# number of rings (size 3 to 8) (size 9 to 14) (size 15 to 20)
#    0.000    0.667    3.333    4.000    0.000   10.333 
#    0.000    1.667    0.000    0.000    0.000    0.000 
#    0.000    0.000    0.000    0.000    0.000    0.000 
#
# Total GULP energy -595267.690512 kJ/mol
# GULP energy per Si atom -12401.410219 kJ/mol
# Density = 2.167357 g / cm^3
# Si number density = 21.723008 Si / 1000 Ang^3
#
#
#
# Elastic Constant Matrix: (Units=GPa)
#
#
# Indices 1 2 3 4 5 6 
#
# 1 88.1524 17.6220 33.4353 0.0000 0.0000 0.0000
# 2 17.6220 75.6677 11.4959 0.0000 0.0000 0.0000
# 3 33.4353 11.4959 101.5103 0.0000 0.0000 0.0000
# 4 0.0000 0.0000 0.0000 26.2687 0.0000 0.0000
# 5 0.0000 0.0000 0.0000 0.0000 20.3226 0.0000
# 6 0.0000 0.0000 0.0000 0.0000 0.0000 41.3585
#
#
#
# Elastic Compliance Matrix: (Units=1/GPa)
#
#
# Indices 1 2 3 4 5 6 
#
# 1 0.013411 -0.002495 -0.004135 0.000000 0.000000 0.000000
# 2 -0.002495 0.013911 -0.000754 0.000000 0.000000 0.000000
# 3 -0.004135 -0.000754 0.011298 0.000000 0.000000 0.000000
# 4 0.000000 0.000000 0.000000 0.038068 0.000000 0.000000
# 5 0.000000 0.000000 0.000000 0.000000 0.049206 0.000000
# 6 0.000000 0.000000 0.000000 0.000000 0.000000 0.024179
#
#
# Mechanical properties :
#
#
# Convention : Reuss Voigt Hill
#
# Bulk Modulus (GPa) = 41.92187 43.38185 42.65186
# Shear Modulus (GPa) = 28.93649 31.10843 30.02246
#
# Velocity S-wave (km/s) = 3.65371 3.78835 3.72164
# Velocity P-wave (km/s) = 6.09424 6.25694 6.17612
#
# Compressibility (1/GPa) = 0.02385390
#
# Stress axis : x y z
#
# Youngs Moduli (GPa) = 74.56549 71.88428 88.50764
#
# Poissons Ratio (x) = 0.17936 0.36596
# Poissons Ratio (y) = 0.18605 0.06670
# Poissons Ratio (z) = 0.30831 0.05417
#
# Static dielectric constant tensor:
#      x y z
#    x 4.249120 0.000000 0.000000 
#    y 0.000000 4.036380 0.000000 
#    z 0.000000 0.000000 3.824560 
# 
# 
# High freq. dielectric constant tensor:
#      x y z
#    x 1.868690 0.000000 0.000000 
#    y 0.000000 1.860990 0.000000 
#    z 0.000000 0.000000 1.840910 
# 
# From -- ./inp_files/16261.got.cif
#   From: 2010.03.12/outbox.cif.g09.slc.cpg/sg49_9_cif.got.tgz:16261.got - 2010.04.14 03:58:27.
