data_PCOD8204387
_publ_section_title
;
Structure prediction by ZEFSAII (Michael W. Deem and Ramdas Pophale) SiO2 
 PCOD8204387
Probable space group: P C C M
;
_chemical_formula_sum "Si O2"
_cell_formula_units_Z 32
_cell_length_a 17.039826
_cell_length_b 5.123334
_cell_length_c 15.751201
_cell_angle_alpha 90.000000
_cell_angle_beta 90.000000
_cell_angle_gamma 90.000000
_cell_volume 1375.091187
_symmetry_space_group_name_H-M "P C C M"
_symmetry_group_IT_number 49
_symmetry_cell_setting 'orthorhombic'
loop_
_space_group_symop_operation_xyz
x,y,z
-x,-y,z
x,-y,1/2-z
-x,y,1/2-z
-x,-y,-z
x,y,-z
-x,y,1/2+z
x,-y,1/2+z
loop_
_atom_site_type_symbol
_atom_site_label
_atom_site_fract_x
_atom_site_fract_y
_atom_site_fract_z
Si Si1 0.550584 0.742409 0.096656
Si Si2 0.202347 0.364696 0.596909
Si Si3 0.716472 0.884968 0.841734
Si Si4 0.035100 0.749106 0.154895
O O1 0.500000 0.500000 0.132988
O O2 0.627486 0.784733 0.152631
O O3 0.500000 0.000000 0.102286
O O4 0.576681 0.681058 0.000000
O O5 0.179154 0.424367 0.500000
O O6 0.230024 0.633655 0.639659
O O7 0.129110 0.256241 0.651410
O O8 0.267125 0.131414 0.596170
O O9 0.735074 0.000000 0.750000
O O10 0.000000 0.500000 0.105850
O O11 0.000000 0.750369 0.250000
O O12 0.000000 0.000000 0.106627
#
# Coordination Sequence:
#
# PCOD8204387 Si02
#       4
#     8   8   8   8
#     4  10  21  41  70 100 137 182 228 283 346 410
#     4  12  26  45  71 103 144 187 243 299 357 429
#     4  12  27  44  71 106 144 193 238 295 358 427
#     4  10  23  40  67  97 134 182 226 297 350 431
#
# _framework density 23.271184000000002
#
# number of rings (size 3 to 8) (size 9 to 14) (size 15 to 20)
#    0.000    1.000    0.000    6.000   10.500    3.500 
#    0.000    1.250    0.000    0.000    0.000    0.000 
#    0.000    0.000    0.000    0.000    0.000    0.000 
#
# Total GULP energy -396725.971244 kJ/mol
# GULP energy per Si atom -12397.686601 kJ/mol
# Density = 2.321822 g / cm^3
# Si number density = 23.271184 Si / 1000 Ang^3
#
#
#
# Elastic Constant Matrix: (Units=GPa)
#
#
# Indices 1 2 3 4 5 6 
#
# 1 136.9071 71.5854 60.0122 0.0000 0.0000 0.0000
# 2 71.5854 233.6336 43.5580 0.0000 0.0000 0.0000
# 3 60.0122 43.5580 94.0681 0.0000 0.0000 0.0000
# 4 0.0000 0.0000 0.0000 28.4939 0.0000 0.0000
# 5 0.0000 0.0000 0.0000 0.0000 41.8224 0.0000
# 6 0.0000 0.0000 0.0000 0.0000 0.0000 51.6703
#
#
#
# Elastic Compliance Matrix: (Units=1/GPa)
#
#
# Indices 1 2 3 4 5 6 
#
# 1 0.011156 -0.002289 -0.006057 0.000000 0.000000 0.000000
# 2 -0.002289 0.005154 -0.000926 0.000000 0.000000 0.000000
# 3 -0.006057 -0.000926 0.014924 0.000000 0.000000 0.000000
# 4 0.000000 0.000000 0.000000 0.035095 0.000000 0.000000
# 5 0.000000 0.000000 0.000000 0.000000 0.023911 0.000000
# 6 0.000000 0.000000 0.000000 0.000000 0.000000 0.019353
#
#
# Mechanical properties :
#
#
# Convention : Reuss Voigt Hill
#
# Bulk Modulus (GPa) = 78.80854 90.54667 84.67761
# Shear Modulus (GPa) = 37.77314 43.69418 40.73366
#
# Velocity S-wave (km/s) = 4.03323 4.33784 4.18831
# Velocity P-wave (km/s) = 7.45842 8.00518 7.73664
#
# Compressibility (1/GPa) = 0.01268898
#
# Stress axis : x y z
#
# Youngs Moduli (GPa) = 89.63539 194.01429 67.00611
#
# Poissons Ratio (x) = 0.44409 0.40589
# Poissons Ratio (y) = 0.20517 0.06207
# Poissons Ratio (z) = 0.54296 0.17973
#
# Static dielectric constant tensor:
#      x y z
#    x 4.053580 0.000000 0.000000 
#    y 0.000000 -0.724650 0.000000 
#    z 0.000000 0.000000 3.855570 
# 
# 
# High freq. dielectric constant tensor:
#      x y z
#    x 1.923210 0.000000 0.000000 
#    y 0.000000 1.956900 0.000000 
#    z 0.000000 0.000000 1.895410 
# 
# From -- ./inp_files/13824.got.cif
#   From: 2010.03.12/outbox.cif.g09.slc.cpg/sg49_7_cif.got.tgz:13824.got - 2010.04.14 03:58:27.
