data_PCOD8204731
_publ_section_title
;
Structure prediction by ZEFSAII (Michael W. Deem and Ramdas Pophale) SiO2 
 PCOD8204731
Probable space group: P B A N
;
_chemical_formula_sum "Si O2"
_cell_formula_units_Z 48
_cell_length_a 33.403861
_cell_length_b 20.191512
_cell_length_c 5.139975
_cell_angle_alpha 90.000000
_cell_angle_beta 90.000000
_cell_angle_gamma 90.000000
_cell_volume 3466.781864
_symmetry_space_group_name_H-M "P B A N"
_symmetry_group_IT_number 50
_space_group.IT_coordinate_system_code '2'
_symmetry_cell_setting 'orthorhombic'
loop_
_space_group_symop_operation_xyz
x,y,z
1/2-x,1/2-y,z
x,1/2-y,-z
1/2-x,y,-z
-x,-y,-z
1/2+x,1/2+y,-z
-x,1/2+y,z
1/2+x,-y,z
loop_
_atom_site_type_symbol
_atom_site_label
_atom_site_fract_x
_atom_site_fract_y
_atom_site_fract_z
Si Si1 0.971439 0.096864 0.537209
Si Si2 0.488360 0.827059 0.021742
Si Si3 0.856357 0.792965 0.754405
Si Si4 0.574052 0.885811 0.034087
Si Si5 0.232243 0.175418 0.253963
Si Si6 0.557144 0.539152 0.456430
O O1 0.961273 0.136768 0.801469
O O2 0.012040 0.058863 0.612019
O O3 0.938746 0.041076 0.455179
O O4 0.975362 0.148808 0.305044
O O5 0.479630 0.750000 0.000000
O O6 0.535767 0.839326 0.982484
O O7 0.869900 0.750000 0.500000
O O8 0.890835 0.841305 0.850834
O O9 0.815245 0.831176 0.701122
O O10 0.844575 0.750000 0.000000
O O11 0.566646 0.940700 0.250636
O O12 0.584922 0.924719 0.763823
O O13 0.250000 0.250000 0.253437
O O14 0.250000 0.136407 0.500000
O O15 0.250000 0.138859 0.000000
#
# Coordination Sequence:
#
# PCOD8204731 Si02
#       6
#     8   8   8   8   8   8
#     4   9  17  28  45  53  67 101 122 152 182 227
#     4  10  18  28  39  58  79  93 118 152 200 240
#     4  12  20  28  41  56  76  99 125 154 210 247
#     4  10  20  28  39  56  77  97 116 160 198 238
#     4  10  16  29  41  53  68  95 129 161 178 231
#     4   9  17  31  41  54  70  92 133 149 180 232
#
# _framework density 13.845693000000001
#
# number of rings (size 3 to 8) (size 9 to 14) (size 15 to 20)
#    0.000    2.000    3.333    3.000    0.000    6.667 
#    0.000    0.000    0.000    0.000    0.000    0.000 
#    0.000    0.000    0.000    0.000    0.000    0.000 
#
# Total GULP energy -594661.791366 kJ/mol
# GULP energy per Si atom -12388.787320 kJ/mol
# Density = 1.381418 g / cm^3
# Si number density = 13.845693 Si / 1000 Ang^3
#
#
#
# Elastic Constant Matrix: (Units=GPa)
#
#
# Indices 1 2 3 4 5 6 
#
# 1 32.1099 16.3510 11.6289 0.0000 0.0000 0.0000
# 2 16.3510 71.6399 32.6985 0.0000 0.0000 0.0000
# 3 11.6289 32.6985 102.7855 0.0000 0.0000 0.0000
# 4 0.0000 0.0000 0.0000 15.2187 0.0000 0.0000
# 5 0.0000 0.0000 0.0000 0.0000 16.8632 0.0000
# 6 0.0000 0.0000 0.0000 0.0000 0.0000 6.4274
#
#
#
# Elastic Compliance Matrix: (Units=1/GPa)
#
#
# Indices 1 2 3 4 5 6 
#
# 1 0.035486 -0.007331 -0.001683 0.000000 0.000000 0.000000
# 2 -0.007331 0.017844 -0.004847 0.000000 0.000000 0.000000
# 3 -0.001683 -0.004847 0.011461 0.000000 0.000000 0.000000
# 4 0.000000 0.000000 0.000000 0.065708 0.000000 0.000000
# 5 0.000000 0.000000 0.000000 0.000000 0.059301 0.000000
# 6 0.000000 0.000000 0.000000 0.000000 0.000000 0.155585
#
#
# Mechanical properties :
#
#
# Convention : Reuss Voigt Hill
#
# Bulk Modulus (GPa) = 26.97651 36.43247 31.70449
# Shear Modulus (GPa) = 12.97138 17.42565 15.19851
#
# Velocity S-wave (km/s) = 3.06413 3.55147 3.31676
# Velocity P-wave (km/s) = 5.66078 6.57173 6.13319
#
# Compressibility (1/GPa) = 0.03706928
#
# Stress axis : x y z
#
# Youngs Moduli (GPa) = 28.18046 56.03987 87.24941
#
# Poissons Ratio (x) = 0.41084 0.14680
# Poissons Ratio (y) = 0.20660 0.42292
# Poissons Ratio (z) = 0.04741 0.27164
#
# Static dielectric constant tensor:
#      x y z
#    x 2.475560 0.000000 0.000000 
#    y 0.000000 2.555490 0.000000 
#    z 0.000000 0.000000 6.066700 
# 
# 
# High freq. dielectric constant tensor:
#      x y z
#    x 1.474940 0.000000 0.000000 
#    y 0.000000 1.494620 0.000000 
#    z 0.000000 0.000000 1.563040 
# 
# From -- ./inp_files/7244.got.cif
#   From: 2010.03.12/outbox.cif.g09.slc.cpg/sg50_4_cif.got.tgz:7244.got - 2010.04.16 13:23:21.
