data_PCOD8204033
_publ_section_title
;
Structure prediction by ZEFSAII (Michael W. Deem and Ramdas Pophale) SiO2 
 PCOD8204033
Probable space group: P C C M
;
_chemical_formula_sum "Si O2"
_cell_formula_units_Z 64
_cell_length_a 13.966314
_cell_length_b 8.522700
_cell_length_c 25.264491
_cell_angle_alpha 90.000000
_cell_angle_beta 90.000000
_cell_angle_gamma 90.000000
_cell_volume 3007.250158
_symmetry_space_group_name_H-M "P C C M"
_symmetry_group_IT_number 49
_symmetry_cell_setting 'orthorhombic'
loop_
_space_group_symop_operation_xyz
x,y,z
-x,-y,z
x,-y,1/2-z
-x,y,1/2-z
-x,-y,-z
x,y,-z
-x,y,1/2+z
x,-y,1/2+z
loop_
_atom_site_type_symbol
_atom_site_label
_atom_site_fract_x
_atom_site_fract_y
_atom_site_fract_z
Si Si1 0.906943 0.296460 0.351606
Si Si2 0.193315 0.814574 0.249925
Si Si3 0.727394 0.409889 0.059836
Si Si4 0.123768 0.339146 0.357362
Si Si5 0.599909 0.818351 0.733785
Si Si6 0.567254 0.148737 0.440885
Si Si7 0.774144 0.224523 0.558108
Si Si8 0.449715 0.653012 0.867805
O O1 0.883822 0.233353 0.293396
O O2 0.876691 0.475961 0.347576
O O3 0.850391 0.194399 0.395424
O O4 0.017320 0.274648 0.367280
O O5 0.164052 0.749497 0.193279
O O6 0.302650 0.751924 0.261197
O O7 0.197440 0.000000 0.250000
O O8 0.809795 0.312028 0.091199
O O9 0.746843 0.593736 0.059550
O O10 0.625420 0.387195 0.086711
O O11 0.724843 0.342991 0.000000
O O12 0.500000 0.733887 0.750000
O O13 0.603877 0.774543 0.671638
O O14 0.592168 0.000000 0.750000
O O15 0.553730 0.218825 0.500000
O O16 0.680636 0.114895 0.432187
O O17 0.540322 0.269297 0.395730
O O18 0.500000 0.000000 0.433261
O O19 0.818275 0.185548 0.500000
O O20 0.500000 0.500000 0.840873
#
# Coordination Sequence:
#
# PCOD8204033 Si02
#       8
#     8   8   8   8   8   8   8   8
#     4  10  22  37  65  85 121 162 205 265 320 372
#     4  11  23  40  64  89 118 161 210 258 312 378
#     4  10  20  37  63  94 129 160 202 264 318 374
#     4  10  21  41  58  93 120 157 210 261 319 375
#     4  10  25  43  60  89 127 167 201 254 315 376
#     4  10  22  36  57  88 123 163 206 250 303 376
#     4   9  19  37  59  90 123 159 207 255 311 375
#     4  12  23  38  64  93 122 163 210 255 314 380
#
# _framework density 21.281901000000001
#
# number of rings (size 3 to 8) (size 9 to 14) (size 15 to 20)
#    0.000    1.750    2.500    1.125    3.500    4.250 
#    2.250    2.500    0.000    0.000    0.000    1.750 
#    0.000    0.000    0.000    0.000    0.000    0.000 
#
# Total GULP energy -792982.148016 kJ/mol
# GULP energy per Si atom -12390.346063 kJ/mol
# Density = 2.123346 g / cm^3
# Si number density = 21.281901 Si / 1000 Ang^3
#
#
#
# Elastic Constant Matrix: (Units=GPa)
#
#
# Indices 1 2 3 4 5 6 
#
# 1 132.0142 36.9303 54.3602 0.0000 0.0000 0.0000
# 2 36.9303 41.3299 34.7613 0.0000 0.0000 0.0000
# 3 54.3602 34.7613 127.4094 0.0000 0.0000 0.0000
# 4 0.0000 0.0000 0.0000 16.8714 0.0000 0.0000
# 5 0.0000 0.0000 0.0000 0.0000 32.6323 0.0000
# 6 0.0000 0.0000 0.0000 0.0000 0.0000 28.7660
#
#
#
# Elastic Compliance Matrix: (Units=1/GPa)
#
#
# Indices 1 2 3 4 5 6 
#
# 1 0.010697 -0.007423 -0.002539 0.000000 0.000000 0.000000
# 2 -0.007423 0.036552 -0.006806 0.000000 0.000000 0.000000
# 3 -0.002539 -0.006806 0.010789 0.000000 0.000000 0.000000
# 4 0.000000 0.000000 0.000000 0.059272 0.000000 0.000000
# 5 0.000000 0.000000 0.000000 0.000000 0.030645 0.000000
# 6 0.000000 0.000000 0.000000 0.000000 0.000000 0.034763
#
#
# Mechanical properties :
#
#
# Convention : Reuss Voigt Hill
#
# Bulk Modulus (GPa) = 40.81069 61.42857 51.11963
# Shear Modulus (GPa) = 22.27972 27.30073 24.79022
#
# Velocity S-wave (km/s) = 3.23907 3.58553 3.41669
# Velocity P-wave (km/s) = 5.76252 6.78736 6.29583
#
# Compressibility (1/GPa) = 0.02450339
#
# Stress axis : x y z
#
# Youngs Moduli (GPa) = 93.48565 27.35810 92.69023
#
# Poissons Ratio (x) = 0.20308 0.23531
# Poissons Ratio (y) = 0.69394 0.63081
# Poissons Ratio (z) = 0.23733 0.18619
#
# Static dielectric constant tensor:
#      x y z
#    x 4.225120 0.000000 0.000000 
#    y 0.000000 3.647110 0.000000 
#    z 0.000000 0.000000 4.012000 
# 
# 
# High freq. dielectric constant tensor:
#      x y z
#    x 1.848390 0.000000 0.000000 
#    y 0.000000 1.807330 0.000000 
#    z 0.000000 0.000000 1.838390 
# 
# From -- ./inp_files/23229.got.cif
#   From: 2010.03.12/outbox.cif.g09.slc.cpg/sg49_12_cif.got.tgz:23229.got - 2010.04.14 03:58:27.
