data_PCOD8204658
_publ_section_title
;
Structure prediction by ZEFSAII (Michael W. Deem and Ramdas Pophale) SiO2 
 PCOD8204658
Probable space group: P C C M
;
_chemical_formula_sum "Si O2"
_cell_formula_units_Z 64
_cell_length_a 8.592657
_cell_length_b 26.513044
_cell_length_c 14.520977
_cell_angle_alpha 90.000000
_cell_angle_beta 90.000000
_cell_angle_gamma 90.000000
_cell_volume 3308.132578
_symmetry_space_group_name_H-M "P C C M"
_symmetry_group_IT_number 49
_symmetry_cell_setting 'orthorhombic'
loop_
_space_group_symop_operation_xyz
x,y,z
-x,-y,z
x,-y,1/2-z
-x,y,1/2-z
-x,-y,-z
x,y,-z
-x,y,1/2+z
x,-y,1/2+z
loop_
_atom_site_type_symbol
_atom_site_label
_atom_site_fract_x
_atom_site_fract_y
_atom_site_fract_z
Si Si1 0.684686 0.136219 0.395734
Si Si2 0.170301 0.500000 0.391296
Si Si3 0.816647 0.391000 0.893163
Si Si4 0.181703 0.791192 0.250000
Si Si5 0.684686 0.136219 0.895734
Si Si6 0.816647 0.609000 0.106837
Si Si7 0.315448 0.943989 0.750000
Si Si8 0.680220 0.317343 0.750000
O O1 0.750438 0.134499 0.500000
O O2 0.747579 0.185112 0.342936
O O3 0.500000 0.139711 0.396295
O O4 0.740109 0.085951 0.341346
O O5 0.150785 0.500000 0.500000
O O6 0.250381 0.446793 0.362920
O O7 0.250381 0.553207 0.362920
O O8 0.000000 0.500000 0.346069
O O9 0.719836 0.349184 0.840294
O O10 1.000000 0.387335 0.869978
O O11 0.786710 0.381124 0.000000
O O12 0.252421 0.814888 0.157064
O O13 0.215917 0.732302 0.250000
O O14 0.000000 0.801225 0.250000
O O15 0.740109 0.085951 0.841346
O O16 0.750438 0.134499 0.000000
O O17 0.719837 0.650816 0.159706
O O18 0.786709 0.618876 0.000000
O O19 0.500000 0.947993 0.750000
O O20 0.240966 0.000000 0.750000
O O21 0.500000 0.302292 0.750000
#
# Coordination Sequence:
#
# PCOD8204658 Si02
#       8
#     8   8   8   8   8   8   8   8
#     4   9  18  34  56  81 110 144 180 219 266 314
#     4   7  12  27  53  80 103 131 168 210 253 299
#     4   9  18  35  58  81 105 135 174 216 256 305
#     4  11  23  39  57  75  99 133 179 230 271 314
#     4   9  18  34  56  81 110 144 180 219 266 314
#     4   9  18  35  58  81 105 135 174 216 256 305
#     4   8  14  26  48  83 122 151 178 214 253 299
#     4  12  25  38  53  76 108 140 171 213 269 327
#
# _framework density 19.346261999999999
#
# number of rings (size 3 to 8) (size 9 to 14) (size 15 to 20)
#    0.000    2.750    0.000    4.500    0.000    3.000 
#    0.000    5.625    0.000    8.250    0.000    7.000 
#    0.000    0.000    0.000    0.000    0.000    0.000 
#
# Total GULP energy -793094.363548 kJ/mol
# GULP energy per Si atom -12392.099430 kJ/mol
# Density = 1.930223 g / cm^3
# Si number density = 19.346262 Si / 1000 Ang^3
#
#
#
# Elastic Constant Matrix: (Units=GPa)
#
#
# Indices 1 2 3 4 5 6 
#
# 1 31.3417 8.6255 21.2986 0.0000 0.0000 0.0000
# 2 8.6255 145.6997 61.8660 0.0000 0.0000 0.0000
# 3 21.2986 61.8660 144.4313 0.0000 0.0000 0.0000
# 4 0.0000 0.0000 0.0000 21.9700 0.0000 0.0000
# 5 0.0000 0.0000 0.0000 0.0000 26.0981 0.0000
# 6 0.0000 0.0000 0.0000 0.0000 0.0000 -4.9526
#
#
#
# Elastic Compliance Matrix: (Units=1/GPa)
#
#
# Indices 1 2 3 4 5 6 
#
# 1 0.035462 0.000148 -0.005293 0.000000 0.000000 0.000000
# 2 0.000148 0.008390 -0.003616 0.000000 0.000000 0.000000
# 3 -0.005293 -0.003616 0.009253 0.000000 0.000000 0.000000
# 4 0.000000 0.000000 0.000000 0.045517 0.000000 0.000000
# 5 0.000000 0.000000 0.000000 0.000000 0.038317 0.000000
# 6 0.000000 0.000000 0.000000 0.000000 0.000000 -0.201915
#
#
# Mechanical properties :
#
#
# Convention : Reuss Voigt Hill
#
# Bulk Modulus (GPa) = 28.10219 56.11697 42.10958
# Shear Modulus (GPa) = -140.47399 23.93528 -58.26936
#
# Velocity S-wave (km/s) = -8.53042 3.52121 -5.49405
# Velocity P-wave (km/s) = 9.08111 6.75289 4.29332
#
# Compressibility (1/GPa) = 0.03558441
#
# Stress axis : x y z
#
# Youngs Moduli (GPa) = 28.19887 119.19110 108.07394
#
# Poissons Ratio (x) = -0.01764 0.57202
# Poissons Ratio (y) = -0.00417 0.39075
# Poissons Ratio (z) = 0.14925 0.43094
#
# Static dielectric constant tensor:
#      x y z
#    x 3.126870 0.000000 0.000000 
#    y 0.000000 3.772100 0.000000 
#    z 0.000000 0.000000 3.670630 
# 
# 
# High freq. dielectric constant tensor:
#      x y z
#    x 1.710670 0.000000 0.000000 
#    y 0.000000 1.760590 0.000000 
#    z 0.000000 0.000000 1.757930 
# 
# From -- ./inp_files/12145.got.cif
#   From: 2010.03.12/outbox.cif.g09.slc.cpg/sg49_7_cif.got.tgz:12145.got - 2010.04.14 03:58:27.
