data_PCOD8204686
_publ_section_title
;
Structure prediction by ZEFSAII (Michael W. Deem and Ramdas Pophale) SiO2 
 PCOD8204686
Probable space group: P C C M
;
_chemical_formula_sum "Si O2"
_cell_formula_units_Z 40
_cell_length_a 8.534877
_cell_length_b 22.474467
_cell_length_c 9.841330
_cell_angle_alpha 90.000000
_cell_angle_beta 90.000000
_cell_angle_gamma 90.000000
_cell_volume 1887.732541
_symmetry_space_group_name_H-M "P C C M"
_symmetry_group_IT_number 49
_symmetry_cell_setting 'orthorhombic'
loop_
_space_group_symop_operation_xyz
x,y,z
-x,-y,z
x,-y,1/2-z
-x,y,1/2-z
-x,-y,-z
x,y,-z
-x,y,1/2+z
x,-y,1/2+z
loop_
_atom_site_type_symbol
_atom_site_label
_atom_site_fract_x
_atom_site_fract_y
_atom_site_fract_z
Si Si1 0.682062 0.641201 0.000000
Si Si2 0.821421 0.226476 0.500000
Si Si3 0.179100 0.429462 0.752436
Si Si4 0.683402 0.826416 0.733552
Si Si5 0.815497 0.247929 0.000000
Si Si6 0.681152 0.628367 0.500000
Si Si7 0.157792 0.053658 0.663059
O O1 0.734774 0.601514 0.875593
O O2 0.757350 0.706581 0.000000
O O3 0.496237 0.651729 0.000000
O O4 0.767202 0.187555 0.626216
O O5 0.007662 0.225979 0.500000
O O6 0.180731 0.500000 0.750000
O O7 0.284419 0.412338 0.626713
O O8 0.000000 0.406194 0.750000
O O9 0.500000 0.827642 0.750000
O O10 0.726524 0.773569 0.633089
O O11 0.734182 0.888911 0.670067
O O12 0.806670 0.318603 0.000000
O O13 0.130025 0.039100 0.500000
O O14 0.000000 0.065938 0.750000
O O15 0.240020 0.000000 0.750000
#
# Coordination Sequence:
#
# PCOD8204686 Si02
#       7
#     4   4   8   8   4   4   8
#     4  12  25  43  64 100 131 172 219 274 345 391
#     4  12  26  43  72  93 132 179 221 275 325 408
#     4  11  24  43  66  94 130 174 223 272 327 399
#     4  12  26  44  67 101 138 172 218 280 340 393
#     4  12  24  47  66  97 128 175 229 265 333 402
#     4  12  25  41  68  94 135 170 215 280 333 401
#     4  11  24  44  71 104 140 183 231 277 328 397
#
# _framework density 21.189442
#
# number of rings (size 3 to 8) (size 9 to 14) (size 15 to 20)
#    0.000    0.400    1.000    9.000    2.800    4.400 
#    0.000    1.000    0.000    0.000    0.000    0.000 
#    0.000    0.000    0.000    0.000    0.000    0.000 
#
# Total GULP energy -495910.921373 kJ/mol
# GULP energy per Si atom -12397.773034 kJ/mol
# Density = 2.114121 g / cm^3
# Si number density = 21.189442 Si / 1000 Ang^3
#
#
#
# Elastic Constant Matrix: (Units=GPa)
#
#
# Indices 1 2 3 4 5 6 
#
# 1 121.2856 24.9991 42.1655 0.0000 0.0000 0.0000
# 2 24.9991 96.1411 36.9402 0.0000 0.0000 0.0000
# 3 42.1655 36.9402 182.9805 0.0000 0.0000 0.0000
# 4 0.0000 0.0000 0.0000 86.3171 0.0000 0.0000
# 5 0.0000 0.0000 0.0000 0.0000 34.6276 0.0000
# 6 0.0000 0.0000 0.0000 0.0000 0.0000 22.0931
#
#
#
# Elastic Compliance Matrix: (Units=1/GPa)
#
#
# Indices 1 2 3 4 5 6 
#
# 1 0.009216 -0.001713 -0.001778 0.000000 0.000000 0.000000
# 2 -0.001713 0.011595 -0.001946 0.000000 0.000000 0.000000
# 3 -0.001778 -0.001946 0.006268 0.000000 0.000000 0.000000
# 4 0.000000 0.000000 0.000000 0.011585 0.000000 0.000000
# 5 0.000000 0.000000 0.000000 0.000000 0.028879 0.000000
# 6 0.000000 0.000000 0.000000 0.000000 0.000000 0.045263
#
#
# Mechanical properties :
#
#
# Convention : Reuss Voigt Hill
#
# Bulk Modulus (GPa) = 61.71253 67.62408 64.66830
# Shear Modulus (GPa) = 38.73540 48.36104 43.54822
#
# Velocity S-wave (km/s) = 4.28021 4.78254 4.53833
# Velocity P-wave (km/s) = 7.32218 7.90445 7.61888
#
# Compressibility (1/GPa) = 0.01620417
#
# Stress axis : x y z
#
# Youngs Moduli (GPa) = 108.50416 86.24728 159.55092
#
# Poissons Ratio (x) = 0.14777 0.28366
# Poissons Ratio (y) = 0.18590 0.31047
# Poissons Ratio (z) = 0.19291 0.16783
#
# Static dielectric constant tensor:
#      x y z
#    x 3.938780 0.000000 0.000000 
#    y 0.000000 4.066310 0.000000 
#    z 0.000000 0.000000 -2.058180 
# 
# 
# High freq. dielectric constant tensor:
#      x y z
#    x 1.836160 0.000000 0.000000 
#    y 0.000000 1.847940 0.000000 
#    z 0.000000 0.000000 1.854970 
# 
# From -- ./inp_files/1840.got.cif
#   From: 2010.03.12/outbox.cif.g09.slc.cpg/sg49_1_cif.got.tgz:1840.got - 2010.04.14 03:58:27.
