data_PCOD8204409
_publ_section_title
;
Structure prediction by ZEFSAII (Michael W. Deem and Ramdas Pophale) SiO2 
 PCOD8204409
Probable space group: P C C M
;
_chemical_formula_sum "Si O2"
_cell_formula_units_Z 48
_cell_length_a 9.694390
_cell_length_b 13.559115
_cell_length_c 16.577383
_cell_angle_alpha 90.000000
_cell_angle_beta 90.000000
_cell_angle_gamma 90.000000
_cell_volume 2179.053046
_symmetry_space_group_name_H-M "P C C M"
_symmetry_group_IT_number 49
_symmetry_cell_setting 'orthorhombic'
loop_
_space_group_symop_operation_xyz
x,y,z
-x,-y,z
x,-y,1/2-z
-x,y,1/2-z
-x,-y,-z
x,y,-z
-x,y,1/2+z
x,-y,1/2+z
loop_
_atom_site_type_symbol
_atom_site_label
_atom_site_fract_x
_atom_site_fract_y
_atom_site_fract_z
Si Si1 0.570289 0.368335 0.407669
Si Si2 0.119961 0.284227 0.308583
Si Si3 0.698633 0.543620 0.339098
Si Si4 0.914491 0.094372 0.091904
Si Si5 0.658106 0.974060 0.090024
Si Si6 0.639933 0.196778 0.298093
O O1 0.521557 0.360696 0.500000
O O2 0.693198 0.450139 0.400105
O O3 0.444294 0.397626 0.349440
O O4 0.619851 0.263621 0.376957
O O5 0.174448 0.380835 0.357694
O O6 0.055542 0.197041 0.362984
O O7 0.250865 0.244505 0.260770
O O8 0.000000 0.321757 0.250000
O O9 0.711745 0.500000 0.250000
O O10 0.751254 0.071882 0.100122
O O11 0.960574 0.111291 0.000000
O O12 0.000000 0.000000 0.126882
O O13 0.702044 0.901845 0.162243
O O14 0.500000 0.000000 0.101333
O O15 0.684198 0.929763 0.000000
O O16 0.500000 0.174540 0.250000
#
# Coordination Sequence:
#
# PCOD8204409 Si02
#       6
#     8   8   8   8   8   8
#     4  11  22  39  68  99 128 173 223 274 332 403
#     4  12  26  41  68  98 130 176 223 269 332 395
#     4  11  21  42  65  93 134 165 217 272 326 388
#     4  10  23  45  67  91 131 178 225 273 327 401
#     4  10  22  38  59  91 128 165 208 274 342 390
#     4  12  22  40  62  94 131 169 221 282 330 399
#
# _framework density 22.027916000000001
#
# number of rings (size 3 to 8) (size 9 to 14) (size 15 to 20)
#    0.000    1.000    3.333    4.500    0.000    5.667 
#    0.000    0.833    0.000    1.000    0.000    0.000 
#    0.000    0.000    0.000    0.000    0.000    0.000 
#
# Total GULP energy -595025.063792 kJ/mol
# GULP energy per Si atom -12396.355496 kJ/mol
# Density = 2.197778 g / cm^3
# Si number density = 22.027916 Si / 1000 Ang^3
#
#
#
# Elastic Constant Matrix: (Units=GPa)
#
#
# Indices 1 2 3 4 5 6 
#
# 1 80.3326 17.5419 12.4927 0.0000 0.0000 0.0000
# 2 17.5419 101.3401 37.9042 0.0000 0.0000 0.0000
# 3 12.4927 37.9042 69.3142 0.0000 0.0000 0.0000
# 4 0.0000 0.0000 0.0000 28.2759 0.0000 0.0000
# 5 0.0000 0.0000 0.0000 0.0000 17.2512 0.0000
# 6 0.0000 0.0000 0.0000 0.0000 0.0000 32.9040
#
#
#
# Elastic Compliance Matrix: (Units=1/GPa)
#
#
# Indices 1 2 3 4 5 6 
#
# 1 0.013045 -0.001733 -0.001403 0.000000 0.000000 0.000000
# 2 -0.001733 0.012635 -0.006597 0.000000 0.000000 0.000000
# 3 -0.001403 -0.006597 0.018288 0.000000 0.000000 0.000000
# 4 0.000000 0.000000 0.000000 0.035366 0.000000 0.000000
# 5 0.000000 0.000000 0.000000 0.000000 0.057967 0.000000
# 6 0.000000 0.000000 0.000000 0.000000 0.000000 0.030391
#
#
# Mechanical properties :
#
#
# Convention : Reuss Voigt Hill
#
# Bulk Modulus (GPa) = 40.81553 42.98491 41.90022
# Shear Modulus (GPa) = 25.59817 27.88943 26.74380
#
# Velocity S-wave (km/s) = 3.41263 3.56208 3.48815
# Velocity P-wave (km/s) = 5.83928 6.03938 5.94017
#
# Compressibility (1/GPa) = 0.02450048
#
# Stress axis : x y z
#
# Youngs Moduli (GPa) = 76.65799 79.14324 54.68173
#
# Poissons Ratio (x) = 0.13717 0.07674
# Poissons Ratio (y) = 0.13286 0.36075
# Poissons Ratio (z) = 0.10758 0.52212
#
# Static dielectric constant tensor:
#      x y z
#    x 4.036230 0.000000 0.000000 
#    y 0.000000 4.470370 0.000000 
#    z 0.000000 0.000000 3.892300 
# 
# 
# High freq. dielectric constant tensor:
#      x y z
#    x 1.852490 0.000000 0.000000 
#    y 0.000000 1.872160 0.000000 
#    z 0.000000 0.000000 1.859010 
# 
# From -- ./inp_files/16337.got.cif
#   From: 2010.03.12/outbox.cif.g09.slc.cpg/sg49_9_cif.got.tgz:16337.got - 2010.04.14 03:58:27.
