data_PCOD8204426
_publ_section_title
;
Structure prediction by ZEFSAII (Michael W. Deem and Ramdas Pophale) SiO2 
 PCOD8204426
Probable space group: P C C M
;
_chemical_formula_sum "Si O2"
_cell_formula_units_Z 64
_cell_length_a 7.802396
_cell_length_b 23.883377
_cell_length_c 16.328894
_cell_angle_alpha 90.000000
_cell_angle_beta 90.000000
_cell_angle_gamma 90.000000
_cell_volume 3042.849639
_symmetry_space_group_name_H-M "P C C M"
_symmetry_group_IT_number 49
_symmetry_cell_setting 'orthorhombic'
loop_
_space_group_symop_operation_xyz
x,y,z
-x,-y,z
x,-y,1/2-z
-x,y,1/2-z
-x,-y,-z
x,y,-z
-x,y,1/2+z
x,-y,1/2+z
loop_
_atom_site_type_symbol
_atom_site_label
_atom_site_fract_x
_atom_site_fract_y
_atom_site_fract_z
Si Si1 0.192923 0.635058 0.156100
Si Si2 0.305681 0.126765 0.591368
Si Si3 0.195694 0.247544 0.906694
Si Si4 0.804306 0.752456 0.593306
Si Si5 0.694319 0.873235 0.091368
Si Si6 0.295854 0.935856 0.250000
Si Si7 0.807075 0.635059 0.156101
Si Si8 0.500001 0.438671 0.094585
O O1 0.255151 0.699415 0.146786
O O2 0.188389 0.618838 0.250000
O O3 0.326890 0.594070 0.114778
O O4 0.999999 0.628252 0.118198
O O5 0.219016 0.117441 0.500000
O O6 0.303529 0.192370 0.615113
O O7 0.500000 0.106541 0.584068
O O8 0.218935 0.092172 0.666393
O O9 0.303528 0.192370 0.884888
O O10 0.255151 0.300584 0.853213
O O11 1.000000 0.231678 0.888449
O O12 0.225074 0.265753 0.000000
O O13 0.774926 0.734247 0.500000
O O14 0.781065 0.907828 0.166393
O O15 0.780985 0.882559 0.000000
O O16 0.500000 0.928334 0.250000
O O17 0.238048 0.000000 0.250000
O O18 0.673105 0.594071 0.114780
O O19 0.500000 0.500000 0.138235
O O20 0.499997 0.449016 0.000000
#
# Coordination Sequence:
#
# PCOD8204426 Si02
#       8
#     8   8   8   8   8   8   8   8
#     4  10  22  39  60  89 121 155 195 243 301 359
#     4   9  18  31  49  75 103 137 181 229 283 338
#     4   9  18  33  53  78 110 145 180 226 284 342
#     4   9  18  33  53  78 110 145 180 226 284 342
#     4   9  18  31  49  75 103 137 181 229 283 338
#     4   9  18  32  49  73 105 139 179 228 277 332
#     4  10  22  39  60  89 121 155 195 243 301 359
#     4  11  25  43  63  87 117 159 205 246 291 346
#
# _framework density 21.032914999999999
#
# number of rings (size 3 to 8) (size 9 to 14) (size 15 to 20)
#    0.000    2.500    0.000    1.125    3.500    3.500 
#    0.000    5.000    0.000    1.500    0.000    3.500 
#    0.000    0.000    0.000    0.000    0.000    0.000 
#
# Total GULP energy -793087.615666 kJ/mol
# GULP energy per Si atom -12391.993995 kJ/mol
# Density = 2.098504 g / cm^3
# Si number density = 21.032915 Si / 1000 Ang^3
#
#
#
# Elastic Constant Matrix: (Units=GPa)
#
#
# Indices 1 2 3 4 5 6 
#
# 1 58.1121 41.3248 30.7281 0.0000 0.0000 0.0000
# 2 41.3248 145.8514 69.9812 0.0000 0.0000 0.0000
# 3 30.7281 69.9812 114.6371 0.0000 0.0000 0.0000
# 4 0.0000 0.0000 0.0000 83.5015 0.0000 0.0000
# 5 0.0000 0.0000 0.0000 0.0000 18.7709 0.0000
# 6 0.0000 0.0000 0.0000 0.0000 0.0000 -8.3036
#
#
#
# Elastic Compliance Matrix: (Units=1/GPa)
#
#
# Indices 1 2 3 4 5 6 
#
# 1 0.022253 -0.004869 -0.002992 0.000000 0.000000 0.000000
# 2 -0.004869 0.010762 -0.005264 0.000000 0.000000 0.000000
# 3 -0.002992 -0.005264 0.012739 0.000000 0.000000 0.000000
# 4 0.000000 0.000000 0.000000 0.011976 0.000000 0.000000
# 5 0.000000 0.000000 0.000000 0.000000 0.053274 0.000000
# 6 0.000000 0.000000 0.000000 0.000000 0.000000 -0.120430
#
#
# Mechanical properties :
#
#
# Convention : Reuss Voigt Hill
#
# Bulk Modulus (GPa) = 51.27762 66.96321 59.12041
# Shear Modulus (GPa) = 214.34937 30.56487 122.45712
#
# Velocity S-wave (km/s) = 10.10607 3.81621 7.63859
# Velocity P-wave (km/s) = 12.67318 7.16411 10.29402
#
# Compressibility (1/GPa) = 0.01950169
#
# Stress axis : x y z
#
# Youngs Moduli (GPa) = 44.93764 92.92032 78.49894
#
# Poissons Ratio (x) = 0.45246 0.23490
# Poissons Ratio (y) = 0.21882 0.41326
# Poissons Ratio (z) = 0.13447 0.48918
#
# Static dielectric constant tensor:
#      x y z
#    x 3.748960 0.000000 0.000000 
#    y 0.000000 3.779480 0.000000 
#    z 0.000000 0.000000 4.020050 
# 
# 
# High freq. dielectric constant tensor:
#      x y z
#    x 1.799920 0.000000 0.000000 
#    y 0.000000 1.816630 0.000000 
#    z 0.000000 0.000000 1.827840 
# 
# From -- ./inp_files/12152.got.cif
#   From: 2010.03.12/outbox.cif.g09.slc.cpg/sg49_7_cif.got.tgz:12152.got - 2010.04.14 03:58:27.
