data_PCOD8204241
_publ_section_title
;
Structure prediction by ZEFSAII (Michael W. Deem and Ramdas Pophale) SiO2 
 PCOD8204241
Probable space group: P C C M
;
_chemical_formula_sum "Si O2"
_cell_formula_units_Z 26
_cell_length_a 7.382740
_cell_length_b 16.561485
_cell_length_c 9.105787
_cell_angle_alpha 90.000000
_cell_angle_beta 90.000000
_cell_angle_gamma 90.000000
_cell_volume 1113.356725
_symmetry_space_group_name_H-M "P C C M"
_symmetry_group_IT_number 49
_symmetry_cell_setting 'orthorhombic'
loop_
_space_group_symop_operation_xyz
x,y,z
-x,-y,z
x,-y,1/2-z
-x,y,1/2-z
-x,-y,-z
x,y,-z
-x,y,1/2+z
x,-y,1/2+z
loop_
_atom_site_type_symbol
_atom_site_label
_atom_site_fract_x
_atom_site_fract_y
_atom_site_fract_z
Si Si1 0.191656 0.423676 0.172457
Si Si2 0.319871 0.753146 0.328136
Si Si3 0.500000 0.000000 0.750000
Si Si4 0.166306 0.894953 0.833992
O O1 0.293683 0.500000 0.250000
O O2 0.296549 0.341468 0.203758
O O3 0.000000 0.414798 0.250000
O O4 0.168769 0.440289 0.000000
O O5 0.500000 0.782105 0.250000
O O6 0.327153 0.772135 0.500000
O O7 0.171463 0.809303 0.251812
O O8 0.641417 0.056531 0.839233
O O9 0.000000 0.941196 0.750000
O O10 0.106467 0.878837 0.000000
#
# Coordination Sequence:
#
# PCOD8204241 Si02
#       4
#     8   8   2   8
#     4  10  21  37  60  91 127 171 222 277 334 399
#     4  11  24  42  66  97 134 177 227 281 342 405
#     4  12  28  48  76 108 140 180 232 280 350 406
#     4  12  27  47  74 105 142 184 231 283 344 414
#
# _framework density 23.352803000000002
#
# number of rings (size 3 to 8) (size 9 to 14) (size 15 to 20)
#    0.000    0.923    1.538    5.538    0.000   12.923 
#    0.000    3.077    0.000    0.000    0.000    0.000 
#    0.000    0.000    0.000    0.000    0.000    0.000 
#
# Total GULP energy -322108.159968 kJ/mol
# GULP energy per Si atom -12388.775383 kJ/mol
# Density = 2.329965 g / cm^3
# Si number density = 23.352803 Si / 1000 Ang^3
#
#
#
# Elastic Constant Matrix: (Units=GPa)
#
#
# Indices 1 2 3 4 5 6 
#
# 1 121.2020 28.4576 52.2764 0.0000 0.0000 0.0000
# 2 28.4576 136.0114 77.8433 0.0000 0.0000 0.0000
# 3 52.2764 77.8433 201.0101 0.0000 0.0000 0.0000
# 4 0.0000 0.0000 0.0000 23.5809 0.0000 0.0000
# 5 0.0000 0.0000 0.0000 0.0000 24.8344 0.0000
# 6 0.0000 0.0000 0.0000 0.0000 0.0000 -95.3971
#
#
#
# Elastic Compliance Matrix: (Units=1/GPa)
#
#
# Indices 1 2 3 4 5 6 
#
# 1 0.009348 -0.000725 -0.002150 0.000000 0.000000 0.000000
# 2 -0.000725 0.009502 -0.003491 0.000000 0.000000 0.000000
# 3 -0.002150 -0.003491 0.006886 0.000000 0.000000 0.000000
# 4 0.000000 0.000000 0.000000 0.042407 0.000000 0.000000
# 5 0.000000 0.000000 0.000000 0.000000 0.040267 0.000000
# 6 0.000000 0.000000 0.000000 0.000000 0.000000 -0.010483
#
#
# Mechanical properties :
#
#
# Convention : Reuss Voigt Hill
#
# Bulk Modulus (GPa) = 76.90473 86.15313 81.52893
# Shear Modulus (GPa) = 43.47972 10.58008 27.02990
#
# Velocity S-wave (km/s) = 4.31961 2.13082 3.40584
# Velocity P-wave (km/s) = 7.60802 6.55941 7.10309
#
# Compressibility (1/GPa) = 0.01300310
#
# Stress axis : x y z
#
# Youngs Moduli (GPa) = 106.96941 105.23895 145.21953
#
# Poissons Ratio (x) = 0.07632 0.31228
# Poissons Ratio (y) = 0.07758 0.50699
# Poissons Ratio (z) = 0.23003 0.36741
#
# Static dielectric constant tensor:
#      x y z
#    x 4.162670 0.000000 0.000000 
#    y 0.000000 5.033510 0.000000 
#    z 0.000000 0.000000 4.029110 
# 
# 
# High freq. dielectric constant tensor:
#      x y z
#    x 1.923100 0.000000 0.000000 
#    y 0.000000 1.949830 0.000000 
#    z 0.000000 0.000000 1.923530 
# 
# From -- ./inp_files/1240.got.cif
#   From: 2010.03.12/outbox.cif.g09.slc.cpg/sg49_1_cif.got.tgz:1240.got - 2010.04.14 03:58:27.
