data_PCOD8204311
_publ_section_title
;
Structure prediction by ZEFSAII (Michael W. Deem and Ramdas Pophale) SiO2 
 PCOD8204311
Probable space group: P C C M
;
_chemical_formula_sum "Si O2"
_cell_formula_units_Z 52
_cell_length_a 20.629257
_cell_length_b 9.499670
_cell_length_c 14.232779
_cell_angle_alpha 90.000000
_cell_angle_beta 90.000000
_cell_angle_gamma 90.000000
_cell_volume 2789.213838
_symmetry_space_group_name_H-M "P C C M"
_symmetry_group_IT_number 49
_symmetry_cell_setting 'orthorhombic'
loop_
_space_group_symop_operation_xyz
x,y,z
-x,-y,z
x,-y,1/2-z
-x,y,1/2-z
-x,-y,-z
x,y,-z
-x,y,1/2+z
x,-y,1/2+z
loop_
_atom_site_type_symbol
_atom_site_label
_atom_site_fract_x
_atom_site_fract_y
_atom_site_fract_z
Si Si1 0.563277 0.088685 0.889279
Si Si2 0.894575 0.666904 0.751752
Si Si3 0.249848 0.278046 0.243286
Si Si4 0.443400 0.595140 0.109755
Si Si5 0.700645 0.485706 0.109923
Si Si6 0.330646 0.000000 0.250000
Si Si7 0.998507 0.666931 0.395978
O O1 0.555497 0.247032 0.848396
O O2 0.500000 0.000000 0.862131
O O3 0.625292 0.017735 0.841924
O O4 0.576384 0.088083 0.000000
O O5 0.880992 0.500000 0.750000
O O6 0.827025 0.748803 0.757515
O O7 0.933480 0.713977 0.658377
O O8 0.936974 0.714953 0.841355
O O9 0.270040 0.374739 0.155397
O O10 0.268205 0.348241 0.342760
O O11 0.284999 0.131452 0.231112
O O12 0.500000 0.500000 0.156219
O O13 0.376103 0.516326 0.129765
O O14 0.456939 0.610771 0.000000
O O15 0.717253 0.482304 0.000000
O O16 0.998079 0.734132 0.500000
O O17 0.000000 0.500000 0.400617
#
# Coordination Sequence:
#
# PCOD8204311 Si02
#       7
#     8   8   8   8   8   4   8
#     4  10  22  40  59  80 111 149 190 238 288 341
#     4   9  16  31  49  77 117 141 178 233 274 325
#     4  11  23  38  55  85 117 151 192 232 280 344
#     4   9  18  35  59  82 103 137 187 240 290 333
#     4  10  21  39  59  80 110 149 191 241 291 334
#     4  12  25  40  58  83 118 156 196 230 284 355
#     4   8  15  27  50  80 109 144 179 221 278 328
#
# _framework density 18.643245
#
# number of rings (size 3 to 8) (size 9 to 14) (size 15 to 20)
#    0.000    2.308    3.077    1.154    2.154    1.846 
#    0.000    1.538    0.000    1.846    0.000    1.077 
#    0.000    0.000    0.000    0.000    0.000    0.000 
#
# Total GULP energy -644794.474948 kJ/mol
# GULP energy per Si atom -12399.893749 kJ/mol
# Density = 1.860081 g / cm^3
# Si number density = 18.643245 Si / 1000 Ang^3
#
#
#
# Elastic Constant Matrix: (Units=GPa)
#
#
# Indices 1 2 3 4 5 6 
#
# 1 173.7984 61.3985 63.9889 0.0000 0.0000 0.0000
# 2 61.3985 100.0509 39.3721 0.0000 0.0000 0.0000
# 3 63.9889 39.3721 120.0581 0.0000 0.0000 0.0000
# 4 0.0000 0.0000 0.0000 9.7208 0.0000 0.0000
# 5 0.0000 0.0000 0.0000 0.0000 18.4833 0.0000
# 6 0.0000 0.0000 0.0000 0.0000 0.0000 16.7061
#
#
#
# Elastic Compliance Matrix: (Units=1/GPa)
#
#
# Indices 1 2 3 4 5 6 
#
# 1 0.008268 -0.003835 -0.003149 0.000000 0.000000 0.000000
# 2 -0.003835 0.013254 -0.002303 0.000000 0.000000 0.000000
# 3 -0.003149 -0.002303 0.010763 0.000000 0.000000 0.000000
# 4 0.000000 0.000000 0.000000 0.102872 0.000000 0.000000
# 5 0.000000 0.000000 0.000000 0.000000 0.054103 0.000000
# 6 0.000000 0.000000 0.000000 0.000000 0.000000 0.059858
#
#
# Mechanical properties :
#
#
# Convention : Reuss Voigt Hill
#
# Bulk Modulus (GPa) = 72.92882 80.38073 76.65478
# Shear Modulus (GPa) = 18.36467 24.25858 21.31163
#
# Velocity S-wave (km/s) = 3.14197 3.61113 3.38469
# Velocity P-wave (km/s) = 7.23641 7.78433 7.51537
#
# Compressibility (1/GPa) = 0.01371200
#
# Stress axis : x y z
#
# Youngs Moduli (GPa) = 120.95004 75.44726 92.91123
#
# Poissons Ratio (x) = 0.28930 0.29259
# Poissons Ratio (y) = 0.46379 0.21397
# Poissons Ratio (z) = 0.38089 0.17375
#
# Static dielectric constant tensor:
#      x y z
#    x 3.504280 0.000000 0.000000 
#    y 0.000000 3.922750 0.000000 
#    z 0.000000 0.000000 3.626610 
# 
# 
# High freq. dielectric constant tensor:
#      x y z
#    x 1.731120 0.000000 0.000000 
#    y 0.000000 1.690100 0.000000 
#    z 0.000000 0.000000 1.725830 
# 
# From -- ./inp_files/14347.got.cif
#   From: 2010.03.12/outbox.cif.g09.slc.cpg/sg49_8_cif.got.tgz:14347.got - 2010.04.14 03:58:27.
