data_PCOD8204446
_publ_section_title
;
Structure prediction by ZEFSAII (Michael W. Deem and Ramdas Pophale) SiO2 
 PCOD8204446
Probable space group: P C C M
;
_chemical_formula_sum "Si O2"
_cell_formula_units_Z 64
_cell_length_a 15.412127
_cell_length_b 23.753413
_cell_length_c 8.574441
_cell_angle_alpha 90.000000
_cell_angle_beta 90.000000
_cell_angle_gamma 90.000000
_cell_volume 3139.022403
_symmetry_space_group_name_H-M "P C C M"
_symmetry_group_IT_number 49
_symmetry_cell_setting 'orthorhombic'
loop_
_space_group_symop_operation_xyz
x,y,z
-x,-y,z
x,-y,1/2-z
-x,y,1/2-z
-x,-y,-z
x,y,-z
-x,y,1/2+z
x,-y,1/2+z
loop_
_atom_site_type_symbol
_atom_site_label
_atom_site_fract_x
_atom_site_fract_y
_atom_site_fract_z
Si Si1 0.910339 0.865367 0.817905
Si Si2 0.590307 0.643387 0.314665
Si Si3 0.409864 0.132082 0.683976
Si Si4 0.756778 0.061480 0.818062
Si Si5 0.744451 0.561458 0.316012
Si Si6 0.091567 0.629538 0.184534
Si Si7 0.148352 0.247644 0.316980
Si Si8 0.337134 0.755530 0.682880
O O1 0.829150 0.897550 0.748276
O O2 0.903302 0.799527 0.777530
O O3 0.000000 0.889947 0.750000
O O4 0.910779 0.874616 0.000000
O O5 0.500000 0.618544 0.250000
O O6 0.588485 0.651995 0.500000
O O7 0.664777 0.600201 0.262458
O O8 0.605206 0.702379 0.229131
O O9 0.500000 0.107416 0.750000
O O10 0.414369 0.143839 0.500000
O O11 0.337082 0.086089 0.725425
O O12 0.391613 0.189456 0.775515
O O13 0.767301 0.000000 0.750000
O O14 0.771135 0.058049 0.000000
O O15 0.730077 0.500000 0.250000
O O16 0.748722 0.557987 0.500000
O O17 0.833543 0.588386 0.249999
O O18 0.111242 0.692771 0.241576
O O19 0.000000 0.608233 0.250000
O O20 0.090047 0.627491 0.000000
O O21 0.133520 0.238006 0.500000
O O22 0.250096 0.244815 0.283782
O O23 0.314847 0.754884 0.500000
#
# Coordination Sequence:
#
# PCOD8204446 Si02
#       8
#     8   8   8   8   8   8   8   8
#     4  12  25  42  66  97 131 168 212 259 314 378
#     4  11  23  42  64  90 126 162 204 255 312 373
#     4  11  24  42  66  94 130 169 209 258 315 372
#     4  11  25  45  68  93 126 168 214 267 318 370
#     4  10  23  43  63  86 120 162 206 258 311 364
#     4  10  22  40  62  90 124 162 202 250 306 365
#     4  11  21  39  64  92 130 167 204 254 315 374
#     4  12  23  37  63  96 128 165 208 252 311 376
#
# _framework density 20.388511999999999
#
# number of rings (size 3 to 8) (size 9 to 14) (size 15 to 20)
#    0.000    1.000    2.500    4.500    0.000    6.000 
#    0.000    5.000    0.000    0.000    0.000    0.000 
#    0.000    0.000    0.000    0.000    0.000    0.000 
#
# Total GULP energy -794010.320853 kJ/mol
# GULP energy per Si atom -12406.411263 kJ/mol
# Density = 2.034211 g / cm^3
# Si number density = 20.388512 Si / 1000 Ang^3
#
#
#
# Elastic Constant Matrix: (Units=GPa)
#
#
# Indices 1 2 3 4 5 6 
#
# 1 117.7913 4.5715 37.4092 0.0000 0.0000 0.0000
# 2 4.5715 74.0097 31.9430 0.0000 0.0000 0.0000
# 3 37.4092 31.9430 64.1206 0.0000 0.0000 0.0000
# 4 0.0000 0.0000 0.0000 26.2882 0.0000 0.0000
# 5 0.0000 0.0000 0.0000 0.0000 175.2401 0.0000
# 6 0.0000 0.0000 0.0000 0.0000 0.0000 -23.8921
#
#
#
# Elastic Compliance Matrix: (Units=1/GPa)
#
#
# Indices 1 2 3 4 5 6 
#
# 1 0.010804 0.002615 -0.007606 0.000000 0.000000 0.000000
# 2 0.002615 0.017846 -0.010416 0.000000 0.000000 0.000000
# 3 -0.007606 -0.010416 0.025222 0.000000 0.000000 0.000000
# 4 0.000000 0.000000 0.000000 0.038040 0.000000 0.000000
# 5 0.000000 0.000000 0.000000 0.000000 0.005706 0.000000
# 6 0.000000 0.000000 0.000000 0.000000 0.000000 -0.041855
#
#
# Mechanical properties :
#
#
# Convention : Reuss Voigt Hill
#
# Bulk Modulus (GPa) = 43.36853 44.86321 44.11587
# Shear Modulus (GPa) = 53.04317 47.66043 50.35180
#
# Velocity S-wave (km/s) = 5.10614 4.84013 4.97491
# Velocity P-wave (km/s) = 7.48871 7.29985 7.39488
#
# Compressibility (1/GPa) = 0.02305820
#
# Stress axis : x y z
#
# Youngs Moduli (GPa) = 92.56108 56.03534 39.64769
#
# Poissons Ratio (x) = -0.14656 0.30156
# Poissons Ratio (y) = -0.24209 0.41298
# Poissons Ratio (z) = 0.70402 0.58368
#
# Static dielectric constant tensor:
#      x y z
#    x 4.003880 0.000000 0.000000 
#    y 0.000000 2.465400 0.000000 
#    z 0.000000 0.000000 3.510140 
# 
# 
# High freq. dielectric constant tensor:
#      x y z
#    x 1.816240 0.000000 0.000000 
#    y 0.000000 1.792670 0.000000 
#    z 0.000000 0.000000 1.801680 
# 
# From -- ./inp_files/4432.got.cif
#   From: 2010.03.12/outbox.cif.g09.slc.cpg/sg49_3_cif.got.tgz:4432.got - 2010.04.14 03:58:27.
