data_PCOD8204226
_publ_section_title
;
Structure prediction by ZEFSAII (Michael W. Deem and Ramdas Pophale) SiO2 
 PCOD8204226
Probable space group: P C C M
;
_chemical_formula_sum "Si O2"
_cell_formula_units_Z 64
_cell_length_a 17.339495
_cell_length_b 9.552216
_cell_length_c 19.232402
_cell_angle_alpha 90.000000
_cell_angle_beta 90.000000
_cell_angle_gamma 90.000000
_cell_volume 3185.474313
_symmetry_space_group_name_H-M "P C C M"
_symmetry_group_IT_number 49
_symmetry_cell_setting 'orthorhombic'
loop_
_space_group_symop_operation_xyz
x,y,z
-x,-y,z
x,-y,1/2-z
-x,y,1/2-z
-x,-y,-z
x,y,-z
-x,y,1/2+z
x,-y,1/2+z
loop_
_atom_site_type_symbol
_atom_site_label
_atom_site_fract_x
_atom_site_fract_y
_atom_site_fract_z
Si Si1 0.747588 0.152893 0.171004
Si Si2 0.585858 0.752432 0.328197
Si Si3 0.853043 0.336814 0.918058
Si Si4 0.590201 0.500000 0.076074
Si Si5 1.000000 0.159636 0.417560
Si Si6 0.414142 0.752432 0.328197
Si Si7 0.252412 0.152893 0.828996
Si Si8 0.853043 0.336814 0.418058
O O1 0.654290 0.135303 0.165607
O O2 0.778870 0.273737 0.120623
O O3 0.771026 0.191292 0.250000
O O4 0.781289 0.000000 0.150338
O O5 0.614397 0.634456 0.380858
O O6 0.500000 0.812868 0.347310
O O7 0.582421 0.690644 0.250000
O O8 0.864246 0.500000 0.898412
O O9 0.925966 0.246593 0.891495
O O10 0.840593 0.319740 0.000000
O O11 0.500000 0.500000 0.065108
O O12 0.614397 0.634456 0.119142
O O13 0.631315 0.500000 0.000000
O O14 1.000000 0.153969 0.500000
O O15 0.925966 0.246593 0.391495
O O16 0.000000 0.000000 0.387628
O O17 0.345710 0.864697 0.334393
O O18 0.221130 0.273737 0.879377
O O19 0.840593 0.319740 0.500000
#
# Coordination Sequence:
#
# PCOD8204226 Si02
#       8
#     8   8   8   8   8   8   8   8
#     4  10  22  38  55  79 112 148 187 234 286 335
#     4   9  18  33  53  75 102 141 187 232 280 333
#     4  10  21  37  59  87 116 147 185 227 272 327
#     4   9  17  29  47  73 103 132 169 222 277 327
#     4   9  17  33  60  89 116 147 182 222 270 325
#     4   9  18  33  53  75 102 141 187 232 280 333
#     4  10  22  38  55  79 112 148 187 234 286 335
#     4  10  21  37  59  87 116 147 185 227 272 327
#
# _framework density 20.091200000000001
#
# number of rings (size 3 to 8) (size 9 to 14) (size 15 to 20)
#    0.000    2.500    0.000    1.500    1.750    6.500 
#    0.000    3.125    0.000    3.750    0.000    5.250 
#    0.000    0.000    0.000    0.000    0.000    0.000 
#
# Total GULP energy -792962.296217 kJ/mol
# GULP energy per Si atom -12390.035878 kJ/mol
# Density = 2.004547 g / cm^3
# Si number density = 20.091200 Si / 1000 Ang^3
#
#
#
# Elastic Constant Matrix: (Units=GPa)
#
#
# Indices 1 2 3 4 5 6 
#
# 1 113.6188 53.3593 29.1650 0.0000 0.0000 0.0000
# 2 53.3593 140.2732 48.0819 0.0000 0.0000 0.0000
# 3 29.1650 48.0819 72.5766 0.0000 0.0000 0.0000
# 4 0.0000 0.0000 0.0000 25.2965 0.0000 0.0000
# 5 0.0000 0.0000 0.0000 0.0000 25.1541 0.0000
# 6 0.0000 0.0000 0.0000 0.0000 0.0000 25.5288
#
#
#
# Elastic Compliance Matrix: (Units=1/GPa)
#
#
# Indices 1 2 3 4 5 6 
#
# 1 0.010963 -0.003442 -0.002125 0.000000 0.000000 0.000000
# 2 -0.003442 0.010304 -0.005443 0.000000 0.000000 0.000000
# 3 -0.002125 -0.005443 0.018239 0.000000 0.000000 0.000000
# 4 0.000000 0.000000 0.000000 0.039531 0.000000 0.000000
# 5 0.000000 0.000000 0.000000 0.000000 0.039755 0.000000
# 6 0.000000 0.000000 0.000000 0.000000 0.000000 0.039171
#
#
# Mechanical properties :
#
#
# Convention : Reuss Voigt Hill
#
# Bulk Modulus (GPa) = 57.19163 65.29789 61.24476
# Shear Modulus (GPa) = 26.90875 28.25339 27.58107
#
# Velocity S-wave (km/s) = 3.66366 3.75408 3.70914
# Velocity P-wave (km/s) = 6.81354 7.16674 6.99237
#
# Compressibility (1/GPa) = 0.01748508
#
# Stress axis : x y z
#
# Youngs Moduli (GPa) = 91.21293 97.04938 54.82810
#
# Poissons Ratio (x) = 0.33403 0.11653
# Poissons Ratio (y) = 0.31394 0.29845
# Poissons Ratio (z) = 0.19386 0.52827
#
# Static dielectric constant tensor:
#      x y z
#    x 3.633470 0.000000 0.000000 
#    y 0.000000 3.605460 0.000000 
#    z 0.000000 0.000000 3.629830 
# 
# 
# High freq. dielectric constant tensor:
#      x y z
#    x 1.786160 0.000000 0.000000 
#    y 0.000000 1.778240 0.000000 
#    z 0.000000 0.000000 1.763460 
# 
# From -- ./inp_files/21059.got.cif
#   From: 2010.03.12/outbox.cif.g09.slc.cpg/sg49_11_cif.got.tgz:21059.got - 2010.04.14 03:58:27.
