data_PCOD8204500
_publ_section_title
;
Structure prediction by ZEFSAII (Michael W. Deem and Ramdas Pophale) SiO2 
 PCOD8204500
Probable space group: P C C M
;
_chemical_formula_sum "Si O2"
_cell_formula_units_Z 48
_cell_length_a 17.253997
_cell_length_b 9.747595
_cell_length_c 14.655931
_cell_angle_alpha 90.000000
_cell_angle_beta 90.000000
_cell_angle_gamma 90.000000
_cell_volume 2464.907387
_symmetry_space_group_name_H-M "P C C M"
_symmetry_group_IT_number 49
_symmetry_cell_setting 'orthorhombic'
loop_
_space_group_symop_operation_xyz
x,y,z
-x,-y,z
x,-y,1/2-z
-x,y,1/2-z
-x,-y,-z
x,y,-z
-x,y,1/2+z
x,-y,1/2+z
loop_
_atom_site_type_symbol
_atom_site_label
_atom_site_fract_x
_atom_site_fract_y
_atom_site_fract_z
Si Si1 0.477765 0.347891 0.147867
Si Si2 0.417740 0.766289 0.000000
Si Si3 0.305712 0.392446 0.830226
Si Si4 0.914253 0.014527 0.858150
Si Si5 0.308039 0.001681 0.000000
Si Si6 0.730826 0.434312 0.000000
Si Si7 0.163032 0.191950 0.500000
Si Si8 0.763689 0.886563 0.169287
O O1 0.500000 0.500000 0.116873
O O2 0.500000 0.314294 0.250000
O O3 0.527644 0.245124 0.087612
O O4 0.386203 0.328583 0.134166
O O5 0.389134 0.922559 0.000000
O O6 0.347602 0.655974 0.000000
O O7 0.322973 0.500000 0.750000
O O8 0.251075 0.267584 0.793406
O O9 0.263464 0.470029 0.911767
O O10 0.883399 0.154894 0.905903
O O11 0.921422 0.000000 0.750000
O O12 0.849014 0.897898 0.879698
O O13 0.000000 0.000000 0.901142
O O14 0.301387 0.091346 0.091866
O O15 0.242511 0.888021 0.000000
O O16 0.811744 0.350044 0.000000
O O17 0.756934 0.000000 0.250000
#
# Coordination Sequence:
#
# PCOD8204500 Si02
#       8
#     8   4   8   8   4   4   4   8
#     4  11  20  35  53  83 116 148 205 245 286 346
#     4  11  20  35  63  81 111 159 201 250 291 345
#     4  12  24  37  61  87 118 157 199 252 296 346
#     4   9  18  35  62  91 118 156 200 239 282 356
#     4   9  21  38  58  83 120 152 195 242 301 348
#     4  11  22  35  59  89 121 154 203 243 300 347
#     4   9  19  33  59  94 120 152 195 243 289 351
#     4  10  23  39  61  88 121 153 195 242 296 354
#
# _framework density 19.473347
#
# number of rings (size 3 to 8) (size 9 to 14) (size 15 to 20)
#    0.000    1.667    3.333    1.500   11.667    0.000 
#    0.000    1.667    0.000    2.000    0.000    0.000 
#    0.000    0.000    0.000    0.000    0.000    0.000 
#
# Total GULP energy -594653.702224 kJ/mol
# GULP energy per Si atom -12388.618796 kJ/mol
# Density = 1.942903 g / cm^3
# Si number density = 19.473347 Si / 1000 Ang^3
#
#
#
# Elastic Constant Matrix: (Units=GPa)
#
#
# Indices 1 2 3 4 5 6 
#
# 1 129.3613 64.2186 33.8021 0.0000 0.0000 0.0000
# 2 64.2186 90.1459 34.8277 0.0000 0.0000 0.0000
# 3 33.8021 34.8277 103.8190 0.0000 0.0000 0.0000
# 4 0.0000 0.0000 0.0000 20.4592 0.0000 0.0000
# 5 0.0000 0.0000 0.0000 0.0000 8.9795 0.0000
# 6 0.0000 0.0000 0.0000 0.0000 0.0000 22.5387
#
#
#
# Elastic Compliance Matrix: (Units=1/GPa)
#
#
# Indices 1 2 3 4 5 6 
#
# 1 0.012089 -0.008147 -0.001203 0.000000 0.000000 0.000000
# 2 -0.008147 0.018236 -0.003465 0.000000 0.000000 0.000000
# 3 -0.001203 -0.003465 0.011186 0.000000 0.000000 0.000000
# 4 0.000000 0.000000 0.000000 0.048878 0.000000 0.000000
# 5 0.000000 0.000000 0.000000 0.000000 0.111364 0.000000
# 6 0.000000 0.000000 0.000000 0.000000 0.000000 0.044368
#
#
# Mechanical properties :
#
#
# Convention : Reuss Voigt Hill
#
# Bulk Modulus (GPa) = 62.96868 65.44698 64.20783
# Shear Modulus (GPa) = 18.04758 23.09400 20.57079
#
# Velocity S-wave (km/s) = 3.04762 3.44747 3.25369
# Velocity P-wave (km/s) = 6.69253 7.03762 6.86725
#
# Compressibility (1/GPa) = 0.01588091
#
# Stress axis : x y z
#
# Youngs Moduli (GPa) = 82.71829 54.83698 89.39652
#
# Poissons Ratio (x) = 0.44678 0.10754
# Poissons Ratio (y) = 0.67394 0.30974
# Poissons Ratio (z) = 0.09950 0.19000
#
# Static dielectric constant tensor:
#      x y z
#    x 3.983990 0.000000 0.000000 
#    y 0.000000 3.410360 0.000000 
#    z 0.000000 0.000000 3.869640 
# 
# 
# High freq. dielectric constant tensor:
#      x y z
#    x 1.754340 0.000000 0.000000 
#    y 0.000000 1.727100 0.000000 
#    z 0.000000 0.000000 1.770950 
# 
# From -- ./inp_files/14077.got.cif
#   From: 2010.03.12/outbox.cif.g09.slc.cpg/sg49_8_cif.got.tgz:14077.got - 2010.04.14 03:58:27.
