data_PCOD8204114
_publ_section_title
;
Structure prediction by ZEFSAII (Michael W. Deem and Ramdas Pophale) SiO2 
 PCOD8204114
Probable space group: P C C M
;
_chemical_formula_sum "Si O2"
_cell_formula_units_Z 48
_cell_length_a 9.935861
_cell_length_b 10.314634
_cell_length_c 24.681883
_cell_angle_alpha 90.000000
_cell_angle_beta 90.000000
_cell_angle_gamma 90.000000
_cell_volume 2529.517095
_symmetry_space_group_name_H-M "P C C M"
_symmetry_group_IT_number 49
_symmetry_cell_setting 'orthorhombic'
loop_
_space_group_symop_operation_xyz
x,y,z
-x,-y,z
x,-y,1/2-z
-x,y,1/2-z
-x,-y,-z
x,y,-z
-x,y,1/2+z
x,-y,1/2+z
loop_
_atom_site_type_symbol
_atom_site_label
_atom_site_fract_x
_atom_site_fract_y
_atom_site_fract_z
Si Si1 0.361703 0.945718 0.868697
Si Si2 0.098368 0.120970 0.561686
Si Si3 0.818740 0.523579 0.688751
Si Si4 0.623571 0.280806 0.788263
Si Si5 0.800034 0.113134 0.712636
Si Si6 0.033853 0.707060 0.355285
O O1 0.241503 0.911180 0.909981
O O2 0.406761 0.817123 0.836719
O O3 0.500000 0.000000 0.897125
O O4 0.315677 0.055019 0.826105
O O5 0.132174 0.156012 0.500000
O O6 0.015718 0.244241 0.585792
O O7 0.000000 0.000000 0.566270
O O8 0.864536 0.500000 0.750000
O O9 0.666206 0.578018 0.687078
O O10 0.844805 0.400973 0.647987
O O11 0.904215 0.646739 0.671274
O O12 0.500000 0.307053 0.750000
O O13 0.741561 0.228626 0.749058
O O14 0.923892 0.165267 0.677450
O O15 0.859326 0.000000 0.750000
#
# Coordination Sequence:
#
# PCOD8204114 Si02
#       6
#     8   8   8   8   8   8
#     4  11  21  38  59  90 124 159 196 251 310 369
#     4  11  24  42  65  89 111 149 212 273 319 360
#     4  11  23  35  56  84 125 163 196 237 285 364
#     4  11  21  36  54  86 128 166 201 228 286 381
#     4  10  21  32  53  86 121 159 188 231 303 372
#     4  11  21  40  55  83 118 159 200 253 306 356
#
# _framework density 18.975954000000002
#
# number of rings (size 3 to 8) (size 9 to 14) (size 15 to 20)
#    0.000    1.167    6.667    1.000    0.000    0.667 
#    3.000    1.667    0.000    0.000    0.000    0.000 
#    0.000   10.667    0.000    0.000    0.000    0.000 
#
# Total GULP energy -594695.076505 kJ/mol
# GULP energy per Si atom -12389.480761 kJ/mol
# Density = 1.893276 g / cm^3
# Si number density = 18.975954 Si / 1000 Ang^3
#
#
#
# Elastic Constant Matrix: (Units=GPa)
#
#
# Indices 1 2 3 4 5 6 
#
# 1 97.6033 63.3443 54.4685 0.0000 0.0000 0.0000
# 2 63.3443 98.6676 55.4328 0.0000 0.0000 0.0000
# 3 54.4685 55.4328 97.7502 0.0000 0.0000 0.0000
# 4 0.0000 0.0000 0.0000 22.9034 0.0000 0.0000
# 5 0.0000 0.0000 0.0000 0.0000 -0.5798 0.0000
# 6 0.0000 0.0000 0.0000 0.0000 0.0000 -60.9266
#
#
#
# Elastic Compliance Matrix: (Units=1/GPa)
#
#
# Indices 1 2 3 4 5 6 
#
# 1 0.019386 -0.009358 -0.005495 0.000000 0.000000 0.000000
# 2 -0.009358 0.019391 -0.005782 0.000000 0.000000 0.000000
# 3 -0.005495 -0.005782 0.016571 0.000000 0.000000 0.000000
# 4 0.000000 0.000000 0.000000 0.043662 0.000000 0.000000
# 5 0.000000 0.000000 0.000000 0.000000 -1.724862 0.000000
# 6 0.000000 0.000000 0.000000 0.000000 0.000000 -0.016413
#
#
# Mechanical properties :
#
#
# Convention : Reuss Voigt Hill
#
# Bulk Modulus (GPa) = 71.03627 71.16805 71.10216
# Shear Modulus (GPa) = -3.13224 0.33111 -1.40057
#
# Velocity S-wave (km/s) = -1.28616 0.41817 -0.86004
# Velocity P-wave (km/s) = 5.94227 6.14971 6.04688
#
# Compressibility (1/GPa) = 0.01407732
#
# Stress axis : x y z
#
# Youngs Moduli (GPa) = 51.58438 51.56913 60.34615
#
# Poissons Ratio (x) = 0.48260 0.33161
# Poissons Ratio (y) = 0.48274 0.34892
# Poissons Ratio (z) = 0.28346 0.29817
#
# Static dielectric constant tensor:
#      x y z
#    x 3.598070 0.000000 0.000000 
#    y 0.000000 5.281080 0.000000 
#    z 0.000000 0.000000 3.528600 
# 
# 
# High freq. dielectric constant tensor:
#      x y z
#    x 1.741920 0.000000 0.000000 
#    y 0.000000 1.750430 0.000000 
#    z 0.000000 0.000000 1.691970 
# 
# From -- ./inp_files/22366.got.cif
#   From: 2010.03.12/outbox.cif.g09.slc.cpg/sg49_12_cif.got.tgz:22366.got - 2010.04.14 03:58:27.
