data_PCOD8204764
_publ_section_title
;
Structure prediction by ZEFSAII (Michael W. Deem and Ramdas Pophale) SiO2 
 PCOD8204764
Probable space group: P B A N
;
_chemical_formula_sum "Si O2"
_cell_formula_units_Z 46
_cell_length_a 12.103261
_cell_length_b 18.447294
_cell_length_c 11.127119
_cell_angle_alpha 90.000000
_cell_angle_beta 90.000000
_cell_angle_gamma 90.000000
_cell_volume 2484.378720
_symmetry_space_group_name_H-M "P B A N"
_symmetry_group_IT_number 50
_space_group.IT_coordinate_system_code '2'
_symmetry_cell_setting 'orthorhombic'
loop_
_space_group_symop_operation_xyz
x,y,z
1/2-x,1/2-y,z
x,1/2-y,-z
1/2-x,y,-z
-x,-y,-z
1/2+x,1/2+y,-z
-x,1/2+y,z
1/2+x,-y,z
loop_
_atom_site_type_symbol
_atom_site_label
_atom_site_fract_x
_atom_site_fract_y
_atom_site_fract_z
Si Si1 0.596347 0.074622 0.813823
Si Si2 0.250000 0.007293 0.000000
Si Si3 0.250000 0.250000 0.000000
Si Si4 0.507229 0.960019 0.632101
Si Si5 0.767623 0.595209 0.629019
Si Si6 0.227828 0.923640 0.369489
Si Si7 0.133034 0.369978 0.852516
O O1 0.689420 0.111942 0.728267
O O2 0.501345 0.131006 0.854662
O O3 0.524121 0.018683 0.735943
O O4 0.660872 0.040608 0.927177
O O5 0.320676 0.056194 0.909970
O O6 0.168624 0.201218 0.077801
O O7 0.601187 0.899041 0.649548
O O8 0.399749 0.912276 0.662597
O O9 0.500000 0.000000 0.500000
O O10 0.750000 0.631467 0.500000
O O11 0.744486 0.509728 0.628320
O O12 0.688675 0.636600 0.721326
O O13 0.250000 0.889003 0.500000
#
# Coordination Sequence:
#
# PCOD8204764 Si02
#       7
#     8   4   2   8   8   8   8
#     4  11  19  30  52  80 116 145 177 230 280 340
#     4  11  20  33  50  89 114 141 180 226 292 345
#     4  10  28  44  58  70 100 158 208 232 278 318
#     4  11  15  26  45  79 126 152 164 203 279 363
#     4  10  17  27  50  81 111 147 175 218 278 334
#     4  10  17  26  44  83 124 150 166 201 285 357
#     4  11  21  39  56  77 110 150 192 237 276 328
#
# _framework density 18.515695000000001
#
# number of rings (size 3 to 8) (size 9 to 14) (size 15 to 20)
#    0.000    1.391   10.435    0.522    0.000    0.000 
#    0.000    0.435    0.000    0.522    0.000    0.000 
#    0.000    1.391    0.000    0.000    0.000    0.000 
#
# Total GULP energy -569881.359966 kJ/mol
# GULP energy per Si atom -12388.725217 kJ/mol
# Density = 1.847355 g / cm^3
# Si number density = 18.515695 Si / 1000 Ang^3
#
#
#
# Elastic Constant Matrix: (Units=GPa)
#
#
# Indices 1 2 3 4 5 6 
#
# 1 181.5038 37.0831 52.9887 0.0000 0.0000 0.0000
# 2 37.0831 40.8145 33.4132 0.0000 0.0000 0.0000
# 3 52.9887 33.4132 124.1253 0.0000 0.0000 0.0000
# 4 0.0000 0.0000 0.0000 5.6728 0.0000 0.0000
# 5 0.0000 0.0000 0.0000 0.0000 39.5939 0.0000
# 6 0.0000 0.0000 0.0000 0.0000 0.0000 8.7565
#
#
#
# Elastic Compliance Matrix: (Units=1/GPa)
#
#
# Indices 1 2 3 4 5 6 
#
# 1 0.007017 -0.005032 -0.001641 0.000000 0.000000 0.000000
# 2 -0.005032 0.035035 -0.007283 0.000000 0.000000 0.000000
# 3 -0.001641 -0.007283 0.010717 0.000000 0.000000 0.000000
# 4 0.000000 0.000000 0.000000 0.176279 0.000000 0.000000
# 5 0.000000 0.000000 0.000000 0.000000 0.025256 0.000000
# 6 0.000000 0.000000 0.000000 0.000000 0.000000 0.114200
#
#
# Mechanical properties :
#
#
# Convention : Reuss Voigt Hill
#
# Bulk Modulus (GPa) = 40.22888 65.93483 53.08185
# Shear Modulus (GPa) = 12.35476 25.66858 19.01167
#
# Velocity S-wave (km/s) = 2.58594 3.72736 3.20783
# Velocity P-wave (km/s) = 5.53987 7.36287 6.51544
#
# Compressibility (1/GPa) = 0.02485777
#
# Stress axis : x y z
#
# Youngs Moduli (GPa) = 142.51889 28.54274 93.30661
#
# Poissons Ratio (x) = 0.14362 0.15310
# Poissons Ratio (y) = 0.71713 0.67955
# Poissons Ratio (z) = 0.23385 0.20788
#
# Static dielectric constant tensor:
#      x y z
#    x 4.322950 0.000000 0.000000 
#    y 0.000000 2.619190 0.000000 
#    z 0.000000 0.000000 3.758440 
# 
# 
# High freq. dielectric constant tensor:
#      x y z
#    x 1.748670 0.000000 0.000000 
#    y 0.000000 1.619750 0.000000 
#    z 0.000000 0.000000 1.735870 
# 
# From -- ./inp_files/20238.got.cif
#   From: 2010.03.12/outbox.cif.g09.slc.cpg/sg50_11_cif.got.tgz:20238.got - 2010.04.16 13:23:21.
