data_PCOD8204991
_publ_section_title
;
Structure prediction by ZEFSAII (Michael W. Deem and Ramdas Pophale) SiO2 
 PCOD8204991
Probable space group: P B A N
;
_chemical_formula_sum "Si O2"
_cell_formula_units_Z 36
_cell_length_a 13.075219
_cell_length_b 8.345724
_cell_length_c 14.688203
_cell_angle_alpha 90.000000
_cell_angle_beta 90.000000
_cell_angle_gamma 90.000000
_cell_volume 1602.808570
_symmetry_space_group_name_H-M "P B A N"
_symmetry_group_IT_number 50
_space_group.IT_coordinate_system_code '2'
_symmetry_cell_setting 'orthorhombic'
loop_
_space_group_symop_operation_xyz
x,y,z
1/2-x,1/2-y,z
x,1/2-y,-z
1/2-x,y,-z
-x,-y,-z
1/2+x,1/2+y,-z
-x,1/2+y,z
1/2+x,-y,z
loop_
_atom_site_type_symbol
_atom_site_label
_atom_site_fract_x
_atom_site_fract_y
_atom_site_fract_z
Si Si1 0.458778 0.430738 0.198539
Si Si2 0.865985 0.221105 0.893617
Si Si3 0.993400 0.250000 0.500000
Si Si4 0.192688 0.913416 0.584289
Si Si5 0.910750 0.850084 0.315761
O O1 0.557407 0.345946 0.154203
O O2 0.395101 0.534408 0.125287
O O3 0.493199 0.553662 0.276098
O O4 0.386796 0.298342 0.248361
O O5 0.750000 0.250000 0.859564
O O6 0.875272 0.250000 0.000000
O O7 0.066423 0.192295 0.580274
O O8 0.922099 0.117532 0.451820
O O9 0.250000 0.750000 0.613881
O O10 0.250000 0.997079 0.500000
O O11 0.187581 0.030726 0.672661
#
# Coordination Sequence:
#
# PCOD8204991 Si02
#       5
#     8   8   4   8   8
#     4  10  23  39  67 105 130 168 221 287 336 409
#     4  10  22  46  74  98 134 176 214 270 353 428
#     4  10  19  36  61  78 118 184 220 256 327 388
#     4   9  20  36  56  83 117 177 235 273 329 390
#     4  11  20  39  61  88 130 168 221 273 335 387
#
# _framework density 22.460571999999999
#
# number of rings (size 3 to 8) (size 9 to 14) (size 15 to 20)
#    0.000    2.222    2.222    1.333    0.000    0.889 
#    4.000    7.222    0.000   12.000    0.000    0.000 
#    0.000    0.000    0.000    0.000    0.000    0.000 
#
# Total GULP energy -446027.902170 kJ/mol
# GULP energy per Si atom -12389.663949 kJ/mol
# Density = 2.240945 g / cm^3
# Si number density = 22.460572 Si / 1000 Ang^3
#
#
#
# Elastic Constant Matrix: (Units=GPa)
#
#
# Indices 1 2 3 4 5 6 
#
# 1 91.8918 62.6285 38.9653 0.0000 0.0000 0.0000
# 2 62.6285 151.9277 80.1931 0.0000 0.0000 0.0000
# 3 38.9653 80.1931 113.7772 0.0000 0.0000 0.0000
# 4 0.0000 0.0000 0.0000 43.3724 0.0000 0.0000
# 5 0.0000 0.0000 0.0000 0.0000 29.6632 0.0000
# 6 0.0000 0.0000 0.0000 0.0000 0.0000 27.4291
#
#
#
# Elastic Compliance Matrix: (Units=1/GPa)
#
#
# Indices 1 2 3 4 5 6 
#
# 1 0.015247 -0.005620 -0.001261 0.000000 0.000000 0.000000
# 2 -0.005620 0.012553 -0.006923 0.000000 0.000000 0.000000
# 3 -0.001261 -0.006923 0.014100 0.000000 0.000000 0.000000
# 4 0.000000 0.000000 0.000000 0.023056 0.000000 0.000000
# 5 0.000000 0.000000 0.000000 0.000000 0.033712 0.000000
# 6 0.000000 0.000000 0.000000 0.000000 0.000000 0.036458
#
#
# Mechanical properties :
#
#
# Convention : Reuss Voigt Hill
#
# Bulk Modulus (GPa) = 69.96244 80.13006 75.04625
# Shear Modulus (GPa) = 29.85121 31.81360 30.83241
#
# Velocity S-wave (km/s) = 3.64957 3.76762 3.70906
# Velocity P-wave (km/s) = 6.99827 7.39459 7.19916
#
# Compressibility (1/GPa) = 0.01429338
#
# Stress axis : x y z
#
# Youngs Moduli (GPa) = 65.58621 79.66266 70.92014
#
# Poissons Ratio (x) = 0.44769 0.08941
# Poissons Ratio (y) = 0.36858 0.49098
# Poissons Ratio (z) = 0.08268 0.55151
#
# Static dielectric constant tensor:
#      x y z
#    x 4.021700 0.000000 0.000000 
#    y 0.000000 4.376660 0.000000 
#    z 0.000000 0.000000 4.026640 
# 
# 
# High freq. dielectric constant tensor:
#      x y z
#    x 1.868660 0.000000 0.000000 
#    y 0.000000 1.898260 0.000000 
#    z 0.000000 0.000000 1.878720 
# 
# From -- ./inp_files/26216.got.cif
#   From: 2010.03.12/outbox.cif.g09.slc.cpg/sg50_14_cif.got.tgz:26216.got - 2010.04.16 13:23:21.
