data_PCOD8204260
_publ_section_title
;
Structure prediction by ZEFSAII (Michael W. Deem and Ramdas Pophale) SiO2 
 PCOD8204260
Probable space group: P C C M
;
_chemical_formula_sum "Si O2"
_cell_formula_units_Z 34
_cell_length_a 13.976427
_cell_length_b 6.809126
_cell_length_c 18.562606
_cell_angle_alpha 90.000000
_cell_angle_beta 90.000000
_cell_angle_gamma 90.000000
_cell_volume 1766.552212
_symmetry_space_group_name_H-M "P C C M"
_symmetry_group_IT_number 49
_symmetry_cell_setting 'orthorhombic'
loop_
_space_group_symop_operation_xyz
x,y,z
-x,-y,z
x,-y,1/2-z
-x,y,1/2-z
-x,-y,-z
x,y,-z
-x,y,1/2+z
x,-y,1/2+z
loop_
_atom_site_type_symbol
_atom_site_label
_atom_site_fract_x
_atom_site_fract_y
_atom_site_fract_z
Si Si1 0.233985 0.784845 0.081683
Si Si2 0.893927 0.416881 0.418443
Si Si3 0.410512 0.127610 0.681594
Si Si4 0.890612 0.047581 0.672369
Si Si5 0.500000 0.500000 0.750000
O O1 0.195171 0.564708 0.090296
O O2 0.328564 0.846503 0.123774
O O3 0.146885 0.914242 0.108510
O O4 0.257463 0.835596 0.000000
O O5 0.890966 0.328234 0.500000
O O6 0.872997 0.268429 0.353469
O O7 0.000000 0.500000 0.405066
O O8 0.437012 0.352612 0.701244
O O9 0.500000 0.000000 0.649671
O O10 0.373447 0.000000 0.750000
O O11 0.840730 0.000000 0.750000
O O12 0.000000 0.000000 0.680793
#
# Coordination Sequence:
#
# PCOD8204260 Si02
#       5
#     8   8   8   8   2
#     4  11  23  38  60  88 120 161 201 244 302 357
#     4  10  21  38  58  82 117 160 201 241 292 354
#     4   9  20  39  63  91 118 150 198 246 306 365
#     4  11  23  38  57  85 117 157 205 252 298 349
#     4   8  18  40  66  82 114 156 186 246 308 354
#
# _framework density 19.246528999999999
#
# number of rings (size 3 to 8) (size 9 to 14) (size 15 to 20)
#    0.000    2.118    2.353    1.412    0.000    8.000 
#    0.000    0.588    0.000    0.000    0.000    0.000 
#    0.000    0.000    0.000    0.000    0.000    0.000 
#
# Total GULP energy -421196.778633 kJ/mol
# GULP energy per Si atom -12388.140548 kJ/mol
# Density = 1.920272 g / cm^3
# Si number density = 19.246529 Si / 1000 Ang^3
#
#
#
# Elastic Constant Matrix: (Units=GPa)
#
#
# Indices 1 2 3 4 5 6 
#
# 1 81.5704 28.2240 68.5158 0.0000 0.0000 0.0000
# 2 28.2240 118.5429 80.2840 0.0000 0.0000 0.0000
# 3 68.5158 80.2840 154.1661 0.0000 0.0000 0.0000
# 4 0.0000 0.0000 0.0000 35.5977 0.0000 0.0000
# 5 0.0000 0.0000 0.0000 0.0000 25.6024 0.0000
# 6 0.0000 0.0000 0.0000 0.0000 0.0000 24.7735
#
#
#
# Elastic Compliance Matrix: (Units=1/GPa)
#
#
# Indices 1 2 3 4 5 6 
#
# 1 0.019843 0.001928 -0.009823 0.000000 0.000000 0.000000
# 2 0.001928 0.013219 -0.007741 0.000000 0.000000 0.000000
# 3 -0.009823 -0.007741 0.014883 0.000000 0.000000 0.000000
# 4 0.000000 0.000000 0.000000 0.028092 0.000000 0.000000
# 5 0.000000 0.000000 0.000000 0.000000 0.039059 0.000000
# 6 0.000000 0.000000 0.000000 0.000000 0.000000 0.040366
#
#
# Mechanical properties :
#
#
# Convention : Reuss Voigt Hill
#
# Bulk Modulus (GPa) = 59.97316 78.70300 69.33808
# Shear Modulus (GPa) = 26.00213 29.01176 27.50695
#
# Velocity S-wave (km/s) = 3.67959 3.88671 3.78456
# Velocity P-wave (km/s) = 7.02002 7.81811 7.42979
#
# Compressibility (1/GPa) = 0.01667413
#
# Stress axis : x y z
#
# Youngs Moduli (GPa) = 50.39540 75.64641 67.18891
#
# Poissons Ratio (x) = -0.14586 0.66000
# Poissons Ratio (y) = -0.09717 0.52012
# Poissons Ratio (z) = 0.49503 0.58559
#
# Static dielectric constant tensor:
#      x y z
#    x 3.399440 0.000000 0.000000 
#    y 0.000000 3.713770 0.000000 
#    z 0.000000 0.000000 3.812020 
# 
# 
# High freq. dielectric constant tensor:
#      x y z
#    x 1.745260 0.000000 0.000000 
#    y 0.000000 1.752100 0.000000 
#    z 0.000000 0.000000 1.749360 
# 
# From -- ./inp_files/18845.got.cif
#   From: 2010.03.12/outbox.cif.g09.slc.cpg/sg49_10_cif.got.tgz:18845.got - 2010.04.14 03:58:27.
