data_PCOD8204785
_publ_section_title
;
Structure prediction by ZEFSAII (Michael W. Deem and Ramdas Pophale) SiO2 
 PCOD8204785
Probable space group: P B A N
;
_chemical_formula_sum "Si O2"
_cell_formula_units_Z 56
_cell_length_a 13.314887
_cell_length_b 14.461097
_cell_length_c 15.245782
_cell_angle_alpha 90.000000
_cell_angle_beta 90.000000
_cell_angle_gamma 90.000000
_cell_volume 2935.542888
_symmetry_space_group_name_H-M "P B A N"
_symmetry_group_IT_number 50
_space_group.IT_coordinate_system_code '2'
_symmetry_cell_setting 'orthorhombic'
loop_
_space_group_symop_operation_xyz
x,y,z
1/2-x,1/2-y,z
x,1/2-y,-z
1/2-x,y,-z
-x,-y,-z
1/2+x,1/2+y,-z
-x,1/2+y,z
1/2+x,-y,z
loop_
_atom_site_type_symbol
_atom_site_label
_atom_site_fract_x
_atom_site_fract_y
_atom_site_fract_z
Si Si1 0.183314 0.924614 0.159287
Si Si2 0.248991 0.855596 0.662416
Si Si3 0.536738 0.353608 0.397644
Si Si4 0.488807 0.005701 0.731017
Si Si5 0.524405 0.355439 0.972063
Si Si6 0.613939 0.495303 0.105973
Si Si7 0.542990 0.362040 0.596311
O O1 0.240391 0.864175 0.232330
O O2 0.116652 0.857676 0.097402
O O3 0.108729 0.994958 0.207895
O O4 0.264602 0.982983 0.101638
O O5 0.250000 0.750000 0.635058
O O6 0.146075 0.897246 0.624864
O O7 0.342923 0.899180 0.610018
O O8 0.463709 0.404845 0.329260
O O9 0.507329 0.379616 0.497065
O O10 0.530956 0.245141 0.379275
O O11 0.585725 0.016333 0.792230
O O12 0.519537 0.920226 0.667106
O O13 0.424227 0.405321 0.932087
O O14 0.499650 0.250000 0.000000
O O15 0.558503 0.411954 0.056738
#
# Coordination Sequence:
#
# PCOD8204785 Si02
#       7
#     8   8   8   8   8   8   8
#     4  10  20  34  54  83 113 142 189 232 279 347
#     4   9  17  28  49  80 110 140 176 228 287 332
#     4  10  17  32  52  74 114 145 180 234 284 323
#     4  10  20  33  54  79 108 148 187 223 281 340
#     4  10  23  38  61  87 112 147 192 236 291 351
#     4  10  21  38  56  82 118 145 181 242 289 340
#     4   9  19  30  49  81 107 144 190 230 274 341
#
# _framework density 19.076540000000001
#
# number of rings (size 3 to 8) (size 9 to 14) (size 15 to 20)
#    0.000    2.286    1.429    1.286    2.000    4.571 
#    0.000    0.000    0.000   23.143    0.000    2.000 
#    0.000    0.000    0.000    0.000    0.000    0.000 
#
# Total GULP energy -693972.649523 kJ/mol
# GULP energy per Si atom -12392.368741 kJ/mol
# Density = 1.903312 g / cm^3
# Si number density = 19.076540 Si / 1000 Ang^3
#
#
#
# Elastic Constant Matrix: (Units=GPa)
#
#
# Indices 1 2 3 4 5 6 
#
# 1 45.0768 24.2323 10.8861 0.0000 0.0000 0.0000
# 2 24.2323 99.4076 46.7149 0.0000 0.0000 0.0000
# 3 10.8861 46.7149 107.4544 0.0000 0.0000 0.0000
# 4 0.0000 0.0000 0.0000 35.0993 0.0000 0.0000
# 5 0.0000 0.0000 0.0000 0.0000 24.0559 0.0000
# 6 0.0000 0.0000 0.0000 0.0000 0.0000 18.2263
#
#
#
# Elastic Compliance Matrix: (Units=1/GPa)
#
#
# Indices 1 2 3 4 5 6 
#
# 1 0.025532 -0.006294 0.000150 0.000000 0.000000 0.000000
# 2 -0.006294 0.014194 -0.005533 0.000000 0.000000 0.000000
# 3 0.000150 -0.005533 0.011697 0.000000 0.000000 0.000000
# 4 0.000000 0.000000 0.000000 0.028491 0.000000 0.000000
# 5 0.000000 0.000000 0.000000 0.000000 0.041570 0.000000
# 6 0.000000 0.000000 0.000000 0.000000 0.000000 0.054866
#
#
# Mechanical properties :
#
#
# Convention : Reuss Voigt Hill
#
# Bulk Modulus (GPa) = 35.62857 46.17842 40.90349
# Shear Modulus (GPa) = 23.91663 26.81667 25.36665
#
# Velocity S-wave (km/s) = 3.54463 3.75339 3.65050
# Velocity P-wave (km/s) = 5.95565 6.56074 6.26550
#
# Compressibility (1/GPa) = 0.02806736
#
# Stress axis : x y z
#
# Youngs Moduli (GPa) = 39.16681 70.45182 85.49511
#
# Poissons Ratio (x) = 0.44344 -0.01280
# Poissons Ratio (y) = 0.24652 0.47305
# Poissons Ratio (z) = -0.00586 0.38982
#
# Static dielectric constant tensor:
#      x y z
#    x 3.517820 0.000000 0.000000 
#    y 0.000000 3.377070 0.000000 
#    z 0.000000 0.000000 3.708540 
# 
# 
# High freq. dielectric constant tensor:
#      x y z
#    x 1.717100 0.000000 0.000000 
#    y 0.000000 1.719010 0.000000 
#    z 0.000000 0.000000 1.764630 
# 
# From -- ./inp_files/25947.got.cif
#   From: 2010.03.12/outbox.cif.g09.slc.cpg/sg50_13_cif.got.tgz:25947.got - 2010.04.16 13:23:21.
