data_PCOD8204868
_publ_section_title
;
Structure prediction by ZEFSAII (Michael W. Deem and Ramdas Pophale) SiO2 
 PCOD8204868
Probable space group: P B A N
;
_chemical_formula_sum "Si O2"
_cell_formula_units_Z 40
_cell_length_a 12.329708
_cell_length_b 34.945890
_cell_length_c 4.927315
_cell_angle_alpha 90.000000
_cell_angle_beta 90.000000
_cell_angle_gamma 90.000000
_cell_volume 2123.045121
_symmetry_space_group_name_H-M "P B A N"
_symmetry_group_IT_number 50
_space_group.IT_coordinate_system_code '2'
_symmetry_cell_setting 'orthorhombic'
loop_
_space_group_symop_operation_xyz
x,y,z
1/2-x,1/2-y,z
x,1/2-y,-z
1/2-x,y,-z
-x,-y,-z
1/2+x,1/2+y,-z
-x,1/2+y,z
1/2+x,-y,z
loop_
_atom_site_type_symbol
_atom_site_label
_atom_site_fract_x
_atom_site_fract_y
_atom_site_fract_z
Si Si1 0.179791 0.459237 0.747182
Si Si2 0.122730 0.659035 0.980874
Si Si3 0.866266 0.458006 0.381739
Si Si4 0.030798 0.921173 0.875868
Si Si5 0.877185 0.291937 0.524827
O O1 0.250000 0.440297 0.500000
O O2 0.119797 0.496078 0.612492
O O3 0.097647 0.429666 0.893744
O O4 0.250000 0.474779 0.000000
O O5 0.049917 0.623199 0.065588
O O6 0.092674 0.693437 0.179607
O O7 0.250000 0.647640 0.000000
O O8 0.086643 0.675449 0.689453
O O9 0.750000 0.445493 0.500000
O O10 0.948993 0.434701 0.568273
O O11 0.890902 0.445018 0.074941
O O12 0.933138 0.250000 0.500000
O O13 0.750000 0.286332 0.500000
#
# Coordination Sequence:
#
# PCOD8204868 Si02
#       5
#     8   8   8   8   8
#     4  11  23  39  54  72  98 137 186 226 261 310
#     4  10  19  30  47  75 103 131 166 202 246 302
#     4  11  21  35  53  76 102 135 173 214 266 322
#     4  12  22  35  54  76 105 136 171 221 271 307
#     4   9  17  30  47  68 101 139 166 190 231 298
#
# _framework density 18.840864
#
# number of rings (size 3 to 8) (size 9 to 14) (size 15 to 20)
#    0.000    1.400    0.000    8.400    0.000    4.000 
#    0.000    0.000    0.000    0.000    0.000    0.000 
#    0.000   12.000    0.000    0.000    0.000    0.000 
#
# Total GULP energy -495767.143550 kJ/mol
# GULP energy per Si atom -12394.178589 kJ/mol
# Density = 1.879798 g / cm^3
# Si number density = 18.840864 Si / 1000 Ang^3
#
#
#
# Elastic Constant Matrix: (Units=GPa)
#
#
# Indices 1 2 3 4 5 6 
#
# 1 53.5764 37.3435 17.3905 0.0000 0.0000 0.0000
# 2 37.3435 116.4064 18.7949 0.0000 0.0000 0.0000
# 3 17.3905 18.7949 81.2643 0.0000 0.0000 0.0000
# 4 0.0000 0.0000 0.0000 29.6984 0.0000 0.0000
# 5 0.0000 0.0000 0.0000 0.0000 25.0952 0.0000
# 6 0.0000 0.0000 0.0000 0.0000 0.0000 -0.3155
#
#
#
# Elastic Compliance Matrix: (Units=1/GPa)
#
#
# Indices 1 2 3 4 5 6 
#
# 1 0.025033 -0.007444 -0.003636 0.000000 0.000000 0.000000
# 2 -0.007444 0.011137 -0.000983 0.000000 0.000000 0.000000
# 3 -0.003636 -0.000983 0.013311 0.000000 0.000000 0.000000
# 4 0.000000 0.000000 0.000000 0.033672 0.000000 0.000000
# 5 0.000000 0.000000 0.000000 0.000000 0.039848 0.000000
# 6 0.000000 0.000000 0.000000 0.000000 0.000000 -3.169112
#
#
# Mechanical properties :
#
#
# Convention : Reuss Voigt Hill
#
# Bulk Modulus (GPa) = 39.43658 44.25609 41.84633
# Shear Modulus (GPa) = -1.65918 22.74349 10.54215
#
# Velocity S-wave (km/s) = -0.93944 3.47816 2.36802
# Velocity P-wave (km/s) = 4.44973 6.29845 5.45301
#
# Compressibility (1/GPa) = 0.02535717
#
# Stress axis : x y z
#
# Youngs Moduli (GPa) = 39.94656 89.78852 75.12671
#
# Poissons Ratio (x) = 0.66837 0.27312
# Poissons Ratio (y) = 0.29735 0.07384
# Poissons Ratio (z) = 0.14523 0.08825
#
# Static dielectric constant tensor:
#      x y z
#    x 3.273300 0.000000 0.000000 
#    y 0.000000 3.382250 0.000000 
#    z 0.000000 0.000000 -2.928630 
# 
# 
# High freq. dielectric constant tensor:
#      x y z
#    x 1.679770 0.000000 0.000000 
#    y 0.000000 1.718370 0.000000 
#    z 0.000000 0.000000 1.757720 
# 
# From -- ./inp_files/2535.got.cif
#   From: 2010.03.12/outbox.cif.g09.slc.cpg/sg50_2_cif.got.tgz:2535.got - 2010.04.16 13:23:21.
