data_PCOD8204985
_publ_section_title
;
Structure prediction by ZEFSAII (Michael W. Deem and Ramdas Pophale) SiO2 
 PCOD8204985
Probable space group: P B A N
;
_chemical_formula_sum "Si O2"
_cell_formula_units_Z 48
_cell_length_a 15.468597
_cell_length_b 12.975603
_cell_length_c 13.204033
_cell_angle_alpha 90.000000
_cell_angle_beta 90.000000
_cell_angle_gamma 90.000000
_cell_volume 2650.239213
_symmetry_space_group_name_H-M "P B A N"
_symmetry_group_IT_number 50
_space_group.IT_coordinate_system_code '2'
_symmetry_cell_setting 'orthorhombic'
loop_
_space_group_symop_operation_xyz
x,y,z
1/2-x,1/2-y,z
x,1/2-y,-z
1/2-x,y,-z
-x,-y,-z
1/2+x,1/2+y,-z
-x,1/2+y,z
1/2+x,-y,z
loop_
_atom_site_type_symbol
_atom_site_label
_atom_site_fract_x
_atom_site_fract_y
_atom_site_fract_z
Si Si1 0.250000 0.588248 0.500000
Si Si2 0.750000 0.250000 0.332792
Si Si3 0.978197 0.954943 0.111244
Si Si4 0.919453 0.175162 0.743529
Si Si5 0.466805 0.136525 0.751326
Si Si6 0.648339 0.726012 0.110903
Si Si7 0.423852 0.506996 0.420090
O O1 0.282673 0.658183 0.593928
O O2 0.330616 0.515595 0.472695
O O3 0.818592 0.299088 0.255693
O O4 0.886046 0.893010 0.125826
O O5 0.053075 0.874632 0.148306
O O6 0.979497 0.051089 0.186605
O O7 0.000000 0.000000 0.000000
O O8 0.944492 0.104615 0.649241
O O9 0.964255 0.281359 0.716960
O O10 0.392297 0.191160 0.814813
O O11 0.421127 0.092964 0.651288
O O12 0.750000 0.750000 0.120044
O O13 0.613468 0.750000 0.000000
O O14 0.500000 0.500000 0.500000
#
# Coordination Sequence:
#
# PCOD8204985 Si02
#       7
#     4   4   8   8   8   8   8
#     4   9  18  32  54  75 106 150 184 233 282 333
#     4   9  16  34  52  77 106 140 188 231 284 331
#     4  10  19  36  58  82 111 151 187 230 287 346
#     4   9  20  34  56  83 109 147 184 236 286 337
#     4  10  20  37  56  84 113 149 191 236 284 346
#     4  10  20  37  58  82 115 153 192 236 290 349
#     4  10  20  36  56  82 112 147 192 230 289 348
#
# _framework density 18.111573
#
# number of rings (size 3 to 8) (size 9 to 14) (size 15 to 20)
#    0.000    2.333    1.667    1.000    0.000    2.000 
#   18.000    0.000    0.000    1.000    0.000    0.000 
#    0.000    0.000    0.000    0.000    0.000    0.000 
#
# Total GULP energy -594717.179356 kJ/mol
# GULP energy per Si atom -12389.941237 kJ/mol
# Density = 1.807035 g / cm^3
# Si number density = 18.111573 Si / 1000 Ang^3
#
#
#
# Elastic Constant Matrix: (Units=GPa)
#
#
# Indices 1 2 3 4 5 6 
#
# 1 103.4686 63.5275 68.9545 0.0000 0.0000 0.0000
# 2 63.5275 124.1940 52.6520 0.0000 0.0000 0.0000
# 3 68.9545 52.6520 106.6229 0.0000 0.0000 0.0000
# 4 0.0000 0.0000 0.0000 20.1569 0.0000 0.0000
# 5 0.0000 0.0000 0.0000 0.0000 27.5722 0.0000
# 6 0.0000 0.0000 0.0000 0.0000 0.0000 26.7813
#
#
#
# Elastic Compliance Matrix: (Units=1/GPa)
#
#
# Indices 1 2 3 4 5 6 
#
# 1 0.019990 -0.006001 -0.009964 0.000000 0.000000 0.000000
# 2 -0.006001 0.011985 -0.002038 0.000000 0.000000 0.000000
# 3 -0.009964 -0.002038 0.016829 0.000000 0.000000 0.000000
# 4 0.000000 0.000000 0.000000 0.049611 0.000000 0.000000
# 5 0.000000 0.000000 0.000000 0.000000 0.036268 0.000000
# 6 0.000000 0.000000 0.000000 0.000000 0.000000 0.037339
#
#
# Mechanical properties :
#
#
# Convention : Reuss Voigt Hill
#
# Bulk Modulus (GPa) = 78.13412 78.28371 78.20892
# Shear Modulus (GPa) = 23.55220 24.84553 24.19887
#
# Velocity S-wave (km/s) = 3.61001 3.70781 3.65924
# Velocity P-wave (km/s) = 7.78526 7.85158 7.81849
#
# Compressibility (1/GPa) = 0.01279851
#
# Stress axis : x y z
#
# Youngs Moduli (GPa) = 50.02611 83.43562 59.42047
#
# Poissons Ratio (x) = 0.50067 0.59208
# Poissons Ratio (y) = 0.30019 0.12109
# Poissons Ratio (z) = 0.49848 0.17003
#
# Static dielectric constant tensor:
#      x y z
#    x 3.193650 0.000000 0.000000 
#    y 0.000000 3.589040 0.000000 
#    z 0.000000 0.000000 4.188360 
# 
# 
# High freq. dielectric constant tensor:
#      x y z
#    x 1.690630 0.000000 0.000000 
#    y 0.000000 1.711780 0.000000 
#    z 0.000000 0.000000 1.703830 
# 
# From -- ./inp_files/26443.got.cif
#   From: 2010.03.12/outbox.cif.g09.slc.cpg/sg50_14_cif.got.tgz:26443.got - 2010.04.16 13:23:21.
