data_PCOD8204976
_publ_section_title
;
Structure prediction by ZEFSAII (Michael W. Deem and Ramdas Pophale) SiO2 
 PCOD8204976
Probable space group: P B A N
;
_chemical_formula_sum "Si O2"
_cell_formula_units_Z 40
_cell_length_a 10.902230
_cell_length_b 20.137580
_cell_length_c 8.726865
_cell_angle_alpha 90.000000
_cell_angle_beta 90.000000
_cell_angle_gamma 90.000000
_cell_volume 1915.935464
_symmetry_space_group_name_H-M "P B A N"
_symmetry_group_IT_number 50
_space_group.IT_coordinate_system_code '2'
_symmetry_cell_setting 'orthorhombic'
loop_
_space_group_symop_operation_xyz
x,y,z
1/2-x,1/2-y,z
x,1/2-y,-z
1/2-x,y,-z
-x,-y,-z
1/2+x,1/2+y,-z
-x,1/2+y,z
1/2+x,-y,z
loop_
_atom_site_type_symbol
_atom_site_label
_atom_site_fract_x
_atom_site_fract_y
_atom_site_fract_z
Si Si1 0.585811 0.379735 0.745504
Si Si2 0.750000 0.052319 0.500000
Si Si3 0.655374 0.967941 0.767433
Si Si4 0.930397 0.738774 0.679144
Si Si5 0.282508 0.159204 0.824684
Si Si6 0.750000 0.433467 0.000000
O O1 0.656636 0.401284 0.592571
O O2 0.468948 0.426758 0.771654
O O3 0.549491 0.302229 0.734547
O O4 0.672281 0.385757 0.891605
O O5 0.668971 0.004982 0.607034
O O6 0.774332 0.919640 0.794948
O O7 0.655753 0.021380 0.903367
O O8 0.943170 0.750000 0.500000
O O9 0.813094 0.693000 0.709514
O O10 0.914394 0.808623 0.774586
O O11 0.250000 0.176925 0.000000
#
# Coordination Sequence:
#
# PCOD8204976 Si02
#       6
#     8   4   8   8   8   4
#     4  10  22  39  60  88 126 170 212 257 315 374
#     4  10  22  38  59  91 130 162 214 252 318 392
#     4  10  20  35  63  96 128 156 201 267 328 372
#     4  10  21  36  59  87 122 167 207 256 315 373
#     4  10  19  35  59  95 133 150 200 263 332 383
#     4  10  20  40  60  95 127 164 206 258 316 398
#
# _framework density 20.877528999999999
#
# number of rings (size 3 to 8) (size 9 to 14) (size 15 to 20)
#    0.000    2.000    1.000    3.600    5.600    0.000 
#    0.000    8.500    0.000    2.400    0.000    0.000 
#    0.000    0.000    0.000    0.000    0.000    0.000 
#
# Total GULP energy -495823.241002 kJ/mol
# GULP energy per Si atom -12395.581025 kJ/mol
# Density = 2.083001 g / cm^3
# Si number density = 20.877529 Si / 1000 Ang^3
#
#
#
# Elastic Constant Matrix: (Units=GPa)
#
#
# Indices 1 2 3 4 5 6 
#
# 1 92.3337 55.2770 59.0175 0.0000 0.0000 0.0000
# 2 55.2770 107.2061 66.9831 0.0000 0.0000 0.0000
# 3 59.0175 66.9831 161.9853 0.0000 0.0000 0.0000
# 4 0.0000 0.0000 0.0000 68.7780 0.0000 0.0000
# 5 0.0000 0.0000 0.0000 0.0000 15.5369 0.0000
# 6 0.0000 0.0000 0.0000 0.0000 0.0000 46.9699
#
#
#
# Elastic Compliance Matrix: (Units=1/GPa)
#
#
# Indices 1 2 3 4 5 6 
#
# 1 0.016994 -0.006599 -0.003463 0.000000 0.000000 0.000000
# 2 -0.006599 0.015140 -0.003856 0.000000 0.000000 0.000000
# 3 -0.003463 -0.003856 0.009030 0.000000 0.000000 0.000000
# 4 0.000000 0.000000 0.000000 0.014540 0.000000 0.000000
# 5 0.000000 0.000000 0.000000 0.000000 0.064363 0.000000
# 6 0.000000 0.000000 0.000000 0.000000 0.000000 0.021290
#
#
# Mechanical properties :
#
#
# Convention : Reuss Voigt Hill
#
# Bulk Modulus (GPa) = 75.03243 80.45336 77.74289
# Shear Modulus (GPa) = 28.79611 38.27347 33.53479
#
# Velocity S-wave (km/s) = 3.71790 4.28628 4.01217
# Velocity P-wave (km/s) = 7.37887 7.94454 7.66693
#
# Compressibility (1/GPa) = 0.01332757
#
# Stress axis : x y z
#
# Youngs Moduli (GPa) = 58.84370 66.05164 110.74552
#
# Poissons Ratio (x) = 0.43586 0.38351
# Poissons Ratio (y) = 0.38830 0.42707
# Poissons Ratio (z) = 0.20377 0.25471
#
# Static dielectric constant tensor:
#      x y z
#    x 3.721610 0.000000 0.000000 
#    y 0.000000 4.215250 0.000000 
#    z 0.000000 0.000000 3.861850 
# 
# 
# High freq. dielectric constant tensor:
#      x y z
#    x 1.786760 0.000000 0.000000 
#    y 0.000000 1.817370 0.000000 
#    z 0.000000 0.000000 1.834090 
# 
# From -- ./inp_files/11355.got.cif
#   From: 2010.03.12/outbox.cif.g09.slc.cpg/sg50_6_cif.got.tgz:11355.got - 2010.04.16 13:23:21.
