data_PCOD8204016
_publ_section_title
;
Structure prediction by ZEFSAII (Michael W. Deem and Ramdas Pophale) SiO2 
 PCOD8204016
Probable space group: P C C M
;
_chemical_formula_sum "Si O2"
_cell_formula_units_Z 56
_cell_length_a 15.626052
_cell_length_b 9.627168
_cell_length_c 18.924984
_cell_angle_alpha 90.000000
_cell_angle_beta 90.000000
_cell_angle_gamma 90.000000
_cell_volume 2846.972924
_symmetry_space_group_name_H-M "P C C M"
_symmetry_group_IT_number 49
_symmetry_cell_setting 'orthorhombic'
loop_
_space_group_symop_operation_xyz
x,y,z
-x,-y,z
x,-y,1/2-z
-x,y,1/2-z
-x,-y,-z
x,y,-z
-x,y,1/2+z
x,-y,1/2+z
loop_
_atom_site_type_symbol
_atom_site_label
_atom_site_fract_x
_atom_site_fract_y
_atom_site_fract_z
Si Si1 0.425606 0.184379 0.583033
Si Si2 0.609869 0.128396 0.416464
Si Si3 0.000000 0.737089 0.750000
Si Si4 0.777077 0.154449 0.334446
Si Si5 0.164330 0.397397 0.920751
Si Si6 0.170430 0.148736 0.313164
Si Si7 0.000000 0.500000 0.862209
Si Si8 0.738990 0.339413 0.081834
O O1 0.433695 0.190053 0.500000
O O2 0.523088 0.206491 0.610576
O O3 0.356464 0.298116 0.609647
O O4 0.393369 0.032843 0.605369
O O5 0.624407 0.148020 0.500000
O O6 0.689453 0.189324 0.374634
O O7 0.079682 0.835256 0.772066
O O8 0.986618 0.638271 0.816801
O O9 0.840821 0.271494 0.365128
O O10 0.761100 0.171129 0.250476
O O11 0.818967 0.003012 0.348667
O O12 0.248066 0.495475 0.908845
O O13 0.083854 0.501682 0.911430
O O14 0.164517 0.336040 0.000000
O O15 0.187765 0.261010 0.373402
O O16 0.749803 0.294467 0.000000
#
# Coordination Sequence:
#
# PCOD8204016 Si02
#       8
#     8   8   4   8   8   8   4   8
#     4   8  15  30  57  87 116 159 206 252 300 359
#     4   9  16  31  57  87 122 160 202 251 305 358
#     4  11  22  41  64  86 113 161 208 250 297 365
#     4  11  23  36  56  91 123 159 195 248 310 364
#     4  11  23  39  61  91 123 156 200 257 311 366
#     4  11  23  40  62  85 120 160 204 250 305 367
#     4  11  21  40  64  88 113 157 204 252 306 366
#     4  10  20  37  62  89 117 157 211 256 302 366
#
# _framework density 19.670014999999999
#
# number of rings (size 3 to 8) (size 9 to 14) (size 15 to 20)
#    0.000    1.857    4.286    1.500    0.000    2.286 
#    0.000    1.429    0.000    4.286    0.000    2.000 
#    0.000    0.000    0.000    0.000    0.000    0.000 
#
# Total GULP energy -693853.939076 kJ/mol
# GULP energy per Si atom -12390.248912 kJ/mol
# Density = 1.962525 g / cm^3
# Si number density = 19.670015 Si / 1000 Ang^3
#
#
#
# Elastic Constant Matrix: (Units=GPa)
#
#
# Indices 1 2 3 4 5 6 
#
# 1 111.8160 37.9623 28.7010 0.0000 0.0000 0.0000
# 2 37.9623 91.6851 41.5462 0.0000 0.0000 0.0000
# 3 28.7010 41.5462 74.1752 0.0000 0.0000 0.0000
# 4 0.0000 0.0000 0.0000 23.2886 0.0000 0.0000
# 5 0.0000 0.0000 0.0000 0.0000 29.2782 0.0000
# 6 0.0000 0.0000 0.0000 0.0000 0.0000 27.9530
#
#
#
# Elastic Compliance Matrix: (Units=1/GPa)
#
#
# Indices 1 2 3 4 5 6 
#
# 1 0.010671 -0.003414 -0.002217 0.000000 0.000000 0.000000
# 2 -0.003414 0.015709 -0.007478 0.000000 0.000000 0.000000
# 3 -0.002217 -0.007478 0.018528 0.000000 0.000000 0.000000
# 4 0.000000 0.000000 0.000000 0.042940 0.000000 0.000000
# 5 0.000000 0.000000 0.000000 0.000000 0.034155 0.000000
# 6 0.000000 0.000000 0.000000 0.000000 0.000000 0.035774
#
#
# Mechanical properties :
#
#
# Convention : Reuss Voigt Hill
#
# Bulk Modulus (GPa) = 53.50221 54.89948 54.20085
# Shear Modulus (GPa) = 26.28474 27.40174 26.84324
#
# Velocity S-wave (km/s) = 3.65949 3.73644 3.69816
# Velocity P-wave (km/s) = 6.71675 6.82535 6.77127
#
# Compressibility (1/GPa) = 0.01869082
#
# Stress axis : x y z
#
# Youngs Moduli (GPa) = 93.70875 63.65827 53.97305
#
# Poissons Ratio (x) = 0.21732 0.11966
# Poissons Ratio (y) = 0.31991 0.40360
# Poissons Ratio (z) = 0.20775 0.47602
#
# Static dielectric constant tensor:
#      x y z
#    x 3.671580 0.000000 0.000000 
#    y 0.000000 3.200960 0.000000 
#    z 0.000000 0.000000 3.451970 
# 
# 
# High freq. dielectric constant tensor:
#      x y z
#    x 1.768780 0.000000 0.000000 
#    y 0.000000 1.752530 0.000000 
#    z 0.000000 0.000000 1.750570 
# 
# From -- ./inp_files/20904.got.cif
#   From: 2010.03.12/outbox.cif.g09.slc.cpg/sg49_11_cif.got.tgz:20904.got - 2010.04.14 03:58:27.
