data_PCOD8204357
_publ_section_title
;
Structure prediction by ZEFSAII (Michael W. Deem and Ramdas Pophale) SiO2 
 PCOD8204357
Probable space group: P C C M
;
_chemical_formula_sum "Si O2"
_cell_formula_units_Z 58
_cell_length_a 9.907543
_cell_length_b 16.630651
_cell_length_c 15.928527
_cell_angle_alpha 90.000000
_cell_angle_beta 90.000000
_cell_angle_gamma 90.000000
_cell_volume 2624.525712
_symmetry_space_group_name_H-M "P C C M"
_symmetry_group_IT_number 49
_symmetry_cell_setting 'orthorhombic'
loop_
_space_group_symop_operation_xyz
x,y,z
-x,-y,z
x,-y,1/2-z
-x,y,1/2-z
-x,-y,-z
x,y,-z
-x,y,1/2+z
x,-y,1/2+z
loop_
_atom_site_type_symbol
_atom_site_label
_atom_site_fract_x
_atom_site_fract_y
_atom_site_fract_z
Si Si1 0.295684 0.296023 0.096286
Si Si2 0.003965 0.734696 0.150095
Si Si3 0.000000 0.000000 0.250000
Si Si4 0.087467 0.434868 0.661445
Si Si5 0.655251 0.013184 0.408462
Si Si6 0.637931 0.155946 0.293075
Si Si7 0.344660 0.479632 0.900538
Si Si8 0.174637 0.876090 0.152524
O O1 0.388071 0.234652 0.149718
O O2 0.318983 0.387335 0.125965
O O3 0.142559 0.269986 0.110203
O O4 0.338412 0.286898 0.000000
O O5 0.085342 0.654137 0.123780
O O6 0.080926 0.809984 0.106231
O O7 0.000000 0.749259 0.250000
O O8 0.913301 0.053778 0.189601
O O9 0.243668 0.465880 0.657773
O O10 0.000000 0.500000 0.607154
O O11 0.000000 0.429750 0.750000
O O12 0.682354 0.050172 0.500000
O O13 0.704308 0.080131 0.342343
O O14 0.500000 0.000000 0.391101
O O15 0.722177 0.924587 0.406064
O O16 0.500000 0.128529 0.250000
O O17 0.746350 0.176626 0.221969
O O18 0.500000 0.500000 0.878635
O O19 0.316022 0.494236 0.000000
#
# Coordination Sequence:
#
# PCOD8204357 Si02
#       8
#     8   8   2   8   8   8   8   8
#     4  11  24  43  67 100 138 177 224 283 349 407
#     4  11  22  40  66  96 139 177 230 288 332 412
#     4  12  20  36  64  88 118 168 214 258 316 388
#     4  10  21  39  68  99 135 181 237 287 337 410
#     4  11  24  43  65  93 129 166 215 278 340 406
#     4  12  23  41  68  93 126 176 221 269 340 415
#     4  10  23  45  70 100 141 187 229 282 358 434
#     4  12  23  39  66  97 126 171 227 272 330 414
#
# _framework density 22.099231
#
# number of rings (size 3 to 8) (size 9 to 14) (size 15 to 20)
#    0.000    0.966    6.207    0.414    0.000    2.483 
#    0.000    1.724    0.000    0.000    0.000    0.000 
#    0.000    0.000    0.000    0.000    0.000    0.000 
#
# Total GULP energy -718659.482554 kJ/mol
# GULP energy per Si atom -12390.680734 kJ/mol
# Density = 2.204893 g / cm^3
# Si number density = 22.099231 Si / 1000 Ang^3
#
#
#
# Elastic Constant Matrix: (Units=GPa)
#
#
# Indices 1 2 3 4 5 6 
#
# 1 128.5781 53.9027 21.6242 0.0000 0.0000 0.0000
# 2 53.9027 155.1126 14.0889 0.0000 0.0000 0.0000
# 3 21.6242 14.0889 46.9432 0.0000 0.0000 0.0000
# 4 0.0000 0.0000 0.0000 23.5811 0.0000 0.0000
# 5 0.0000 0.0000 0.0000 0.0000 20.1479 0.0000
# 6 0.0000 0.0000 0.0000 0.0000 0.0000 28.8488
#
#
#
# Elastic Compliance Matrix: (Units=1/GPa)
#
#
# Indices 1 2 3 4 5 6 
#
# 1 0.009641 -0.003030 -0.003532 0.000000 0.000000 0.000000
# 2 -0.003030 0.007580 -0.000879 0.000000 0.000000 0.000000
# 3 -0.003532 -0.000879 0.023193 0.000000 0.000000 0.000000
# 4 0.000000 0.000000 0.000000 0.042407 0.000000 0.000000
# 5 0.000000 0.000000 0.000000 0.000000 0.049633 0.000000
# 6 0.000000 0.000000 0.000000 0.000000 0.000000 0.034663
#
#
# Mechanical properties :
#
#
# Convention : Reuss Voigt Hill
#
# Bulk Modulus (GPa) = 39.16579 56.65172 47.90875
# Shear Modulus (GPa) = 26.24529 30.58343 28.41436
#
# Velocity S-wave (km/s) = 3.44991 3.72414 3.58964
# Velocity P-wave (km/s) = 5.79917 6.64703 6.23752
#
# Compressibility (1/GPa) = 0.02553249
#
# Stress axis : x y z
#
# Youngs Moduli (GPa) = 103.71836 131.93267 43.11596
#
# Poissons Ratio (x) = 0.39971 0.15229
# Poissons Ratio (y) = 0.31423 0.03791
# Poissons Ratio (z) = 0.36634 0.11600
#
# Static dielectric constant tensor:
#      x y z
#    x 4.129290 0.000000 0.000000 
#    y 0.000000 4.364460 0.000000 
#    z 0.000000 0.000000 3.819170 
# 
# 
# High freq. dielectric constant tensor:
#      x y z
#    x 1.870730 0.000000 0.000000 
#    y 0.000000 1.887300 0.000000 
#    z 0.000000 0.000000 1.841520 
# 
# From -- ./inp_files/16490.got.cif
#   From: 2010.03.12/outbox.cif.g09.slc.cpg/sg49_9_cif.got.tgz:16490.got - 2010.04.14 03:58:27.
