data_PCOD8204407
_publ_section_title
;
Structure prediction by ZEFSAII (Michael W. Deem and Ramdas Pophale) SiO2 
 PCOD8204407
Probable space group: P C C M
;
_chemical_formula_sum "Si O2"
_cell_formula_units_Z 56
_cell_length_a 20.922886
_cell_length_b 14.736236
_cell_length_c 8.838464
_cell_angle_alpha 90.000000
_cell_angle_beta 90.000000
_cell_angle_gamma 90.000000
_cell_volume 2725.115753
_symmetry_space_group_name_H-M "P C C M"
_symmetry_group_IT_number 49
_symmetry_cell_setting 'orthorhombic'
loop_
_space_group_symop_operation_xyz
x,y,z
-x,-y,z
x,-y,1/2-z
-x,y,1/2-z
-x,-y,-z
x,y,-z
-x,y,1/2+z
x,-y,1/2+z
loop_
_atom_site_type_symbol
_atom_site_label
_atom_site_fract_x
_atom_site_fract_y
_atom_site_fract_z
Si Si1 0.245133 0.595815 0.674564
Si Si2 0.880109 0.399750 0.179667
Si Si3 0.064235 0.769290 0.680034
Si Si4 0.680504 0.903820 0.178531
Si Si5 0.175820 0.096305 0.822023
Si Si6 0.435359 0.218454 0.820351
Si Si7 0.385933 0.404079 0.827286
O O1 0.256277 0.500000 0.750000
O O2 0.223047 0.588096 0.500000
O O3 0.188394 0.643536 0.768260
O O4 0.314721 0.640889 0.689250
O O5 0.889120 0.500000 0.250000
O O6 0.932075 0.331381 0.247367
O O7 0.885656 0.405391 0.000000
O O8 0.059787 0.762411 0.500000
O O9 0.124501 0.829605 0.733507
O O10 0.000000 0.813764 0.750000
O O11 0.752377 0.871437 0.224497
O O12 0.626844 0.834887 0.240614
O O13 0.664817 0.000000 0.250000
O O14 0.675722 0.913351 0.000000
O O15 0.158605 0.000000 0.750000
O O16 0.170944 0.083864 0.000000
O O17 0.500000 0.176534 0.750000
O O18 0.431044 0.323783 0.765917
O O19 0.438686 0.211884 0.000000
O O20 0.398824 0.500000 0.750000
O O21 0.400006 0.425458 0.000000
#
# Coordination Sequence:
#
# PCOD8204407 Si02
#       7
#     8   8   8   8   8   8   8
#     4   9  16  29  51  77 106 141 186 237 290 341
#     4  11  22  37  57  84 118 157 200 246 293 347
#     4  11  24  41  61  88 121 160 199 241 293 347
#     4   9  19  38  63  88 114 147 188 235 289 346
#     4   9  20  39  66  92 118 152 191 238 293 350
#     4  10  22  38  56  81 115 155 195 237 290 346
#     4   9  19  34  54  78 110 152 194 240 288 343
#
# _framework density 20.549585
#
# number of rings (size 3 to 8) (size 9 to 14) (size 15 to 20)
#    0.000    2.286    0.000    3.000    2.000    4.000 
#    0.000    5.714    0.000    0.000    0.000    0.000 
#    0.000    0.000    0.000    0.000    0.000    0.000 
#
# Total GULP energy -693988.043386 kJ/mol
# GULP energy per Si atom -12392.643632 kJ/mol
# Density = 2.050281 g / cm^3
# Si number density = 20.549585 Si / 1000 Ang^3
#
#
#
# Elastic Constant Matrix: (Units=GPa)
#
#
# Indices 1 2 3 4 5 6 
#
# 1 142.6773 77.7078 45.2351 0.0000 0.0000 0.0000
# 2 77.7078 106.8053 40.5788 0.0000 0.0000 0.0000
# 3 45.2351 40.5788 80.0354 0.0000 0.0000 0.0000
# 4 0.0000 0.0000 0.0000 28.0303 0.0000 0.0000
# 5 0.0000 0.0000 0.0000 0.0000 38.6185 0.0000
# 6 0.0000 0.0000 0.0000 0.0000 0.0000 25.0066
#
#
#
# Elastic Compliance Matrix: (Units=1/GPa)
#
#
# Indices 1 2 3 4 5 6 
#
# 1 0.012148 -0.007716 -0.002954 0.000000 0.000000 0.000000
# 2 -0.007716 0.016498 -0.004004 0.000000 0.000000 0.000000
# 3 -0.002954 -0.004004 0.016194 0.000000 0.000000 0.000000
# 4 0.000000 0.000000 0.000000 0.035676 0.000000 0.000000
# 5 0.000000 0.000000 0.000000 0.000000 0.025894 0.000000
# 6 0.000000 0.000000 0.000000 0.000000 0.000000 0.039989
#
#
# Mechanical properties :
#
#
# Convention : Reuss Voigt Hill
#
# Bulk Modulus (GPa) = 64.54635 72.95128 68.74881
# Shear Modulus (GPa) = 27.63812 29.39750 28.51781
#
# Velocity S-wave (km/s) = 3.67133 3.78638 3.72930
# Velocity P-wave (km/s) = 7.03206 7.39546 7.21604
#
# Compressibility (1/GPa) = 0.01549274
#
# Stress axis : x y z
#
# Youngs Moduli (GPa) = 82.31980 60.61393 61.75258
#
# Poissons Ratio (x) = 0.46770 0.18239
# Poissons Ratio (y) = 0.63519 0.24723
# Poissons Ratio (z) = 0.24314 0.24267
#
# Static dielectric constant tensor:
#      x y z
#    x 4.334970 0.000000 0.000000 
#    y 0.000000 3.287470 0.000000 
#    z 0.000000 0.000000 3.581460 
# 
# 
# High freq. dielectric constant tensor:
#      x y z
#    x 1.815550 0.000000 0.000000 
#    y 0.000000 1.790210 0.000000 
#    z 0.000000 0.000000 1.794730 
# 
# From -- ./inp_files/5814.got.cif
#   From: 2010.03.12/outbox.cif.g09.slc.cpg/sg49_3_cif.got.tgz:5814.got - 2010.04.14 03:58:27.
