data_PCOD8204990
_publ_section_title
;
Structure prediction by ZEFSAII (Michael W. Deem and Ramdas Pophale) SiO2 
 PCOD8204990
Probable space group: P B A N
;
_chemical_formula_sum "Si O2"
_cell_formula_units_Z 64
_cell_length_a 19.252242
_cell_length_b 20.694656
_cell_length_c 8.077213
_cell_angle_alpha 90.000000
_cell_angle_beta 90.000000
_cell_angle_gamma 90.000000
_cell_volume 3218.111293
_symmetry_space_group_name_H-M "P B A N"
_symmetry_group_IT_number 50
_space_group.IT_coordinate_system_code '2'
_symmetry_cell_setting 'orthorhombic'
loop_
_space_group_symop_operation_xyz
x,y,z
1/2-x,1/2-y,z
x,1/2-y,-z
1/2-x,y,-z
-x,-y,-z
1/2+x,1/2+y,-z
-x,1/2+y,z
1/2+x,-y,z
loop_
_atom_site_type_symbol
_atom_site_label
_atom_site_fract_x
_atom_site_fract_y
_atom_site_fract_z
Si Si1 0.460468 0.403167 0.742667
Si Si2 0.829902 0.266182 0.174261
Si Si3 0.438731 0.542768 0.846601
Si Si4 0.874322 0.102213 0.701891
Si Si5 0.403871 0.838702 0.378085
Si Si6 0.944129 0.681447 0.441102
Si Si7 0.675684 0.500677 0.912219
Si Si8 0.922781 0.609601 0.097777
O O1 0.433333 0.477319 0.738833
O O2 0.543447 0.404224 0.734834
O O3 0.424151 0.372033 0.579645
O O4 0.433832 0.363499 0.908837
O O5 0.750000 0.250000 0.171025
O O6 0.841652 0.341789 0.188322
O O7 0.863545 0.224276 0.318882
O O8 0.865978 0.250000 0.000000
O O9 0.421694 0.609513 0.759379
O O10 0.519200 0.551931 0.901696
O O11 0.381846 0.540099 0.988844
O O12 0.859550 0.122261 0.513165
O O13 0.828859 0.037145 0.736714
O O14 0.473855 0.810100 0.455100
O O15 0.910203 0.750000 0.500000
O O16 0.924924 0.660860 0.250186
O O17 0.652561 0.575158 0.889972
O O18 0.750000 0.497695 0.000000
#
# Coordination Sequence:
#
# PCOD8204990 Si02
#       8
#     8   8   8   8   8   8   8   8
#     4  10  19  36  60  88 116 152 199 246 298 360
#     4  11  25  39  52  71 115 171 211 238 279 341
#     4  10  19  37  60  84 116 154 204 244 304 361
#     4  11  21  35  58  77 114 155 206 248 294 339
#     4  10  22  36  54  83 116 155 205 253 297 341
#     4  10  22  36  59  93 119 144 197 252 304 369
#     4  11  22  36  58  89 118 153 206 248 296 361
#     4  10  20  38  62  86 119 163 188 247 315 355
#
# _framework density 19.887440000000002
#
# number of rings (size 3 to 8) (size 9 to 14) (size 15 to 20)
#    0.000    1.625    2.500    3.375    7.000    3.000 
#    0.000    0.000    0.000    0.000    0.000   10.500 
#    0.000    0.000    0.000    0.000    0.000    0.000 
#
# Total GULP energy -792861.224048 kJ/mol
# GULP energy per Si atom -12388.456626 kJ/mol
# Density = 1.984218 g / cm^3
# Si number density = 19.887440 Si / 1000 Ang^3
#
#
#
# Elastic Constant Matrix: (Units=GPa)
#
#
# Indices 1 2 3 4 5 6 
#
# 1 43.8137 15.0060 11.4573 0.0000 0.0000 0.0000
# 2 15.0060 61.8966 7.0729 0.0000 0.0000 0.0000
# 3 11.4573 7.0729 85.8983 0.0000 0.0000 0.0000
# 4 0.0000 0.0000 0.0000 47.0581 0.0000 0.0000
# 5 0.0000 0.0000 0.0000 0.0000 17.6771 0.0000
# 6 0.0000 0.0000 0.0000 0.0000 0.0000 18.5949
#
#
#
# Elastic Compliance Matrix: (Units=1/GPa)
#
#
# Indices 1 2 3 4 5 6 
#
# 1 0.025602 -0.005872 -0.002931 0.000000 0.000000 0.000000
# 2 -0.005872 0.017656 -0.000671 0.000000 0.000000 0.000000
# 3 -0.002931 -0.000671 0.012088 0.000000 0.000000 0.000000
# 4 0.000000 0.000000 0.000000 0.021250 0.000000 0.000000
# 5 0.000000 0.000000 0.000000 0.000000 0.056570 0.000000
# 6 0.000000 0.000000 0.000000 0.000000 0.000000 0.053778
#
#
# Mechanical properties :
#
#
# Convention : Reuss Voigt Hill
#
# Bulk Modulus (GPa) = 27.47395 28.74234 28.10815
# Shear Modulus (GPa) = 22.93320 27.20418 25.06869
#
# Velocity S-wave (km/s) = 3.39949 3.70254 3.55424
# Velocity P-wave (km/s) = 5.40864 5.72383 5.56847
#
# Compressibility (1/GPa) = 0.03639811
#
# Stress axis : x y z
#
# Youngs Moduli (GPa) = 39.06019 56.63751 82.72755
#
# Poissons Ratio (x) = 0.33256 0.24250
# Poissons Ratio (y) = 0.22935 0.05548
# Poissons Ratio (z) = 0.11450 0.03798
#
# Static dielectric constant tensor:
#      x y z
#    x 3.275240 0.000000 0.000000 
#    y 0.000000 3.572570 0.000000 
#    z 0.000000 0.000000 4.068200 
# 
# 
# High freq. dielectric constant tensor:
#      x y z
#    x 1.731690 0.000000 0.000000 
#    y 0.000000 1.772790 0.000000 
#    z 0.000000 0.000000 1.789580 
# 
# From -- ./inp_files/14619.got.cif
#   From: 2010.03.12/outbox.cif.g09.slc.cpg/sg50_8_cif.got.tgz:14619.got - 2010.04.16 13:23:21.
