data_PCOD8204471
_publ_section_title
;
Structure prediction by ZEFSAII (Michael W. Deem and Ramdas Pophale) SiO2 
 PCOD8204471
Probable space group: P C C M
;
_chemical_formula_sum "Si O2"
_cell_formula_units_Z 58
_cell_length_a 16.805932
_cell_length_b 18.038238
_cell_length_c 8.808362
_cell_angle_alpha 90.000000
_cell_angle_beta 90.000000
_cell_angle_gamma 90.000000
_cell_volume 2670.249666
_symmetry_space_group_name_H-M "P C C M"
_symmetry_group_IT_number 49
_symmetry_cell_setting 'orthorhombic'
loop_
_space_group_symop_operation_xyz
x,y,z
-x,-y,z
x,-y,1/2-z
-x,y,1/2-z
-x,-y,-z
x,y,-z
-x,y,1/2+z
x,-y,1/2+z
loop_
_atom_site_type_symbol
_atom_site_label
_atom_site_fract_x
_atom_site_fract_y
_atom_site_fract_z
Si Si1 0.779860 0.570806 0.670321
Si Si2 0.081373 0.919456 0.181579
Si Si3 0.622138 0.624180 0.830590
Si Si4 0.586563 0.926011 0.679999
Si Si5 0.500000 0.500000 0.750000
Si Si6 0.658260 0.768335 0.320330
Si Si7 0.822723 0.200993 0.679160
Si Si8 0.077157 0.317151 0.672320
O O1 0.818129 0.500000 0.750000
O O2 0.752414 0.552991 0.500000
O O3 0.701688 0.592895 0.759737
O O4 0.848507 0.629702 0.674752
O O5 0.160687 0.877318 0.239318
O O6 0.000000 0.883921 0.250000
O O7 0.090741 0.000000 0.250000
O O8 0.077822 0.920787 0.000000
O O9 0.555865 0.558598 0.839246
O O10 0.601096 0.700952 0.739594
O O11 0.639040 0.650441 0.000000
O O12 0.500000 0.921465 0.750000
O O13 0.582677 0.934061 0.500000
O O14 0.628882 0.849782 0.729179
O O15 0.629323 0.000000 0.750000
O O16 0.663859 0.760046 0.500000
O O17 0.745453 0.758719 0.248760
O O18 0.812991 0.191689 0.500000
O O19 0.900781 0.247850 0.722232
O O20 0.058582 0.292101 0.500000
O O21 0.000000 0.354897 0.750000
#
# Coordination Sequence:
#
# PCOD8204471 Si02
#       8
#     8   8   8   8   2   8   8   8
#     4  11  24  43  69  96 133 174 216 273 333 392
#     4  11  22  39  61  89 128 171 220 277 334 395
#     4  12  26  45  71 101 137 181 227 276 338 408
#     4  10  22  41  67  96 131 173 217 271 329 394
#     4  12  30  48  72 110 146 176 230 276 338 404
#     4  11  25  44  66  97 135 174 220 277 336 398
#     4  12  24  40  64  93 126 171 220 270 331 397
#     4  11  24  42  65  94 129 170 218 274 330 393
#
# _framework density 21.720815000000002
#
# number of rings (size 3 to 8) (size 9 to 14) (size 15 to 20)
#    0.000    0.828    2.069    6.000    0.966    6.345 
#    0.000    2.759    0.000    0.000    0.000    0.000 
#    0.000    0.000    0.000    0.000    0.000    0.000 
#
# Total GULP energy -718884.063226 kJ/mol
# GULP energy per Si atom -12394.552814 kJ/mol
# Density = 2.167138 g / cm^3
# Si number density = 21.720815 Si / 1000 Ang^3
#
#
#
# Elastic Constant Matrix: (Units=GPa)
#
#
# Indices 1 2 3 4 5 6 
#
# 1 84.9606 38.9267 45.8161 0.0000 0.0000 0.0000
# 2 38.9267 138.4474 63.4325 0.0000 0.0000 0.0000
# 3 45.8161 63.4325 170.8522 0.0000 0.0000 0.0000
# 4 0.0000 0.0000 0.0000 31.6845 0.0000 0.0000
# 5 0.0000 0.0000 0.0000 0.0000 13.5632 0.0000
# 6 0.0000 0.0000 0.0000 0.0000 0.0000 28.2826
#
#
#
# Elastic Compliance Matrix: (Units=1/GPa)
#
#
# Indices 1 2 3 4 5 6 
#
# 1 0.014600 -0.002785 -0.002881 0.000000 0.000000 0.000000
# 2 -0.002785 0.009235 -0.002682 0.000000 0.000000 0.000000
# 3 -0.002881 -0.002682 0.007621 0.000000 0.000000 0.000000
# 4 0.000000 0.000000 0.000000 0.031561 0.000000 0.000000
# 5 0.000000 0.000000 0.000000 0.000000 0.073729 0.000000
# 6 0.000000 0.000000 0.000000 0.000000 0.000000 0.035357
#
#
# Mechanical properties :
#
#
# Convention : Reuss Voigt Hill
#
# Bulk Modulus (GPa) = 67.75006 76.73452 72.24229
# Shear Modulus (GPa) = 25.81060 31.11173 28.46117
#
# Velocity S-wave (km/s) = 3.45090 3.78874 3.62376
# Velocity P-wave (km/s) = 6.86566 7.38537 7.13025
#
# Compressibility (1/GPa) = 0.01476014
#
# Stress axis : x y z
#
# Youngs Moduli (GPa) = 68.49386 108.28739 131.21125
#
# Poissons Ratio (x) = 0.30157 0.37804
# Poissons Ratio (y) = 0.19075 0.35188
# Poissons Ratio (z) = 0.19734 0.29040
#
# Static dielectric constant tensor:
#      x y z
#    x 3.979330 0.000000 0.000000 
#    y 0.000000 4.486520 0.000000 
#    z 0.000000 0.000000 4.065850 
# 
# 
# High freq. dielectric constant tensor:
#      x y z
#    x 1.845730 0.000000 0.000000 
#    y 0.000000 1.870480 0.000000 
#    z 0.000000 0.000000 1.866050 
# 
# From -- ./inp_files/5088.got.cif
#   From: 2010.03.12/outbox.cif.g09.slc.cpg/sg49_3_cif.got.tgz:5088.got - 2010.04.14 03:58:27.
