data_PCOD8204250
_publ_section_title
;
Structure prediction by ZEFSAII (Michael W. Deem and Ramdas Pophale) SiO2 
 PCOD8204250
Probable space group: P C C M
;
_chemical_formula_sum "Si O2"
_cell_formula_units_Z 56
_cell_length_a 15.947898
_cell_length_b 9.638755
_cell_length_c 17.600986
_cell_angle_alpha 90.000000
_cell_angle_beta 90.000000
_cell_angle_gamma 90.000000
_cell_volume 2705.586282
_symmetry_space_group_name_H-M "P C C M"
_symmetry_group_IT_number 49
_symmetry_cell_setting 'orthorhombic'
loop_
_space_group_symop_operation_xyz
x,y,z
-x,-y,z
x,-y,1/2-z
-x,y,1/2-z
-x,-y,-z
x,y,-z
-x,y,1/2+z
x,-y,1/2+z
loop_
_atom_site_type_symbol
_atom_site_label
_atom_site_fract_x
_atom_site_fract_y
_atom_site_fract_z
Si Si1 0.302099 0.689742 0.176669
Si Si2 0.075862 0.599213 0.587475
Si Si3 0.924363 0.917327 0.912632
Si Si4 0.748821 0.610803 0.844791
Si Si5 0.366420 0.814712 0.414441
Si Si6 0.511732 0.347449 0.163089
Si Si7 0.246014 0.949217 0.909953
O O1 0.294412 0.536242 0.143865
O O2 0.275089 0.684563 0.265010
O O3 0.398052 0.725784 0.155772
O O4 0.245200 0.802823 0.133890
O O5 0.100579 0.564979 0.500000
O O6 0.050037 0.758086 0.596852
O O7 0.153081 0.579149 0.644796
O O8 0.000000 0.500000 0.614091
O O9 0.833749 0.961348 0.878982
O O10 0.919982 0.961051 0.000000
O O11 0.000000 0.000000 0.871748
O O12 0.712741 0.709538 0.910417
O O13 0.399453 0.820366 0.500000
O O14 0.443471 0.764730 0.363580
O O15 0.330660 0.965158 0.389349
O O16 0.500000 0.500000 0.122178
O O17 0.500000 0.379418 0.250000
O O18 0.241371 0.921929 0.000000
#
# Coordination Sequence:
#
# PCOD8204250 Si02
#       7
#     8   8   8   8   8   8   8
#     4  11  24  40  64  90 122 170 215 262 323 391
#     4  10  21  37  63  96 127 163 209 262 315 374
#     4   9  18  35  59  87 122 161 201 253 316 377
#     4  11  21  42  63  91 125 168 217 263 312 387
#     4  11  22  39  64  93 127 165 210 274 330 380
#     4  11  20  41  63  88 125 166 218 267 318 389
#     4  10  23  41  61  92 132 166 208 272 336 396
#
# _framework density 20.697918000000001
#
# number of rings (size 3 to 8) (size 9 to 14) (size 15 to 20)
#    0.000    1.571    4.286    1.286    2.000    3.143 
#    0.000    3.571    0.000    0.857    0.000    0.000 
#    0.000    0.000    0.000    0.000    0.000    0.000 
#
# Total GULP energy -694000.589130 kJ/mol
# GULP energy per Si atom -12392.867663 kJ/mol
# Density = 2.065081 g / cm^3
# Si number density = 20.697918 Si / 1000 Ang^3
#
#
#
# Elastic Constant Matrix: (Units=GPa)
#
#
# Indices 1 2 3 4 5 6 
#
# 1 148.9025 42.1142 43.4359 0.0000 0.0000 0.0000
# 2 42.1142 107.6499 44.2983 0.0000 0.0000 0.0000
# 3 43.4359 44.2983 49.0606 0.0000 0.0000 0.0000
# 4 0.0000 0.0000 0.0000 17.3144 0.0000 0.0000
# 5 0.0000 0.0000 0.0000 0.0000 26.2935 0.0000
# 6 0.0000 0.0000 0.0000 0.0000 0.0000 54.6417
#
#
#
# Elastic Compliance Matrix: (Units=1/GPa)
#
#
# Indices 1 2 3 4 5 6 
#
# 1 0.009064 -0.000388 -0.007675 0.000000 0.000000 0.000000
# 2 -0.000388 0.014798 -0.013018 0.000000 0.000000 0.000000
# 3 -0.007675 -0.013018 0.038933 0.000000 0.000000 0.000000
# 4 0.000000 0.000000 0.000000 0.057756 0.000000 0.000000
# 5 0.000000 0.000000 0.000000 0.000000 0.038032 0.000000
# 6 0.000000 0.000000 0.000000 0.000000 0.000000 0.018301
#
#
# Mechanical properties :
#
#
# Convention : Reuss Voigt Hill
#
# Bulk Modulus (GPa) = 48.46626 62.81220 55.63923
# Shear Modulus (GPa) = 22.13136 31.36756 26.74946
#
# Velocity S-wave (km/s) = 3.27349 3.89716 3.59886
# Velocity P-wave (km/s) = 6.14447 7.11783 6.64898
#
# Compressibility (1/GPa) = 0.02063291
#
# Stress axis : x y z
#
# Youngs Moduli (GPa) = 110.32264 67.57579 25.68539
#
# Poissons Ratio (x) = 0.02621 0.19713
# Poissons Ratio (y) = 0.04279 0.33438
# Poissons Ratio (z) = 0.84672 0.87973
#
# Static dielectric constant tensor:
#      x y z
#    x 4.402150 0.000000 0.000000 
#    y 0.000000 3.731350 0.000000 
#    z 0.000000 0.000000 3.452760 
# 
# 
# High freq. dielectric constant tensor:
#      x y z
#    x 1.818490 0.000000 0.000000 
#    y 0.000000 1.816020 0.000000 
#    z 0.000000 0.000000 1.775410 
# 
# From -- ./inp_files/20894.got.cif
#   From: 2010.03.12/outbox.cif.g09.slc.cpg/sg49_11_cif.got.tgz:20894.got - 2010.04.14 03:58:27.
