data_PCOD8204784
_publ_section_title
;
Structure prediction by ZEFSAII (Michael W. Deem and Ramdas Pophale) SiO2 
 PCOD8204784
Probable space group: P B A N
;
_chemical_formula_sum "Si O2"
_cell_formula_units_Z 60
_cell_length_a 18.271794
_cell_length_b 12.748901
_cell_length_c 15.110540
_cell_angle_alpha 90.000000
_cell_angle_beta 90.000000
_cell_angle_gamma 90.000000
_cell_volume 3519.929165
_symmetry_space_group_name_H-M "P B A N"
_symmetry_group_IT_number 50
_space_group.IT_coordinate_system_code '2'
_symmetry_cell_setting 'orthorhombic'
loop_
_space_group_symop_operation_xyz
x,y,z
1/2-x,1/2-y,z
x,1/2-y,-z
1/2-x,y,-z
-x,-y,-z
1/2+x,1/2+y,-z
-x,1/2+y,z
1/2+x,-y,z
loop_
_atom_site_type_symbol
_atom_site_label
_atom_site_fract_x
_atom_site_fract_y
_atom_site_fract_z
Si Si1 0.389948 0.221571 0.398174
Si Si2 0.408033 0.475116 0.705449
Si Si3 0.381562 0.008713 0.847730
Si Si4 0.220142 0.452259 0.178895
Si Si5 0.874718 0.862884 0.024548
Si Si6 0.480972 0.148448 0.728948
Si Si7 0.999480 0.839893 0.158149
Si Si8 0.750000 0.750000 0.709448
O O1 0.390062 0.250000 0.500000
O O2 0.393080 0.094601 0.383034
O O3 0.457854 0.279627 0.352879
O O4 0.318254 0.270007 0.353788
O O5 0.333534 0.514163 0.753828
O O6 0.455683 0.577149 0.686011
O O7 0.448727 0.397582 0.771616
O O8 0.295619 0.983726 0.832738
O O9 0.415103 0.077498 0.767512
O O10 0.423014 0.897564 0.854731
O O11 0.391772 0.071166 0.937839
O O12 0.181550 0.428988 0.084920
O O13 0.238492 0.343668 0.224147
O O14 0.953758 0.840204 0.067864
O O15 0.839120 0.750000 0.000000
O O16 0.513153 0.221088 0.808053
#
# Coordination Sequence:
#
# PCOD8204784 Si02
#       8
#     8   8   8   8   8   8   8   4
#     4  10  19  31  52  80 104 129 162 207 267 317
#     4   8  19  33  51  71 103 128 168 208 252 307
#     4  11  19  31  50  70 102 134 173 213 255 302
#     4  10  19  31  47  74 101 131 169 212 251 309
#     4  11  19  30  48  75 102 134 171 216 266 301
#     4  10  18  36  51  70  98 137 170 208 249 310
#     4   9  19  33  48  71  96 137 175 208 251 305
#     4  10  17  32  49  72 110 134 154 203 265 320
#
# _framework density 17.045798000000001
#
# number of rings (size 3 to 8) (size 9 to 14) (size 15 to 20)
#    0.000    2.133    2.667    2.600    0.000    1.067 
#    0.000    0.667    0.000    0.000    0.000    0.000 
#    0.000    0.000    0.000    0.000    0.000    0.000 
#
# Total GULP energy -743760.418548 kJ/mol
# GULP energy per Si atom -12396.006976 kJ/mol
# Density = 1.700700 g / cm^3
# Si number density = 17.045798 Si / 1000 Ang^3
#
#
#
# Elastic Constant Matrix: (Units=GPa)
#
#
# Indices 1 2 3 4 5 6 
#
# 1 85.9024 18.9796 16.2850 0.0000 0.0000 0.0000
# 2 18.9796 39.0669 3.6791 0.0000 0.0000 0.0000
# 3 16.2850 3.6791 64.3405 0.0000 0.0000 0.0000
# 4 0.0000 0.0000 0.0000 4.7426 0.0000 0.0000
# 5 0.0000 0.0000 0.0000 0.0000 -3.6846 0.0000
# 6 0.0000 0.0000 0.0000 0.0000 0.0000 26.7176
#
#
#
# Elastic Compliance Matrix: (Units=1/GPa)
#
#
# Indices 1 2 3 4 5 6 
#
# 1 0.013624 -0.006328 -0.003087 0.000000 0.000000 0.000000
# 2 -0.006328 0.028675 -0.000038 0.000000 0.000000 0.000000
# 3 -0.003087 -0.000038 0.016326 0.000000 0.000000 0.000000
# 4 0.000000 0.000000 0.000000 0.210855 0.000000 0.000000
# 5 0.000000 0.000000 0.000000 0.000000 -0.271404 0.000000
# 6 0.000000 0.000000 0.000000 0.000000 0.000000 0.037429
#
#
# Mechanical properties :
#
#
# Convention : Reuss Voigt Hill
#
# Bulk Modulus (GPa) = 25.17653 29.68859 27.43256
# Shear Modulus (GPa) = 73.90902 15.57953 44.74427
#
# Velocity S-wave (km/s) = 6.59191 3.02649 5.12898
# Velocity P-wave (km/s) = 8.52875 5.44680 7.15567
#
# Compressibility (1/GPa) = 0.03971954
#
# Stress axis : x y z
#
# Youngs Moduli (GPa) = 73.39727 34.87333 61.25306
#
# Poissons Ratio (x) = 0.22069 0.18906
# Poissons Ratio (y) = 0.46449 0.00232
# Poissons Ratio (z) = 0.22655 0.00132
#
# Static dielectric constant tensor:
#      x y z
#    x 4.673360 0.000000 0.000000 
#    y 0.000000 3.145070 0.000000 
#    z 0.000000 0.000000 3.089580 
# 
# 
# High freq. dielectric constant tensor:
#      x y z
#    x 1.658350 0.000000 0.000000 
#    y 0.000000 1.632520 0.000000 
#    z 0.000000 0.000000 1.647380 
# 
# From -- ./inp_files/26978.got.cif
#   From: 2010.03.12/outbox.cif.g09.slc.cpg/sg50_14_cif.got.tgz:26978.got - 2010.04.16 13:23:21.
