data_PCOD8204536
_publ_section_title
;
Structure prediction by ZEFSAII (Michael W. Deem and Ramdas Pophale) SiO2 
 PCOD8204536
Probable space group: P C C M
;
_chemical_formula_sum "Si O2"
_cell_formula_units_Z 64
_cell_length_a 15.273585
_cell_length_b 24.551193
_cell_length_c 8.937545
_cell_angle_alpha 90.000000
_cell_angle_beta 90.000000
_cell_angle_gamma 90.000000
_cell_volume 3351.442927
_symmetry_space_group_name_H-M "P C C M"
_symmetry_group_IT_number 49
_symmetry_cell_setting 'orthorhombic'
loop_
_space_group_symop_operation_xyz
x,y,z
-x,-y,z
x,-y,1/2-z
-x,y,1/2-z
-x,-y,-z
x,y,-z
-x,y,1/2+z
x,-y,1/2+z
loop_
_atom_site_type_symbol
_atom_site_label
_atom_site_fract_x
_atom_site_fract_y
_atom_site_fract_z
Si Si1 0.675487 0.261859 0.668393
Si Si2 0.588912 0.643699 0.324522
Si Si3 0.589960 0.058573 0.178977
Si Si4 0.279104 0.140116 0.176499
Si Si5 0.086485 0.832018 0.675531
Si Si6 0.085667 0.602534 0.824354
Si Si7 0.731275 0.556248 0.677041
Si Si8 0.126531 0.289119 0.830261
O O1 0.638808 0.265457 0.500000
O O2 0.609863 0.294395 0.775667
O O3 0.681892 0.199113 0.718201
O O4 0.769177 0.290310 0.678285
O O5 0.500000 0.622992 0.250000
O O6 0.577034 0.642405 0.500000
O O7 0.665098 0.603158 0.270038
O O8 0.500000 0.082167 0.250000
O O9 0.670689 0.096646 0.223073
O O10 0.609007 0.000000 0.250000
O O11 0.581399 0.054470 0.000000
O O12 0.176157 0.137150 0.221650
O O13 0.290837 0.128367 0.000000
O O14 0.075404 0.835763 0.500000
O O15 0.092411 0.769222 0.726441
O O16 0.000000 0.858911 0.750000
O O17 0.171845 0.571809 0.764444
O O18 0.088184 0.666040 0.780607
O O19 0.000000 0.575057 0.750000
O O20 0.077764 0.597422 0.000000
O O21 0.700958 0.500000 0.750000
O O22 0.730087 0.550013 0.500000
O O23 0.095806 0.301280 0.000000
#
# Coordination Sequence:
#
# PCOD8204536 Si02
#       8
#     8   8   8   8   8   8   8   8
#     4   9  18  34  57  83 114 151 186 223 274 329
#     4  11  23  40  60  85 112 141 180 225 276 335
#     4  11  22  38  61  87 115 151 193 239 290 339
#     4   9  19  36  56  83 119 155 194 237 279 331
#     4   9  18  31  49  77 115 154 192 233 275 324
#     4  11  22  36  54  81 110 140 178 222 271 327
#     4  10  24  43  61  80 106 138 178 227 278 331
#     4   9  17  31  52  79 109 146 185 222 269 323
#
# _framework density 19.096250999999999
#
# number of rings (size 3 to 8) (size 9 to 14) (size 15 to 20)
#    0.000    2.125    1.250    4.125    0.000    5.500 
#    0.000    5.000    0.000    0.375    0.000    2.625 
#    0.000    0.000    0.000    0.000    0.000    0.000 
#
# Total GULP energy -793605.484333 kJ/mol
# GULP energy per Si atom -12400.085693 kJ/mol
# Density = 1.905279 g / cm^3
# Si number density = 19.096251 Si / 1000 Ang^3
#
#
#
# Elastic Constant Matrix: (Units=GPa)
#
#
# Indices 1 2 3 4 5 6 
#
# 1 135.8162 55.1800 55.1947 0.0000 0.0000 0.0000
# 2 55.1800 76.4127 39.3978 0.0000 0.0000 0.0000
# 3 55.1947 39.3978 78.7255 0.0000 0.0000 0.0000
# 4 0.0000 0.0000 0.0000 29.3558 0.0000 0.0000
# 5 0.0000 0.0000 0.0000 0.0000 34.4556 0.0000
# 6 0.0000 0.0000 0.0000 0.0000 0.0000 15.2219
#
#
#
# Elastic Compliance Matrix: (Units=1/GPa)
#
#
# Indices 1 2 3 4 5 6 
#
# 1 0.011944 -0.005806 -0.005469 0.000000 0.000000 0.000000
# 2 -0.005806 0.020460 -0.006169 0.000000 0.000000 0.000000
# 3 -0.005469 -0.006169 0.019623 0.000000 0.000000 0.000000
# 4 0.000000 0.000000 0.000000 0.034065 0.000000 0.000000
# 5 0.000000 0.000000 0.000000 0.000000 0.029023 0.000000
# 6 0.000000 0.000000 0.000000 0.000000 0.000000 0.065695
#
#
# Mechanical properties :
#
#
# Convention : Reuss Voigt Hill
#
# Bulk Modulus (GPa) = 58.33782 65.61105 61.97443
# Shear Modulus (GPa) = 22.58260 25.21878 23.90069
#
# Velocity S-wave (km/s) = 3.44258 3.63797 3.54162
# Velocity P-wave (km/s) = 6.81304 7.21658 7.01771
#
# Compressibility (1/GPa) = 0.01714154
#
# Stress axis : x y z
#
# Youngs Moduli (GPa) = 83.72393 48.87652 50.95935
#
# Poissons Ratio (x) = 0.28376 0.27868
# Poissons Ratio (y) = 0.48607 0.31435
# Poissons Ratio (z) = 0.45785 0.30150
#
# Static dielectric constant tensor:
#      x y z
#    x 3.718980 0.000000 0.000000 
#    y 0.000000 3.280060 0.000000 
#    z 0.000000 0.000000 3.344380 
# 
# 
# High freq. dielectric constant tensor:
#      x y z
#    x 1.753640 0.000000 0.000000 
#    y 0.000000 1.718900 0.000000 
#    z 0.000000 0.000000 1.737820 
# 
# From -- ./inp_files/4399.got.cif
#   From: 2010.03.12/outbox.cif.g09.slc.cpg/sg49_3_cif.got.tgz:4399.got - 2010.04.14 03:58:27.
