data_PCOD8204234
_publ_section_title
;
Structure prediction by ZEFSAII (Michael W. Deem and Ramdas Pophale) SiO2 
 PCOD8204234
Probable space group: P C C M
;
_chemical_formula_sum "Si O2"
_cell_formula_units_Z 48
_cell_length_a 9.083727
_cell_length_b 30.276391
_cell_length_c 8.644871
_cell_angle_alpha 90.000000
_cell_angle_beta 90.000000
_cell_angle_gamma 90.000000
_cell_volume 2377.533779
_symmetry_space_group_name_H-M "P C C M"
_symmetry_group_IT_number 49
_symmetry_cell_setting 'orthorhombic'
loop_
_space_group_symop_operation_xyz
x,y,z
-x,-y,z
x,-y,1/2-z
-x,y,1/2-z
-x,-y,-z
x,y,-z
-x,y,1/2+z
x,-y,1/2+z
loop_
_atom_site_type_symbol
_atom_site_label
_atom_site_fract_x
_atom_site_fract_y
_atom_site_fract_z
Si Si1 0.343090 0.046445 0.181431
Si Si2 0.160969 0.131061 0.181658
Si Si3 0.844027 0.452661 0.182603
Si Si4 0.158574 0.289357 0.179025
Si Si5 0.660148 0.789459 0.682239
Si Si6 0.344336 0.376955 0.821282
O O1 0.500000 0.061004 0.250000
O O2 0.219986 0.082440 0.223968
O O3 0.288542 0.000000 0.250000
O O4 0.363661 0.041336 0.000000
O O5 0.274223 0.165452 0.253003
O O6 0.000000 0.137985 0.250000
O O7 0.153510 0.138964 0.000000
O O8 0.798809 0.500000 0.250000
O O9 0.719060 0.418257 0.228045
O O10 0.000000 0.436547 0.250000
O O11 0.858071 0.456272 0.000000
O O12 0.236972 0.251066 0.273576
O O13 0.242139 0.334949 0.201832
O O14 0.000000 0.296735 0.250000
O O15 0.148956 0.275417 0.000000
O O16 0.500000 0.780822 0.750000
O O17 0.647900 0.793247 0.500000
O O18 0.500000 0.364107 0.750000
O O19 0.359893 0.390095 0.000000
#
# Coordination Sequence:
#
# PCOD8204234 Si02
#       6
#     8   8   8   8   8   8
#     4  10  21  37  60  87 117 154 197 245 297 355
#     4  11  24  41  61  88 121 159 201 246 299 355
#     4  11  22  39  63  90 122 159 202 250 301 358
#     4  11  24  42  65  92 124 160 200 246 297 355
#     4  12  25  42  65  91 122 158 199 247 298 355
#     4  11  24  41  62  90 123 160 202 248 300 356
#
# _framework density 20.188987000000001
#
# number of rings (size 3 to 8) (size 9 to 14) (size 15 to 20)
#    0.000    1.000    0.000    8.000    0.000   10.000 
#    0.000    3.333    0.000    0.000    0.000    0.000 
#    0.000    0.000    0.000    0.000    0.000    0.000 
#
# Total GULP energy -595538.838058 kJ/mol
# GULP energy per Si atom -12407.059126 kJ/mol
# Density = 2.014304 g / cm^3
# Si number density = 20.188987 Si / 1000 Ang^3
#
#
#
# Elastic Constant Matrix: (Units=GPa)
#
#
# Indices 1 2 3 4 5 6 
#
# 1 116.3329 40.4228 50.5162 0.0000 0.0000 0.0000
# 2 40.4228 94.3770 58.8400 0.0000 0.0000 0.0000
# 3 50.5162 58.8400 150.3700 0.0000 0.0000 0.0000
# 4 0.0000 0.0000 0.0000 31.1243 0.0000 0.0000
# 5 0.0000 0.0000 0.0000 0.0000 31.3251 0.0000
# 6 0.0000 0.0000 0.0000 0.0000 0.0000 59.0840
#
#
#
# Elastic Compliance Matrix: (Units=1/GPa)
#
#
# Indices 1 2 3 4 5 6 
#
# 1 0.010709 -0.003100 -0.002384 0.000000 0.000000 0.000000
# 2 -0.003100 0.014912 -0.004794 0.000000 0.000000 0.000000
# 3 -0.002384 -0.004794 0.009327 0.000000 0.000000 0.000000
# 4 0.000000 0.000000 0.000000 0.032129 0.000000 0.000000
# 5 0.000000 0.000000 0.000000 0.000000 0.031923 0.000000
# 6 0.000000 0.000000 0.000000 0.000000 0.000000 0.016925
#
#
# Mechanical properties :
#
#
# Convention : Reuss Voigt Hill
#
# Bulk Modulus (GPa) = 69.48535 73.40421 71.44478
# Shear Modulus (GPa) = 35.39089 38.39341 36.89215
#
# Velocity S-wave (km/s) = 4.19140 4.36558 4.27938
# Velocity P-wave (km/s) = 7.61025 7.86438 7.73836
#
# Compressibility (1/GPa) = 0.01439152
#
# Stress axis : x y z
#
# Youngs Moduli (GPa) = 93.38256 67.05882 107.21415
#
# Poissons Ratio (x) = 0.20788 0.25565
# Poissons Ratio (y) = 0.28949 0.51396
# Poissons Ratio (z) = 0.22267 0.32146
#
# Static dielectric constant tensor:
#      x y z
#    x 3.718620 0.000000 0.000000 
#    y 0.000000 3.887450 0.000000 
#    z 0.000000 0.000000 3.901480 
# 
# 
# High freq. dielectric constant tensor:
#      x y z
#    x 1.797210 0.000000 0.000000 
#    y 0.000000 1.803510 0.000000 
#    z 0.000000 0.000000 1.809640 
# 
# From -- ./inp_files/2084.got.cif
#   From: 2010.03.12/outbox.cif.g09.slc.cpg/sg49_2_cif.got.tgz:2084.got - 2010.04.14 03:58:27.
