data_PCOD8204905
_publ_section_title
;
Structure prediction by ZEFSAII (Michael W. Deem and Ramdas Pophale) SiO2 
 PCOD8204905
Probable space group: P B A N
;
_chemical_formula_sum "Si O2"
_cell_formula_units_Z 48
_cell_length_a 13.999172
_cell_length_b 17.620403
_cell_length_c 9.548475
_cell_angle_alpha 90.000000
_cell_angle_beta 90.000000
_cell_angle_gamma 90.000000
_cell_volume 2355.332376
_symmetry_space_group_name_H-M "P B A N"
_symmetry_group_IT_number 50
_space_group.IT_coordinate_system_code '2'
_symmetry_cell_setting 'orthorhombic'
loop_
_space_group_symop_operation_xyz
x,y,z
1/2-x,1/2-y,z
x,1/2-y,-z
1/2-x,y,-z
-x,-y,-z
1/2+x,1/2+y,-z
-x,1/2+y,z
1/2+x,-y,z
loop_
_atom_site_type_symbol
_atom_site_label
_atom_site_fract_x
_atom_site_fract_y
_atom_site_fract_z
Si Si1 0.336324 0.672970 0.587296
Si Si2 0.038519 0.339365 0.998049
Si Si3 0.475680 0.085479 0.534415
Si Si4 0.335752 0.828797 0.082716
Si Si5 0.842773 0.846555 0.743118
Si Si6 0.121410 0.171106 0.715920
O O1 0.356626 0.750000 0.500000
O O2 0.250000 0.632691 0.500000
O O3 0.427401 0.620679 0.590001
O O4 0.311552 0.685373 0.752470
O O5 0.127929 0.364132 0.902312
O O6 0.937139 0.372659 0.940505
O O7 0.031776 0.250000 0.000000
O O8 0.064476 0.364985 0.153754
O O9 0.394704 0.089254 0.652472
O O10 0.434747 0.135112 0.410016
O O11 0.500000 0.000000 0.500000
O O12 0.344500 0.750000 0.000000
O O13 0.250000 0.873728 0.000000
O O14 0.881279 0.762383 0.702670
O O15 0.730647 0.855591 0.721357
#
# Coordination Sequence:
#
# PCOD8204905 Si02
#       6
#     8   8   8   8   8   8
#     4  11  23  38  63  91 119 155 206 250 300 356
#     4   9  18  32  60  95 123 145 188 254 309 358
#     4  12  26  40  57  85 125 165 201 244 295 360
#     4  10  19  32  57  91 125 151 191 251 313 355
#     4  10  19  40  64  95 120 149 201 249 304 359
#     4  10  21  36  68  93 119 155 194 252 305 359
#
# _framework density 20.379287999999999
#
# number of rings (size 3 to 8) (size 9 to 14) (size 15 to 20)
#    0.000    1.667    1.667    4.500    7.000    4.667 
#    0.000    0.833    0.000    0.000    0.000    0.000 
#    0.000    0.000    0.000    0.000    0.000    0.000 
#
# Total GULP energy -594677.212050 kJ/mol
# GULP energy per Si atom -12389.108584 kJ/mol
# Density = 2.033290 g / cm^3
# Si number density = 20.379288 Si / 1000 Ang^3
#
#
#
# Elastic Constant Matrix: (Units=GPa)
#
#
# Indices 1 2 3 4 5 6 
#
# 1 105.2762 27.1507 55.2962 0.0000 0.0000 0.0000
# 2 27.1507 32.7918 16.4756 0.0000 0.0000 0.0000
# 3 55.2962 16.4756 142.9163 0.0000 0.0000 0.0000
# 4 0.0000 0.0000 0.0000 1.5988 0.0000 0.0000
# 5 0.0000 0.0000 0.0000 0.0000 43.9054 0.0000
# 6 0.0000 0.0000 0.0000 0.0000 0.0000 -5.6535
#
#
#
# Elastic Compliance Matrix: (Units=1/GPa)
#
#
# Indices 1 2 3 4 5 6 
#
# 1 0.014304 -0.009620 -0.004426 0.000000 0.000000 0.000000
# 2 -0.009620 0.038840 -0.000755 0.000000 0.000000 0.000000
# 3 -0.004426 -0.000755 0.008796 0.000000 0.000000 0.000000
# 4 0.000000 0.000000 0.000000 0.625457 0.000000 0.000000
# 5 0.000000 0.000000 0.000000 0.000000 0.022776 0.000000
# 6 0.000000 0.000000 0.000000 0.000000 0.000000 -0.176882
#
#
# Mechanical properties :
#
#
# Convention : Reuss Voigt Hill
#
# Bulk Modulus (GPa) = 30.92245 53.20325 42.06285
# Shear Modulus (GPa) = 8.71575 20.10759 14.41167
#
# Velocity S-wave (km/s) = 2.07028 3.14453 2.66216
# Velocity P-wave (km/s) = 4.57396 6.27275 5.48947
#
# Compressibility (1/GPa) = 0.03233896
#
# Stress axis : x y z
#
# Youngs Moduli (GPa) = 69.90880 25.74651 113.68184
#
# Poissons Ratio (x) = 0.24768 0.50310
# Poissons Ratio (y) = 0.67253 0.08588
# Poissons Ratio (z) = 0.30938 0.01945
#
# Static dielectric constant tensor:
#      x y z
#    x 4.680650 0.000000 0.000000 
#    y 0.000000 3.163400 0.000000 
#    z 0.000000 0.000000 4.221300 
# 
# 
# High freq. dielectric constant tensor:
#      x y z
#    x 1.824380 0.000000 0.000000 
#    y 0.000000 1.723750 0.000000 
#    z 0.000000 0.000000 1.819050 
# 
# From -- ./inp_files/12967.got.cif
#   From: 2010.03.12/outbox.cif.g09.slc.cpg/sg50_7_cif.got.tgz:12967.got - 2010.04.16 13:23:21.
