data_PCOD8204736
_publ_section_title
;
Structure prediction by ZEFSAII (Michael W. Deem and Ramdas Pophale) SiO2 
 PCOD8204736
Probable space group: P B A N
;
_chemical_formula_sum "Si O2"
_cell_formula_units_Z 48
_cell_length_a 5.192309
_cell_length_b 26.911956
_cell_length_c 17.690467
_cell_angle_alpha 90.000000
_cell_angle_beta 90.000000
_cell_angle_gamma 90.000000
_cell_volume 2471.980791
_symmetry_space_group_name_H-M "P B A N"
_symmetry_group_IT_number 50
_space_group.IT_coordinate_system_code '2'
_symmetry_cell_setting 'orthorhombic'
loop_
_space_group_symop_operation_xyz
x,y,z
1/2-x,1/2-y,z
x,1/2-y,-z
1/2-x,y,-z
-x,-y,-z
1/2+x,1/2+y,-z
-x,1/2+y,z
1/2+x,-y,z
loop_
_atom_site_type_symbol
_atom_site_label
_atom_site_fract_x
_atom_site_fract_y
_atom_site_fract_z
Si Si1 0.752016 0.306111 0.089938
Si Si2 0.255355 0.135394 0.910203
Si Si3 0.882003 0.970919 0.660455
Si Si4 0.357000 0.470172 0.162047
Si Si5 0.500163 0.384868 0.450057
Si Si6 0.998641 0.228354 0.415525
O O1 0.750000 0.250000 0.122295
O O2 0.496254 0.332917 0.119810
O O3 0.998398 0.337081 0.119634
O O4 0.750000 0.304341 0.000000
O O5 0.280740 0.080473 0.878122
O O6 0.250000 0.131664 0.000000
O O7 0.871960 0.960530 0.749042
O O8 0.970498 0.920728 0.620767
O O9 0.596594 0.988281 0.636119
O O10 0.637131 0.490278 0.137266
O O11 0.750000 0.397641 0.500000
O O12 0.516340 0.330485 0.414888
O O13 0.250000 0.390675 0.500000
O O14 0.250000 0.250000 0.372966
O O15 0.999973 0.250000 0.500000
O O16 0.750000 0.250000 0.371973
#
# Coordination Sequence:
#
# PCOD8204736 Si02
#       6
#     8   8   8   8   8   8
#     4   9  17  30  49  78 111 141 170 211 269 320
#     4  10  19  31  53  83 106 134 182 227 261 311
#     4  10  23  40  53  73 104 139 174 209 260 321
#     4  10  21  38  56  72 103 146 177 213 271 325
#     4  12  21  32  56  81 100 132 169 213 259 295
#     4  10  16  30  48  74 103 127 157 196 248 311
#
# _framework density 19.417627
#
# number of rings (size 3 to 8) (size 9 to 14) (size 15 to 20)
#    0.000    1.833    3.333    2.500    0.000    4.667 
#    0.000    0.000    0.000    3.000    0.000    0.000 
#    0.000    0.000    0.000    0.000    0.000    0.000 
#
# Total GULP energy -595043.713725 kJ/mol
# GULP energy per Si atom -12396.744036 kJ/mol
# Density = 1.937343 g / cm^3
# Si number density = 19.417627 Si / 1000 Ang^3
#
#
#
# Elastic Constant Matrix: (Units=GPa)
#
#
# Indices 1 2 3 4 5 6 
#
# 1 186.7316 59.1065 29.0745 0.0000 0.0000 0.0000
# 2 59.1065 150.3355 37.3944 0.0000 0.0000 0.0000
# 3 29.0745 37.3944 21.4444 0.0000 0.0000 0.0000
# 4 0.0000 0.0000 0.0000 -1.9423 0.0000 0.0000
# 5 0.0000 0.0000 0.0000 0.0000 13.4498 0.0000
# 6 0.0000 0.0000 0.0000 0.0000 0.0000 41.4216
#
#
#
# Elastic Compliance Matrix: (Units=1/GPa)
#
#
# Indices 1 2 3 4 5 6 
#
# 1 0.006827 -0.000674 -0.008080 0.000000 0.000000 0.000000
# 2 -0.000674 0.011814 -0.019686 0.000000 0.000000 0.000000
# 3 -0.008080 -0.019686 0.091916 0.000000 0.000000 0.000000
# 4 0.000000 0.000000 0.000000 -0.514843 0.000000 0.000000
# 5 0.000000 0.000000 0.000000 0.000000 0.074350 0.000000
# 6 0.000000 0.000000 0.000000 0.000000 0.000000 0.024142
#
#
# Mechanical properties :
#
#
# Convention : Reuss Voigt Hill
#
# Bulk Modulus (GPa) = 18.63055 67.74024 43.18539
# Shear Modulus (GPa) = -21.64316 26.11489 2.23587
#
# Velocity S-wave (km/s) = -3.34221 3.67128 1.07423
# Velocity P-wave (km/s) = 2.29745 7.27549 4.88131
#
# Compressibility (1/GPa) = 0.05367528
#
# Stress axis : x y z
#
# Youngs Moduli (GPa) = 146.48195 84.64779 10.87944
#
# Poissons Ratio (x) = 0.05707 0.08791
# Poissons Ratio (y) = 0.09876 0.21418
# Poissons Ratio (z) = 1.18360 1.66642
#
# Static dielectric constant tensor:
#      x y z
#    x 3.781220 0.000000 0.000000 
#    y 0.000000 3.518020 0.000000 
#    z 0.000000 0.000000 2.947620 
# 
# 
# High freq. dielectric constant tensor:
#      x y z
#    x 1.788610 0.000000 0.000000 
#    y 0.000000 1.767990 0.000000 
#    z 0.000000 0.000000 1.699560 
# 
# From -- ./inp_files/24066.got.cif
#   From: 2010.03.12/outbox.cif.g09.slc.cpg/sg50_13_cif.got.tgz:24066.got - 2010.04.16 13:23:21.
