data_PCOD8204246
_publ_section_title
;
Structure prediction by ZEFSAII (Michael W. Deem and Ramdas Pophale) SiO2 
 PCOD8204246
Probable space group: P C C M
;
_chemical_formula_sum "Si O2"
_cell_formula_units_Z 48
_cell_length_a 14.642026
_cell_length_b 18.403726
_cell_length_c 9.006522
_cell_angle_alpha 90.000000
_cell_angle_beta 90.000000
_cell_angle_gamma 90.000000
_cell_volume 2426.967981
_symmetry_space_group_name_H-M "P C C M"
_symmetry_group_IT_number 49
_symmetry_cell_setting 'orthorhombic'
loop_
_space_group_symop_operation_xyz
x,y,z
-x,-y,z
x,-y,1/2-z
-x,y,1/2-z
-x,-y,-z
x,y,-z
-x,y,1/2+z
x,-y,1/2+z
loop_
_atom_site_type_symbol
_atom_site_label
_atom_site_fract_x
_atom_site_fract_y
_atom_site_fract_z
Si Si1 0.236581 0.797766 0.174462
Si Si2 0.085447 0.721689 0.333358
Si Si3 0.594760 0.731113 0.177350
Si Si4 0.867567 0.435430 0.663110
Si Si5 0.094645 0.076229 0.676190
Si Si6 0.337729 0.427066 0.175169
O O1 0.175829 0.732506 0.237795
O O2 0.332561 0.790078 0.259245
O O3 0.180014 0.871065 0.212293
O O4 0.252650 0.788968 0.000000
O O5 0.094158 0.754001 0.500000
O O6 0.069509 0.635523 0.338579
O O7 0.000000 0.758777 0.250000
O O8 0.500000 0.755193 0.250000
O O9 0.614341 0.647878 0.227807
O O10 0.592981 0.738351 0.000000
O O11 0.918063 0.500000 0.750000
O O12 0.853312 0.466334 0.500000
O O13 0.766938 0.419184 0.728942
O O14 0.079821 0.068062 0.500000
O O15 0.000000 0.105036 0.750000
O O16 0.121286 0.000000 0.750000
O O17 0.381249 0.500000 0.250000
O O18 0.348522 0.434994 0.000000
#
# Coordination Sequence:
#
# PCOD8204246 Si02
#       6
#     8   8   8   8   8   8
#     4  11  23  39  60  87 117 153 192 233 285 341
#     4  11  22  36  53  78 110 146 190 235 283 342
#     4  11  23  40  60  85 116 151 195 244 296 353
#     4   9  18  33  50  70  99 138 184 232 285 340
#     4  10  21  37  61  94 128 160 195 230 273 330
#     4   9  18  34  54  77 105 142 187 240 300 354
#
# _framework density 19.777764999999999
#
# number of rings (size 3 to 8) (size 9 to 14) (size 15 to 20)
#    0.000    1.833    1.667    3.000    0.000    7.333 
#    0.000    3.333    0.000    0.500    0.000    3.500 
#    0.000    0.000    0.000    0.000    0.000    0.000 
#
# Total GULP energy -594891.431168 kJ/mol
# GULP energy per Si atom -12393.571483 kJ/mol
# Density = 1.973275 g / cm^3
# Si number density = 19.777765 Si / 1000 Ang^3
#
#
#
# Elastic Constant Matrix: (Units=GPa)
#
#
# Indices 1 2 3 4 5 6 
#
# 1 126.4727 41.0750 57.3817 0.0000 0.0000 0.0000
# 2 41.0750 97.4308 54.5418 0.0000 0.0000 0.0000
# 3 57.3817 54.5418 109.6082 0.0000 0.0000 0.0000
# 4 0.0000 0.0000 0.0000 26.6503 0.0000 0.0000
# 5 0.0000 0.0000 0.0000 0.0000 28.8153 0.0000
# 6 0.0000 0.0000 0.0000 0.0000 0.0000 8.8790
#
#
#
# Elastic Compliance Matrix: (Units=1/GPa)
#
#
# Indices 1 2 3 4 5 6 
#
# 1 0.010616 -0.001891 -0.004616 0.000000 0.000000 0.000000
# 2 -0.001891 0.014564 -0.006257 0.000000 0.000000 0.000000
# 3 -0.004616 -0.006257 0.014654 0.000000 0.000000 0.000000
# 4 0.000000 0.000000 0.000000 0.037523 0.000000 0.000000
# 5 0.000000 0.000000 0.000000 0.000000 0.034704 0.000000
# 6 0.000000 0.000000 0.000000 0.000000 0.000000 0.112625
#
#
# Mechanical properties :
#
#
# Convention : Reuss Voigt Hill
#
# Bulk Modulus (GPa) = 69.91064 71.05652 70.48358
# Shear Modulus (GPa) = 19.60926 24.90313 22.25619
#
# Velocity S-wave (km/s) = 3.15219 3.55230 3.35821
# Velocity P-wave (km/s) = 6.97662 7.26846 7.12404
#
# Compressibility (1/GPa) = 0.01430397
#
# Stress axis : x y z
#
# Youngs Moduli (GPa) = 94.20186 68.66456 68.24238
#
# Poissons Ratio (x) = 0.12985 0.31503
# Poissons Ratio (y) = 0.17814 0.42699
# Poissons Ratio (z) = 0.43487 0.42963
#
# Static dielectric constant tensor:
#      x y z
#    x 3.518230 0.000000 0.000000 
#    y 0.000000 3.532060 0.000000 
#    z 0.000000 0.000000 3.723340 
# 
# 
# High freq. dielectric constant tensor:
#      x y z
#    x 1.757780 0.000000 0.000000 
#    y 0.000000 1.756390 0.000000 
#    z 0.000000 0.000000 1.779280 
# 
# From -- ./inp_files/3695.got.cif
#   From: 2010.03.12/outbox.cif.g09.slc.cpg/sg49_2_cif.got.tgz:3695.got - 2010.04.14 03:58:27.
