data_PCOD8204237
_publ_section_title
;
Structure prediction by ZEFSAII (Michael W. Deem and Ramdas Pophale) SiO2 
 PCOD8204237
Probable space group: P C C M
;
_chemical_formula_sum "Si O2"
_cell_formula_units_Z 48
_cell_length_a 9.080770
_cell_length_b 30.365118
_cell_length_c 8.452294
_cell_angle_alpha 90.000000
_cell_angle_beta 90.000000
_cell_angle_gamma 90.000000
_cell_volume 2330.624159
_symmetry_space_group_name_H-M "P C C M"
_symmetry_group_IT_number 49
_symmetry_cell_setting 'orthorhombic'
loop_
_space_group_symop_operation_xyz
x,y,z
-x,-y,z
x,-y,1/2-z
-x,y,1/2-z
-x,-y,-z
x,y,-z
-x,y,1/2+z
x,-y,1/2+z
loop_
_atom_site_type_symbol
_atom_site_label
_atom_site_fract_x
_atom_site_fract_y
_atom_site_fract_z
Si Si1 0.659323 0.453574 0.184543
Si Si2 0.340101 0.125755 0.185440
Si Si3 0.157247 0.952022 0.814110
Si Si4 0.161315 0.794011 0.814565
Si Si5 0.836633 0.631925 0.313085
Si Si6 0.337097 0.713012 0.685783
O O1 0.718244 0.500000 0.250000
O O2 0.500000 0.440682 0.250000
O O3 0.775168 0.416088 0.231299
O O4 0.642107 0.458430 0.000000
O O5 0.500000 0.138876 0.250000
O O6 0.286800 0.080570 0.263911
O O7 0.226205 0.164135 0.224725
O O8 0.349033 0.118746 0.000000
O O9 0.000000 0.935091 0.750000
O O10 0.197276 0.000000 0.750000
O O11 0.145798 0.954424 0.000000
O O12 0.259332 0.751570 0.782354
O O13 0.000000 0.783941 0.750000
O O14 0.156867 0.804256 0.000000
O O15 0.828711 0.641437 0.500000
O O16 0.742467 0.667234 0.218039
O O17 0.000000 0.635081 0.250000
O O18 0.500000 0.708565 0.750000
O O19 0.335317 0.723986 0.500000
#
# Coordination Sequence:
#
# PCOD8204237 Si02
#       6
#     8   8   8   8   8   8
#     4  10  21  37  60  87 118 155 200 248 302 360
#     4  12  25  43  64  92 126 164 207 255 307 365
#     4  11  22  40  64  93 125 164 208 256 309 366
#     4  12  25  44  67  94 126 163 204 251 303 361
#     4  11  24  41  61  89 122 161 203 250 303 361
#     4  12  25  43  66  93 124 161 202 250 302 361
#
# _framework density 20.595343
#
# number of rings (size 3 to 8) (size 9 to 14) (size 15 to 20)
#    0.000    0.667    0.000   10.000    0.000    4.667 
#    0.000    3.333    0.000    0.000    0.000    0.000 
#    0.000    0.000    0.000    0.000    0.000    0.000 
#
# Total GULP energy -595568.794287 kJ/mol
# GULP energy per Si atom -12407.683214 kJ/mol
# Density = 2.054847 g / cm^3
# Si number density = 20.595343 Si / 1000 Ang^3
#
#
#
# Elastic Constant Matrix: (Units=GPa)
#
#
# Indices 1 2 3 4 5 6 
#
# 1 130.4013 54.7116 28.3030 0.0000 0.0000 0.0000
# 2 54.7116 108.6458 32.2438 0.0000 0.0000 0.0000
# 3 28.3030 32.2438 126.0747 0.0000 0.0000 0.0000
# 4 0.0000 0.0000 0.0000 66.3719 0.0000 0.0000
# 5 0.0000 0.0000 0.0000 0.0000 27.8169 0.0000
# 6 0.0000 0.0000 0.0000 0.0000 0.0000 153.9490
#
#
#
# Elastic Compliance Matrix: (Units=1/GPa)
#
#
# Indices 1 2 3 4 5 6 
#
# 1 0.009842 -0.004654 -0.001019 0.000000 0.000000 0.000000
# 2 -0.004654 0.012161 -0.002065 0.000000 0.000000 0.000000
# 3 -0.001019 -0.002065 0.008689 0.000000 0.000000 0.000000
# 4 0.000000 0.000000 0.000000 0.015067 0.000000 0.000000
# 5 0.000000 0.000000 0.000000 0.000000 0.035949 0.000000
# 6 0.000000 0.000000 0.000000 0.000000 0.000000 0.006496
#
#
# Mechanical properties :
#
#
# Convention : Reuss Voigt Hill
#
# Bulk Modulus (GPa) = 65.72511 66.18208 65.95360
# Shear Modulus (GPa) = 45.97590 66.28514 56.13052
#
# Velocity S-wave (km/s) = 4.72989 5.67930 5.22620
# Velocity P-wave (km/s) = 7.86200 8.67238 8.27711
#
# Compressibility (1/GPa) = 0.01521488
#
# Stress axis : x y z
#
# Youngs Moduli (GPa) = 101.60024 82.23148 115.08990
#
# Poissons Ratio (x) = 0.38270 0.11731
# Poissons Ratio (y) = 0.47284 0.23770
# Poissons Ratio (z) = 0.10356 0.16984
#
# Static dielectric constant tensor:
#      x y z
#    x 4.019840 0.000000 0.000000 
#    y 0.000000 4.083580 0.000000 
#    z 0.000000 0.000000 3.945980 
# 
# 
# High freq. dielectric constant tensor:
#      x y z
#    x 1.814330 0.000000 0.000000 
#    y 0.000000 1.821230 0.000000 
#    z 0.000000 0.000000 1.828000 
# 
# From -- ./inp_files/2126.got.cif
#   From: 2010.03.12/outbox.cif.g09.slc.cpg/sg49_2_cif.got.tgz:2126.got - 2010.04.14 03:58:27.
