data_PCOD8204871
_publ_section_title
;
Structure prediction by ZEFSAII (Michael W. Deem and Ramdas Pophale) SiO2 
 PCOD8204871
Probable space group: P B A N
;
_chemical_formula_sum "Si O2"
_cell_formula_units_Z 64
_cell_length_a 21.008581
_cell_length_b 9.197034
_cell_length_c 16.234500
_cell_angle_alpha 90.000000
_cell_angle_beta 90.000000
_cell_angle_gamma 90.000000
_cell_volume 3136.775441
_symmetry_space_group_name_H-M "P B A N"
_symmetry_group_IT_number 50
_space_group.IT_coordinate_system_code '2'
_symmetry_cell_setting 'orthorhombic'
loop_
_space_group_symop_operation_xyz
x,y,z
1/2-x,1/2-y,z
x,1/2-y,-z
1/2-x,y,-z
-x,-y,-z
1/2+x,1/2+y,-z
-x,1/2+y,z
1/2+x,-y,z
loop_
_atom_site_type_symbol
_atom_site_label
_atom_site_fract_x
_atom_site_fract_y
_atom_site_fract_z
Si Si1 0.428906 0.088183 0.090990
Si Si2 0.116490 0.879963 0.229294
Si Si3 0.057566 0.081451 0.097038
Si Si4 0.956641 0.336756 0.385385
Si Si5 0.856783 0.054134 0.226139
Si Si6 0.236784 0.920621 0.327285
Si Si7 0.335616 0.915249 0.519654
Si Si8 0.922988 0.014845 0.387486
O O1 0.446715 0.249617 0.121909
O O2 0.486999 0.979730 0.107228
O O3 0.367224 0.038008 0.143028
O O4 0.413166 0.075977 0.994577
O O5 0.054477 0.857266 0.287023
O O6 0.142204 0.722990 0.199392
O O7 0.172123 0.957133 0.280255
O O8 0.103720 0.985836 0.153147
O O9 0.901428 0.428270 0.429408
O O10 0.952630 0.169871 0.414316
O O11 0.026837 0.390605 0.410373
O O12 0.792805 0.005157 0.274577
O O13 0.913245 0.016578 0.289565
O O14 0.250000 0.750000 0.332316
O O15 0.224072 0.974847 0.423404
O O16 0.318197 0.750000 0.500000
O O17 0.353838 0.002200 0.434865
#
# Coordination Sequence:
#
# PCOD8204871 Si02
#       8
#     8   8   8   8   8   8   8   8
#     4  10  21  35  55  83 111 139 174 217 265 323
#     4   9  18  33  53  75 104 143 180 222 272 317
#     4  10  20  36  57  81 109 141 175 214 267 326
#     4   9  18  30  46  73 105 135 173 218 270 324
#     4  10  20  33  51  79 108 138 183 227 267 317
#     4   9  18  33  52  75 104 138 182 230 265 308
#     4   9  17  30  49  73 101 135 176 223 266 307
#     4  10  19  30  48  75 106 139 174 219 273 326
#
# _framework density 20.403117000000002
#
# number of rings (size 3 to 8) (size 9 to 14) (size 15 to 20)
#    0.000    2.500    0.000    4.125    0.000    6.250 
#    0.000    1.250    0.000    3.750    0.000    7.000 
#    0.000   20.000    0.000    0.000    0.000    0.000 
#
# Total GULP energy -793011.074470 kJ/mol
# GULP energy per Si atom -12390.798039 kJ/mol
# Density = 2.035668 g / cm^3
# Si number density = 20.403117 Si / 1000 Ang^3
#
#
#
# Elastic Constant Matrix: (Units=GPa)
#
#
# Indices 1 2 3 4 5 6 
#
# 1 79.9516 30.8069 38.5298 0.0000 0.0000 0.0000
# 2 30.8069 74.5729 41.1595 0.0000 0.0000 0.0000
# 3 38.5298 41.1595 109.4434 0.0000 0.0000 0.0000
# 4 0.0000 0.0000 0.0000 26.6647 0.0000 0.0000
# 5 0.0000 0.0000 0.0000 0.0000 31.6910 0.0000
# 6 0.0000 0.0000 0.0000 0.0000 0.0000 19.9985
#
#
#
# Elastic Compliance Matrix: (Units=1/GPa)
#
#
# Indices 1 2 3 4 5 6 
#
# 1 0.016160 -0.004462 -0.004011 0.000000 0.000000 0.000000
# 2 -0.004462 0.018154 -0.005257 0.000000 0.000000 0.000000
# 3 -0.004011 -0.005257 0.012526 0.000000 0.000000 0.000000
# 4 0.000000 0.000000 0.000000 0.037503 0.000000 0.000000
# 5 0.000000 0.000000 0.000000 0.000000 0.031555 0.000000
# 6 0.000000 0.000000 0.000000 0.000000 0.000000 0.050004
#
#
# Mechanical properties :
#
#
# Convention : Reuss Voigt Hill
#
# Bulk Modulus (GPa) = 51.59689 53.88447 52.74068
# Shear Modulus (GPa) = 25.02237 25.90229 25.46233
#
# Velocity S-wave (km/s) = 3.50580 3.56691 3.53648
# Velocity P-wave (km/s) = 6.45996 6.59022 6.52542
#
# Compressibility (1/GPa) = 0.01938101
#
# Stress axis : x y z
#
# Youngs Moduli (GPa) = 61.88182 55.08336 79.83289
#
# Poissons Ratio (x) = 0.24578 0.32021
# Poissons Ratio (y) = 0.27611 0.41965
# Poissons Ratio (z) = 0.24821 0.28955
#
# Static dielectric constant tensor:
#      x y z
#    x 3.741880 0.000000 0.000000 
#    y 0.000000 3.302480 0.000000 
#    z 0.000000 0.000000 3.957050 
# 
# 
# High freq. dielectric constant tensor:
#      x y z
#    x 1.787640 0.000000 0.000000 
#    y 0.000000 1.750260 0.000000 
#    z 0.000000 0.000000 1.810570 
# 
# From -- ./inp_files/29871.got.cif
#   From: 2010.03.12/outbox.cif.g09.slc.cpg/sg50_15_cif.got.tgz:29871.got - 2010.04.16 13:23:21.
