data_PCOD8204595
_publ_section_title
;
Structure prediction by ZEFSAII (Michael W. Deem and Ramdas Pophale) SiO2 
 PCOD8204595
Probable space group: P C C M
;
_chemical_formula_sum "Si O2"
_cell_formula_units_Z 58
_cell_length_a 9.301934
_cell_length_b 17.316740
_cell_length_c 17.396105
_cell_angle_alpha 90.000000
_cell_angle_beta 90.000000
_cell_angle_gamma 90.000000
_cell_volume 2802.150199
_symmetry_space_group_name_H-M "P C C M"
_symmetry_group_IT_number 49
_symmetry_cell_setting 'orthorhombic'
loop_
_space_group_symop_operation_xyz
x,y,z
-x,-y,z
x,-y,1/2-z
-x,y,1/2-z
-x,-y,-z
x,y,-z
-x,y,1/2+z
x,-y,1/2+z
loop_
_atom_site_type_symbol
_atom_site_label
_atom_site_fract_x
_atom_site_fract_y
_atom_site_fract_z
Si Si1 0.296508 0.780149 0.841005
Si Si2 0.182410 0.134345 0.808029
Si Si3 0.346670 0.618783 0.779660
Si Si4 0.230290 0.647674 0.622505
Si Si5 0.002988 0.759119 0.086974
Si Si6 0.409005 0.198644 0.910858
Si Si7 0.334169 0.487146 0.583001
Si Si8 0.000000 0.000000 0.750000
O O1 0.232465 0.836101 0.775731
O O2 0.372669 0.705564 0.806289
O O3 0.172619 0.753666 0.899704
O O4 0.425582 0.818201 0.889189
O O5 0.319591 0.133748 0.864080
O O6 0.062529 0.188273 0.846175
O O7 0.106829 0.051214 0.802148
O O8 0.500000 0.585609 0.750000
O O9 0.230540 0.621869 0.711549
O O10 0.278131 0.565960 0.847093
O O11 0.349658 0.715036 0.608168
O O12 0.261483 0.570790 0.575161
O O13 0.072275 0.675721 0.597081
O O14 0.973995 0.789850 0.000000
O O15 0.386691 0.182285 0.000000
O O16 0.500000 0.500000 0.598731
O O17 0.309002 0.445689 0.500000
#
# Coordination Sequence:
#
# PCOD8204595 Si02
#       8
#     8   8   8   8   8   8   8   2
#     4  12  21  41  66  97 130 169 222 275 324 388
#     4  11  22  43  69  97 131 173 216 256 313 394
#     4  12  21  36  59  89 122 168 223 280 331 391
#     4  11  21  37  62  89 126 173 220 275 334 399
#     4  11  23  40  66  96 130 170 216 271 328 394
#     4  11  22  39  68 102 133 170 219 276 331 378
#     4  11  22  34  53  86 129 170 219 283 346 398
#     4  12  24  44  76 104 132 178 220 252 312 404
#
# _framework density 20.698392999999999
#
# number of rings (size 3 to 8) (size 9 to 14) (size 15 to 20)
#    0.000    0.690    6.897    3.724    0.000    2.207 
#    0.000    3.448    0.000    4.138    0.000    0.000 
#    0.000    0.000    0.000    0.000    0.000    0.000 
#
# Total GULP energy -718861.210480 kJ/mol
# GULP energy per Si atom -12394.158801 kJ/mol
# Density = 2.065128 g / cm^3
# Si number density = 20.698393 Si / 1000 Ang^3
#
#
#
# Elastic Constant Matrix: (Units=GPa)
#
#
# Indices 1 2 3 4 5 6 
#
# 1 141.2729 32.4413 48.2184 0.0000 0.0000 0.0000
# 2 32.4413 88.9896 33.0659 0.0000 0.0000 0.0000
# 3 48.2184 33.0659 150.4654 0.0000 0.0000 0.0000
# 4 0.0000 0.0000 0.0000 14.9396 0.0000 0.0000
# 5 0.0000 0.0000 0.0000 0.0000 33.4258 0.0000
# 6 0.0000 0.0000 0.0000 0.0000 0.0000 22.6953
#
#
#
# Elastic Compliance Matrix: (Units=1/GPa)
#
#
# Indices 1 2 3 4 5 6 
#
# 1 0.008335 -0.002228 -0.002181 0.000000 0.000000 0.000000
# 2 -0.002228 0.012832 -0.002106 0.000000 0.000000 0.000000
# 3 -0.002181 -0.002106 0.007808 0.000000 0.000000 0.000000
# 4 0.000000 0.000000 0.000000 0.066936 0.000000 0.000000
# 5 0.000000 0.000000 0.000000 0.000000 0.029917 0.000000
# 6 0.000000 0.000000 0.000000 0.000000 0.000000 0.044062
#
#
# Mechanical properties :
#
#
# Convention : Reuss Voigt Hill
#
# Bulk Modulus (GPa) = 62.71916 67.57548 65.14732
# Shear Modulus (GPa) = 26.56260 32.01229 29.28745
#
# Velocity S-wave (km/s) = 3.58623 3.93696 3.76568
# Velocity P-wave (km/s) = 6.89313 7.30649 7.10282
#
# Compressibility (1/GPa) = 0.01594409
#
# Stress axis : x y z
#
# Youngs Moduli (GPa) = 119.98143 77.93042 128.07569
#
# Poissons Ratio (x) = 0.17362 0.27938
# Poissons Ratio (y) = 0.26730 0.26972
# Poissons Ratio (z) = 0.26172 0.16412
#
# Static dielectric constant tensor:
#      x y z
#    x 3.519100 0.000000 0.000000 
#    y 0.000000 3.591610 0.000000 
#    z 0.000000 0.000000 3.969460 
# 
# 
# High freq. dielectric constant tensor:
#      x y z
#    x 1.804140 0.000000 0.000000 
#    y 0.000000 1.768140 0.000000 
#    z 0.000000 0.000000 1.830570 
# 
# From -- ./inp_files/16485.got.cif
#   From: 2010.03.12/outbox.cif.g09.slc.cpg/sg49_9_cif.got.tgz:16485.got - 2010.04.14 03:58:27.
