data_PCOD8204837
_publ_section_title
;
Structure prediction by ZEFSAII (Michael W. Deem and Ramdas Pophale) SiO2 
 PCOD8204837
Probable space group: P B A N
;
_chemical_formula_sum "Si O2"
_cell_formula_units_Z 48
_cell_length_a 8.945858
_cell_length_b 14.454302
_cell_length_c 18.163539
_cell_angle_alpha 90.000000
_cell_angle_beta 90.000000
_cell_angle_gamma 90.000000
_cell_volume 2348.656993
_symmetry_space_group_name_H-M "P B A N"
_symmetry_group_IT_number 50
_space_group.IT_coordinate_system_code '2'
_symmetry_cell_setting 'orthorhombic'
loop_
_space_group_symop_operation_xyz
x,y,z
1/2-x,1/2-y,z
x,1/2-y,-z
1/2-x,y,-z
-x,-y,-z
1/2+x,1/2+y,-z
-x,1/2+y,z
1/2+x,-y,z
loop_
_atom_site_type_symbol
_atom_site_label
_atom_site_fract_x
_atom_site_fract_y
_atom_site_fract_z
Si Si1 0.480675 0.612671 0.848062
Si Si2 0.769044 0.528522 0.915219
Si Si3 0.563658 0.610265 0.304233
Si Si4 0.584229 0.919173 0.311409
Si Si5 0.596110 0.800791 0.845904
Si Si6 0.074339 0.261596 0.580986
O O1 0.609340 0.548060 0.880758
O O2 0.328565 0.562241 0.872185
O O3 0.498437 0.619668 0.760127
O O4 0.488436 0.719194 0.877837
O O5 0.874338 0.619882 0.907020
O O6 0.750000 0.503209 0.000000
O O7 0.738174 0.585507 0.301468
O O8 0.462736 0.523590 0.324468
O O9 0.521032 0.650722 0.224482
O O10 0.513837 0.682337 0.365878
O O11 0.534031 0.860401 0.382892
O O12 0.750000 0.750000 0.821200
O O13 0.250000 0.250000 0.574041
O O14 0.000475 0.250000 0.500000
#
# Coordination Sequence:
#
# PCOD8204837 Si02
#       6
#     8   8   8   8   8   8
#     4  11  20  37  61  84 115 155 197 239 292 353
#     4  11  23  38  59  88 118 150 192 247 298 348
#     4  11  19  35  59  85 118 148 205 243 289 354
#     4  11  19  34  61  86 113 158 199 241 292 352
#     4  10  18  34  60  82 109 156 200 233 282 359
#     4   9  19  35  58  86 118 157 202 246 289 353
#
# _framework density 20.437213
#
# number of rings (size 3 to 8) (size 9 to 14) (size 15 to 20)
#    0.000    1.500    6.667    1.000    0.000    3.667 
#    0.000    1.667    0.000    2.000    0.000    0.000 
#    0.000    0.000    0.000    0.000    0.000    0.000 
#
# Total GULP energy -595097.919946 kJ/mol
# GULP energy per Si atom -12397.873332 kJ/mol
# Density = 2.039070 g / cm^3
# Si number density = 20.437213 Si / 1000 Ang^3
#
#
#
# Elastic Constant Matrix: (Units=GPa)
#
#
# Indices 1 2 3 4 5 6 
#
# 1 27.0634 27.8621 22.9373 0.0000 0.0000 0.0000
# 2 27.8621 133.0137 33.3010 0.0000 0.0000 0.0000
# 3 22.9373 33.3010 120.1686 0.0000 0.0000 0.0000
# 4 0.0000 0.0000 0.0000 26.3293 0.0000 0.0000
# 5 0.0000 0.0000 0.0000 0.0000 10.2074 0.0000
# 6 0.0000 0.0000 0.0000 0.0000 0.0000 29.4859
#
#
#
# Elastic Compliance Matrix: (Units=1/GPa)
#
#
# Indices 1 2 3 4 5 6 
#
# 1 0.052774 -0.009169 -0.007532 0.000000 0.000000 0.000000
# 2 -0.009169 0.009671 -0.000930 0.000000 0.000000 0.000000
# 3 -0.007532 -0.000930 0.010017 0.000000 0.000000 0.000000
# 4 0.000000 0.000000 0.000000 0.037980 0.000000 0.000000
# 5 0.000000 0.000000 0.000000 0.000000 0.097968 0.000000
# 6 0.000000 0.000000 0.000000 0.000000 0.000000 0.033915
#
#
# Mechanical properties :
#
#
# Convention : Reuss Voigt Hill
#
# Bulk Modulus (GPa) = 26.88175 49.82739 38.35457
# Shear Modulus (GPa) = 17.24212 26.28086 21.76149
#
# Velocity S-wave (km/s) = 2.90774 3.58988 3.26666
# Velocity P-wave (km/s) = 4.94521 6.45109 5.74769
#
# Compressibility (1/GPa) = 0.03719996
#
# Stress axis : x y z
#
# Youngs Moduli (GPa) = 18.94889 103.39768 99.82891
#
# Poissons Ratio (x) = 0.94801 0.75195
# Poissons Ratio (y) = 0.17373 0.09285
# Poissons Ratio (z) = 0.14273 0.09617
#
# Static dielectric constant tensor:
#      x y z
#    x 3.378780 0.000000 0.000000 
#    y 0.000000 4.018890 0.000000 
#    z 0.000000 0.000000 4.168820 
# 
# 
# High freq. dielectric constant tensor:
#      x y z
#    x 1.757080 0.000000 0.000000 
#    y 0.000000 1.815870 0.000000 
#    z 0.000000 0.000000 1.791210 
# 
# From -- ./inp_files/28709.got.cif
#   From: 2010.03.12/outbox.cif.g09.slc.cpg/sg50_15_cif.got.tgz:28709.got - 2010.04.16 13:23:21.
