data_PCOD8204317
_publ_section_title
;
Structure prediction by ZEFSAII (Michael W. Deem and Ramdas Pophale) SiO2 
 PCOD8204317
Probable space group: P C C M
;
_chemical_formula_sum "Si O2"
_cell_formula_units_Z 40
_cell_length_a 9.207357
_cell_length_b 13.282658
_cell_length_c 14.087228
_cell_angle_alpha 90.000000
_cell_angle_beta 90.000000
_cell_angle_gamma 90.000000
_cell_volume 1722.842263
_symmetry_space_group_name_H-M "P C C M"
_symmetry_group_IT_number 49
_symmetry_cell_setting 'orthorhombic'
loop_
_space_group_symop_operation_xyz
x,y,z
-x,-y,z
x,-y,1/2-z
-x,y,1/2-z
-x,-y,-z
x,y,-z
-x,y,1/2+z
x,-y,1/2+z
loop_
_atom_site_type_symbol
_atom_site_label
_atom_site_fract_x
_atom_site_fract_y
_atom_site_fract_z
Si Si1 0.199321 0.070020 0.389298
Si Si2 0.396551 0.591895 0.609177
Si Si3 0.113151 0.857428 0.387271
Si Si4 0.641287 0.739876 0.609854
Si Si5 0.837440 0.335989 0.266977
O O1 0.178303 0.052397 0.500000
O O2 0.340897 0.139747 0.367141
O O3 0.054721 0.128964 0.355479
O O4 0.204541 0.955694 0.349198
O O5 0.500000 0.500000 0.636149
O O6 0.350030 0.587638 0.500000
O O7 0.480779 0.697551 0.633736
O O8 0.252585 0.581622 0.672841
O O9 0.131224 0.838041 0.500000
O O10 0.175055 0.764576 0.329739
O O11 0.676381 0.719197 0.500000
O O12 0.763011 0.677847 0.665467
O O13 0.000000 0.375067 0.250000
#
# Coordination Sequence:
#
# PCOD8204317 Si02
#       5
#     8   8   8   8   8
#     4   8  15  31  56  86 128 179 220 263 324 388
#     4  10  24  48  73  92 124 174 219 271 342 411
#     4   9  17  32  56  91 133 173 216 269 328 387
#     4  10  21  39  60  88 129 177 223 264 322 394
#     4  12  23  36  64 102 130 166 213 280 332 392
#
# _framework density 23.217448000000001
#
# number of rings (size 3 to 8) (size 9 to 14) (size 15 to 20)
#    0.000    2.200    2.000    2.400    0.000    3.200 
#    0.000    3.000    0.000   10.800    0.000    0.000 
#    0.000    0.000    0.000    0.000    0.000    0.000 
#
# Total GULP energy -495783.199552 kJ/mol
# GULP energy per Si atom -12394.579989 kJ/mol
# Density = 2.316460 g / cm^3
# Si number density = 23.217448 Si / 1000 Ang^3
#
#
#
# Elastic Constant Matrix: (Units=GPa)
#
#
# Indices 1 2 3 4 5 6 
#
# 1 131.4105 43.2484 54.2108 0.0000 0.0000 0.0000
# 2 43.2484 80.8008 24.0021 0.0000 0.0000 0.0000
# 3 54.2108 24.0021 69.9143 0.0000 0.0000 0.0000
# 4 0.0000 0.0000 0.0000 20.5262 0.0000 0.0000
# 5 0.0000 0.0000 0.0000 0.0000 31.1803 0.0000
# 6 0.0000 0.0000 0.0000 0.0000 0.0000 36.6336
#
#
#
# Elastic Compliance Matrix: (Units=1/GPa)
#
#
# Indices 1 2 3 4 5 6 
#
# 1 0.012344 -0.004191 -0.008133 0.000000 0.000000 0.000000
# 2 -0.004191 0.015205 -0.001970 0.000000 0.000000 0.000000
# 3 -0.008133 -0.001970 0.021285 0.000000 0.000000 0.000000
# 4 0.000000 0.000000 0.000000 0.048718 0.000000 0.000000
# 5 0.000000 0.000000 0.000000 0.000000 0.032072 0.000000
# 6 0.000000 0.000000 0.000000 0.000000 0.000000 0.027297
#
#
# Mechanical properties :
#
#
# Convention : Reuss Voigt Hill
#
# Bulk Modulus (GPa) = 49.39130 58.33870 53.86500
# Shear Modulus (GPa) = 26.00676 28.37899 27.19287
#
# Velocity S-wave (km/s) = 3.35048 3.49995 3.42603
# Velocity P-wave (km/s) = 6.02388 6.44318 6.23705
#
# Compressibility (1/GPa) = 0.02024648
#
# Stress axis : x y z
#
# Youngs Moduli (GPa) = 81.01054 65.76911 46.98054
#
# Poissons Ratio (x) = 0.27566 0.38207
# Poissons Ratio (y) = 0.33954 0.09255
# Poissons Ratio (z) = 0.65882 0.12956
#
# Static dielectric constant tensor:
#      x y z
#    x 4.009860 0.000000 0.000000 
#    y 0.000000 4.299270 0.000000 
#    z 0.000000 0.000000 4.219840 
# 
# 
# High freq. dielectric constant tensor:
#      x y z
#    x 1.884370 0.000000 0.000000 
#    y 0.000000 1.912660 0.000000 
#    z 0.000000 0.000000 1.931140 
# 
# From -- ./inp_files/11554.got.cif
#   From: 2010.03.12/outbox.cif.g09.slc.cpg/sg49_6_cif.got.tgz:11554.got - 2010.04.14 03:58:27.
