data_PCOD8204434
_publ_section_title
;
Structure prediction by ZEFSAII (Michael W. Deem and Ramdas Pophale) SiO2 
 PCOD8204434
Probable space group: P C C M
;
_chemical_formula_sum "Si O2"
_cell_formula_units_Z 40
_cell_length_a 9.081569
_cell_length_b 24.347161
_cell_length_c 9.662668
_cell_angle_alpha 90.000000
_cell_angle_beta 90.000000
_cell_angle_gamma 90.000000
_cell_volume 2136.516605
_symmetry_space_group_name_H-M "P C C M"
_symmetry_group_IT_number 49
_symmetry_cell_setting 'orthorhombic'
loop_
_space_group_symop_operation_xyz
x,y,z
-x,-y,z
x,-y,1/2-z
-x,y,1/2-z
-x,-y,-z
x,y,-z
-x,y,1/2+z
x,-y,1/2+z
loop_
_atom_site_type_symbol
_atom_site_label
_atom_site_fract_x
_atom_site_fract_y
_atom_site_fract_z
Si Si1 0.643040 0.764094 0.659342
Si Si2 0.324497 0.883574 0.763257
Si Si3 0.856853 0.331956 0.841363
Si Si4 0.848312 0.452799 0.836508
Si Si5 0.155456 0.924207 0.500000
Si Si6 0.178707 0.054146 0.500000
O O1 0.500000 0.759100 0.750000
O O2 0.598419 0.757391 0.500000
O O3 0.719609 0.823004 0.683394
O O4 0.748168 0.715356 0.709045
O O5 0.500000 0.888928 0.750000
O O6 0.234615 0.894447 0.625533
O O7 0.271485 0.929715 0.867379
O O8 0.777791 0.391905 0.825197
O O9 0.000000 0.327149 0.750000
O O10 0.904300 0.322878 0.000000
O O11 0.756216 0.500000 0.750000
O O12 0.000000 0.449346 0.750000
O O13 0.868259 0.468643 0.000000
O O14 0.979394 0.914986 0.500000
O O15 0.173639 0.989067 0.500000
#
# Coordination Sequence:
#
# PCOD8204434 Si02
#       6
#     8   8   8   8   4   4
#     4  10  22  40  59  80 110 145 184 229 278 327
#     4  11  23  40  62  86 114 150 195 236 278 336
#     4   9  19  34  52  81 112 143 184 231 276 329
#     4   9  15  25  44  70 106 142 178 222 272 322
#     4  11  25  39  63  87 119 153 184 227 292 341
#     4  11  23  43  59  89 121 149 184 233 284 343
#
# _framework density 18.722065000000001
#
# number of rings (size 3 to 8) (size 9 to 14) (size 15 to 20)
#    0.000    2.000    1.000    3.000    4.200    7.200 
#    0.000    0.000    0.000    0.600    0.000    4.200 
#    0.000    0.000    0.000    0.000    0.000    0.000 
#
# Total GULP energy -495634.428971 kJ/mol
# GULP energy per Si atom -12390.860724 kJ/mol
# Density = 1.867945 g / cm^3
# Si number density = 18.722065 Si / 1000 Ang^3
#
#
#
# Elastic Constant Matrix: (Units=GPa)
#
#
# Indices 1 2 3 4 5 6 
#
# 1 63.4393 41.9959 24.5510 0.0000 0.0000 0.0000
# 2 41.9959 112.7583 31.9264 0.0000 0.0000 0.0000
# 3 24.5510 31.9264 107.7192 0.0000 0.0000 0.0000
# 4 0.0000 0.0000 0.0000 41.1059 0.0000 0.0000
# 5 0.0000 0.0000 0.0000 0.0000 21.2476 0.0000
# 6 0.0000 0.0000 0.0000 0.0000 0.0000 12.0135
#
#
#
# Elastic Compliance Matrix: (Units=1/GPa)
#
#
# Indices 1 2 3 4 5 6 
#
# 1 0.021657 -0.007279 -0.002779 0.000000 0.000000 0.000000
# 2 -0.007279 0.012128 -0.001935 0.000000 0.000000 0.000000
# 3 -0.002779 -0.001935 0.010490 0.000000 0.000000 0.000000
# 4 0.000000 0.000000 0.000000 0.024327 0.000000 0.000000
# 5 0.000000 0.000000 0.000000 0.000000 0.047064 0.000000
# 6 0.000000 0.000000 0.000000 0.000000 0.000000 0.083240
#
#
# Mechanical properties :
#
#
# Convention : Reuss Voigt Hill
#
# Bulk Modulus (GPa) = 49.28869 53.42926 51.35898
# Shear Modulus (GPa) = 21.77169 27.23629 24.50399
#
# Velocity S-wave (km/s) = 3.41382 3.81828 3.62170
# Velocity P-wave (km/s) = 6.47476 6.93103 6.70677
#
# Compressibility (1/GPa) = 0.02028863
#
# Stress axis : x y z
#
# Youngs Moduli (GPa) = 46.17396 82.45623 95.32626
#
# Poissons Ratio (x) = 0.60023 0.26487
# Poissons Ratio (y) = 0.33612 0.18449
# Poissons Ratio (z) = 0.12830 0.15958
#
# Static dielectric constant tensor:
#      x y z
#    x 3.208780 0.000000 0.000000 
#    y 0.000000 4.328380 0.000000 
#    z 0.000000 0.000000 3.532610 
# 
# 
# High freq. dielectric constant tensor:
#      x y z
#    x 1.689020 0.000000 0.000000 
#    y 0.000000 1.752130 0.000000 
#    z 0.000000 0.000000 1.745370 
# 
# From -- ./inp_files/1955.got.cif
#   From: 2010.03.12/outbox.cif.g09.slc.cpg/sg49_1_cif.got.tgz:1955.got - 2010.04.14 03:58:27.
