data_PCOD8204205
_publ_section_title
;
Structure prediction by ZEFSAII (Michael W. Deem and Ramdas Pophale) SiO2 
 PCOD8204205
Probable space group: P C C M
;
_chemical_formula_sum "Si O2"
_cell_formula_units_Z 64
_cell_length_a 8.870353
_cell_length_b 26.287183
_cell_length_c 14.717984
_cell_angle_alpha 90.000000
_cell_angle_beta 90.000000
_cell_angle_gamma 90.000000
_cell_volume 3431.889359
_symmetry_space_group_name_H-M "P C C M"
_symmetry_group_IT_number 49
_symmetry_cell_setting 'orthorhombic'
loop_
_space_group_symop_operation_xyz
x,y,z
-x,-y,z
x,-y,1/2-z
-x,y,1/2-z
-x,-y,-z
x,y,-z
-x,y,1/2+z
x,-y,1/2+z
loop_
_atom_site_type_symbol
_atom_site_label
_atom_site_fract_x
_atom_site_fract_y
_atom_site_fract_z
Si Si1 0.675713 0.259913 0.894584
Si Si2 0.821522 0.443646 0.250000
Si Si3 0.677917 0.000000 0.102227
Si Si4 0.175837 0.635552 0.603772
Si Si5 0.175838 0.635552 0.103772
Si Si6 0.678463 0.080698 0.750000
Si Si7 0.675713 0.740087 0.105416
Si Si8 0.822069 0.810223 0.750000
O O1 0.734771 0.314897 0.862947
O O2 0.500000 0.256835 0.872903
O O3 0.759541 0.216054 0.840313
O O4 0.711910 0.251023 0.000000
O O5 0.747819 0.500000 0.250000
O O6 0.768193 0.412905 0.338928
O O7 0.768193 0.412904 0.161072
O O8 0.000000 0.449039 0.250000
O O9 0.726587 0.950211 0.159287
O O10 0.500000 0.000000 0.093512
O O11 0.726587 0.049789 0.159287
O O12 0.749619 0.000000 0.000000
O O13 0.212384 0.622444 0.500000
O O14 0.265229 0.685103 0.637053
O O15 1.000000 0.646675 0.619947
O O16 0.212384 0.622444 0.000000
O O17 0.500000 0.091754 0.750000
O O18 0.772073 0.131825 0.750000
O O19 0.759541 0.783946 0.159687
O O20 0.711910 0.748977 0.000000
O O21 0.000000 0.806397 0.750000
#
# Coordination Sequence:
#
# PCOD8204205 Si02
#       8
#     8   8   8   8   8   8   8   8
#     4  10  21  37  57  79 103 136 179 222 264 315
#     4   9  17  28  44  69  98 128 165 207 252 304
#     4   8  15  31  56  80 102 134 176 221 262 299
#     4   9  17  30  49  72  98 129 166 210 259 308
#     4   9  17  30  49  72  98 129 166 210 259 308
#     4   9  18  33  53  79 107 136 178 221 256 303
#     4  10  21  37  57  79 103 136 179 222 264 315
#     4  12  24  36  53  79 115 149 175 214 265 316
#
# _framework density 18.648619
#
# number of rings (size 3 to 8) (size 9 to 14) (size 15 to 20)
#    0.000    2.500    0.000    3.375    0.000    4.000 
#    0.000    6.250    0.000    2.250    0.000    3.500 
#    0.000    0.000    0.000    0.000    0.000    0.000 
#
# Total GULP energy -793572.891840 kJ/mol
# GULP energy per Si atom -12399.576435 kJ/mol
# Density = 1.860617 g / cm^3
# Si number density = 18.648619 Si / 1000 Ang^3
#
#
#
# Elastic Constant Matrix: (Units=GPa)
#
#
# Indices 1 2 3 4 5 6 
#
# 1 72.8852 55.2602 37.6497 0.0000 0.0000 0.0000
# 2 55.2602 173.2799 84.7334 0.0000 0.0000 0.0000
# 3 37.6497 84.7334 131.4184 0.0000 0.0000 0.0000
# 4 0.0000 0.0000 0.0000 40.0006 0.0000 0.0000
# 5 0.0000 0.0000 0.0000 0.0000 18.7023 0.0000
# 6 0.0000 0.0000 0.0000 0.0000 0.0000 63.0577
#
#
#
# Elastic Compliance Matrix: (Units=1/GPa)
#
#
# Indices 1 2 3 4 5 6 
#
# 1 0.018516 -0.004836 -0.002187 0.000000 0.000000 0.000000
# 2 -0.004836 0.009691 -0.004863 0.000000 0.000000 0.000000
# 3 -0.002187 -0.004863 0.011371 0.000000 0.000000 0.000000
# 4 0.000000 0.000000 0.000000 0.025000 0.000000 0.000000
# 5 0.000000 0.000000 0.000000 0.000000 0.053469 0.000000
# 6 0.000000 0.000000 0.000000 0.000000 0.000000 0.015858
#
#
# Mechanical properties :
#
#
# Convention : Reuss Voigt Hill
#
# Bulk Modulus (GPa) = 63.26116 81.43001 72.34559
# Shear Modulus (GPa) = 30.68493 37.68146 34.18319
#
# Velocity S-wave (km/s) = 4.06079 4.49999 4.28602
# Velocity P-wave (km/s) = 7.48218 8.41190 7.96062
#
# Compressibility (1/GPa) = 0.01580749
#
# Stress axis : x y z
#
# Youngs Moduli (GPa) = 54.00713 103.18673 87.94015
#
# Poissons Ratio (x) = 0.49896 0.19231
# Poissons Ratio (y) = 0.26115 0.42767
# Poissons Ratio (z) = 0.11811 0.50181
#
# Static dielectric constant tensor:
#      x y z
#    x 3.174870 0.000000 0.000000 
#    y 0.000000 3.515510 0.000000 
#    z 0.000000 0.000000 5.015130 
# 
# 
# High freq. dielectric constant tensor:
#      x y z
#    x 1.695980 0.000000 0.000000 
#    y 0.000000 1.724490 0.000000 
#    z 0.000000 0.000000 1.737950 
# 
# From -- ./inp_files/12097.got.cif
#   From: 2010.03.12/outbox.cif.g09.slc.cpg/sg49_7_cif.got.tgz:12097.got - 2010.04.14 03:58:27.
