data_PCOD8204685
_publ_section_title
;
Structure prediction by ZEFSAII (Michael W. Deem and Ramdas Pophale) SiO2 
 PCOD8204685
Probable space group: P C C M
;
_chemical_formula_sum "Si O2"
_cell_formula_units_Z 48
_cell_length_a 17.473491
_cell_length_b 9.485139
_cell_length_c 14.847962
_cell_angle_alpha 90.000000
_cell_angle_beta 90.000000
_cell_angle_gamma 90.000000
_cell_volume 2460.878816
_symmetry_space_group_name_H-M "P C C M"
_symmetry_group_IT_number 49
_symmetry_cell_setting 'orthorhombic'
loop_
_space_group_symop_operation_xyz
x,y,z
-x,-y,z
x,-y,1/2-z
-x,y,1/2-z
-x,-y,-z
x,y,-z
-x,y,1/2+z
x,-y,1/2+z
loop_
_atom_site_type_symbol
_atom_site_label
_atom_site_fract_x
_atom_site_fract_y
_atom_site_fract_z
Si Si1 0.087657 0.332434 0.751389
Si Si2 0.305202 0.518909 0.645887
Si Si3 0.206052 0.231538 0.102747
Si Si4 0.197990 0.719944 0.102989
Si Si5 0.420386 0.920026 0.000000
Si Si6 0.699491 0.969324 0.350743
Si Si7 0.578784 0.582030 0.500000
O O1 0.096294 0.500000 0.750000
O O2 0.132692 0.269374 0.836584
O O3 0.120988 0.264666 0.660101
O O4 0.000000 0.284461 0.750000
O O5 0.325677 0.500000 0.750000
O O6 0.282654 0.680600 0.627638
O O7 0.228753 0.438205 0.614343
O O8 0.377325 0.467163 0.589179
O O9 0.231888 0.071027 0.117582
O O10 0.180765 0.255525 0.000000
O O11 0.265532 0.813855 0.143882
O O12 0.180145 0.758143 0.000000
O O13 0.375000 0.974603 0.087126
O O14 0.431616 0.750900 0.000000
O O15 0.500000 0.000000 0.000000
O O16 0.671710 0.000000 0.250000
O O17 0.500000 0.500000 0.500000
#
# Coordination Sequence:
#
# PCOD8204685 Si02
#       7
#     8   8   8   8   4   8   4
#     4  11  24  40  62 101 140 167 211 279 334 376
#     4  12  21  40  68  94 124 171 224 263 308 384
#     4  12  22  37  67 100 126 166 225 267 311 383
#     4  12  20  41  67  94 125 177 221 262 314 391
#     4  12  28  48  64  98 137 166 210 274 334 381
#     4  12  23  42  70  96 124 171 219 263 319 390
#     4  12  28  46  66  98 135 171 209 273 331 378
#
# _framework density 19.505229
#
# number of rings (size 3 to 8) (size 9 to 14) (size 15 to 20)
#    0.000    0.167   10.000    0.000    2.333    1.333 
#    0.000    5.000    0.000    2.000    0.000    0.000 
#    0.000    0.000    0.000    0.000    0.000    0.000 
#
# Total GULP energy -595355.015544 kJ/mol
# GULP energy per Si atom -12403.229491 kJ/mol
# Density = 1.946083 g / cm^3
# Si number density = 19.505229 Si / 1000 Ang^3
#
#
#
# Elastic Constant Matrix: (Units=GPa)
#
#
# Indices 1 2 3 4 5 6 
#
# 1 153.8206 34.0363 76.4775 0.0000 0.0000 0.0000
# 2 34.0363 56.4610 30.1652 0.0000 0.0000 0.0000
# 3 76.4775 30.1652 194.7419 0.0000 0.0000 0.0000
# 4 0.0000 0.0000 0.0000 28.5785 0.0000 0.0000
# 5 0.0000 0.0000 0.0000 0.0000 35.4301 0.0000
# 6 0.0000 0.0000 0.0000 0.0000 0.0000 30.6090
#
#
#
# Elastic Compliance Matrix: (Units=1/GPa)
#
#
# Indices 1 2 3 4 5 6 
#
# 1 0.008751 -0.003749 -0.002856 0.000000 0.000000 0.000000
# 2 -0.003749 0.020916 -0.001767 0.000000 0.000000 0.000000
# 3 -0.002856 -0.001767 0.006530 0.000000 0.000000 0.000000
# 4 0.000000 0.000000 0.000000 0.034991 0.000000 0.000000
# 5 0.000000 0.000000 0.000000 0.000000 0.028225 0.000000
# 6 0.000000 0.000000 0.000000 0.000000 0.000000 0.032670
#
#
# Mechanical properties :
#
#
# Convention : Reuss Voigt Hill
#
# Bulk Modulus (GPa) = 51.40939 76.26461 63.83700
# Shear Modulus (GPa) = 32.19339 36.54649 34.36994
#
# Velocity S-wave (km/s) = 4.06704 4.33329 4.20228
# Velocity P-wave (km/s) = 6.96192 8.01380 7.50631
#
# Compressibility (1/GPa) = 0.01945170
#
# Stress axis : x y z
#
# Youngs Moduli (GPa) = 114.27902 47.81063 153.13422
#
# Poissons Ratio (x) = 0.17926 0.43730
# Poissons Ratio (y) = 0.42848 0.27065
# Poissons Ratio (z) = 0.32634 0.08450
#
# Static dielectric constant tensor:
#      x y z
#    x 3.405360 0.000000 0.000000 
#    y 0.000000 3.704750 0.000000 
#    z 0.000000 0.000000 4.156050 
# 
# 
# High freq. dielectric constant tensor:
#      x y z
#    x 1.738630 0.000000 0.000000 
#    y 0.000000 1.770910 0.000000 
#    z 0.000000 0.000000 1.778890 
# 
# From -- ./inp_files/11881.got.cif
#   From: 2010.03.12/outbox.cif.g09.slc.cpg/sg49_6_cif.got.tgz:11881.got - 2010.04.14 03:58:27.
