data_PCOD8204524
_publ_section_title
;
Structure prediction by ZEFSAII (Michael W. Deem and Ramdas Pophale) SiO2 
 PCOD8204524
Probable space group: P C C M
;
_chemical_formula_sum "Si O2"
_cell_formula_units_Z 22
_cell_length_a 5.211721
_cell_length_b 5.800804
_cell_length_c 29.171459
_cell_angle_alpha 90.000000
_cell_angle_beta 90.000000
_cell_angle_gamma 90.000000
_cell_volume 881.916567
_symmetry_space_group_name_H-M "P C C M"
_symmetry_group_IT_number 49
_symmetry_cell_setting 'orthorhombic'
loop_
_space_group_symop_operation_xyz
x,y,z
-x,-y,z
x,-y,1/2-z
-x,y,1/2-z
-x,-y,-z
x,y,-z
-x,y,1/2+z
x,-y,1/2+z
loop_
_atom_site_type_symbol
_atom_site_label
_atom_site_fract_x
_atom_site_fract_y
_atom_site_fract_z
Si Si1 0.500000 0.500000 0.750000
Si Si2 0.641861 0.752270 0.500000
Si Si3 0.253840 0.136410 0.309411
Si Si4 0.757539 0.351870 0.097035
O O1 0.707075 0.623849 0.716763
O O2 0.500000 0.500000 0.500000
O O3 0.808956 0.757840 0.453361
O O4 0.500000 0.000000 0.500000
O O5 0.260909 0.155652 0.364645
O O6 0.500000 0.000000 0.292343
O O7 0.000000 0.000000 0.293587
O O8 0.500000 0.500000 0.096811
O O9 0.000000 0.500000 0.111855
#
# Coordination Sequence:
#
# PCOD8204524 Si02
#       4
#     2   4   8   8
#     4  12  30  54  76 110 164 194 274 338 412 466
#     4  10  23  44  78 114 158 207 261 317 394 478
#     4  12  28  50  79 112 148 205 261 321 399 474
#     4  11  23  47  75 112 154 199 248 321 388 467
#
# _framework density 24.945671000000001
#
# number of rings (size 3 to 8) (size 9 to 14) (size 15 to 20)
#    0.000    0.727    1.818    4.364    0.000    7.273 
#    0.000    8.182    0.000    0.000    0.000    0.000 
#    0.000    0.000    0.000    0.000    0.000    0.000 
#
# Total GULP energy -272588.239508 kJ/mol
# GULP energy per Si atom -12390.374523 kJ/mol
# Density = 2.488889 g / cm^3
# Si number density = 24.945671 Si / 1000 Ang^3
#
#
#
# Elastic Constant Matrix: (Units=GPa)
#
#
# Indices 1 2 3 4 5 6 
#
# 1 183.2489 50.1295 24.1560 0.0000 0.0000 0.0000
# 2 50.1295 124.9751 44.9503 0.0000 0.0000 0.0000
# 3 24.1560 44.9503 199.7786 0.0000 0.0000 0.0000
# 4 0.0000 0.0000 0.0000 46.3596 0.0000 0.0000
# 5 0.0000 0.0000 0.0000 0.0000 30.0307 0.0000
# 6 0.0000 0.0000 0.0000 0.0000 0.0000 42.4653
#
#
#
# Elastic Compliance Matrix: (Units=1/GPa)
#
#
# Indices 1 2 3 4 5 6 
#
# 1 0.006137 -0.002388 -0.000205 0.000000 0.000000 0.000000
# 2 -0.002388 0.009635 -0.001879 0.000000 0.000000 0.000000
# 3 -0.000205 -0.001879 0.005453 0.000000 0.000000 0.000000
# 4 0.000000 0.000000 0.000000 0.021571 0.000000 0.000000
# 5 0.000000 0.000000 0.000000 0.000000 0.033299 0.000000
# 6 0.000000 0.000000 0.000000 0.000000 0.000000 0.023549
#
#
# Mechanical properties :
#
#
# Convention : Reuss Voigt Hill
#
# Bulk Modulus (GPa) = 81.42219 82.94158 82.18188
# Shear Modulus (GPa) = 44.37251 49.68891 47.03071
#
# Velocity S-wave (km/s) = 4.22212 4.46790 4.34674
# Velocity P-wave (km/s) = 7.51525 7.74191 7.62942
#
# Compressibility (1/GPa) = 0.01228166
#
# Stress axis : x y z
#
# Youngs Moduli (GPa) = 162.93682 103.78368 183.38108
#
# Poissons Ratio (x) = 0.24785 0.03755
# Poissons Ratio (y) = 0.38912 0.34461
# Poissons Ratio (z) = 0.03336 0.19503
#
# Static dielectric constant tensor:
#      x y z
#    x 4.232340 0.000000 0.000000 
#    y 0.000000 4.508520 0.000000 
#    z 0.000000 0.000000 5.172650 
# 
# 
# High freq. dielectric constant tensor:
#      x y z
#    x 1.982760 0.000000 0.000000 
#    y 0.000000 1.988310 0.000000 
#    z 0.000000 0.000000 2.037780 
# 
# From -- ./inp_files/25328.got.cif
#   From: 2010.03.12/outbox.cif.g09.slc.cpg/sg49_13_cif.got.tgz:25328.got - 2010.04.14 03:58:27.
