data_PCOD8204563
_publ_section_title
;
Structure prediction by ZEFSAII (Michael W. Deem and Ramdas Pophale) SiO2 
 PCOD8204563
Probable space group: P C C M
;
_chemical_formula_sum "Si O2"
_cell_formula_units_Z 56
_cell_length_a 15.350451
_cell_length_b 20.234123
_cell_length_c 8.471649
_cell_angle_alpha 90.000000
_cell_angle_beta 90.000000
_cell_angle_gamma 90.000000
_cell_volume 2631.318863
_symmetry_space_group_name_H-M "P C C M"
_symmetry_group_IT_number 49
_symmetry_cell_setting 'orthorhombic'
loop_
_space_group_symop_operation_xyz
x,y,z
-x,-y,z
x,-y,1/2-z
-x,y,1/2-z
-x,-y,-z
x,y,-z
-x,y,1/2+z
x,-y,1/2+z
loop_
_atom_site_type_symbol
_atom_site_label
_atom_site_fract_x
_atom_site_fract_y
_atom_site_fract_z
Si Si1 0.589227 0.621995 0.313546
Si Si2 0.908772 0.324540 0.313844
Si Si3 0.822260 0.201848 0.183496
Si Si4 0.231214 0.932815 0.685616
Si Si5 0.412850 0.891877 0.186353
Si Si6 0.357381 0.758690 0.684278
Si Si7 0.766220 0.569232 0.187155
O O1 0.500000 0.588031 0.250000
O O2 0.586505 0.629991 0.500000
O O3 0.592194 0.692986 0.229816
O O4 0.671693 0.578506 0.264275
O O5 0.911028 0.320902 0.500000
O O6 0.896953 0.250663 0.245600
O O7 0.831678 0.373120 0.256382
O O8 0.000000 0.352964 0.250000
O O9 0.826986 0.130633 0.269209
O O10 0.731109 0.237691 0.216064
O O11 0.834859 0.188820 0.000000
O O12 0.242639 0.935417 0.500000
O O13 0.326356 0.930724 0.765416
O O14 0.185874 0.000000 0.750000
O O15 0.500000 0.929149 0.250000
O O16 0.416178 0.821153 0.273465
O O17 0.414583 0.883007 0.000000
O O18 0.332958 0.758265 0.500000
O O19 0.804435 0.500000 0.250000
O O20 0.756921 0.568792 0.000000
#
# Coordination Sequence:
#
# PCOD8204563 Si02
#       7
#     8   8   8   8   8   8   8
#     4  12  24  39  61  89 124 168 218 269 322 378
#     4  11  24  43  70 102 135 169 211 263 319 383
#     4  11  21  37  63  93 125 164 208 257 316 375
#     4  11  22  38  58  84 118 160 208 257 313 378
#     4  11  21  34  50  75 110 153 204 260 319 375
#     4  11  20  34  55  83 118 158 206 260 318 375
#     4  11  25  45  68  95 132 173 216 265 322 381
#
# _framework density 21.282102999999999
#
# number of rings (size 3 to 8) (size 9 to 14) (size 15 to 20)
#    0.000    0.857    1.429    9.429    0.000    2.571 
#    0.000    4.286    0.000    0.429    0.000    3.000 
#    0.000    0.000    0.000    0.000    0.000    0.000 
#
# Total GULP energy -694584.240566 kJ/mol
# GULP energy per Si atom -12403.290010 kJ/mol
# Density = 2.123366 g / cm^3
# Si number density = 21.282103 Si / 1000 Ang^3
#
#
#
# Elastic Constant Matrix: (Units=GPa)
#
#
# Indices 1 2 3 4 5 6 
#
# 1 91.3257 33.7143 20.3061 0.0000 0.0000 0.0000
# 2 33.7143 121.9920 37.4951 0.0000 0.0000 0.0000
# 3 20.3061 37.4951 119.1295 0.0000 0.0000 0.0000
# 4 0.0000 0.0000 0.0000 33.2221 0.0000 0.0000
# 5 0.0000 0.0000 0.0000 0.0000 32.5239 0.0000
# 6 0.0000 0.0000 0.0000 0.0000 0.0000 0.6715
#
#
#
# Elastic Compliance Matrix: (Units=1/GPa)
#
#
# Indices 1 2 3 4 5 6 
#
# 1 0.012332 -0.003058 -0.001140 0.000000 0.000000 0.000000
# 2 -0.003058 0.009833 -0.002574 0.000000 0.000000 0.000000
# 3 -0.001140 -0.002574 0.009399 0.000000 0.000000 0.000000
# 4 0.000000 0.000000 0.000000 0.030100 0.000000 0.000000
# 5 0.000000 0.000000 0.000000 0.000000 0.030747 0.000000
# 6 0.000000 0.000000 0.000000 0.000000 0.000000 1.489141
#
#
# Mechanical properties :
#
#
# Convention : Reuss Voigt Hill
#
# Bulk Modulus (GPa) = 55.48917 57.27533 56.38225
# Shear Modulus (GPa) = 3.12285 29.34561 16.23423
#
# Velocity S-wave (km/s) = 1.21266 3.71737 2.76490
# Velocity P-wave (km/s) = 5.30005 6.73765 6.06162
#
# Compressibility (1/GPa) = 0.01802154
#
# Stress axis : x y z
#
# Youngs Moduli (GPa) = 81.08936 101.69411 106.39939
#
# Poissons Ratio (x) = 0.31097 0.12125
# Poissons Ratio (y) = 0.24796 0.27385
# Poissons Ratio (z) = 0.09241 0.26174
#
# Static dielectric constant tensor:
#      x y z
#    x 3.697010 0.000000 0.000000 
#    y 0.000000 4.216220 0.000000 
#    z 0.000000 0.000000 3.891650 
# 
# 
# High freq. dielectric constant tensor:
#      x y z
#    x 1.814480 0.000000 0.000000 
#    y 0.000000 1.836270 0.000000 
#    z 0.000000 0.000000 1.851650 
# 
# From -- ./inp_files/4039.got.cif
#   From: 2010.03.12/outbox.cif.g09.slc.cpg/sg49_3_cif.got.tgz:4039.got - 2010.04.14 03:58:27.
