data_PCOD8204486
_publ_section_title
;
Structure prediction by ZEFSAII (Michael W. Deem and Ramdas Pophale) SiO2 
 PCOD8204486
Probable space group: P C C M
;
_chemical_formula_sum "Si O2"
_cell_formula_units_Z 40
_cell_length_a 12.011989
_cell_length_b 8.259603
_cell_length_c 16.819110
_cell_angle_alpha 90.000000
_cell_angle_beta 90.000000
_cell_angle_gamma 90.000000
_cell_volume 1668.695559
_symmetry_space_group_name_H-M "P C C M"
_symmetry_group_IT_number 49
_symmetry_cell_setting 'orthorhombic'
loop_
_space_group_symop_operation_xyz
x,y,z
-x,-y,z
x,-y,1/2-z
-x,y,1/2-z
-x,-y,-z
x,y,-z
-x,y,1/2+z
x,-y,1/2+z
loop_
_atom_site_type_symbol
_atom_site_label
_atom_site_fract_x
_atom_site_fract_y
_atom_site_fract_z
Si Si1 0.383454 0.431325 0.590002
Si Si2 0.799992 0.865515 0.804861
Si Si3 0.816991 0.384942 0.185844
Si Si4 0.619865 0.047619 0.909583
Si Si5 0.994827 0.193996 0.409238
O O1 0.500000 0.500000 0.626168
O O2 0.374981 0.496219 0.500000
O O3 0.275033 0.492973 0.638242
O O4 0.370374 0.239174 0.594273
O O5 0.747597 0.743333 0.740124
O O6 0.885384 0.762062 0.859165
O O7 0.863607 0.000000 0.750000
O O8 0.708297 0.952969 0.857405
O O9 0.880620 0.500000 0.250000
O O10 0.900539 0.289683 0.127412
O O11 0.500000 0.000000 0.876321
O O12 0.636344 0.986766 0.000000
O O13 0.984045 0.253557 0.500000
O O14 0.000000 0.000000 0.406002
#
# Coordination Sequence:
#
# PCOD8204486 Si02
#       5
#     8   8   8   8   8
#     4  10  22  44  70  97 139 192 241 291 355 430
#     4  12  23  42  69 105 142 184 236 298 360 432
#     4  12  27  44  67 108 148 186 235 302 370 432
#     4  10  22  42  69 103 139 183 243 298 352 428
#     4  11  23  44  76 104 138 191 245 292 356 443
#
# _framework density 23.970818999999999
#
# number of rings (size 3 to 8) (size 9 to 14) (size 15 to 20)
#    0.000    1.000    4.000    1.800    2.800    5.600 
#    0.000    4.000    0.000    0.000    0.000    0.000 
#    0.000    0.000    0.000    0.000    0.000    0.000 
#
# Total GULP energy -495595.526158 kJ/mol
# GULP energy per Si atom -12389.888154 kJ/mol
# Density = 2.391626 g / cm^3
# Si number density = 23.970819 Si / 1000 Ang^3
#
#
#
# Elastic Constant Matrix: (Units=GPa)
#
#
# Indices 1 2 3 4 5 6 
#
# 1 168.0461 28.0866 91.9964 0.0000 0.0000 0.0000
# 2 28.0866 41.2024 40.1471 0.0000 0.0000 0.0000
# 3 91.9964 40.1471 158.4039 0.0000 0.0000 0.0000
# 4 0.0000 0.0000 0.0000 31.9326 0.0000 0.0000
# 5 0.0000 0.0000 0.0000 0.0000 222.2808 0.0000
# 6 0.0000 0.0000 0.0000 0.0000 0.0000 46.6982
#
#
#
# Elastic Compliance Matrix: (Units=1/GPa)
#
#
# Indices 1 2 3 4 5 6 
#
# 1 0.008781 -0.001350 -0.004758 0.000000 0.000000 0.000000
# 2 -0.001350 0.032437 -0.007437 0.000000 0.000000 0.000000
# 3 -0.004758 -0.007437 0.010961 0.000000 0.000000 0.000000
# 4 0.000000 0.000000 0.000000 0.031316 0.000000 0.000000
# 5 0.000000 0.000000 0.000000 0.000000 0.004499 0.000000
# 6 0.000000 0.000000 0.000000 0.000000 0.000000 0.021414
#
#
# Mechanical properties :
#
#
# Convention : Reuss Voigt Hill
#
# Bulk Modulus (GPa) = 39.85677 76.45697 58.15687
# Shear Modulus (GPa) = 34.51592 74.01047 54.26320
#
# Velocity S-wave (km/s) = 3.79874 5.56258 4.76302
# Velocity P-wave (km/s) = 5.99198 8.55695 7.38665
#
# Compressibility (1/GPa) = 0.02508984
#
# Stress axis : x y z
#
# Youngs Moduli (GPa) = 113.88381 30.82863 91.23314
#
# Poissons Ratio (x) = 0.04162 0.43404
# Poissons Ratio (y) = 0.15375 0.67851
# Poissons Ratio (z) = 0.54180 0.22928
#
# Static dielectric constant tensor:
#      x y z
#    x 4.206590 0.000000 0.000000 
#    y 0.000000 4.443090 0.000000 
#    z 0.000000 0.000000 4.761910 
# 
# 
# High freq. dielectric constant tensor:
#      x y z
#    x 1.935250 0.000000 0.000000 
#    y 0.000000 1.955370 0.000000 
#    z 0.000000 0.000000 1.971670 
# 
# From -- ./inp_files/16820.got.cif
#   From: 2010.03.12/outbox.cif.g09.slc.cpg/sg49_9_cif.got.tgz:16820.got - 2010.04.14 03:58:27.
