data_PCOD8204491
_publ_section_title
;
Structure prediction by ZEFSAII (Michael W. Deem and Ramdas Pophale) SiO2 
 PCOD8204491
Probable space group: P C C M
;
_chemical_formula_sum "Si O2"
_cell_formula_units_Z 64
_cell_length_a 14.560811
_cell_length_b 11.825649
_cell_length_c 17.783019
_cell_angle_alpha 90.000000
_cell_angle_beta 90.000000
_cell_angle_gamma 90.000000
_cell_volume 3062.076537
_symmetry_space_group_name_H-M "P C C M"
_symmetry_group_IT_number 49
_symmetry_cell_setting 'orthorhombic'
loop_
_space_group_symop_operation_xyz
x,y,z
-x,-y,z
x,-y,1/2-z
-x,y,1/2-z
-x,-y,-z
x,y,-z
-x,y,1/2+z
x,-y,1/2+z
loop_
_atom_site_type_symbol
_atom_site_label
_atom_site_fract_x
_atom_site_fract_y
_atom_site_fract_z
Si Si1 0.396778 0.024058 0.662270
Si Si2 0.877401 0.530707 0.830455
Si Si3 0.321171 0.266306 0.658622
Si Si4 0.751726 0.861974 0.912687
Si Si5 0.695348 0.650465 0.824396
Si Si6 0.868332 0.699609 0.586593
Si Si7 0.066289 0.753195 0.586339
Si Si8 0.602883 0.484911 0.919619
O O1 0.311145 0.953047 0.629329
O O2 0.500000 0.000000 0.629493
O O3 0.397332 0.000000 0.750000
O O4 0.376768 0.153027 0.641831
O O5 0.922685 0.500000 0.750000
O O6 0.770497 0.552072 0.816338
O O7 0.892732 0.428074 0.888173
O O8 0.920930 0.645171 0.860882
O O9 0.327925 0.288293 0.747303
O O10 0.214152 0.250883 0.636742
O O11 0.369583 0.362651 0.611055
O O12 0.719720 0.738066 0.889598
O O13 0.863112 0.857455 0.893133
O O14 0.735923 0.884200 0.000000
O O15 0.610791 0.580522 0.856016
O O16 0.837450 0.697172 0.500000
O O17 0.957707 0.782325 0.596465
O O18 0.085918 0.718078 0.500000
O O19 0.500000 0.500000 0.942627
O O20 0.657263 0.502457 0.000000
#
# Coordination Sequence:
#
# PCOD8204491 Si02
#       8
#     8   8   8   8   8   8   8   8
#     4  11  26  47  71  98 128 167 218 279 334 392
#     4  11  19  33  54  92 131 170 212 260 310 384
#     4  12  24  42  67  93 131 172 219 270 334 393
#     4  10  22  43  69  93 127 173 221 273 324 385
#     4  11  21  40  62  92 130 172 214 260 324 394
#     4  11  22  38  59  91 132 174 216 264 325 388
#     4   9  21  38  60  89 128 175 220 265 320 386
#     4  11  25  40  60  95 135 172 215 266 329 403
#
# _framework density 20.900849000000001
#
# number of rings (size 3 to 8) (size 9 to 14) (size 15 to 20)
#    0.000    1.250    3.750    1.875    1.750    5.250 
#    0.000    0.625    0.000    3.000    0.000    0.000 
#    0.000    0.000    0.000    0.000    0.000    0.000 
#
# Total GULP energy -792840.039647 kJ/mol
# GULP energy per Si atom -12388.125619 kJ/mol
# Density = 2.085328 g / cm^3
# Si number density = 20.900849 Si / 1000 Ang^3
#
#
#
# Elastic Constant Matrix: (Units=GPa)
#
#
# Indices 1 2 3 4 5 6 
#
# 1 133.2421 58.7073 45.1982 0.0000 0.0000 0.0000
# 2 58.7073 85.8758 37.8203 0.0000 0.0000 0.0000
# 3 45.1982 37.8203 95.6793 0.0000 0.0000 0.0000
# 4 0.0000 0.0000 0.0000 16.2148 0.0000 0.0000
# 5 0.0000 0.0000 0.0000 0.0000 5.1662 0.0000
# 6 0.0000 0.0000 0.0000 0.0000 0.0000 13.8280
#
#
#
# Elastic Compliance Matrix: (Units=1/GPa)
#
#
# Indices 1 2 3 4 5 6 
#
# 1 0.011316 -0.006516 -0.002770 0.000000 0.000000 0.000000
# 2 -0.006516 0.017851 -0.003978 0.000000 0.000000 0.000000
# 3 -0.002770 -0.003978 0.013333 0.000000 0.000000 0.000000
# 4 0.000000 0.000000 0.000000 0.061672 0.000000 0.000000
# 5 0.000000 0.000000 0.000000 0.000000 0.193566 0.000000
# 6 0.000000 0.000000 0.000000 0.000000 0.000000 0.072317
#
#
# Mechanical properties :
#
#
# Convention : Reuss Voigt Hill
#
# Bulk Modulus (GPa) = 62.61122 66.47211 64.54166
# Shear Modulus (GPa) = 12.44071 18.57989 15.51030
#
# Velocity S-wave (km/s) = 2.44237 2.98477 2.72709
# Velocity P-wave (km/s) = 6.16238 6.61446 6.39242
#
# Compressibility (1/GPa) = 0.01597158
#
# Stress axis : x y z
#
# Youngs Moduli (GPa) = 88.37330 56.01866 75.00444
#
# Poissons Ratio (x) = 0.36501 0.20775
# Poissons Ratio (y) = 0.57583 0.29838
# Poissons Ratio (z) = 0.24478 0.22285
#
# Static dielectric constant tensor:
#      x y z
#    x 4.171850 0.000000 0.000000 
#    y 0.000000 3.563780 0.000000 
#    z 0.000000 0.000000 3.855580 
# 
# 
# High freq. dielectric constant tensor:
#      x y z
#    x 1.832270 0.000000 0.000000 
#    y 0.000000 1.790640 0.000000 
#    z 0.000000 0.000000 1.830260 
# 
# From -- ./inp_files/17972.got.cif
#   From: 2010.03.12/outbox.cif.g09.slc.cpg/sg49_9_cif.got.tgz:17972.got - 2010.04.14 03:58:27.
