data_PCOD8204271
_publ_section_title
;
Structure prediction by ZEFSAII (Michael W. Deem and Ramdas Pophale) SiO2 
 PCOD8204271
Probable space group: P C C M
;
_chemical_formula_sum "Si O2"
_cell_formula_units_Z 40
_cell_length_a 9.645937
_cell_length_b 10.774675
_cell_length_c 17.486026
_cell_angle_alpha 90.000000
_cell_angle_beta 90.000000
_cell_angle_gamma 90.000000
_cell_volume 1817.354791
_symmetry_space_group_name_H-M "P C C M"
_symmetry_group_IT_number 49
_symmetry_cell_setting 'orthorhombic'
loop_
_space_group_symop_operation_xyz
x,y,z
-x,-y,z
x,-y,1/2-z
-x,y,1/2-z
-x,-y,-z
x,y,-z
-x,y,1/2+z
x,-y,1/2+z
loop_
_atom_site_type_symbol
_atom_site_label
_atom_site_fract_x
_atom_site_fract_y
_atom_site_fract_z
Si Si1 0.450834 0.711209 0.584875
Si Si2 0.969823 0.208358 0.335703
Si Si3 0.739831 0.054395 0.411649
Si Si4 0.275315 0.790797 0.148342
Si Si5 0.264454 0.629258 0.708395
O O1 0.417386 0.662026 0.500000
O O2 0.380449 0.844694 0.599374
O O3 0.616359 0.720675 0.593523
O O4 0.386667 0.614950 0.645954
O O5 0.888846 0.105644 0.384661
O O6 0.880379 0.335435 0.332564
O O7 0.000000 0.157208 0.250000
O O8 0.116634 0.239969 0.376373
O O9 0.750597 0.012580 0.500000
O O10 0.700293 0.938143 0.358373
O O11 0.302825 0.742593 0.234530
O O12 0.244967 0.500000 0.750000
#
# Coordination Sequence:
#
# PCOD8204271 Si02
#       5
#     8   8   8   8   8
#     4  10  22  40  62  90 125 162 202 250 307 369
#     4   9  21  37  59  89 120 159 208 255 304 367
#     4  10  21  38  59  88 131 170 198 243 311 379
#     4  11  21  34  60  93 121 155 202 252 303 362
#     4  10  23  44  63  84 118 164 209 255 310 371
#
# _framework density 22.010009
#
# number of rings (size 3 to 8) (size 9 to 14) (size 15 to 20)
#    0.000    2.000    0.000    2.400    0.000   18.800 
#    0.000    9.000    0.000    1.200    0.000   35.000 
#    0.000    0.000    0.000    0.000    0.000    0.000 
#
# Total GULP energy -495923.501884 kJ/mol
# GULP energy per Si atom -12398.087547 kJ/mol
# Density = 2.195991 g / cm^3
# Si number density = 22.010009 Si / 1000 Ang^3
#
#
#
# Elastic Constant Matrix: (Units=GPa)
#
#
# Indices 1 2 3 4 5 6 
#
# 1 131.0226 12.5617 36.3604 0.0000 0.0000 0.0000
# 2 12.5617 72.3288 32.1837 0.0000 0.0000 0.0000
# 3 36.3604 32.1837 86.7361 0.0000 0.0000 0.0000
# 4 0.0000 0.0000 0.0000 20.3404 0.0000 0.0000
# 5 0.0000 0.0000 0.0000 0.0000 33.8611 0.0000
# 6 0.0000 0.0000 0.0000 0.0000 0.0000 11.3274
#
#
#
# Elastic Compliance Matrix: (Units=1/GPa)
#
#
# Indices 1 2 3 4 5 6 
#
# 1 0.008638 0.000133 -0.003671 0.000000 0.000000 0.000000
# 2 0.000133 0.016562 -0.006201 0.000000 0.000000 0.000000
# 3 -0.003671 -0.006201 0.015369 0.000000 0.000000 0.000000
# 4 0.000000 0.000000 0.000000 0.049163 0.000000 0.000000
# 5 0.000000 0.000000 0.000000 0.000000 0.029532 0.000000
# 6 0.000000 0.000000 0.000000 0.000000 0.000000 0.088282
#
#
# Mechanical properties :
#
#
# Convention : Reuss Voigt Hill
#
# Bulk Modulus (GPa) = 47.41206 50.25549 48.83378
# Shear Modulus (GPa) = 21.36259 27.03789 24.20024
#
# Velocity S-wave (km/s) = 3.11880 3.50871 3.31948
# Velocity P-wave (km/s) = 5.87853 6.26876 6.07678
#
# Compressibility (1/GPa) = 0.02109168
#
# Stress axis : x y z
#
# Youngs Moduli (GPa) = 115.76575 60.37948 65.06650
#
# Poissons Ratio (x) = -0.00803 0.23883
# Poissons Ratio (y) = -0.01540 0.40349
# Poissons Ratio (z) = 0.42492 0.37442
#
# Static dielectric constant tensor:
#      x y z
#    x 4.319680 0.000000 0.000000 
#    y 0.000000 3.658920 0.000000 
#    z 0.000000 0.000000 3.983310 
# 
# 
# High freq. dielectric constant tensor:
#      x y z
#    x 1.883040 0.000000 0.000000 
#    y 0.000000 1.838400 0.000000 
#    z 0.000000 0.000000 1.854480 
# 
# From -- ./inp_files/16015.got.cif
#   From: 2010.03.12/outbox.cif.g09.slc.cpg/sg49_9_cif.got.tgz:16015.got - 2010.04.14 03:58:27.
