data_PCOD8205231
_publ_section_title
;
Structure prediction by ZEFSAII (Michael W. Deem and Ramdas Pophale) SiO2 
 PCOD8205231
Probable space group: P B A N
;
_chemical_formula_sum "Si O2"
_cell_formula_units_Z 64
_cell_length_a 29.163963
_cell_length_b 8.956607
_cell_length_c 11.607846
_cell_angle_alpha 90.000000
_cell_angle_beta 90.000000
_cell_angle_gamma 90.000000
_cell_volume 3032.087255
_symmetry_space_group_name_H-M "P B A N"
_symmetry_group_IT_number 50
_space_group.IT_coordinate_system_code '2'
_symmetry_cell_setting 'orthorhombic'
loop_
_space_group_symop_operation_xyz
x,y,z
1/2-x,1/2-y,z
x,1/2-y,-z
1/2-x,y,-z
-x,-y,-z
1/2+x,1/2+y,-z
-x,1/2+y,z
1/2+x,-y,z
loop_
_atom_site_type_symbol
_atom_site_label
_atom_site_fract_x
_atom_site_fract_y
_atom_site_fract_z
Si Si1 0.148609 0.914899 0.346129
Si Si2 0.593141 0.988539 0.143698
Si Si3 0.618222 0.598898 0.453206
Si Si4 0.062685 0.302786 0.252954
Si Si5 0.104781 0.941052 0.891030
Si Si6 0.240792 0.079449 0.365309
Si Si7 0.976512 0.285617 0.120986
Si Si8 0.176533 0.905607 0.707211
O O1 0.121472 0.902265 0.227170
O O2 0.169429 0.748508 0.364519
O O3 0.113306 0.970693 0.447980
O O4 0.188475 0.037838 0.339586
O O5 0.539920 0.041597 0.130944
O O6 0.595514 0.828968 0.207295
O O7 0.616297 0.993990 0.017533
O O8 0.641594 0.750000 0.500000
O O9 0.571022 0.653420 0.387903
O O10 0.651872 0.541066 0.356678
O O11 0.073151 0.443625 0.175624
O O12 0.009632 0.254359 0.229884
O O13 0.072516 0.796568 0.886278
O O14 0.153958 0.901471 0.834120
O O15 0.250000 0.250000 0.326094
O O16 0.250000 0.055550 0.500000
O O17 0.270682 0.958911 0.291198
O O18 0.003198 0.250000 0.000000
#
# Coordination Sequence:
#
# PCOD8205231 Si02
#       8
#     8   8   8   8   8   8   8   8
#     4  12  23  40  65  93 124 167 210 255 316 387
#     4  11  22  38  65  91 125 167 209 259 324 380
#     4  11  22  39  60  87 127 168 204 256 308 373
#     4  11  22  36  63  91 126 164 216 266 311 367
#     4  10  22  39  63  94 125 163 210 267 319 375
#     4  11  24  40  67  95 122 159 211 260 307 372
#     4  10  20  39  63  91 123 163 218 271 315 373
#     4  11  23  40  66  93 127 159 210 261 313 375
#
# _framework density 21.107572999999999
#
# number of rings (size 3 to 8) (size 9 to 14) (size 15 to 20)
#    0.000    1.125    3.750    3.375    1.750    2.500 
#    0.000    1.250    2.750    2.250    0.000    0.000 
#    0.000    0.000    0.000    0.000    0.000    0.000 
#
# Total GULP energy -793004.092982 kJ/mol
# GULP energy per Si atom -12390.688953 kJ/mol
# Density = 2.105953 g / cm^3
# Si number density = 21.107573 Si / 1000 Ang^3
#
#
#
# Elastic Constant Matrix: (Units=GPa)
#
#
# Indices 1 2 3 4 5 6 
#
# 1 81.8684 21.8600 50.5134 0.0000 0.0000 0.0000
# 2 21.8600 108.8636 38.4445 0.0000 0.0000 0.0000
# 3 50.5134 38.4445 124.4647 0.0000 0.0000 0.0000
# 4 0.0000 0.0000 0.0000 23.0527 0.0000 0.0000
# 5 0.0000 0.0000 0.0000 0.0000 29.8732 0.0000
# 6 0.0000 0.0000 0.0000 0.0000 0.0000 23.1011
#
#
#
# Elastic Compliance Matrix: (Units=1/GPa)
#
#
# Indices 1 2 3 4 5 6 
#
# 1 0.016403 -0.001058 -0.006330 0.000000 0.000000 0.000000
# 2 -0.001058 0.010379 -0.002776 0.000000 0.000000 0.000000
# 3 -0.006330 -0.002776 0.011461 0.000000 0.000000 0.000000
# 4 0.000000 0.000000 0.000000 0.043379 0.000000 0.000000
# 5 0.000000 0.000000 0.000000 0.000000 0.033475 0.000000
# 6 0.000000 0.000000 0.000000 0.000000 0.000000 0.043288
#
#
# Mechanical properties :
#
#
# Convention : Reuss Voigt Hill
#
# Bulk Modulus (GPa) = 55.82450 59.64805 57.73627
# Shear Modulus (GPa) = 27.07309 28.83065 27.95187
#
# Velocity S-wave (km/s) = 3.58526 3.69981 3.64298
# Velocity P-wave (km/s) = 6.60635 6.82436 6.71624
#
# Compressibility (1/GPa) = 0.01791328
#
# Stress axis : x y z
#
# Youngs Moduli (GPa) = 60.96408 96.35089 87.25224
#
# Poissons Ratio (x) = 0.10197 0.55233
# Poissons Ratio (y) = 0.06452 0.24224
# Poissons Ratio (z) = 0.38592 0.26750
#
# Static dielectric constant tensor:
#      x y z
#    x 3.731210 0.000000 0.000000 
#    y 0.000000 3.984080 0.000000 
#    z 0.000000 0.000000 4.049480 
# 
# 
# High freq. dielectric constant tensor:
#      x y z
#    x 1.798000 0.000000 0.000000 
#    y 0.000000 1.851940 0.000000 
#    z 0.000000 0.000000 1.814120 
# 
# From -- ./inp_files/23392.got.cif
#   From: 2010.03.12/outbox.cif.g09.slc.cpg/sg50_12_cif.got.tgz:23392.got - 2010.04.16 13:23:21.
