data_PCOD8205456
_publ_section_title
;
Structure prediction by ZEFSAII (Michael W. Deem and Ramdas Pophale) SiO2 
 PCOD8205456
Probable space group: P B A N
;
_chemical_formula_sum "Si O2"
_cell_formula_units_Z 32
_cell_length_a 16.076162
_cell_length_b 5.233385
_cell_length_c 18.093326
_cell_angle_alpha 90.000000
_cell_angle_beta 90.000000
_cell_angle_gamma 90.000000
_cell_volume 1522.241184
_symmetry_space_group_name_H-M "P B A N"
_symmetry_group_IT_number 50
_space_group.IT_coordinate_system_code '2'
_symmetry_cell_setting 'orthorhombic'
loop_
_space_group_symop_operation_xyz
x,y,z
1/2-x,1/2-y,z
x,1/2-y,-z
1/2-x,y,-z
-x,-y,-z
1/2+x,1/2+y,-z
-x,1/2+y,z
1/2+x,-y,z
loop_
_atom_site_type_symbol
_atom_site_label
_atom_site_fract_x
_atom_site_fract_y
_atom_site_fract_z
Si Si1 0.200474 0.989238 0.641059
Si Si2 0.250000 0.750000 0.000000
Si Si3 0.553892 0.750000 0.000000
Si Si4 0.443950 0.521894 0.748524
Si Si5 0.831228 0.895950 0.117746
Si Si6 0.250000 0.750000 0.500000
O O1 0.250000 0.250000 0.657082
O O2 0.250000 0.750000 0.678678
O O3 0.107095 0.001896 0.672273
O O4 0.193425 0.932144 0.552687
O O5 0.309692 0.591511 0.947148
O O6 0.606643 0.794112 0.075394
O O7 0.500000 0.500000 0.000000
O O8 0.505739 0.283927 0.753295
O O9 0.376342 0.529322 0.813924
O O10 0.750000 0.750000 0.148303
#
# Coordination Sequence:
#
# PCOD8205456 Si02
#       6
#     8   2   4   8   8   2
#     4  10  21  43  73 106 136 182 234 271 329 409
#     4  12  24  42  72  92 124 164 250 290 342 388
#     4  12  24  42  63  93 130 166 214 288 352 398
#     4  12  28  46  68 103 144 183 223 287 357 408
#     4  12  26  44  67  97 128 183 239 286 342 420
#     4   8  22  38  82 104 134 182 236 272 326 394
#
# _framework density 21.021636999999998
#
# number of rings (size 3 to 8) (size 9 to 14) (size 15 to 20)
#    0.750    0.000    2.500    4.875    5.250    0.000 
#    0.000    1.250    0.000    0.000    0.000    0.000 
#    0.000    0.000    0.000    0.000    0.000    0.000 
#
# Total GULP energy -396675.512882 kJ/mol
# GULP energy per Si atom -12396.109778 kJ/mol
# Density = 2.097379 g / cm^3
# Si number density = 21.021637 Si / 1000 Ang^3
#
#
#
# Elastic Constant Matrix: (Units=GPa)
#
#
# Indices 1 2 3 4 5 6 
#
# 1 118.6745 39.8742 55.9161 0.0000 0.0000 0.0000
# 2 39.8742 118.8000 21.6305 0.0000 0.0000 0.0000
# 3 55.9161 21.6305 130.3017 0.0000 0.0000 0.0000
# 4 0.0000 0.0000 0.0000 39.6936 0.0000 0.0000
# 5 0.0000 0.0000 0.0000 0.0000 4.7857 0.0000
# 6 0.0000 0.0000 0.0000 0.0000 0.0000 20.6259
#
#
#
# Elastic Compliance Matrix: (Units=1/GPa)
#
#
# Indices 1 2 3 4 5 6 
#
# 1 0.011553 -0.003068 -0.004449 0.000000 0.000000 0.000000
# 2 -0.003068 0.009494 -0.000260 0.000000 0.000000 0.000000
# 3 -0.004449 -0.000260 0.009627 0.000000 0.000000 0.000000
# 4 0.000000 0.000000 0.000000 0.025193 0.000000 0.000000
# 5 0.000000 0.000000 0.000000 0.000000 0.208956 0.000000
# 6 0.000000 0.000000 0.000000 0.000000 0.000000 0.048483
#
#
# Mechanical properties :
#
#
# Convention : Reuss Voigt Hill
#
# Bulk Modulus (GPa) = 66.12731 66.95751 66.54241
# Shear Modulus (GPa) = 14.97458 29.71139 22.34299
#
# Velocity S-wave (km/s) = 2.67187 3.76356 3.26369
# Velocity P-wave (km/s) = 6.40653 7.12788 6.77681
#
# Compressibility (1/GPa) = 0.01512235
#
# Stress axis : x y z
#
# Youngs Moduli (GPa) = 86.55612 105.32466 103.87889
#
# Poissons Ratio (x) = 0.32311 0.46211
# Poissons Ratio (y) = 0.26553 0.02697
# Poissons Ratio (z) = 0.38505 0.02735
#
# Static dielectric constant tensor:
#      x y z
#    x 3.464060 0.000000 0.000000 
#    y 0.000000 3.847870 0.000000 
#    z 0.000000 0.000000 3.799970 
# 
# 
# High freq. dielectric constant tensor:
#      x y z
#    x 1.826810 0.000000 0.000000 
#    y 0.000000 1.836050 0.000000 
#    z 0.000000 0.000000 1.820140 
# 
# From -- ./inp_files/27990.got.cif
#   From: 2010.03.12/outbox.cif.g09.slc.cpg/sg50_14_cif.got.tgz:27990.got - 2010.04.16 13:23:21.
