data_PCOD8205479
_publ_section_title
;
Structure prediction by ZEFSAII (Michael W. Deem and Ramdas Pophale) SiO2 
 PCOD8205479
Probable space group: P B A N
;
_chemical_formula_sum "Si O2"
_cell_formula_units_Z 48
_cell_length_a 15.132003
_cell_length_b 15.826010
_cell_length_c 8.714668
_cell_angle_alpha 90.000000
_cell_angle_beta 90.000000
_cell_angle_gamma 90.000000
_cell_volume 2086.981989
_symmetry_space_group_name_H-M "P B A N"
_symmetry_group_IT_number 50
_space_group.IT_coordinate_system_code '2'
_symmetry_cell_setting 'orthorhombic'
loop_
_space_group_symop_operation_xyz
x,y,z
1/2-x,1/2-y,z
x,1/2-y,-z
1/2-x,y,-z
-x,-y,-z
1/2+x,1/2+y,-z
-x,1/2+y,z
1/2+x,-y,z
loop_
_atom_site_type_symbol
_atom_site_label
_atom_site_fract_x
_atom_site_fract_y
_atom_site_fract_z
Si Si1 0.428885 0.405844 0.638840
Si Si2 0.527107 0.118608 0.915899
Si Si3 0.782791 0.108388 0.671579
Si Si4 0.418782 0.461874 0.317960
Si Si5 0.323573 0.000265 0.125096
Si Si6 0.557580 0.211906 0.224304
O O1 0.396035 0.402223 0.463390
O O2 0.489674 0.488657 0.657943
O O3 0.347807 0.420993 0.760623
O O4 0.485140 0.319079 0.652625
O O5 0.432655 0.091102 0.840616
O O6 0.587318 0.036128 0.953137
O O7 0.564841 0.187884 0.794220
O O8 0.516626 0.164797 0.076444
O O9 0.750000 0.126795 0.500000
O O10 0.701981 0.086392 0.782866
O O11 0.842343 0.186115 0.729996
O O12 0.836466 0.022358 0.693510
O O13 0.250000 0.028257 0.000000
#
# Coordination Sequence:
#
# PCOD8205479 Si02
#       6
#     8   8   8   8   8   8
#     4   9  19  35  56  81 109 148 197 238 272 339
#     4  10  22  38  55  83 117 157 193 234 287 347
#     4  11  21  37  58  87 117 149 187 241 296 343
#     4   9  19  35  57  79 111 147 196 239 275 335
#     4  11  21  35  58  87 115 151 190 239 297 343
#     4  10  22  38  56  82 118 155 195 234 283 352
#
# _framework density 22.999718000000001
#
# number of rings (size 3 to 8) (size 9 to 14) (size 15 to 20)
#    0.000    2.000    3.333    0.000    4.667    3.333 
#    0.000    0.833    0.000    1.000    0.000    0.000 
#    0.000    0.000    0.000    0.000    0.000    0.000 
#
# Total GULP energy -594636.303820 kJ/mol
# GULP energy per Si atom -12388.256330 kJ/mol
# Density = 2.294737 g / cm^3
# Si number density = 22.999718 Si / 1000 Ang^3
#
#
#
# Elastic Constant Matrix: (Units=GPa)
#
#
# Indices 1 2 3 4 5 6 
#
# 1 61.3934 19.6032 19.1557 0.0000 0.0000 0.0000
# 2 19.6032 40.5894 7.1157 0.0000 0.0000 0.0000
# 3 19.1557 7.1157 89.4749 0.0000 0.0000 0.0000
# 4 0.0000 0.0000 0.0000 30.8907 0.0000 0.0000
# 5 0.0000 0.0000 0.0000 0.0000 35.1731 0.0000
# 6 0.0000 0.0000 0.0000 0.0000 0.0000 24.1383
#
#
#
# Elastic Compliance Matrix: (Units=1/GPa)
#
#
# Indices 1 2 3 4 5 6 
#
# 1 0.020356 -0.009195 -0.003627 0.000000 0.000000 0.000000
# 2 -0.009195 0.029139 -0.000349 0.000000 0.000000 0.000000
# 3 -0.003627 -0.000349 0.011981 0.000000 0.000000 0.000000
# 4 0.000000 0.000000 0.000000 0.032372 0.000000 0.000000
# 5 0.000000 0.000000 0.000000 0.000000 0.028431 0.000000
# 6 0.000000 0.000000 0.000000 0.000000 0.000000 0.041428
#
#
# Mechanical properties :
#
#
# Convention : Reuss Voigt Hill
#
# Bulk Modulus (GPa) = 28.46246 31.46742 29.96494
# Shear Modulus (GPa) = 24.78192 27.74596 26.26394
#
# Velocity S-wave (km/s) = 3.28607 3.47704 3.38290
# Velocity P-wave (km/s) = 5.17684 5.46178 5.32122
#
# Compressibility (1/GPa) = 0.03513400
#
# Stress axis : x y z
#
# Youngs Moduli (GPa) = 49.12523 34.31802 83.46895
#
# Poissons Ratio (x) = 0.31557 0.30272
# Poissons Ratio (y) = 0.45173 0.02911
# Poissons Ratio (z) = 0.17817 0.01197
#
# Static dielectric constant tensor:
#      x y z
#    x 4.131670 0.000000 0.000000 
#    y 0.000000 3.853150 0.000000 
#    z 0.000000 0.000000 4.482330 
# 
# 
# High freq. dielectric constant tensor:
#      x y z
#    x 1.890680 0.000000 0.000000 
#    y 0.000000 1.870530 0.000000 
#    z 0.000000 0.000000 1.928030 
# 
# From -- ./inp_files/12952.got.cif
#   From: 2010.03.12/outbox.cif.g09.slc.cpg/sg50_7_cif.got.tgz:12952.got - 2010.04.16 13:23:21.
