data_PCOD8205544
_publ_section_title
;
Structure prediction by ZEFSAII (Michael W. Deem and Ramdas Pophale) SiO2 
 PCOD8205544
Probable space group: P B A N
;
_chemical_formula_sum "Si O2"
_cell_formula_units_Z 34
_cell_length_a 8.706175
_cell_length_b 9.769593
_cell_length_c 16.771452
_cell_angle_alpha 90.000000
_cell_angle_beta 90.000000
_cell_angle_gamma 90.000000
_cell_volume 1426.509038
_symmetry_space_group_name_H-M "P B A N"
_symmetry_group_IT_number 50
_space_group.IT_coordinate_system_code '2'
_symmetry_cell_setting 'orthorhombic'
loop_
_space_group_symop_operation_xyz
x,y,z
1/2-x,1/2-y,z
x,1/2-y,-z
1/2-x,y,-z
-x,-y,-z
1/2+x,1/2+y,-z
-x,1/2+y,z
1/2+x,-y,z
loop_
_atom_site_type_symbol
_atom_site_label
_atom_site_fract_x
_atom_site_fract_y
_atom_site_fract_z
Si Si1 0.322634 0.027369 0.844903
Si Si2 0.941222 0.609767 0.738327
Si Si3 0.922910 0.115232 0.051601
Si Si4 0.893859 0.331487 0.652632
Si Si5 0.750000 0.250000 0.500000
O O1 0.402462 0.917846 0.787018
O O2 0.241935 0.936369 0.914959
O O3 0.199706 0.121601 0.799721
O O4 0.453445 0.134262 0.876339
O O5 0.907358 0.486675 0.678059
O O6 0.956882 0.747327 0.684740
O O7 0.900465 0.250000 0.000000
O O8 0.000000 0.000000 0.000000
O O9 0.750000 0.250000 0.691542
O O10 0.866526 0.336648 0.556592
#
# Coordination Sequence:
#
# PCOD8205544 Si02
#       5
#     8   8   8   8   2
#     4  10  24  42  69  98 127 177 225 278 344 398
#     4  11  22  43  71 100 135 176 228 281 333 397
#     4  11  26  43  63  93 134 168 221 276 343 406
#     4  10  22  42  66 102 142 175 221 276 333 396
#     4   8  20  44  64 100 148 188 206 276 348 388
#
# _framework density 23.834409000000001
#
# number of rings (size 3 to 8) (size 9 to 14) (size 15 to 20)
#    0.706    0.941    2.353    0.706    0.000   16.941 
#    0.000    3.529    0.000    2.824    0.000    0.000 
#    0.000    0.000    0.000    0.000    0.000    0.000 
#
# Total GULP energy -421347.090539 kJ/mol
# GULP energy per Si atom -12392.561486 kJ/mol
# Density = 2.378016 g / cm^3
# Si number density = 23.834409 Si / 1000 Ang^3
#
#
#
# Elastic Constant Matrix: (Units=GPa)
#
#
# Indices 1 2 3 4 5 6 
#
# 1 110.0654 8.5721 28.1288 0.0000 0.0000 0.0000
# 2 8.5721 83.6136 25.2344 0.0000 0.0000 0.0000
# 3 28.1288 25.2344 107.0405 0.0000 0.0000 0.0000
# 4 0.0000 0.0000 0.0000 21.7702 0.0000 0.0000
# 5 0.0000 0.0000 0.0000 0.0000 34.6726 0.0000
# 6 0.0000 0.0000 0.0000 0.0000 0.0000 26.8311
#
#
#
# Elastic Compliance Matrix: (Units=1/GPa)
#
#
# Indices 1 2 3 4 5 6 
#
# 1 0.009744 -0.000244 -0.002503 0.000000 0.000000 0.000000
# 2 -0.000244 0.012882 -0.002973 0.000000 0.000000 0.000000
# 3 -0.002503 -0.002973 0.010701 0.000000 0.000000 0.000000
# 4 0.000000 0.000000 0.000000 0.045934 0.000000 0.000000
# 5 0.000000 0.000000 0.000000 0.000000 0.028841 0.000000
# 6 0.000000 0.000000 0.000000 0.000000 0.000000 0.037270
#
#
# Mechanical properties :
#
#
# Convention : Reuss Voigt Hill
#
# Bulk Modulus (GPa) = 45.68751 47.17668 46.43210
# Shear Modulus (GPa) = 30.46774 32.57372 31.52073
#
# Velocity S-wave (km/s) = 3.57922 3.70086 3.64055
# Velocity P-wave (km/s) = 6.02424 6.17238 6.09876
#
# Compressibility (1/GPa) = 0.02188782
#
# Stress axis : x y z
#
# Youngs Moduli (GPa) = 102.62498 77.62800 93.44986
#
# Poissons Ratio (x) = 0.01890 0.23393
# Poissons Ratio (y) = 0.02499 0.27782
# Poissons Ratio (z) = 0.25690 0.23078
#
# Static dielectric constant tensor:
#      x y z
#    x 5.069680 0.000000 0.000000 
#    y 0.000000 3.629250 0.000000 
#    z 0.000000 0.000000 4.426760 
# 
# 
# High freq. dielectric constant tensor:
#      x y z
#    x 1.960010 0.000000 0.000000 
#    y 0.000000 1.930010 0.000000 
#    z 0.000000 0.000000 1.942930 
# 
# From -- ./inp_files/30537.got.cif
#   From: 2010.03.12/outbox.cif.g09.slc.cpg/sg50_16_cif.got.tgz:30537.got - 2010.04.16 13:23:21.
