data_PCOD8205912
_publ_section_title
;
Structure prediction by ZEFSAII (Michael W. Deem and Ramdas Pophale) SiO2 
 PCOD8205912
Probable space group: P B A N
;
_chemical_formula_sum "Si O2"
_cell_formula_units_Z 34
_cell_length_a 7.855937
_cell_length_b 10.705586
_cell_length_c 13.870090
_cell_angle_alpha 90.000000
_cell_angle_beta 90.000000
_cell_angle_gamma 90.000000
_cell_volume 1166.507984
_symmetry_space_group_name_H-M "P B A N"
_symmetry_group_IT_number 50
_space_group.IT_coordinate_system_code '2'
_symmetry_cell_setting 'orthorhombic'
loop_
_space_group_symop_operation_xyz
x,y,z
1/2-x,1/2-y,z
x,1/2-y,-z
1/2-x,y,-z
-x,-y,-z
1/2+x,1/2+y,-z
-x,1/2+y,z
1/2+x,-y,z
loop_
_atom_site_type_symbol
_atom_site_label
_atom_site_fract_x
_atom_site_fract_y
_atom_site_fract_z
Si Si1 0.491213 0.920093 0.095791
Si Si2 0.250000 0.250000 0.000000
Si Si3 0.181453 0.897216 0.217713
Si Si4 0.134090 0.531985 0.406335
Si Si5 0.944015 0.766558 0.346538
O O1 0.630475 0.815301 0.078243
O O2 0.303179 0.868806 0.124631
O O3 0.537757 0.005153 0.186729
O O4 0.500000 0.000000 0.000000
O O5 0.262758 0.964917 0.308335
O O6 0.078580 0.771471 0.254419
O O7 0.250000 0.541874 0.500000
O O8 0.036368 0.397278 0.406217
O O9 0.998864 0.647531 0.410583
O O10 0.750000 0.750000 0.311651
#
# Coordination Sequence:
#
# PCOD8205912 Si02
#       5
#     8   2   8   8   8
#     4  12  27  56  87 134 176 238 310 386 482 551
#     4  12  28  52 106 122 192 244 308 400 484 568
#     4  12  27  54  88 132 186 236 312 386 467 560
#     4  12  31  59  90 139 192 249 318 389 471 564
#     4  12  30  58  93 135 191 258 320 385 473 561
#
# _framework density 29.146820999999999
#
# number of rings (size 3 to 8) (size 9 to 14) (size 15 to 20)
#    0.000    0.000    4.706    2.118    0.000   13.647 
#    6.353    2.353    0.000    0.000    0.000    0.000 
#    0.000    0.000    0.000    0.000    0.000    0.000 
#
# Total GULP energy -421424.120230 kJ/mol
# GULP energy per Si atom -12394.827066 kJ/mol
# Density = 2.908048 g / cm^3
# Si number density = 29.146821 Si / 1000 Ang^3
#
#
#
# Elastic Constant Matrix: (Units=GPa)
#
#
# Indices 1 2 3 4 5 6 
#
# 1 203.4596 64.4172 89.2960 0.0000 0.0000 0.0000
# 2 64.4172 189.1489 48.9227 0.0000 0.0000 0.0000
# 3 89.2960 48.9227 169.3478 0.0000 0.0000 0.0000
# 4 0.0000 0.0000 0.0000 -13.3519 0.0000 0.0000
# 5 0.0000 0.0000 0.0000 0.0000 70.4237 0.0000
# 6 0.0000 0.0000 0.0000 0.0000 0.0000 79.2391
#
#
#
# Elastic Compliance Matrix: (Units=1/GPa)
#
#
# Indices 1 2 3 4 5 6 
#
# 1 0.006764 -0.001493 -0.003135 0.000000 0.000000 0.000000
# 2 -0.001493 0.006043 -0.000959 0.000000 0.000000 0.000000
# 3 -0.003135 -0.000959 0.007835 0.000000 0.000000 0.000000
# 4 0.000000 0.000000 0.000000 -0.074896 0.000000 0.000000
# 5 0.000000 0.000000 0.000000 0.000000 0.014200 0.000000
# 6 0.000000 0.000000 0.000000 0.000000 0.000000 0.012620
#
#
# Mechanical properties :
#
#
# Convention : Reuss Voigt Hill
#
# Bulk Modulus (GPa) = 105.60992 107.46978 106.53985
# Shear Modulus (GPa) = -381.53415 51.21688 -165.15863
#
# Velocity S-wave (km/s) = -11.45360 4.19645 -7.53574
# Velocity P-wave (km/s) = 11.77289 7.77381 6.25175
#
# Compressibility (1/GPa) = 0.00946881
#
# Stress axis : x y z
#
# Youngs Moduli (GPa) = 147.85204 165.47739 127.62974
#
# Poissons Ratio (x) = 0.24698 0.40014
# Poissons Ratio (y) = 0.22067 0.12237
# Poissons Ratio (z) = 0.46354 0.15866
#
# Static dielectric constant tensor:
#      x y z
#    x 5.801840 0.000000 0.000000 
#    y 0.000000 5.907220 0.000000 
#    z 0.000000 0.000000 5.075310 
# 
# 
# High freq. dielectric constant tensor:
#      x y z
#    x 2.211580 0.000000 0.000000 
#    y 0.000000 2.199360 0.000000 
#    z 0.000000 0.000000 2.196710 
# 
# From -- ./inp_files/24475.got.cif
#   From: 2010.03.12/outbox.cif.g09.slc.cpg/sg50_13_cif.got.tgz:24475.got - 2010.04.16 13:23:21.
