data_PCOD8205238
_publ_section_title
;
Structure prediction by ZEFSAII (Michael W. Deem and Ramdas Pophale) SiO2 
 PCOD8205238
Probable space group: P B A N
;
_chemical_formula_sum "Si O2"
_cell_formula_units_Z 64
_cell_length_a 12.558009
_cell_length_b 23.489431
_cell_length_c 10.605568
_cell_angle_alpha 90.000000
_cell_angle_beta 90.000000
_cell_angle_gamma 90.000000
_cell_volume 3128.435602
_symmetry_space_group_name_H-M "P B A N"
_symmetry_group_IT_number 50
_space_group.IT_coordinate_system_code '2'
_symmetry_cell_setting 'orthorhombic'
loop_
_space_group_symop_operation_xyz
x,y,z
1/2-x,1/2-y,z
x,1/2-y,-z
1/2-x,y,-z
-x,-y,-z
1/2+x,1/2+y,-z
-x,1/2+y,z
1/2+x,-y,z
loop_
_atom_site_type_symbol
_atom_site_label
_atom_site_fract_x
_atom_site_fract_y
_atom_site_fract_z
Si Si1 0.872419 0.400854 0.245035
Si Si2 0.876902 0.655409 0.016029
Si Si3 0.978858 0.673971 0.284472
Si Si4 0.366330 0.346051 0.538607
Si Si5 0.554012 0.535600 0.393786
Si Si6 0.863022 0.074558 0.263173
Si Si7 0.015889 0.202450 0.778109
Si Si8 0.454194 0.938512 0.998087
O O1 0.755140 0.405897 0.303994
O O2 0.957232 0.433516 0.327462
O O3 0.909511 0.335852 0.224983
O O4 0.868789 0.432617 0.112226
O O5 0.899318 0.663576 0.165610
O O6 0.940352 0.599204 0.974410
O O7 0.750000 0.648852 0.000000
O O8 0.922425 0.702147 0.914817
O O9 0.927602 0.680054 0.420490
O O10 0.030824 0.734741 0.249769
O O11 0.059031 0.622616 0.316525
O O12 0.250000 0.327730 0.500000
O O13 0.369808 0.415094 0.551918
O O14 0.401393 0.317056 0.669752
O O15 0.500000 0.500000 0.500000
O O16 0.617380 0.490392 0.307561
O O17 0.882943 0.078056 0.115615
O O18 0.500000 0.000000 0.000000
#
# Coordination Sequence:
#
# PCOD8205238 Si02
#       8
#     8   8   8   8   8   8   8   8
#     4  10  23  41  63  90 124 162 201 252 312 362
#     4  10  22  38  63  93 124 164 207 255 317 366
#     4  11  23  41  63  91 125 164 213 257 302 371
#     4  11  24  40  64  91 124 166 205 253 316 369
#     4  11  23  41  59  89 125 155 202 253 302 364
#     4  11  23  39  66  91 122 164 203 249 312 371
#     4  10  23  43  61  90 130 160 210 266 299 364
#     4  10  20  40  58  91 127 157 203 252 302 373
#
# _framework density 20.457508000000001
#
# number of rings (size 3 to 8) (size 9 to 14) (size 15 to 20)
#    0.000    1.500    2.500    1.875    1.750    4.500 
#    0.000    0.000    0.000    6.000    0.000    0.000 
#    0.000    0.000    0.000    0.000    0.000    0.000 
#
# Total GULP energy -792899.911963 kJ/mol
# GULP energy per Si atom -12389.061124 kJ/mol
# Density = 2.041095 g / cm^3
# Si number density = 20.457508 Si / 1000 Ang^3
#
#
#
# Elastic Constant Matrix: (Units=GPa)
#
#
# Indices 1 2 3 4 5 6 
#
# 1 95.2394 5.7344 7.5445 0.0000 0.0000 0.0000
# 2 5.7344 92.8303 -1.8461 0.0000 0.0000 0.0000
# 3 7.5445 -1.8461 87.7485 0.0000 0.0000 0.0000
# 4 0.0000 0.0000 0.0000 35.0590 0.0000 0.0000
# 5 0.0000 0.0000 0.0000 0.0000 15.7029 0.0000
# 6 0.0000 0.0000 0.0000 0.0000 0.0000 8.1209
#
#
#
# Elastic Compliance Matrix: (Units=1/GPa)
#
#
# Indices 1 2 3 4 5 6 
#
# 1 0.010614 -0.000674 -0.000927 0.000000 0.000000 0.000000
# 2 -0.000674 0.010820 0.000286 0.000000 0.000000 0.000000
# 3 -0.000927 0.000286 0.011482 0.000000 0.000000 0.000000
# 4 0.000000 0.000000 0.000000 0.028523 0.000000 0.000000
# 5 0.000000 0.000000 0.000000 0.000000 0.063683 0.000000
# 6 0.000000 0.000000 0.000000 0.000000 0.000000 0.123140
#
#
# Mechanical properties :
#
#
# Convention : Reuss Voigt Hill
#
# Bulk Modulus (GPa) = 33.01971 33.18708 33.10339
# Shear Modulus (GPa) = 19.15809 29.40225 24.28017
#
# Velocity S-wave (km/s) = 3.06352 3.79520 3.44882
# Velocity P-wave (km/s) = 5.35623 5.95503 5.66355
#
# Compressibility (1/GPa) = 0.03028494
#
# Stress axis : x y z
#
# Youngs Moduli (GPa) = 94.21644 92.42429 87.09366
#
# Poissons Ratio (x) = 0.06230 0.08071
# Poissons Ratio (y) = 0.06351 -0.02487
# Poissons Ratio (z) = 0.08731 -0.02640
#
# Static dielectric constant tensor:
#      x y z
#    x 3.444400 0.000000 0.000000 
#    y 0.000000 3.925230 0.000000 
#    z 0.000000 0.000000 4.219940 
# 
# 
# High freq. dielectric constant tensor:
#      x y z
#    x 1.780080 0.000000 0.000000 
#    y 0.000000 1.810800 0.000000 
#    z 0.000000 0.000000 1.819260 
# 
# From -- ./inp_files/20526.got.cif
#   From: 2010.03.12/outbox.cif.g09.slc.cpg/sg50_11_cif.got.tgz:20526.got - 2010.04.16 13:23:21.
