data_PCOD8205774
_publ_section_title
;
Structure prediction by ZEFSAII (Michael W. Deem and Ramdas Pophale) SiO2 
 PCOD8205774
Probable space group: P B A N
;
_chemical_formula_sum "Si O2"
_cell_formula_units_Z 48
_cell_length_a 11.778811
_cell_length_b 17.430582
_cell_length_c 10.934233
_cell_angle_alpha 90.000000
_cell_angle_beta 90.000000
_cell_angle_gamma 90.000000
_cell_volume 2244.924118
_symmetry_space_group_name_H-M "P B A N"
_symmetry_group_IT_number 50
_space_group.IT_coordinate_system_code '2'
_symmetry_cell_setting 'orthorhombic'
loop_
_space_group_symop_operation_xyz
x,y,z
1/2-x,1/2-y,z
x,1/2-y,-z
1/2-x,y,-z
-x,-y,-z
1/2+x,1/2+y,-z
-x,1/2+y,z
1/2+x,-y,z
loop_
_atom_site_type_symbol
_atom_site_label
_atom_site_fract_x
_atom_site_fract_y
_atom_site_fract_z
Si Si1 0.781395 0.334382 0.142794
Si Si2 0.572003 0.632792 0.776934
Si Si3 0.797102 0.608417 0.633573
Si Si4 0.622278 0.465626 0.241142
Si Si5 0.467248 0.191814 0.216501
Si Si6 0.124589 0.414114 0.036174
O O1 0.750000 0.250000 0.193178
O O2 0.714791 0.401513 0.210185
O O3 0.913571 0.347207 0.177140
O O4 0.750000 0.339503 0.000000
O O5 0.699965 0.631961 0.730397
O O6 0.487908 0.577189 0.700706
O O7 0.520948 0.717701 0.774674
O O8 0.554077 0.598476 0.912910
O O9 0.750000 0.625612 0.500000
O O10 0.825668 0.519071 0.652632
O O11 0.911368 0.658747 0.657424
O O12 0.582789 0.517038 0.124247
O O13 0.379600 0.166238 0.110300
O O14 0.250000 0.436454 0.000000
#
# Coordination Sequence:
#
# PCOD8205774 Si02
#       6
#     8   8   8   8   8   8
#     4  11  23  41  65 106 148 181 215 270 349 436
#     4  12  23  42  67  99 137 177 230 286 346 418
#     4  11  28  47  70  97 132 185 242 301 344 402
#     4  11  24  42  66  97 138 180 224 276 351 423
#     4  11  24  42  69 100 138 182 225 285 348 414
#     4  11  22  37  62 101 139 175 215 276 342 430
#
# _framework density 21.381568000000001
#
# number of rings (size 3 to 8) (size 9 to 14) (size 15 to 20)
#    0.000    0.833    5.000    3.000    7.000    2.667 
#    0.000    0.000    0.000    0.500    0.000    0.000 
#    0.000    0.000    0.000    0.000    0.000    0.000 
#
# Total GULP energy -594863.487194 kJ/mol
# GULP energy per Si atom -12392.989317 kJ/mol
# Density = 2.133290 g / cm^3
# Si number density = 21.381568 Si / 1000 Ang^3
#
#
#
# Elastic Constant Matrix: (Units=GPa)
#
#
# Indices 1 2 3 4 5 6 
#
# 1 117.3998 44.8272 33.3053 0.0000 0.0000 0.0000
# 2 44.8272 118.2741 22.3030 0.0000 0.0000 0.0000
# 3 33.3053 22.3030 91.8068 0.0000 0.0000 0.0000
# 4 0.0000 0.0000 0.0000 1.8257 0.0000 0.0000
# 5 0.0000 0.0000 0.0000 0.0000 27.0169 0.0000
# 6 0.0000 0.0000 0.0000 0.0000 0.0000 35.7720
#
#
#
# Elastic Compliance Matrix: (Units=1/GPa)
#
#
# Indices 1 2 3 4 5 6 
#
# 1 0.010711 -0.003487 -0.003039 0.000000 0.000000 0.000000
# 2 -0.003487 0.009996 -0.001163 0.000000 0.000000 0.000000
# 3 -0.003039 -0.001163 0.012277 0.000000 0.000000 0.000000
# 4 0.000000 0.000000 0.000000 0.547743 0.000000 0.000000
# 5 0.000000 0.000000 0.000000 0.000000 0.037014 0.000000
# 6 0.000000 0.000000 0.000000 0.000000 0.000000 0.027955
#
#
# Mechanical properties :
#
#
# Convention : Reuss Voigt Hill
#
# Bulk Modulus (GPa) = 56.79620 58.70574 57.75097
# Shear Modulus (GPa) = 7.49689 28.05926 17.77807
#
# Velocity S-wave (km/s) = 1.87453 3.62651 2.88665
# Velocity P-wave (km/s) = 5.59517 6.71203 6.17889
#
# Compressibility (1/GPa) = 0.01760681
#
# Stress axis : x y z
#
# Youngs Moduli (GPa) = 93.35926 100.04188 81.44995
#
# Poissons Ratio (x) = 0.34881 0.24751
# Poissons Ratio (y) = 0.32551 0.09476
# Poissons Ratio (z) = 0.28370 0.11639
#
# Static dielectric constant tensor:
#      x y z
#    x 4.020900 0.000000 0.000000 
#    y 0.000000 4.056240 0.000000 
#    z 0.000000 0.000000 3.574230 
# 
# 
# High freq. dielectric constant tensor:
#      x y z
#    x 1.852690 0.000000 0.000000 
#    y 0.000000 1.856850 0.000000 
#    z 0.000000 0.000000 1.794060 
# 
# From -- ./inp_files/20203.got.cif
#   From: 2010.03.12/outbox.cif.g09.slc.cpg/sg50_11_cif.got.tgz:20203.got - 2010.04.16 13:23:21.
