data_PCOD8205164
_publ_section_title
;
Structure prediction by ZEFSAII (Michael W. Deem and Ramdas Pophale) SiO2 
 PCOD8205164
Probable space group: P B A N
;
_chemical_formula_sum "Si O2"
_cell_formula_units_Z 58
_cell_length_a 9.257014
_cell_length_b 10.655325
_cell_length_c 27.535850
_cell_angle_alpha 90.000000
_cell_angle_beta 90.000000
_cell_angle_gamma 90.000000
_cell_volume 2716.039668
_symmetry_space_group_name_H-M "P B A N"
_symmetry_group_IT_number 50
_space_group.IT_coordinate_system_code '2'
_symmetry_cell_setting 'orthorhombic'
loop_
_space_group_symop_operation_xyz
x,y,z
1/2-x,1/2-y,z
x,1/2-y,-z
1/2-x,y,-z
-x,-y,-z
1/2+x,1/2+y,-z
-x,1/2+y,z
1/2+x,-y,z
loop_
_atom_site_type_symbol
_atom_site_label
_atom_site_fract_x
_atom_site_fract_y
_atom_site_fract_z
Si Si1 0.484951 0.499959 0.385259
Si Si2 0.868481 0.072726 0.221340
Si Si3 0.250000 0.750000 0.000000
Si Si4 0.769489 0.609148 0.943190
Si Si5 0.434976 0.658449 0.186726
Si Si6 0.267093 0.892016 0.324653
Si Si7 0.419821 0.601689 0.080739
Si Si8 0.269199 0.107210 0.447552
O O1 0.394385 0.567243 0.342043
O O2 0.609452 0.407116 0.365462
O O3 0.363186 0.426226 0.413404
O O4 0.573646 0.589246 0.422288
O O5 0.718402 0.093841 0.194838
O O6 0.957358 0.206321 0.214378
O O7 0.827507 0.038237 0.277073
O O8 0.946947 0.947565 0.201308
O O9 0.353071 0.828129 0.965191
O O10 0.750000 0.750000 0.924650
O O11 0.664434 0.526948 0.909892
O O12 0.924904 0.553437 0.933816
O O13 0.750000 0.595680 0.000000
O O14 0.434397 0.686705 0.129005
O O15 0.250000 0.750000 0.309041
O O16 0.250000 0.250000 0.458993
O O17 0.250000 0.036157 0.500000
#
# Coordination Sequence:
#
# PCOD8205164 Si02
#       8
#     8   8   2   8   8   8   8   8
#     4  10  22  36  60  93 121 171 218 262 324 378
#     4  11  24  46  67  98 128 174 212 277 333 398
#     4  12  24  40  72  96 128 172 214 254 324 380
#     4  11  25  43  65  96 130 164 215 258 313 380
#     4  11  25  45  69  95 134 165 221 260 331 401
#     4  11  21  39  63  87 128 161 216 273 320 384
#     4  12  26  43  69  95 133 170 211 264 316 389
#     4  10  20  37  58  88 130 169 214 266 318 379
#
# _framework density 21.354621000000002
#
# number of rings (size 3 to 8) (size 9 to 14) (size 15 to 20)
#    0.000    1.103    2.069    4.966    3.862    0.552 
#    0.000    0.000    0.000    6.621    0.000    0.000 
#    0.000    0.000    0.000    0.000    0.000    0.000 
#
# Total GULP energy -718533.840081 kJ/mol
# GULP energy per Si atom -12388.514484 kJ/mol
# Density = 2.130602 g / cm^3
# Si number density = 21.354621 Si / 1000 Ang^3
#
#
#
# Elastic Constant Matrix: (Units=GPa)
#
#
# Indices 1 2 3 4 5 6 
#
# 1 133.1239 27.7083 32.7063 0.0000 0.0000 0.0000
# 2 27.7083 73.3456 24.5789 0.0000 0.0000 0.0000
# 3 32.7063 24.5789 124.2250 0.0000 0.0000 0.0000
# 4 0.0000 0.0000 0.0000 38.4426 0.0000 0.0000
# 5 0.0000 0.0000 0.0000 0.0000 24.7723 0.0000
# 6 0.0000 0.0000 0.0000 0.0000 0.0000 29.6803
#
#
#
# Elastic Compliance Matrix: (Units=1/GPa)
#
#
# Indices 1 2 3 4 5 6 
#
# 1 0.008480 -0.002630 -0.001712 0.000000 0.000000 0.000000
# 2 -0.002630 0.015418 -0.002358 0.000000 0.000000 0.000000
# 3 -0.001712 -0.002358 0.008967 0.000000 0.000000 0.000000
# 4 0.000000 0.000000 0.000000 0.026013 0.000000 0.000000
# 5 0.000000 0.000000 0.000000 0.000000 0.040368 0.000000
# 6 0.000000 0.000000 0.000000 0.000000 0.000000 0.033692
#
#
# Mechanical properties :
#
#
# Convention : Reuss Voigt Hill
#
# Bulk Modulus (GPa) = 51.37528 55.63127 53.50327
# Shear Modulus (GPa) = 32.71690 34.95911 33.83801
#
# Velocity S-wave (km/s) = 3.91842 4.05047 3.98499
# Velocity P-wave (km/s) = 6.67701 6.92696 6.80313
#
# Compressibility (1/GPa) = 0.01946461
#
# Stress axis : x y z
#
# Youngs Moduli (GPa) = 117.92707 64.86020 111.51610
#
# Poissons Ratio (x) = 0.17056 0.19095
# Poissons Ratio (y) = 0.31011 0.26298
# Poissons Ratio (z) = 0.20193 0.15295
#
# Static dielectric constant tensor:
#      x y z
#    x 4.121510 0.000000 0.000000 
#    y 0.000000 4.019460 0.000000 
#    z 0.000000 0.000000 4.512570 
# 
# 
# High freq. dielectric constant tensor:
#      x y z
#    x 1.850460 0.000000 0.000000 
#    y 0.000000 1.825880 0.000000 
#    z 0.000000 0.000000 1.850820 
# 
# From -- ./inp_files/32144.got.cif
#   From: 2010.03.12/outbox.cif.g09.slc.cpg/sg50_17_cif.got.tgz:32144.got - 2010.04.16 13:23:21.
