data_PCOD8205547
_publ_section_title
;
Structure prediction by ZEFSAII (Michael W. Deem and Ramdas Pophale) SiO2 
 PCOD8205547
Probable space group: P B A N
;
_chemical_formula_sum "Si O2"
_cell_formula_units_Z 56
_cell_length_a 15.327479
_cell_length_b 14.632053
_cell_length_c 11.596571
_cell_angle_alpha 90.000000
_cell_angle_beta 90.000000
_cell_angle_gamma 90.000000
_cell_volume 2600.791797
_symmetry_space_group_name_H-M "P B A N"
_symmetry_group_IT_number 50
_space_group.IT_coordinate_system_code '2'
_symmetry_cell_setting 'orthorhombic'
loop_
_space_group_symop_operation_xyz
x,y,z
1/2-x,1/2-y,z
x,1/2-y,-z
1/2-x,y,-z
-x,-y,-z
1/2+x,1/2+y,-z
-x,1/2+y,z
1/2+x,-y,z
loop_
_atom_site_type_symbol
_atom_site_label
_atom_site_fract_x
_atom_site_fract_y
_atom_site_fract_z
Si Si1 0.404491 0.967039 0.492827
Si Si2 0.918722 0.052836 0.242630
Si Si3 0.513724 0.234757 0.868213
Si Si4 0.920227 0.088690 0.740738
Si Si5 0.843226 0.841036 0.541895
Si Si6 0.260522 0.504674 0.128335
Si Si7 0.828262 0.681271 0.198860
O O1 0.393391 0.912846 0.372383
O O2 0.386330 0.906779 0.607092
O O3 0.500000 0.000000 0.500000
O O4 0.354516 0.062620 0.478990
O O5 0.943407 0.139665 0.167545
O O6 0.832757 0.005343 0.191476
O O7 0.000929 0.983360 0.240901
O O8 0.547299 0.313085 0.782709
O O9 0.408818 0.231008 0.862218
O O10 0.542015 0.250000 0.000000
O O11 0.833757 0.065527 0.811418
O O12 0.900025 0.750000 0.500000
O O13 0.750000 0.811110 0.500000
O O14 0.859034 0.858090 0.677418
O O15 0.294706 0.400972 0.120229
O O16 0.250000 0.543320 0.000000
O O17 0.750000 0.750000 0.221268
#
# Coordination Sequence:
#
# PCOD8205547 Si02
#       7
#     8   8   8   8   8   8   8
#     4  10  22  42  66  99 138 185 225 289 361 423
#     4  11  25  47  71 104 142 187 235 297 361 412
#     4  12  28  46  70  97 145 192 236 295 348 414
#     4  11  25  47  69 105 143 182 243 293 354 429
#     4  11  21  37  65 100 139 177 216 286 358 421
#     4  12  26  43  73  99 141 194 239 288 346 422
#     4  12  24  40  63 111 136 180 241 288 359 418
#
# _framework density 21.531904999999998
#
# number of rings (size 3 to 8) (size 9 to 14) (size 15 to 20)
#    0.000    0.714    4.286    3.429    8.000    2.286 
#    0.000    1.429    0.000    1.714    0.000    0.000 
#    0.000    0.000    0.000    0.000    0.000    0.000 
#
# Total GULP energy -693927.022055 kJ/mol
# GULP energy per Si atom -12391.553965 kJ/mol
# Density = 2.148290 g / cm^3
# Si number density = 21.531905 Si / 1000 Ang^3
#
#
#
# Elastic Constant Matrix: (Units=GPa)
#
#
# Indices 1 2 3 4 5 6 
#
# 1 94.3548 13.5695 25.8317 0.0000 0.0000 0.0000
# 2 13.5695 77.6136 13.2872 0.0000 0.0000 0.0000
# 3 25.8317 13.2872 153.0149 0.0000 0.0000 0.0000
# 4 0.0000 0.0000 0.0000 33.6394 0.0000 0.0000
# 5 0.0000 0.0000 0.0000 0.0000 29.5481 0.0000
# 6 0.0000 0.0000 0.0000 0.0000 0.0000 31.6614
#
#
#
# Elastic Compliance Matrix: (Units=1/GPa)
#
#
# Indices 1 2 3 4 5 6 
#
# 1 0.011323 -0.001677 -0.001766 0.000000 0.000000 0.000000
# 2 -0.001677 0.013327 -0.000874 0.000000 0.000000 0.000000
# 3 -0.001766 -0.000874 0.006909 0.000000 0.000000 0.000000
# 4 0.000000 0.000000 0.000000 0.029727 0.000000 0.000000
# 5 0.000000 0.000000 0.000000 0.000000 0.033843 0.000000
# 6 0.000000 0.000000 0.000000 0.000000 0.000000 0.031584
#
#
# Mechanical properties :
#
#
# Convention : Reuss Voigt Hill
#
# Bulk Modulus (GPa) = 43.62071 47.81779 45.71925
# Shear Modulus (GPa) = 34.96744 37.12277 36.04511
#
# Velocity S-wave (km/s) = 4.03424 4.15671 4.09593
# Velocity P-wave (km/s) = 6.48095 6.73006 6.60668
#
# Compressibility (1/GPa) = 0.02292489
#
# Stress axis : x y z
#
# Youngs Moduli (GPa) = 88.31606 75.03429 144.73193
#
# Poissons Ratio (x) = 0.12586 0.25558
# Poissons Ratio (y) = 0.14814 0.12651
# Poissons Ratio (z) = 0.15595 0.06559
#
# Static dielectric constant tensor:
#      x y z
#    x 3.890030 0.000000 0.000000 
#    y 0.000000 3.634800 0.000000 
#    z 0.000000 0.000000 3.187640 
# 
# 
# High freq. dielectric constant tensor:
#      x y z
#    x 1.844750 0.000000 0.000000 
#    y 0.000000 1.840310 0.000000 
#    z 0.000000 0.000000 1.858940 
# 
# From -- ./inp_files/21140.got.cif
#   From: 2010.03.12/outbox.cif.g09.slc.cpg/sg50_11_cif.got.tgz:21140.got - 2010.04.16 13:23:21.
