data_PCOD8205147
_publ_section_title
;
Structure prediction by ZEFSAII (Michael W. Deem and Ramdas Pophale) SiO2 
 PCOD8205147
Probable space group: P B A N
;
_chemical_formula_sum "Si O2"
_cell_formula_units_Z 48
_cell_length_a 11.628447
_cell_length_b 22.815424
_cell_length_c 9.009795
_cell_angle_alpha 90.000000
_cell_angle_beta 90.000000
_cell_angle_gamma 90.000000
_cell_volume 2390.370230
_symmetry_space_group_name_H-M "P B A N"
_symmetry_group_IT_number 50
_space_group.IT_coordinate_system_code '2'
_symmetry_cell_setting 'orthorhombic'
loop_
_space_group_symop_operation_xyz
x,y,z
1/2-x,1/2-y,z
x,1/2-y,-z
1/2-x,y,-z
-x,-y,-z
1/2+x,1/2+y,-z
-x,1/2+y,z
1/2+x,-y,z
loop_
_atom_site_type_symbol
_atom_site_label
_atom_site_fract_x
_atom_site_fract_y
_atom_site_fract_z
Si Si1 0.892414 0.894086 0.662003
Si Si2 0.466082 0.829044 0.846031
Si Si3 0.966295 0.194249 0.190562
Si Si4 0.623952 0.593005 0.323990
Si Si5 0.945295 0.478712 0.844674
Si Si6 0.233790 0.620734 0.161307
O O1 0.924048 0.902051 0.490320
O O2 0.759961 0.906512 0.686383
O O3 0.925067 0.827696 0.712336
O O4 0.962469 0.938147 0.764985
O O5 0.447123 0.762850 0.792400
O O6 0.582694 0.852091 0.773418
O O7 0.365374 0.872983 0.780040
O O8 0.482920 0.829745 0.022899
O O9 0.851690 0.162286 0.255438
O O10 0.575831 0.533457 0.258594
O O11 0.822125 0.444238 0.858597
O O12 0.000000 0.500000 0.000000
O O13 0.250000 0.650586 0.000000
#
# Coordination Sequence:
#
# PCOD8205147 Si02
#       6
#     8   8   8   8   8   8
#     4  10  24  43  56  84 121 161 207 242 311 363
#     4  10  20  36  62  92 117 155 204 251 310 352
#     4   9  19  38  61  87 122 154 200 259 297 367
#     4  11  24  39  60  84 121 164 201 250 299 375
#     4  11  23  38  63  88 121 157 201 257 301 367
#     4   9  18  34  58  92 119 152 193 248 310 355
#
# _framework density 20.080572
#
# number of rings (size 3 to 8) (size 9 to 14) (size 15 to 20)
#    0.000    2.000    0.000    4.000    4.667    5.333 
#    0.000    5.833    0.000    4.000    0.000    0.000 
#    0.000    0.000    0.000    0.000    0.000    0.000 
#
# Total GULP energy -594802.202816 kJ/mol
# GULP energy per Si atom -12391.712559 kJ/mol
# Density = 2.003487 g / cm^3
# Si number density = 20.080572 Si / 1000 Ang^3
#
#
#
# Elastic Constant Matrix: (Units=GPa)
#
#
# Indices 1 2 3 4 5 6 
#
# 1 75.3051 50.2554 57.3587 0.0000 0.0000 0.0000
# 2 50.2554 116.5012 55.1474 0.0000 0.0000 0.0000
# 3 57.3587 55.1474 95.9228 0.0000 0.0000 0.0000
# 4 0.0000 0.0000 0.0000 24.5565 0.0000 0.0000
# 5 0.0000 0.0000 0.0000 0.0000 29.3817 0.0000
# 6 0.0000 0.0000 0.0000 0.0000 0.0000 30.1655
#
#
#
# Elastic Compliance Matrix: (Units=1/GPa)
#
#
# Indices 1 2 3 4 5 6 
#
# 1 0.026677 -0.005436 -0.012827 0.000000 0.000000 0.000000
# 2 -0.005436 0.012901 -0.004166 0.000000 0.000000 0.000000
# 3 -0.012827 -0.004166 0.020490 0.000000 0.000000 0.000000
# 4 0.000000 0.000000 0.000000 0.040722 0.000000 0.000000
# 5 0.000000 0.000000 0.000000 0.000000 0.034035 0.000000
# 6 0.000000 0.000000 0.000000 0.000000 0.000000 0.033150
#
#
# Mechanical properties :
#
#
# Convention : Reuss Voigt Hill
#
# Bulk Modulus (GPa) = 65.74635 68.13913 66.94274
# Shear Modulus (GPa) = 22.94596 25.15193 24.04895
#
# Velocity S-wave (km/s) = 3.38404 3.54298 3.46442
# Velocity P-wave (km/s) = 6.93407 7.12344 7.02940
#
# Compressibility (1/GPa) = 0.01520997
#
# Stress axis : x y z
#
# Youngs Moduli (GPa) = 37.48552 77.51517 48.80375
#
# Poissons Ratio (x) = 0.42137 0.62599
# Poissons Ratio (y) = 0.20377 0.20333
# Poissons Ratio (z) = 0.48082 0.32295
#
# Static dielectric constant tensor:
#      x y z
#    x 4.021460 0.000000 0.000000 
#    y 0.000000 3.765540 0.000000 
#    z 0.000000 0.000000 3.615300 
# 
# 
# High freq. dielectric constant tensor:
#      x y z
#    x 1.793660 0.000000 0.000000 
#    y 0.000000 1.788690 0.000000 
#    z 0.000000 0.000000 1.765480 
# 
# From -- ./inp_files/11520.got.cif
#   From: 2010.03.12/outbox.cif.g09.slc.cpg/sg50_6_cif.got.tgz:11520.got - 2010.04.16 13:23:21.
