data_PCOD8205407
_publ_section_title
;
Structure prediction by ZEFSAII (Michael W. Deem and Ramdas Pophale) SiO2 
 PCOD8205407
Probable space group: P B A N
;
_chemical_formula_sum "Si O2"
_cell_formula_units_Z 54
_cell_length_a 14.137065
_cell_length_b 12.094633
_cell_length_c 15.921942
_cell_angle_alpha 90.000000
_cell_angle_beta 90.000000
_cell_angle_gamma 90.000000
_cell_volume 2722.375245
_symmetry_space_group_name_H-M "P B A N"
_symmetry_group_IT_number 50
_space_group.IT_coordinate_system_code '2'
_symmetry_cell_setting 'orthorhombic'
loop_
_space_group_symop_operation_xyz
x,y,z
1/2-x,1/2-y,z
x,1/2-y,-z
1/2-x,y,-z
-x,-y,-z
1/2+x,1/2+y,-z
-x,1/2+y,z
1/2+x,-y,z
loop_
_atom_site_type_symbol
_atom_site_label
_atom_site_fract_x
_atom_site_fract_y
_atom_site_fract_z
Si Si1 0.750610 0.064146 0.095734
Si Si2 0.586363 0.134535 0.399639
Si Si3 0.632471 0.891760 0.354920
Si Si4 0.714259 0.629555 0.225983
Si Si5 0.520950 0.728354 0.250771
Si Si6 0.750000 0.250000 0.500000
Si Si7 0.570778 0.750000 0.500000
Si Si8 0.100146 0.745224 0.904622
O O1 0.834833 0.149243 0.112734
O O2 0.653769 0.129922 0.113498
O O3 0.761154 0.958948 0.155071
O O4 0.750000 0.021688 0.000000
O O5 0.567053 0.189556 0.308538
O O6 0.684585 0.176560 0.439231
O O7 0.497185 0.157801 0.459211
O O8 0.592295 0.004564 0.389842
O O9 0.735406 0.905560 0.313221
O O10 0.560519 0.844279 0.285360
O O11 0.638877 0.805266 0.431511
O O12 0.750000 0.750000 0.195312
O O13 0.602817 0.634670 0.246996
O O14 0.488878 0.751357 0.156206
O O15 0.062955 0.750000 0.000000
#
# Coordination Sequence:
#
# PCOD8205407 Si02
#       8
#     8   8   8   8   8   2   4   8
#     4   9  19  38  63  87 118 159 201 252 308 356
#     4  10  21  41  63  89 121 151 202 255 302 360
#     4  10  21  40  60  85 120 161 196 245 304 362
#     4  10  22  40  54  86 126 160 205 240 299 378
#     4  10  22  38  58  91 122 159 203 246 298 359
#     4  10  24  44  58  98 116 152 206 248 308 364
#     4   9  20  41  64  88 118 150 205 251 305 363
#     4   9  19  39  65  94 119 154 209 256 302 356
#
# _framework density 19.835619999999999
#
# number of rings (size 3 to 8) (size 9 to 14) (size 15 to 20)
#    0.000    2.370    0.000    2.222    2.074    2.667 
#   21.333    2.963    0.000    0.000    0.000    0.000 
#    0.000    0.000    0.000    0.000    0.000    0.000 
#
# Total GULP energy -669590.331157 kJ/mol
# GULP energy per Si atom -12399.820947 kJ/mol
# Density = 1.979047 g / cm^3
# Si number density = 19.835620 Si / 1000 Ang^3
#
#
#
# Elastic Constant Matrix: (Units=GPa)
#
#
# Indices 1 2 3 4 5 6 
#
# 1 92.2851 36.2734 72.2660 0.0000 0.0000 0.0000
# 2 36.2734 124.4739 65.4255 0.0000 0.0000 0.0000
# 3 72.2660 65.4255 149.5985 0.0000 0.0000 0.0000
# 4 0.0000 0.0000 0.0000 33.2575 0.0000 0.0000
# 5 0.0000 0.0000 0.0000 0.0000 28.8694 0.0000
# 6 0.0000 0.0000 0.0000 0.0000 0.0000 7.0707
#
#
#
# Elastic Compliance Matrix: (Units=1/GPa)
#
#
# Indices 1 2 3 4 5 6 
#
# 1 0.017498 -0.000852 -0.008080 0.000000 0.000000 0.000000
# 2 -0.000852 0.010473 -0.004169 0.000000 0.000000 0.000000
# 3 -0.008080 -0.004169 0.012411 0.000000 0.000000 0.000000
# 4 0.000000 0.000000 0.000000 0.030068 0.000000 0.000000
# 5 0.000000 0.000000 0.000000 0.000000 0.034639 0.000000
# 6 0.000000 0.000000 0.000000 0.000000 0.000000 0.141429
#
#
# Mechanical properties :
#
#
# Convention : Reuss Voigt Hill
#
# Bulk Modulus (GPa) = 70.51974 79.36526 74.94250
# Shear Modulus (GPa) = 18.02144 26.66570 22.34357
#
# Velocity S-wave (km/s) = 3.01747 3.67049 3.35988
# Velocity P-wave (km/s) = 6.91154 7.61982 7.27431
#
# Compressibility (1/GPa) = 0.01418043
#
# Stress axis : x y z
#
# Youngs Moduli (GPa) = 57.14849 95.48082 80.57396
#
# Poissons Ratio (x) = 0.08137 0.65105
# Poissons Ratio (y) = 0.04870 0.33589
# Poissons Ratio (z) = 0.46177 0.39804
#
# Static dielectric constant tensor:
#      x y z
#    x 3.531440 0.000000 0.000000 
#    y 0.000000 3.485860 0.000000 
#    z 0.000000 0.000000 3.722420 
# 
# 
# High freq. dielectric constant tensor:
#      x y z
#    x 1.765440 0.000000 0.000000 
#    y 0.000000 1.769440 0.000000 
#    z 0.000000 0.000000 1.783730 
# 
# From -- ./inp_files/26545.got.cif
#   From: 2010.03.12/outbox.cif.g09.slc.cpg/sg50_14_cif.got.tgz:26545.got - 2010.04.16 13:23:21.
