data_PCOD8205294
_publ_section_title
;
Structure prediction by ZEFSAII (Michael W. Deem and Ramdas Pophale) SiO2 
 PCOD8205294
Probable space group: P B A N
;
_chemical_formula_sum "Si O2"
_cell_formula_units_Z 32
_cell_length_a 5.163402
_cell_length_b 33.013662
_cell_length_c 8.711571
_cell_angle_alpha 90.000000
_cell_angle_beta 90.000000
_cell_angle_gamma 90.000000
_cell_volume 1484.998858
_symmetry_space_group_name_H-M "P B A N"
_symmetry_group_IT_number 50
_space_group.IT_coordinate_system_code '2'
_symmetry_cell_setting 'orthorhombic'
loop_
_space_group_symop_operation_xyz
x,y,z
1/2-x,1/2-y,z
x,1/2-y,-z
1/2-x,y,-z
-x,-y,-z
1/2+x,1/2+y,-z
-x,1/2+y,z
1/2+x,-y,z
loop_
_atom_site_type_symbol
_atom_site_label
_atom_site_fract_x
_atom_site_fract_y
_atom_site_fract_z
Si Si1 0.003499 0.912610 0.900818
Si Si2 0.999357 0.704959 0.432524
Si Si3 0.007997 0.819794 0.902853
Si Si4 0.795829 0.522728 0.319355
O O1 0.054884 0.866270 0.853290
O O2 0.930182 0.936736 0.746068
O O3 0.750000 0.917023 0.000000
O O4 0.250000 0.929014 0.000000
O O5 0.999552 0.750000 0.500000
O O6 0.250000 0.681694 0.500000
O O7 0.750000 0.681398 0.500000
O O8 0.992112 0.707081 0.249358
O O9 0.750000 0.813633 0.000000
O O10 0.250000 0.803585 0.000000
O O11 0.750000 0.527485 0.500000
O O12 0.504501 0.511776 0.263478
#
# Coordination Sequence:
#
# PCOD8205294 Si02
#       4
#     8   8   8   8
#     4  10  21  36  56  82 109 144 191 234 280 336
#     4  10  21  39  59  86 117 146 187 234 281 342
#     4  10  21  39  60  84 116 152 191 237 287 340
#     4  10  21  36  53  78 112 147 186 231 282 337
#
# _framework density 21.548839000000001
#
# number of rings (size 3 to 8) (size 9 to 14) (size 15 to 20)
#    0.000    2.000    0.000    3.000    0.000    4.000 
#    0.000   18.750    0.000    0.000    0.000    0.000 
#    0.000    0.000    0.000    0.000    0.000    0.000 
#
# Total GULP energy -396424.483300 kJ/mol
# GULP energy per Si atom -12388.265103 kJ/mol
# Density = 2.149979 g / cm^3
# Si number density = 21.548839 Si / 1000 Ang^3
#
#
#
# Elastic Constant Matrix: (Units=GPa)
#
#
# Indices 1 2 3 4 5 6 
#
# 1 198.1655 25.1040 74.6883 0.0000 0.0000 0.0000
# 2 25.1040 55.7628 51.8327 0.0000 0.0000 0.0000
# 3 74.6883 51.8327 144.8950 0.0000 0.0000 0.0000
# 4 0.0000 0.0000 0.0000 6.5772 0.0000 0.0000
# 5 0.0000 0.0000 0.0000 0.0000 40.9288 0.0000
# 6 0.0000 0.0000 0.0000 0.0000 0.0000 21.7174
#
#
#
# Elastic Compliance Matrix: (Units=1/GPa)
#
#
# Indices 1 2 3 4 5 6 
#
# 1 0.006266 0.000272 -0.003327 0.000000 0.000000 0.000000
# 2 0.000272 0.026878 -0.009755 0.000000 0.000000 0.000000
# 3 -0.003327 -0.009755 0.012106 0.000000 0.000000 0.000000
# 4 0.000000 0.000000 0.000000 0.152041 0.000000 0.000000
# 5 0.000000 0.000000 0.000000 0.000000 0.024433 0.000000
# 6 0.000000 0.000000 0.000000 0.000000 0.000000 0.046046
#
#
# Mechanical properties :
#
#
# Convention : Reuss Voigt Hill
#
# Bulk Modulus (GPa) = 50.94379 78.00814 64.47596
# Shear Modulus (GPa) = 16.67030 30.32455 23.49743
#
# Velocity S-wave (km/s) = 2.78439 3.75540 3.30574
# Velocity P-wave (km/s) = 5.83348 7.42181 6.67506
#
# Compressibility (1/GPa) = 0.01962948
#
# Stress axis : x y z
#
# Youngs Moduli (GPa) = 159.59637 37.20456 82.60245
#
# Poissons Ratio (x) = -0.01011 0.27482
# Poissons Ratio (y) = -0.04336 0.80580
# Poissons Ratio (z) = 0.53098 0.36294
#
# Static dielectric constant tensor:
#      x y z
#    x 3.248410 0.000000 0.000000 
#    y 0.000000 3.633160 0.000000 
#    z 0.000000 0.000000 4.368770 
# 
# 
# High freq. dielectric constant tensor:
#      x y z
#    x 1.884770 0.000000 0.000000 
#    y 0.000000 1.808430 0.000000 
#    z 0.000000 0.000000 1.842460 
# 
# From -- ./inp_files/8008.got.cif
#   From: 2010.03.12/outbox.cif.g09.slc.cpg/sg50_5_cif.got.tgz:8008.got - 2010.04.16 13:23:21.
