data_PCOD8205764
_publ_section_title
;
Structure prediction by ZEFSAII (Michael W. Deem and Ramdas Pophale) SiO2 
 PCOD8205764
Probable space group: P B A N
;
_chemical_formula_sum "Si O2"
_cell_formula_units_Z 58
_cell_length_a 16.722966
_cell_length_b 9.370818
_cell_length_c 17.084462
_cell_angle_alpha 90.000000
_cell_angle_beta 90.000000
_cell_angle_gamma 90.000000
_cell_volume 2677.269664
_symmetry_space_group_name_H-M "P B A N"
_symmetry_group_IT_number 50
_space_group.IT_coordinate_system_code '2'
_symmetry_cell_setting 'orthorhombic'
loop_
_space_group_symop_operation_xyz
x,y,z
1/2-x,1/2-y,z
x,1/2-y,-z
1/2-x,y,-z
-x,-y,-z
1/2+x,1/2+y,-z
-x,1/2+y,z
1/2+x,-y,z
loop_
_atom_site_type_symbol
_atom_site_label
_atom_site_fract_x
_atom_site_fract_y
_atom_site_fract_z
Si Si1 0.932399 0.277048 0.251049
Si Si2 0.655345 0.907666 0.510316
Si Si3 0.345089 0.992226 0.649748
Si Si4 0.617243 0.754917 0.259279
Si Si5 0.894010 0.645402 0.091686
Si Si6 0.455139 0.829632 0.924862
Si Si7 0.750000 0.750000 0.000000
Si Si8 0.667008 0.025327 0.676054
O O1 0.908535 0.426033 0.290373
O O2 0.917279 0.276051 0.157158
O O3 0.880345 0.158586 0.292343
O O4 0.023390 0.256259 0.272744
O O5 0.617076 0.750000 0.500000
O O6 0.750000 0.896232 0.500000
O O7 0.626290 0.015651 0.440889
O O8 0.629580 0.973247 0.593531
O O9 0.257903 0.924417 0.663643
O O10 0.340961 0.160687 0.669802
O O11 0.633127 0.844642 0.181013
O O12 0.658039 0.599173 0.258851
O O13 0.944249 0.501499 0.070800
O O14 0.950343 0.784529 0.073378
O O15 0.809234 0.646524 0.047708
O O16 0.413933 0.750000 0.000000
#
# Coordination Sequence:
#
# PCOD8205764 Si02
#       8
#     8   8   8   8   8   8   2   8
#     4  11  25  41  62  98 134 167 215 269 337 396
#     4   9  18  36  63  93 124 170 223 268 326 397
#     4  11  21  42  65  92 130 169 223 273 323 394
#     4  11  23  41  65  93 130 175 214 263 319 401
#     4  11  26  45  72 101 135 179 226 273 337 395
#     4  11  24  47  74  94 132 187 223 261 334 421
#     4  12  28  44  70 108 140 156 238 292 328 384
#     4  11  23  39  68  96 126 175 221 274 328 389
#
# _framework density 21.663862000000002
#
# number of rings (size 3 to 8) (size 9 to 14) (size 15 to 20)
#    0.000    1.241    3.448    2.069    7.724    0.552 
#    0.000    6.552    0.000    0.000    0.000    0.000 
#    0.000    0.000    0.000    0.000    0.000    0.000 
#
# Total GULP energy -718939.372773 kJ/mol
# GULP energy per Si atom -12395.506427 kJ/mol
# Density = 2.161455 g / cm^3
# Si number density = 21.663862 Si / 1000 Ang^3
#
#
#
# Elastic Constant Matrix: (Units=GPa)
#
#
# Indices 1 2 3 4 5 6 
#
# 1 84.9088 33.9047 48.4373 0.0000 0.0000 0.0000
# 2 33.9047 89.8220 36.5200 0.0000 0.0000 0.0000
# 3 48.4373 36.5200 141.5026 0.0000 0.0000 0.0000
# 4 0.0000 0.0000 0.0000 28.9682 0.0000 0.0000
# 5 0.0000 0.0000 0.0000 0.0000 29.6371 0.0000
# 6 0.0000 0.0000 0.0000 0.0000 0.0000 35.8463
#
#
#
# Elastic Compliance Matrix: (Units=1/GPa)
#
#
# Indices 1 2 3 4 5 6 
#
# 1 0.015967 -0.004251 -0.004368 0.000000 0.000000 0.000000
# 2 -0.004251 0.013570 -0.002047 0.000000 0.000000 0.000000
# 3 -0.004368 -0.002047 0.009091 0.000000 0.000000 0.000000
# 4 0.000000 0.000000 0.000000 0.034521 0.000000 0.000000
# 5 0.000000 0.000000 0.000000 0.000000 0.033742 0.000000
# 6 0.000000 0.000000 0.000000 0.000000 0.000000 0.027897
#
#
# Mechanical properties :
#
#
# Convention : Reuss Voigt Hill
#
# Bulk Modulus (GPa) = 57.82133 61.55082 59.68608
# Shear Modulus (GPa) = 30.88631 32.04843 31.46737
#
# Velocity S-wave (km/s) = 3.77995 3.85040 3.81534
# Velocity P-wave (km/s) = 6.76748 6.94557 6.85710
#
# Compressibility (1/GPa) = 0.01729466
#
# Stress axis : x y z
#
# Youngs Moduli (GPa) = 62.63023 73.69207 110.00246
#
# Poissons Ratio (x) = 0.31325 0.48054
# Poissons Ratio (y) = 0.26623 0.22519
# Poissons Ratio (z) = 0.27360 0.15086
#
# Static dielectric constant tensor:
#      x y z
#    x 3.664310 0.000000 0.000000 
#    y 0.000000 3.801690 0.000000 
#    z 0.000000 0.000000 4.383890 
# 
# 
# High freq. dielectric constant tensor:
#      x y z
#    x 1.825250 0.000000 0.000000 
#    y 0.000000 1.847370 0.000000 
#    z 0.000000 0.000000 1.874170 
# 
# From -- ./inp_files/29714.got.cif
#   From: 2010.03.12/outbox.cif.g09.slc.cpg/sg50_15_cif.got.tgz:29714.got - 2010.04.16 13:23:21.
