data_PCOD8205562
_publ_section_title
;
Structure prediction by ZEFSAII (Michael W. Deem and Ramdas Pophale) SiO2 
 PCOD8205562
Probable space group: P B A N
;
_chemical_formula_sum "Si O2"
_cell_formula_units_Z 48
_cell_length_a 9.835769
_cell_length_b 28.671280
_cell_length_c 8.174581
_cell_angle_alpha 90.000000
_cell_angle_beta 90.000000
_cell_angle_gamma 90.000000
_cell_volume 2305.265252
_symmetry_space_group_name_H-M "P B A N"
_symmetry_group_IT_number 50
_space_group.IT_coordinate_system_code '2'
_symmetry_cell_setting 'orthorhombic'
loop_
_space_group_symop_operation_xyz
x,y,z
1/2-x,1/2-y,z
x,1/2-y,-z
1/2-x,y,-z
-x,-y,-z
1/2+x,1/2+y,-z
-x,1/2+y,z
1/2+x,-y,z
loop_
_atom_site_type_symbol
_atom_site_label
_atom_site_fract_x
_atom_site_fract_y
_atom_site_fract_z
Si Si1 0.128491 0.006515 0.892614
Si Si2 0.366330 0.645227 0.870731
Si Si3 0.593418 0.875254 0.549828
Si Si4 0.382918 0.385767 0.914762
Si Si5 0.891815 0.301298 0.572036
Si Si6 0.627277 0.434163 0.382466
O O1 0.151471 0.061098 0.865431
O O2 0.102329 0.980995 0.721007
O O3 0.250000 0.984050 0.000000
O O4 0.000000 0.000000 0.000000
O O5 0.387514 0.694228 0.771612
O O6 0.323239 0.607520 0.734997
O O7 0.250000 0.654507 0.000000
O O8 0.497183 0.623474 0.958296
O O9 0.750000 0.881334 0.500000
O O10 0.581197 0.863392 0.741599
O O11 0.525925 0.829783 0.472929
O O12 0.508445 0.920394 0.485360
O O13 0.250000 0.363533 0.000000
O O14 0.910664 0.250000 0.500000
O O15 0.750000 0.322255 0.500000
O O16 0.750000 0.446567 0.500000
#
# Coordination Sequence:
#
# PCOD8205562 Si02
#       6
#     8   8   8   8   8   8
#     4  11  25  41  61  88 128 171 217 272 319 364
#     4  11  20  38  67  94 124 167 210 255 314 380
#     4  11  24  41  65  94 127 169 215 263 322 386
#     4  11  23  40  62  87 127 168 214 263 320 375
#     4  10  22  43  67  96 132 163 203 259 318 382
#     4  11  23  40  62  91 127 172 220 266 320 375
#
# _framework density 20.821898999999998
#
# number of rings (size 3 to 8) (size 9 to 14) (size 15 to 20)
#    0.000    1.167    1.667    6.500    4.667    1.667 
#    0.000    5.833    0.000    1.000    0.000    0.000 
#    0.000    0.000    0.000    0.000    0.000    0.000 
#
# Total GULP energy -594927.625190 kJ/mol
# GULP energy per Si atom -12394.325525 kJ/mol
# Density = 2.077451 g / cm^3
# Si number density = 20.821899 Si / 1000 Ang^3
#
#
#
# Elastic Constant Matrix: (Units=GPa)
#
#
# Indices 1 2 3 4 5 6 
#
# 1 163.8521 40.1765 68.6012 0.0000 0.0000 0.0000
# 2 40.1765 74.3203 47.5732 0.0000 0.0000 0.0000
# 3 68.6012 47.5732 165.7228 0.0000 0.0000 0.0000
# 4 0.0000 0.0000 0.0000 40.5970 0.0000 0.0000
# 5 0.0000 0.0000 0.0000 0.0000 46.8607 0.0000
# 6 0.0000 0.0000 0.0000 0.0000 0.0000 -15.0645
#
#
#
# Elastic Compliance Matrix: (Units=1/GPa)
#
#
# Indices 1 2 3 4 5 6 
#
# 1 0.007780 -0.002627 -0.002466 0.000000 0.000000 0.000000
# 2 -0.002627 0.017371 -0.003899 0.000000 0.000000 0.000000
# 3 -0.002466 -0.003899 0.008174 0.000000 0.000000 0.000000
# 4 0.000000 0.000000 0.000000 0.024632 0.000000 0.000000
# 5 0.000000 0.000000 0.000000 0.000000 0.021340 0.000000
# 6 0.000000 0.000000 0.000000 0.000000 0.000000 -0.066381
#
#
# Mechanical properties :
#
#
# Convention : Reuss Voigt Hill
#
# Bulk Modulus (GPa) = 65.18700 79.62186 72.40443
# Shear Modulus (GPa) = 138.83015 30.98159 84.90587
#
# Velocity S-wave (km/s) = 8.17434 3.86156 6.39263
# Velocity P-wave (km/s) = 10.97579 7.62920 9.45179
#
# Compressibility (1/GPa) = 0.01534048
#
# Stress axis : x y z
#
# Youngs Moduli (GPa) = 128.53814 57.56621 122.33199
#
# Poissons Ratio (x) = 0.15122 0.30172
# Poissons Ratio (y) = 0.33766 0.47701
# Poissons Ratio (z) = 0.31702 0.22447
#
# Static dielectric constant tensor:
#      x y z
#    x 5.086210 0.000000 0.000000 
#    y 0.000000 3.313920 0.000000 
#    z 0.000000 0.000000 4.259130 
# 
# 
# High freq. dielectric constant tensor:
#      x y z
#    x 1.827060 0.000000 0.000000 
#    y 0.000000 1.784470 0.000000 
#    z 0.000000 0.000000 1.837160 
# 
# From -- ./inp_files/10101.got.cif
#   From: 2010.03.12/outbox.cif.g09.slc.cpg/sg50_6_cif.got.tgz:10101.got - 2010.04.16 13:23:21.
