data_PCOD8205867
_publ_section_title
;
Structure prediction by ZEFSAII (Michael W. Deem and Ramdas Pophale) SiO2 
 PCOD8205867
Probable space group: P B A N
;
_chemical_formula_sum "Si O2"
_cell_formula_units_Z 40
_cell_length_a 17.702544
_cell_length_b 8.592167
_cell_length_c 10.855824
_cell_angle_alpha 90.000000
_cell_angle_beta 90.000000
_cell_angle_gamma 90.000000
_cell_volume 1651.205725
_symmetry_space_group_name_H-M "P B A N"
_symmetry_group_IT_number 50
_space_group.IT_coordinate_system_code '2'
_symmetry_cell_setting 'orthorhombic'
loop_
_space_group_symop_operation_xyz
x,y,z
1/2-x,1/2-y,z
x,1/2-y,-z
1/2-x,y,-z
-x,-y,-z
1/2+x,1/2+y,-z
-x,1/2+y,z
1/2+x,-y,z
loop_
_atom_site_type_symbol
_atom_site_label
_atom_site_fract_x
_atom_site_fract_y
_atom_site_fract_z
Si Si1 0.276393 0.426071 0.369834
Si Si2 0.399790 0.586972 0.251825
Si Si3 0.652352 0.070080 0.756546
Si Si4 0.160592 0.434589 0.993280
Si Si5 0.957974 0.890653 0.409773
O O1 0.250000 0.250000 0.351759
O O2 0.250000 0.493157 0.500000
O O3 0.365814 0.459737 0.350262
O O4 0.240535 0.525875 0.257709
O O5 0.354955 0.747526 0.259158
O O6 0.388232 0.506850 0.118759
O O7 0.485167 0.634537 0.292098
O O8 0.615980 0.970533 0.644865
O O9 0.621574 0.013969 0.888179
O O10 0.148379 0.250000 0.000000
O O11 0.250000 0.475722 0.000000
O O12 0.933422 0.750000 0.500000
O O13 0.000000 0.000000 0.500000
#
# Coordination Sequence:
#
# PCOD8205867 Si02
#       5
#     8   8   8   8   8
#     4  11  25  40  68 104 144 186 241 297 366 437
#     4  12  26  46  72 106 143 191 245 302 367 432
#     4  12  26  45  74 104 143 194 240 306 364 433
#     4  11  25  46  73 105 145 190 247 306 365 436
#     4  12  28  49  74 105 153 193 238 300 371 443
#
# _framework density 24.224723000000001
#
# number of rings (size 3 to 8) (size 9 to 14) (size 15 to 20)
#    0.000    0.400    4.000    3.600    8.400    2.400 
#    0.000    0.000    0.000    0.000    0.000    0.000 
#    0.000    0.000    0.000    0.000    0.000    0.000 
#
# Total GULP energy -495629.116007 kJ/mol
# GULP energy per Si atom -12390.727900 kJ/mol
# Density = 2.416959 g / cm^3
# Si number density = 24.224723 Si / 1000 Ang^3
#
#
#
# Elastic Constant Matrix: (Units=GPa)
#
#
# Indices 1 2 3 4 5 6 
#
# 1 56.8824 18.0808 17.5647 0.0000 0.0000 0.0000
# 2 18.0808 135.8786 36.1249 0.0000 0.0000 0.0000
# 3 17.5647 36.1249 149.1785 0.0000 0.0000 0.0000
# 4 0.0000 0.0000 0.0000 48.6940 0.0000 0.0000
# 5 0.0000 0.0000 0.0000 0.0000 31.2557 0.0000
# 6 0.0000 0.0000 0.0000 0.0000 0.0000 30.6217
#
#
#
# Elastic Compliance Matrix: (Units=1/GPa)
#
#
# Indices 1 2 3 4 5 6 
#
# 1 0.018758 -0.002040 -0.001715 0.000000 0.000000 0.000000
# 2 -0.002040 0.008088 -0.001718 0.000000 0.000000 0.000000
# 3 -0.001715 -0.001718 0.007321 0.000000 0.000000 0.000000
# 4 0.000000 0.000000 0.000000 0.020536 0.000000 0.000000
# 5 0.000000 0.000000 0.000000 0.000000 0.031994 0.000000
# 6 0.000000 0.000000 0.000000 0.000000 0.000000 0.032657
#
#
# Mechanical properties :
#
#
# Convention : Reuss Voigt Hill
#
# Bulk Modulus (GPa) = 43.06435 53.94225 48.50330
# Shear Modulus (GPa) = 36.22111 40.12554 38.17333
#
# Velocity S-wave (km/s) = 3.87099 4.07429 3.97394
# Velocity P-wave (km/s) = 6.14777 6.66700 6.41264
#
# Compressibility (1/GPa) = 0.02322106
#
# Stress axis : x y z
#
# Youngs Moduli (GPa) = 53.31031 123.64255 136.58657
#
# Poissons Ratio (x) = 0.25226 0.23419
# Poissons Ratio (y) = 0.10876 0.23470
# Poissons Ratio (z) = 0.09140 0.21246
#
# Static dielectric constant tensor:
#      x y z
#    x 4.741190 0.000000 0.000000 
#    y 0.000000 4.578580 0.000000 
#    z 0.000000 0.000000 5.271860 
# 
# 
# High freq. dielectric constant tensor:
#      x y z
#    x 1.960490 0.000000 0.000000 
#    y 0.000000 1.966530 0.000000 
#    z 0.000000 0.000000 1.980540 
# 
# From -- ./inp_files/21620.got.cif
#   From: 2010.03.12/outbox.cif.g09.slc.cpg/sg50_11_cif.got.tgz:21620.got - 2010.04.16 13:23:21.
