data_PCOD8205293
_publ_section_title
;
Structure prediction by ZEFSAII (Michael W. Deem and Ramdas Pophale) SiO2 
 PCOD8205293
Probable space group: P B A N
;
_chemical_formula_sum "Si O2"
_cell_formula_units_Z 48
_cell_length_a 13.976090
_cell_length_b 13.022355
_cell_length_c 13.378447
_cell_angle_alpha 90.000000
_cell_angle_beta 90.000000
_cell_angle_gamma 90.000000
_cell_volume 2434.898833
_symmetry_space_group_name_H-M "P B A N"
_symmetry_group_IT_number 50
_space_group.IT_coordinate_system_code '2'
_symmetry_cell_setting 'orthorhombic'
loop_
_space_group_symop_operation_xyz
x,y,z
1/2-x,1/2-y,z
x,1/2-y,-z
1/2-x,y,-z
-x,-y,-z
1/2+x,1/2+y,-z
-x,1/2+y,z
1/2+x,-y,z
loop_
_atom_site_type_symbol
_atom_site_label
_atom_site_fract_x
_atom_site_fract_y
_atom_site_fract_z
Si Si1 0.858682 0.362572 0.262847
Si Si2 0.363845 0.052849 0.611722
Si Si3 0.637790 0.750000 0.263658
Si Si4 0.858682 0.137428 0.262847
Si Si5 0.863845 0.947151 0.388278
Si Si6 0.475611 0.750000 0.117958
O O1 0.903110 0.449237 0.335277
O O2 0.861653 0.250000 0.317311
O O3 0.750000 0.392379 0.233426
O O4 0.920672 0.351846 0.160460
O O5 0.397114 0.151664 0.673791
O O6 0.250000 0.049680 0.606180
O O7 0.406618 0.058649 0.500000
O O8 0.750000 0.750000 0.241946
O O9 0.602886 0.651665 0.326209
O O10 0.584687 0.750000 0.157253
O O11 0.920672 0.148154 0.160460
O O12 0.903110 0.050763 0.335277
O O13 0.475267 0.750000 0.000000
#
# Coordination Sequence:
#
# PCOD8205293 Si02
#       6
#     8   8   8   8   8   8
#     4   8  17  34  56  82 109 132 169 218 266 322
#     4   9  17  33  57  81 110 146 173 207 262 317
#     4  10  21  36  53  77 110 143 185 220 247 306
#     4   8  17  34  56  82 109 132 169 218 266 322
#     4   9  17  33  57  81 110 146 173 207 262 317
#     4  10  21  38  57  76 104 141 179 226 275 311
#
# _framework density 19.713345
#
# number of rings (size 3 to 8) (size 9 to 14) (size 15 to 20)
#    1.000    2.000    0.000    0.500    0.000    5.667 
#    0.000   11.667    0.000    6.000    0.000    0.000 
#    0.000    0.000    0.000    0.000    0.000    0.000 
#
# Total GULP energy -594757.740145 kJ/mol
# GULP energy per Si atom -12390.786253 kJ/mol
# Density = 1.966848 g / cm^3
# Si number density = 19.713345 Si / 1000 Ang^3
#
#
#
# Elastic Constant Matrix: (Units=GPa)
#
#
# Indices 1 2 3 4 5 6 
#
# 1 48.2148 27.2915 38.3770 0.0000 0.0000 0.0000
# 2 27.2915 138.1744 70.7399 0.0000 0.0000 0.0000
# 3 38.3770 70.7399 162.1836 0.0000 0.0000 0.0000
# 4 0.0000 0.0000 0.0000 19.2980 0.0000 0.0000
# 5 0.0000 0.0000 0.0000 0.0000 27.5804 0.0000
# 6 0.0000 0.0000 0.0000 0.0000 0.0000 16.5366
#
#
#
# Elastic Compliance Matrix: (Units=1/GPa)
#
#
# Indices 1 2 3 4 5 6 
#
# 1 0.026249 -0.002581 -0.005086 0.000000 0.000000 0.000000
# 2 -0.002581 0.009572 -0.003564 0.000000 0.000000 0.000000
# 3 -0.005086 -0.003564 0.008924 0.000000 0.000000 0.000000
# 4 0.000000 0.000000 0.000000 0.051819 0.000000 0.000000
# 5 0.000000 0.000000 0.000000 0.000000 0.036258 0.000000
# 6 0.000000 0.000000 0.000000 0.000000 0.000000 0.060472
#
#
# Mechanical properties :
#
#
# Convention : Reuss Voigt Hill
#
# Bulk Modulus (GPa) = 44.87638 69.04329 56.95983
# Shear Modulus (GPa) = 22.40317 26.82730 24.61524
#
# Velocity S-wave (km/s) = 3.37478 3.69300 3.53747
# Velocity P-wave (km/s) = 6.16437 7.29959 6.75586
#
# Compressibility (1/GPa) = 0.02228344
#
# Stress axis : x y z
#
# Youngs Moduli (GPa) = 38.09612 104.47410 112.05963
#
# Poissons Ratio (x) = 0.26965 0.56988
# Poissons Ratio (y) = 0.09833 0.39940
# Poissons Ratio (z) = 0.19374 0.37236
#
# Static dielectric constant tensor:
#      x y z
#    x 3.473430 0.000000 0.000000 
#    y 0.000000 3.681560 0.000000 
#    z 0.000000 0.000000 3.207800 
# 
# 
# High freq. dielectric constant tensor:
#      x y z
#    x 1.777560 0.000000 0.000000 
#    y 0.000000 1.765990 0.000000 
#    z 0.000000 0.000000 1.728030 
# 
# From -- ./inp_files/26407.got.cif
#   From: 2010.03.12/outbox.cif.g09.slc.cpg/sg50_14_cif.got.tgz:26407.got - 2010.04.16 13:23:21.
