data_PCOD8205515
_publ_section_title
;
Structure prediction by ZEFSAII (Michael W. Deem and Ramdas Pophale) SiO2 
 PCOD8205515
Probable space group: P B A N
;
_chemical_formula_sum "Si O2"
_cell_formula_units_Z 30
_cell_length_a 15.291083
_cell_length_b 16.190899
_cell_length_c 5.327717
_cell_angle_alpha 90.000000
_cell_angle_beta 90.000000
_cell_angle_gamma 90.000000
_cell_volume 1319.016891
_symmetry_space_group_name_H-M "P B A N"
_symmetry_group_IT_number 50
_space_group.IT_coordinate_system_code '2'
_symmetry_cell_setting 'orthorhombic'
loop_
_space_group_symop_operation_xyz
x,y,z
1/2-x,1/2-y,z
x,1/2-y,-z
1/2-x,y,-z
-x,-y,-z
1/2+x,1/2+y,-z
-x,1/2+y,z
1/2+x,-y,z
loop_
_atom_site_type_symbol
_atom_site_label
_atom_site_fract_x
_atom_site_fract_y
_atom_site_fract_z
Si Si1 0.147014 0.087355 0.008712
Si Si2 0.750000 0.250000 0.000000
Si Si3 0.610380 0.318487 0.675250
Si Si4 0.040825 0.250000 0.000000
Si Si5 0.853183 0.491271 0.502431
O O1 0.103008 0.174468 0.068089
O O2 0.117018 0.035019 0.247439
O O3 0.250000 0.102456 0.000000
O O4 0.116078 0.041340 0.751312
O O5 0.686468 0.320606 0.882495
O O6 0.652309 0.250000 0.500000
O O7 0.598700 0.402738 0.516529
O O8 0.517626 0.284066 0.771958
O O9 0.750000 0.477994 0.500000
#
# Coordination Sequence:
#
# PCOD8205515 Si02
#       5
#     8   2   8   4   8
#     4  10  24  45  70  98 131 183 229 286 327 406
#     4  10  22  40  66  94 130 182 224 276 350 418
#     4  11  25  41  66  99 137 179 220 285 341 416
#     4  11  27  43  65  98 140 180 227 273 355 397
#     4  10  23  42  71  98 131 173 234 281 340 392
#
# _framework density 22.744209999999999
#
# number of rings (size 3 to 8) (size 9 to 14) (size 15 to 20)
#    0.000    1.600    0.000    2.400   16.800    2.133 
#    0.000    4.000    0.000    0.000    0.000    0.000 
#    0.000    0.000    0.000    0.000    0.000    0.000 
#
# Total GULP energy -371679.566490 kJ/mol
# GULP energy per Si atom -12389.318883 kJ/mol
# Density = 2.269244 g / cm^3
# Si number density = 22.744210 Si / 1000 Ang^3
#
#
#
# Elastic Constant Matrix: (Units=GPa)
#
#
# Indices 1 2 3 4 5 6 
#
# 1 66.3410 52.9834 30.2812 0.0000 0.0000 0.0000
# 2 52.9834 198.7191 75.6534 0.0000 0.0000 0.0000
# 3 30.2812 75.6534 151.8205 0.0000 0.0000 0.0000
# 4 0.0000 0.0000 0.0000 30.0945 0.0000 0.0000
# 5 0.0000 0.0000 0.0000 0.0000 34.7031 0.0000
# 6 0.0000 0.0000 0.0000 0.0000 0.0000 62.3638
#
#
#
# Elastic Compliance Matrix: (Units=1/GPa)
#
#
# Indices 1 2 3 4 5 6 
#
# 1 0.019462 -0.004580 -0.001599 0.000000 0.000000 0.000000
# 2 -0.004580 0.007288 -0.002718 0.000000 0.000000 0.000000
# 3 -0.001599 -0.002718 0.008260 0.000000 0.000000 0.000000
# 4 0.000000 0.000000 0.000000 0.033229 0.000000 0.000000
# 5 0.000000 0.000000 0.000000 0.000000 0.028816 0.000000
# 6 0.000000 0.000000 0.000000 0.000000 0.000000 0.016035
#
#
# Mechanical properties :
#
#
# Convention : Reuss Voigt Hill
#
# Bulk Modulus (GPa) = 58.09022 81.63516 69.86269
# Shear Modulus (GPa) = 36.59704 42.62980 39.61342
#
# Velocity S-wave (km/s) = 4.01567 4.33403 4.17789
# Velocity P-wave (km/s) = 6.86272 7.81126 7.35230
#
# Compressibility (1/GPa) = 0.01721460
#
# Stress axis : x y z
#
# Youngs Moduli (GPa) = 51.38349 137.20742 121.06124
#
# Poissons Ratio (x) = 0.62841 0.19363
# Poissons Ratio (y) = 0.23534 0.32908
# Poissons Ratio (z) = 0.08218 0.37297
#
# Static dielectric constant tensor:
#      x y z
#    x 3.948970 0.000000 0.000000 
#    y 0.000000 4.068540 0.000000 
#    z 0.000000 0.000000 4.297120 
# 
# 
# High freq. dielectric constant tensor:
#      x y z
#    x 1.897340 0.000000 0.000000 
#    y 0.000000 1.903590 0.000000 
#    z 0.000000 0.000000 1.902430 
# 
# From -- ./inp_files/2972.got.cif
#   From: 2010.03.12/outbox.cif.g09.slc.cpg/sg50_2_cif.got.tgz:2972.got - 2010.04.16 13:23:21.
