data_PCOD8205711
_publ_section_title
;
Structure prediction by ZEFSAII (Michael W. Deem and Ramdas Pophale) SiO2 
 PCOD8205711
Probable space group: P B A N
;
_chemical_formula_sum "Si O2"
_cell_formula_units_Z 64
_cell_length_a 25.219960
_cell_length_b 22.397242
_cell_length_c 5.051927
_cell_angle_alpha 90.000000
_cell_angle_beta 90.000000
_cell_angle_gamma 90.000000
_cell_volume 2853.619095
_symmetry_space_group_name_H-M "P B A N"
_symmetry_group_IT_number 50
_space_group.IT_coordinate_system_code '2'
_symmetry_cell_setting 'orthorhombic'
loop_
_space_group_symop_operation_xyz
x,y,z
1/2-x,1/2-y,z
x,1/2-y,-z
1/2-x,y,-z
-x,-y,-z
1/2+x,1/2+y,-z
-x,1/2+y,z
1/2+x,-y,z
loop_
_atom_site_type_symbol
_atom_site_label
_atom_site_fract_x
_atom_site_fract_y
_atom_site_fract_z
Si Si1 0.620633 0.587190 0.536955
Si Si2 0.400201 0.212867 0.756126
Si Si3 0.013082 0.666521 0.137018
Si Si4 0.628190 0.287532 0.239016
Si Si5 0.908247 0.031090 0.771927
Si Si6 0.005339 0.407766 0.369019
Si Si7 0.643864 0.420492 0.262449
Si Si8 0.214649 0.029413 0.752352
O O1 0.626300 0.647922 0.705430
O O2 0.615447 0.535732 0.761499
O O3 0.568448 0.582839 0.350555
O O4 0.668701 0.576617 0.331057
O O5 0.387184 0.250000 0.500000
O O6 0.462881 0.208477 0.803312
O O7 0.374250 0.250000 0.000000
O O8 0.065549 0.704228 0.190736
O O9 0.011052 0.610638 0.335718
O O10 0.010853 0.644623 0.834316
O O11 0.639048 0.250000 0.500000
O O12 0.658788 0.350958 0.243126
O O13 0.653098 0.250000 0.000000
O O14 0.875917 0.069936 0.559529
O O15 0.971339 0.032687 0.703031
O O16 0.902572 0.062450 0.055799
O O17 0.692370 0.463584 0.181094
O O18 0.250000 0.020944 0.500000
O O19 0.250000 0.053142 0.000000
#
# Coordination Sequence:
#
# PCOD8205711 Si02
#       8
#     8   8   8   8   8   8   8   8
#     4  10  25  40  68 100 128 176 226 266 337 410
#     4  11  23  40  59  89 136 180 216 262 314 385
#     4  11  21  36  55  88 132 187 231 244 299 369
#     4  12  22  35  59  89 132 181 228 264 297 368
#     4  11  20  39  61  94 136 174 215 268 318 397
#     4  11  20  36  59  91 137 174 209 269 316 379
#     4  11  23  41  64  95 133 172 222 269 334 391
#     4  11  25  47  73  97 124 162 217 293 356 407
#
# _framework density 22.427658999999998
#
# number of rings (size 3 to 8) (size 9 to 14) (size 15 to 20)
#    0.000    1.000    2.500    5.625    0.000    9.000 
#    0.000    6.250    0.000    2.625    0.000    5.250 
#    0.000    0.000    0.000    0.000    0.000    0.000 
#
# Total GULP energy -793482.189266 kJ/mol
# GULP energy per Si atom -12398.159207 kJ/mol
# Density = 2.237661 g / cm^3
# Si number density = 22.427659 Si / 1000 Ang^3
#
#
#
# Elastic Constant Matrix: (Units=GPa)
#
#
# Indices 1 2 3 4 5 6 
#
# 1 77.9389 29.6708 26.4001 0.0000 0.0000 0.0000
# 2 29.6708 154.3942 52.1443 0.0000 0.0000 0.0000
# 3 26.4001 52.1443 125.0850 0.0000 0.0000 0.0000
# 4 0.0000 0.0000 0.0000 36.5259 0.0000 0.0000
# 5 0.0000 0.0000 0.0000 0.0000 34.8035 0.0000
# 6 0.0000 0.0000 0.0000 0.0000 0.0000 25.9171
#
#
#
# Elastic Compliance Matrix: (Units=1/GPa)
#
#
# Indices 1 2 3 4 5 6 
#
# 1 0.014339 -0.002018 -0.002185 0.000000 0.000000 0.000000
# 2 -0.002018 0.007822 -0.002835 0.000000 0.000000 0.000000
# 3 -0.002185 -0.002835 0.009638 0.000000 0.000000 0.000000
# 4 0.000000 0.000000 0.000000 0.027378 0.000000 0.000000
# 5 0.000000 0.000000 0.000000 0.000000 0.028733 0.000000
# 6 0.000000 0.000000 0.000000 0.000000 0.000000 0.038585
#
#
# Mechanical properties :
#
#
# Convention : Reuss Voigt Hill
#
# Bulk Modulus (GPa) = 56.42393 63.76093 60.09243
# Shear Modulus (GPa) = 34.13504 36.06281 35.09893
#
# Velocity S-wave (km/s) = 3.90552 4.01429 3.96028
# Velocity P-wave (km/s) = 6.74909 7.06947 6.91114
#
# Compressibility (1/GPa) = 0.01772298
#
# Stress axis : x y z
#
# Youngs Moduli (GPa) = 69.74063 127.84240 103.76022
#
# Poissons Ratio (x) = 0.25793 0.22674
# Poissons Ratio (y) = 0.14070 0.29416
# Poissons Ratio (z) = 0.15240 0.36243
#
# Static dielectric constant tensor:
#      x y z
#    x 3.507180 0.000000 0.000000 
#    y 0.000000 3.374720 0.000000 
#    z 0.000000 0.000000 4.180040 
# 
# 
# High freq. dielectric constant tensor:
#      x y z
#    x 1.841840 0.000000 0.000000 
#    y 0.000000 1.883830 0.000000 
#    z 0.000000 0.000000 1.904320 
# 
# From -- ./inp_files/6803.got.cif
#   From: 2010.03.12/outbox.cif.g09.slc.cpg/sg50_4_cif.got.tgz:6803.got - 2010.04.16 13:23:21.
