data_PCOD8205814
_publ_section_title
;
Structure prediction by ZEFSAII (Michael W. Deem and Ramdas Pophale) SiO2 
 PCOD8205814
Probable space group: P B A N
;
_chemical_formula_sum "Si O2"
_cell_formula_units_Z 48
_cell_length_a 8.923272
_cell_length_b 18.995426
_cell_length_c 13.657878
_cell_angle_alpha 90.000000
_cell_angle_beta 90.000000
_cell_angle_gamma 90.000000
_cell_volume 2315.028799
_symmetry_space_group_name_H-M "P B A N"
_symmetry_group_IT_number 50
_space_group.IT_coordinate_system_code '2'
_symmetry_cell_setting 'orthorhombic'
loop_
_space_group_symop_operation_xyz
x,y,z
1/2-x,1/2-y,z
x,1/2-y,-z
1/2-x,y,-z
-x,-y,-z
1/2+x,1/2+y,-z
-x,1/2+y,z
1/2+x,-y,z
loop_
_atom_site_type_symbol
_atom_site_label
_atom_site_fract_x
_atom_site_fract_y
_atom_site_fract_z
Si Si1 0.892001 0.106317 0.681290
Si Si2 0.438931 0.579690 0.899731
Si Si3 0.442536 0.648812 0.700810
Si Si4 0.907056 0.432915 0.110819
Si Si5 0.114027 0.464561 0.571068
Si Si6 0.577498 0.772372 0.606578
O O1 0.732054 0.144161 0.673916
O O2 0.958138 0.107947 0.791849
O O3 0.851845 0.026505 0.648879
O O4 0.025114 0.145644 0.619905
O O5 0.480720 0.634691 0.814880
O O6 0.537421 0.511742 0.885502
O O7 0.269397 0.557272 0.885833
O O8 0.461859 0.608136 0.011835
O O9 0.546432 0.601977 0.628501
O O10 0.483674 0.729934 0.686992
O O11 0.250000 0.439668 0.500000
O O12 0.000000 0.500000 0.500000
O O13 0.750000 0.750000 0.621467
O O14 0.522974 0.750000 0.500000
#
# Coordination Sequence:
#
# PCOD8205814 Si02
#       6
#     8   8   8   8   8   8
#     4  11  23  41  61  89 121 163 204 247 308 367
#     4   9  18  34  58  91 120 153 195 246 311 358
#     4  11  23  40  62  88 122 163 202 250 304 370
#     4   9  18  34  59  89 122 152 193 252 303 365
#     4  12  24  36  59  92 122 155 203 258 297 356
#     4  11  27  43  61  84 120 163 206 254 305 367
#
# _framework density 20.734083999999999
#
# number of rings (size 3 to 8) (size 9 to 14) (size 15 to 20)
#    0.000    1.500    3.333    1.500    4.667    2.000 
#    0.000    0.833    0.000    5.000    0.000    0.000 
#    0.000    0.000    0.000    0.000    0.000    0.000 
#
# Total GULP energy -594693.074859 kJ/mol
# GULP energy per Si atom -12389.439060 kJ/mol
# Density = 2.068689 g / cm^3
# Si number density = 20.734084 Si / 1000 Ang^3
#
#
#
# Elastic Constant Matrix: (Units=GPa)
#
#
# Indices 1 2 3 4 5 6 
#
# 1 48.5949 6.4062 45.4097 0.0000 0.0000 0.0000
# 2 6.4062 51.4397 26.0845 0.0000 0.0000 0.0000
# 3 45.4097 26.0845 145.3014 0.0000 0.0000 0.0000
# 4 0.0000 0.0000 0.0000 102.8307 0.0000 0.0000
# 5 0.0000 0.0000 0.0000 0.0000 27.8869 0.0000
# 6 0.0000 0.0000 0.0000 0.0000 0.0000 33.6006
#
#
#
# Elastic Compliance Matrix: (Units=1/GPa)
#
#
# Indices 1 2 3 4 5 6 
#
# 1 0.029122 0.001087 -0.009296 0.000000 0.000000 0.000000
# 2 0.001087 0.021428 -0.004187 0.000000 0.000000 0.000000
# 3 -0.009296 -0.004187 0.010539 0.000000 0.000000 0.000000
# 4 0.000000 0.000000 0.000000 0.009725 0.000000 0.000000
# 5 0.000000 0.000000 0.000000 0.000000 0.035859 0.000000
# 6 0.000000 0.000000 0.000000 0.000000 0.000000 0.029761
#
#
# Mechanical properties :
#
#
# Convention : Reuss Voigt Hill
#
# Bulk Modulus (GPa) = 27.54997 44.57075 36.06036
# Shear Modulus (GPa) = 28.84758 44.02599 36.43679
#
# Velocity S-wave (km/s) = 3.73408 4.61300 4.19661
# Velocity P-wave (km/s) = 5.64865 7.06513 6.39622
#
# Compressibility (1/GPa) = 0.03629768
#
# Stress axis : x y z
#
# Youngs Moduli (GPa) = 34.33824 46.66842 94.88445
#
# Poissons Ratio (x) = -0.05074 0.88209
# Poissons Ratio (y) = -0.03734 0.39724
# Poissons Ratio (z) = 0.31922 0.19538
#
# Static dielectric constant tensor:
#      x y z
#    x 3.662420 0.000000 0.000000 
#    y 0.000000 2.684110 0.000000 
#    z 0.000000 0.000000 3.808950 
# 
# 
# High freq. dielectric constant tensor:
#      x y z
#    x 1.813300 0.000000 0.000000 
#    y 0.000000 1.785720 0.000000 
#    z 0.000000 0.000000 1.831800 
# 
# From -- ./inp_files/24969.got.cif
#   From: 2010.03.12/outbox.cif.g09.slc.cpg/sg50_13_cif.got.tgz:24969.got - 2010.04.16 13:23:21.
