data_PCOD8205154
_publ_section_title
;
Structure prediction by ZEFSAII (Michael W. Deem and Ramdas Pophale) SiO2 
 PCOD8205154
Probable space group: P B A N
;
_chemical_formula_sum "Si O2"
_cell_formula_units_Z 40
_cell_length_a 7.940762
_cell_length_b 15.605551
_cell_length_c 15.590286
_cell_angle_alpha 90.000000
_cell_angle_beta 90.000000
_cell_angle_gamma 90.000000
_cell_volume 1931.947717
_symmetry_space_group_name_H-M "P B A N"
_symmetry_group_IT_number 50
_space_group.IT_coordinate_system_code '2'
_symmetry_cell_setting 'orthorhombic'
loop_
_space_group_symop_operation_xyz
x,y,z
1/2-x,1/2-y,z
x,1/2-y,-z
1/2-x,y,-z
-x,-y,-z
1/2+x,1/2+y,-z
-x,1/2+y,z
1/2+x,-y,z
loop_
_atom_site_type_symbol
_atom_site_label
_atom_site_fract_x
_atom_site_fract_y
_atom_site_fract_z
Si Si1 0.437048 0.145786 0.786245
Si Si2 0.750000 0.466611 0.500000
Si Si3 0.944742 0.606325 0.406102
Si Si4 0.743173 0.352733 0.097013
Si Si5 0.250000 0.250000 0.500000
Si Si6 0.750000 0.750000 0.000000
Si Si7 0.413164 0.166583 0.155289
O O1 0.487545 0.109844 0.694028
O O2 0.575193 0.112981 0.855473
O O3 0.434711 0.249218 0.785366
O O4 0.247293 0.112102 0.810000
O O5 0.823557 0.525802 0.424181
O O6 0.614471 0.403926 0.459410
O O7 0.862119 0.694133 0.436383
O O8 0.750000 0.250000 0.097728
O O9 0.910314 0.385408 0.149980
O O10 0.750000 0.388761 0.000000
O O11 0.626127 0.806571 0.942557
#
# Coordination Sequence:
#
# PCOD8205154 Si02
#       7
#     8   4   8   8   2   2   8
#     4   9  17  28  46  72 106 136 187 227 276 328
#     4   9  22  42  62  75 114 154 202 217 294 370
#     4  10  20  41  58  87 109 155 186 245 285 359
#     4   9  15  25  40  69 113 152 178 216 285 350
#     4  10  20  36  64  86 124 138 180 250 310 326
#     4   8  12  22  42  56 112 160 180 192 292 350
#     4   9  15  25  40  75 110 150 172 233 282 337
#
# _framework density 20.704495000000001
#
# number of rings (size 3 to 8) (size 9 to 14) (size 15 to 20)
#    0.000    3.000    0.000    4.800    0.000    0.400 
#   21.600    0.000    0.000    0.000    0.000    1.400 
#    0.000    0.000    0.000    0.000    0.000    0.000 
#
# Total GULP energy -495762.168557 kJ/mol
# GULP energy per Si atom -12394.054214 kJ/mol
# Density = 2.065737 g / cm^3
# Si number density = 20.704495 Si / 1000 Ang^3
#
#
#
# Elastic Constant Matrix: (Units=GPa)
#
#
# Indices 1 2 3 4 5 6 
#
# 1 176.9820 36.5921 49.3225 0.0000 0.0000 0.0000
# 2 36.5921 37.1952 37.8383 0.0000 0.0000 0.0000
# 3 49.3225 37.8383 141.3802 0.0000 0.0000 0.0000
# 4 0.0000 0.0000 0.0000 6.4826 0.0000 0.0000
# 5 0.0000 0.0000 0.0000 0.0000 19.4425 0.0000
# 6 0.0000 0.0000 0.0000 0.0000 0.0000 17.8481
#
#
#
# Elastic Compliance Matrix: (Units=1/GPa)
#
#
# Indices 1 2 3 4 5 6 
#
# 1 0.007165 -0.006192 -0.000843 0.000000 0.000000 0.000000
# 2 -0.006192 0.042295 -0.009159 0.000000 0.000000 0.000000
# 3 -0.000843 -0.009159 0.009818 0.000000 0.000000 0.000000
# 4 0.000000 0.000000 0.000000 0.154258 0.000000 0.000000
# 5 0.000000 0.000000 0.000000 0.000000 0.051434 0.000000
# 6 0.000000 0.000000 0.000000 0.000000 0.000000 0.056028
#
#
# Mechanical properties :
#
#
# Convention : Reuss Voigt Hill
#
# Bulk Modulus (GPa) = 37.18785 67.00702 52.09744
# Shear Modulus (GPa) = 13.79883 24.20829 19.00356
#
# Velocity S-wave (km/s) = 2.58440 3.42311 3.03289
# Velocity P-wave (km/s) = 5.18707 6.93234 6.12222
#
# Compressibility (1/GPa) = 0.02689050
#
# Stress axis : x y z
#
# Youngs Moduli (GPa) = 139.56069 23.64370 101.84964
#
# Poissons Ratio (x) = 0.14640 0.08581
# Poissons Ratio (y) = 0.86417 0.93287
# Poissons Ratio (z) = 0.11758 0.21656
#
# Static dielectric constant tensor:
#      x y z
#    x 4.392920 0.000000 0.000000 
#    y 0.000000 3.073100 0.000000 
#    z 0.000000 0.000000 3.565970 
# 
# 
# High freq. dielectric constant tensor:
#      x y z
#    x 1.836960 0.000000 0.000000 
#    y 0.000000 1.743230 0.000000 
#    z 0.000000 0.000000 1.803840 
# 
# From -- ./inp_files/24762.got.cif
#   From: 2010.03.12/outbox.cif.g09.slc.cpg/sg50_13_cif.got.tgz:24762.got - 2010.04.16 13:23:21.
