data_PCOD8205939
_publ_section_title
;
Structure prediction by ZEFSAII (Michael W. Deem and Ramdas Pophale) SiO2 
 PCOD8205939
Probable space group: P M M A
;
_chemical_formula_sum "Si O2"
_cell_formula_units_Z 40
_cell_length_a 8.929969
_cell_length_b 26.186967
_cell_length_c 9.081114
_cell_angle_alpha 90.000000
_cell_angle_beta 90.000000
_cell_angle_gamma 90.000000
_cell_volume 2123.607643
_symmetry_space_group_name_H-M "P M M A"
_symmetry_group_IT_number 51
_symmetry_cell_setting 'orthorhombic'
loop_
_space_group_symop_operation_xyz
x,y,z
1/2-x,-y,z
1/2+x,-y,-z
-x,y,-z
-x,-y,-z
1/2+x,y,-z
1/2-x,y,z
x,-y,z
loop_
_atom_site_type_symbol
_atom_site_label
_atom_site_fract_x
_atom_site_fract_y
_atom_site_fract_z
Si Si1 0.426863 0.500000 0.158336
Si Si2 0.073552 0.402415 0.342038
Si Si3 0.576119 0.210214 0.657010
Si Si4 0.928453 0.000000 0.336592
Si Si5 0.573190 0.695148 0.843089
Si Si6 0.575074 0.902033 0.657940
O O1 0.250000 0.500000 0.137550
O O2 0.482170 0.549714 0.246295
O O3 0.500000 0.500000 0.000000
O O4 0.250000 0.403816 0.363835
O O5 0.021182 0.350941 0.261211
O O6 0.000000 0.405132 0.500000
O O7 0.500000 0.216952 0.500000
O O8 0.750000 0.219365 0.627083
O O9 0.514204 0.252082 0.771008
O O10 0.549569 0.153884 0.730127
O O11 0.000000 0.000000 0.500000
O O12 0.990746 0.051498 0.255488
O O13 0.750000 0.000000 0.339392
O O14 0.750000 0.695622 0.864664
O O15 0.500000 0.687530 0.000000
O O16 0.500000 0.897924 0.500000
O O17 0.750000 0.915396 0.643562
#
# Coordination Sequence:
#
# PCOD8205939 Si02
#       6
#     4   8   8   4   8   8
#     4  10  21  36  54  80 110 142 177 214 252 298
#     4  10  21  36  55  79 107 136 173 214 254 300
#     4   9  18  31  48  70  96 125 162 203 246 296
#     4  10  16  22  34  56  87 120 153 190 232 284
#     4  10  21  36  52  74 101 131 167 208 251 301
#     4   9  15  24  38  58  86 119 152 191 237 286
#
# _framework density 18.83587
#
# number of rings (size 3 to 8) (size 9 to 14) (size 15 to 20)
#    0.000    2.400    0.000    4.200    0.000    3.200 
#    0.000    0.000    0.000    0.000    0.000    0.700 
#    0.000    0.000    0.000    0.000    0.000    0.000 
#
# Total GULP energy -495780.377565 kJ/mol
# GULP energy per Si atom -12394.509439 kJ/mol
# Density = 1.879300 g / cm^3
# Si number density = 18.835870 Si / 1000 Ang^3
#
#
#
# Elastic Constant Matrix: (Units=GPa)
#
#
# Indices 1 2 3 4 5 6 
#
# 1 69.2939 55.7948 37.4693 0.0000 0.0000 0.0000
# 2 55.7948 198.6416 73.6753 0.0000 0.0000 0.0000
# 3 37.4693 73.6753 115.1436 0.0000 0.0000 0.0000
# 4 0.0000 0.0000 0.0000 0.3840 0.0000 0.0000
# 5 0.0000 0.0000 0.0000 0.0000 27.2647 0.0000
# 6 0.0000 0.0000 0.0000 0.0000 0.0000 17.5694
#
#
#
# Elastic Compliance Matrix: (Units=1/GPa)
#
#
# Indices 1 2 3 4 5 6 
#
# 1 0.019834 -0.004166 -0.003789 0.000000 0.000000 0.000000
# 2 -0.004166 0.007476 -0.003428 0.000000 0.000000 0.000000
# 3 -0.003789 -0.003428 0.012111 0.000000 0.000000 0.000000
# 4 0.000000 0.000000 0.000000 2.604178 0.000000 0.000000
# 5 0.000000 0.000000 0.000000 0.000000 0.036677 0.000000
# 6 0.000000 0.000000 0.000000 0.000000 0.000000 0.056917
#
#
# Mechanical properties :
#
#
# Convention : Reuss Voigt Hill
#
# Bulk Modulus (GPa) = 60.03774 79.66198 69.84986
# Shear Modulus (GPa) = 1.80798 23.45293 12.63046
#
# Velocity S-wave (km/s) = 0.98079 3.53245 2.59231
# Velocity P-wave (km/s) = 5.76419 7.68259 6.79147
#
# Compressibility (1/GPa) = 0.01665619
#
# Stress axis : x y z
#
# Youngs Moduli (GPa) = 50.41772 133.76814 82.56975
#
# Poissons Ratio (x) = 0.55726 0.31284
# Poissons Ratio (y) = 0.21003 0.28302
# Poissons Ratio (z) = 0.19102 0.45852
#
# Static dielectric constant tensor:
#      x y z
#    x 3.384210 0.000000 0.000000 
#    y 0.000000 4.742010 0.000000 
#    z 0.000000 0.000000 3.037490 
# 
# 
# High freq. dielectric constant tensor:
#      x y z
#    x 1.728490 0.000000 0.000000 
#    y 0.000000 1.766970 0.000000 
#    z 0.000000 0.000000 1.685810 
# 
# From -- ./inp_files/5626.got.cif
#   From: 2010.03.12/outbox.cif.g09.slc.cpg/sg51_3_cif.got.tgz:5626.got - 2010.04.16 13:43:02.
