data_PCOD8205787
_publ_section_title
;
Structure prediction by ZEFSAII (Michael W. Deem and Ramdas Pophale) SiO2 
 PCOD8205787
Probable space group: P B A N
;
_chemical_formula_sum "Si O2"
_cell_formula_units_Z 48
_cell_length_a 9.567694
_cell_length_b 13.511838
_cell_length_c 17.948062
_cell_angle_alpha 90.000000
_cell_angle_beta 90.000000
_cell_angle_gamma 90.000000
_cell_volume 2320.273969
_symmetry_space_group_name_H-M "P B A N"
_symmetry_group_IT_number 50
_space_group.IT_coordinate_system_code '2'
_symmetry_cell_setting 'orthorhombic'
loop_
_space_group_symop_operation_xyz
x,y,z
1/2-x,1/2-y,z
x,1/2-y,-z
1/2-x,y,-z
-x,-y,-z
1/2+x,1/2+y,-z
-x,1/2+y,z
1/2+x,-y,z
loop_
_atom_site_type_symbol
_atom_site_label
_atom_site_fract_x
_atom_site_fract_y
_atom_site_fract_z
Si Si1 0.008398 0.617105 0.693519
Si Si2 0.127536 0.473745 0.052354
Si Si3 0.827104 0.070322 0.311866
Si Si4 0.591501 0.270843 0.413901
Si Si5 0.902757 0.790681 0.159799
Si Si6 0.857079 0.161289 0.151619
O O1 0.880641 0.541235 0.691805
O O2 0.997241 0.675056 0.770678
O O3 0.158738 0.564646 0.681572
O O4 0.986071 0.697536 0.628252
O O5 0.094465 0.381545 0.104141
O O6 0.179943 0.566484 0.101656
O O7 0.250000 0.437274 0.000000
O O8 0.000000 0.500000 0.000000
O O9 0.915110 0.116737 0.382581
O O10 0.863494 0.131642 0.238178
O O11 0.750000 0.250000 0.390113
O O12 0.562619 0.250000 0.500000
O O13 0.750000 0.750000 0.181429
O O14 0.988897 0.698236 0.126186
O O15 0.750000 0.250000 0.135954
#
# Coordination Sequence:
#
# PCOD8205787 Si02
#       6
#     8   8   8   8   8   8
#     4  11  23  39  66  99 128 173 221 266 324 391
#     4  12  28  45  64  95 133 168 218 284 341 394
#     4  11  22  39  67  97 130 172 223 266 324 394
#     4   9  19  40  65  97 137 172 215 272 329 391
#     4  12  26  42  69  97 131 174 224 277 333 397
#     4  12  23  43  70  91 128 176 223 267 331 406
#
# _framework density 20.687213
#
# number of rings (size 3 to 8) (size 9 to 14) (size 15 to 20)
#    0.000    0.833    5.000    2.500    2.333    4.667 
#    0.000    0.000    0.000    3.500    0.000    0.000 
#    0.000    0.000    0.000    0.000    0.000    0.000 
#
# Total GULP energy -594992.415365 kJ/mol
# GULP energy per Si atom -12395.675320 kJ/mol
# Density = 2.064013 g / cm^3
# Si number density = 20.687213 Si / 1000 Ang^3
#
#
#
# Elastic Constant Matrix: (Units=GPa)
#
#
# Indices 1 2 3 4 5 6 
#
# 1 87.8352 4.5080 10.8685 0.0000 0.0000 0.0000
# 2 4.5080 43.7145 7.5545 0.0000 0.0000 0.0000
# 3 10.8685 7.5545 105.2487 0.0000 0.0000 0.0000
# 4 0.0000 0.0000 0.0000 30.6089 0.0000 0.0000
# 5 0.0000 0.0000 0.0000 0.0000 27.7857 0.0000
# 6 0.0000 0.0000 0.0000 0.0000 0.0000 41.5398
#
#
#
# Elastic Compliance Matrix: (Units=1/GPa)
#
#
# Indices 1 2 3 4 5 6 
#
# 1 0.011575 -0.001000 -0.001124 0.000000 0.000000 0.000000
# 2 -0.001000 0.023249 -0.001566 0.000000 0.000000 0.000000
# 3 -0.001124 -0.001566 0.009730 0.000000 0.000000 0.000000
# 4 0.000000 0.000000 0.000000 0.032670 0.000000 0.000000
# 5 0.000000 0.000000 0.000000 0.000000 0.035990 0.000000
# 6 0.000000 0.000000 0.000000 0.000000 0.000000 0.024073
#
#
# Mechanical properties :
#
#
# Convention : Reuss Voigt Hill
#
# Bulk Modulus (GPa) = 26.89834 31.40670 29.15252
# Shear Modulus (GPa) = 31.83554 34.24472 33.04013
#
# Velocity S-wave (km/s) = 3.92714 4.07302 4.00074
# Velocity P-wave (km/s) = 5.79602 6.11016 5.95516
#
# Compressibility (1/GPa) = 0.03717701
#
# Stress axis : x y z
#
# Youngs Moduli (GPa) = 86.39101 43.01201 102.77809
#
# Poissons Ratio (x) = 0.04299 0.11548
# Poissons Ratio (y) = 0.08635 0.16091
# Poissons Ratio (z) = 0.09707 0.06734
#
# Static dielectric constant tensor:
#      x y z
#    x 3.679220 0.000000 0.000000 
#    y 0.000000 4.070530 0.000000 
#    z 0.000000 0.000000 3.717090 
# 
# 
# High freq. dielectric constant tensor:
#      x y z
#    x 1.804590 0.000000 0.000000 
#    y 0.000000 1.821640 0.000000 
#    z 0.000000 0.000000 1.807570 
# 
# From -- ./inp_files/28697.got.cif
#   From: 2010.03.12/outbox.cif.g09.slc.cpg/sg50_15_cif.got.tgz:28697.got - 2010.04.16 13:23:21.
