data_PCOD8205113
_publ_section_title
;
Structure prediction by ZEFSAII (Michael W. Deem and Ramdas Pophale) SiO2 
 PCOD8205113
Probable space group: P B A N
;
_chemical_formula_sum "Si O2"
_cell_formula_units_Z 64
_cell_length_a 22.373996
_cell_length_b 16.682701
_cell_length_c 8.856076
_cell_angle_alpha 90.000000
_cell_angle_beta 90.000000
_cell_angle_gamma 90.000000
_cell_volume 3305.607286
_symmetry_space_group_name_H-M "P B A N"
_symmetry_group_IT_number 50
_space_group.IT_coordinate_system_code '2'
_symmetry_cell_setting 'orthorhombic'
loop_
_space_group_symop_operation_xyz
x,y,z
1/2-x,1/2-y,z
x,1/2-y,-z
1/2-x,y,-z
-x,-y,-z
1/2+x,1/2+y,-z
-x,1/2+y,z
1/2+x,-y,z
loop_
_atom_site_type_symbol
_atom_site_label
_atom_site_fract_x
_atom_site_fract_y
_atom_site_fract_z
Si Si1 0.014031 0.593436 0.829519
Si Si2 0.985969 0.406564 0.829519
Si Si3 0.184542 0.250000 0.320518
Si Si4 0.605158 0.894385 0.322316
Si Si5 0.250000 0.656533 0.821336
Si Si6 0.865616 0.074448 0.321473
Si Si7 0.394842 0.105615 0.322316
Si Si8 0.865616 0.425552 0.321473
O O1 0.000000 0.500000 0.823074
O O2 0.956841 0.633900 0.752689
O O3 0.073896 0.616726 0.738074
O O4 0.021911 0.624463 1.000000
O O5 0.926104 0.383274 0.738074
O O6 0.043159 0.366100 0.752689
O O7 0.250000 0.250000 0.248407
O O8 0.187131 0.250000 0.500000
O O9 0.152728 0.169760 0.263621
O O10 0.152728 0.330240 0.263621
O O11 0.594467 0.892482 0.500000
O O12 0.630397 0.981127 0.273628
O O13 0.250000 0.750000 0.775278
O O14 0.308495 0.614325 0.754935
O O15 0.191505 0.614325 0.754935
O O16 0.250000 0.645594 0.000000
O O17 0.860584 0.085686 0.500000
O O18 0.869603 0.981127 0.273628
#
# Coordination Sequence:
#
# PCOD8205113 Si02
#       8
#     8   8   8   8   8   8   8   8
#     4   9  17  32  55  81 111 146 185 228 277 329
#     4   9  17  32  55  81 111 146 185 228 277 329
#     4   9  18  32  53  81 117 152 185 228 271 313
#     4   9  18  33  56  85 114 147 189 232 273 321
#     4  11  25  43  59  80 111 144 182 227 283 345
#     4  10  20  35  60  87 111 142 185 232 279 331
#     4   9  18  33  56  85 114 147 189 232 273 321
#     4  10  20  35  60  87 111 142 185 232 279 331
#
# _framework density 19.361041
#
# number of rings (size 3 to 8) (size 9 to 14) (size 15 to 20)
#    0.000    2.500    0.000    1.875    1.750    5.000 
#    2.250    0.625    0.000    0.750    0.000    0.000 
#    0.000    0.000    0.000    0.000    0.000    0.000 
#
# Total GULP energy -793479.892254 kJ/mol
# GULP energy per Si atom -12398.123316 kJ/mol
# Density = 1.931697 g / cm^3
# Si number density = 19.361041 Si / 1000 Ang^3
#
#
#
# Elastic Constant Matrix: (Units=GPa)
#
#
# Indices 1 2 3 4 5 6 
#
# 1 216.0906 81.7942 65.2311 0.0000 0.0000 0.0000
# 2 81.7942 90.7474 39.3961 0.0000 0.0000 0.0000
# 3 65.2311 39.3961 80.4646 0.0000 0.0000 0.0000
# 4 0.0000 0.0000 0.0000 15.6087 0.0000 0.0000
# 5 0.0000 0.0000 0.0000 0.0000 32.1552 0.0000
# 6 0.0000 0.0000 0.0000 0.0000 0.0000 20.0273
#
#
#
# Elastic Compliance Matrix: (Units=1/GPa)
#
#
# Indices 1 2 3 4 5 6 
#
# 1 0.007787 -0.005433 -0.003653 0.000000 0.000000 0.000000
# 2 -0.005433 0.017784 -0.004303 0.000000 0.000000 0.000000
# 3 -0.003653 -0.004303 0.017496 0.000000 0.000000 0.000000
# 4 0.000000 0.000000 0.000000 0.064067 0.000000 0.000000
# 5 0.000000 0.000000 0.000000 0.000000 0.031099 0.000000
# 6 0.000000 0.000000 0.000000 0.000000 0.000000 0.049932
#
#
# Mechanical properties :
#
#
# Convention : Reuss Voigt Hill
#
# Bulk Modulus (GPa) = 61.38780 84.46058 72.92419
# Shear Modulus (GPa) = 22.68891 26.95032 24.81962
#
# Velocity S-wave (km/s) = 3.42699 3.73498 3.58430
# Velocity P-wave (km/s) = 6.88729 7.89423 7.40789
#
# Compressibility (1/GPa) = 0.01628988
#
# Stress axis : x y z
#
# Youngs Moduli (GPa) = 128.42429 56.22877 57.15660
#
# Poissons Ratio (x) = 0.30548 0.20877
# Poissons Ratio (y) = 0.69770 0.24596
# Poissons Ratio (z) = 0.46908 0.24196
#
# Static dielectric constant tensor:
#      x y z
#    x 3.827510 0.000000 0.000000 
#    y 0.000000 3.446620 0.000000 
#    z 0.000000 0.000000 3.466990 
# 
# 
# High freq. dielectric constant tensor:
#      x y z
#    x 1.769770 0.000000 0.000000 
#    y 0.000000 1.734820 0.000000 
#    z 0.000000 0.000000 1.745590 
# 
# From -- ./inp_files/15503.got.cif
#   From: 2010.03.12/outbox.cif.g09.slc.cpg/sg50_8_cif.got.tgz:15503.got - 2010.04.16 13:23:21.
