data_PCOD8205759
_publ_section_title
;
Structure prediction by ZEFSAII (Michael W. Deem and Ramdas Pophale) SiO2 
 PCOD8205759
Probable space group: P B A N
;
_chemical_formula_sum "Si O2"
_cell_formula_units_Z 42
_cell_length_a 21.013384
_cell_length_b 20.680635
_cell_length_c 5.113516
_cell_angle_alpha 90.000000
_cell_angle_beta 90.000000
_cell_angle_gamma 90.000000
_cell_volume 2222.181285
_symmetry_space_group_name_H-M "P B A N"
_symmetry_group_IT_number 50
_space_group.IT_coordinate_system_code '2'
_symmetry_cell_setting 'orthorhombic'
loop_
_space_group_symop_operation_xyz
x,y,z
1/2-x,1/2-y,z
x,1/2-y,-z
1/2-x,y,-z
-x,-y,-z
1/2+x,1/2+y,-z
-x,1/2+y,z
1/2+x,-y,z
loop_
_atom_site_type_symbol
_atom_site_label
_atom_site_fract_x
_atom_site_fract_y
_atom_site_fract_z
Si Si1 0.510784 0.681075 0.599553
Si Si2 0.159190 0.185502 0.360717
Si Si3 0.897348 0.511021 0.991911
Si Si4 0.014495 0.896297 0.079442
Si Si5 0.250000 0.250000 0.000000
Si Si6 0.321448 0.454459 0.491833
O O1 0.484879 0.750000 0.500000
O O2 0.583909 0.686213 0.687575
O O3 0.497643 0.629352 0.371193
O O4 0.474714 0.660330 0.865238
O O5 0.182589 0.250000 0.500000
O O6 0.202157 0.193997 0.107019
O O7 0.177300 0.122951 0.533790
O O8 0.865187 0.510013 0.706262
O O9 0.953912 0.562402 0.008852
O O10 0.922589 0.440179 0.069180
O O11 0.845633 0.531859 0.201412
O O12 0.250000 0.481693 0.500000
#
# Coordination Sequence:
#
# PCOD8205759 Si02
#       6
#     8   8   8   8   2   8
#     4  11  23  36  61  85 116 144 194 245 286 330
#     4  11  25  37  51  76 114 160 207 241 280 311
#     4  11  23  39  59  82 112 157 196 234 294 340
#     4  11  21  41  60  82 114 151 195 241 292 344
#     4  12  26  36  52  70 116 176 202 244 270 324
#     4  12  24  38  57  83 117 152 203 239 277 338
#
# _framework density 18.900347
#
# number of rings (size 3 to 8) (size 9 to 14) (size 15 to 20)
#    0.000    0.762    3.810    3.714   10.667    3.048 
#    0.000    0.000    0.000    0.000    0.000    0.000 
#    0.000   53.333    0.000    0.000    0.000    0.000 
#
# Total GULP energy -520569.989064 kJ/mol
# GULP energy per Si atom -12394.523549 kJ/mol
# Density = 1.885733 g / cm^3
# Si number density = 18.900347 Si / 1000 Ang^3
#
#
#
# Elastic Constant Matrix: (Units=GPa)
#
#
# Indices 1 2 3 4 5 6 
#
# 1 68.6653 37.7443 19.1825 0.0000 0.0000 0.0000
# 2 37.7443 76.1082 18.7588 0.0000 0.0000 0.0000
# 3 19.1825 18.7588 86.0622 0.0000 0.0000 0.0000
# 4 0.0000 0.0000 0.0000 25.9861 0.0000 0.0000
# 5 0.0000 0.0000 0.0000 0.0000 29.8376 0.0000
# 6 0.0000 0.0000 0.0000 0.0000 0.0000 15.9775
#
#
#
# Elastic Compliance Matrix: (Units=1/GPa)
#
#
# Indices 1 2 3 4 5 6 
#
# 1 0.020514 -0.009560 -0.002489 0.000000 0.000000 0.000000
# 2 -0.009560 0.018340 -0.001867 0.000000 0.000000 0.000000
# 3 -0.002489 -0.001867 0.012581 0.000000 0.000000 0.000000
# 4 0.000000 0.000000 0.000000 0.038482 0.000000 0.000000
# 5 0.000000 0.000000 0.000000 0.000000 0.033515 0.000000
# 6 0.000000 0.000000 0.000000 0.000000 0.000000 0.062588
#
#
# Mechanical properties :
#
#
# Convention : Reuss Voigt Hill
#
# Bulk Modulus (GPa) = 42.36477 42.46740 42.41608
# Shear Modulus (GPa) = 22.55114 24.70359 23.62736
#
# Velocity S-wave (km/s) = 3.45796 3.61923 3.53951
# Velocity P-wave (km/s) = 6.19732 6.32321 6.26058
#
# Compressibility (1/GPa) = 0.02360452
#
# Stress axis : x y z
#
# Youngs Moduli (GPa) = 48.74831 54.52460 79.48443
#
# Poissons Ratio (x) = 0.52125 0.19780
# Poissons Ratio (y) = 0.46603 0.14838
# Poissons Ratio (z) = 0.12131 0.10179
#
# Static dielectric constant tensor:
#      x y z
#    x 3.321790 0.000000 0.000000 
#    y 0.000000 3.653670 0.000000 
#    z 0.000000 0.000000 3.628420 
# 
# 
# High freq. dielectric constant tensor:
#      x y z
#    x 1.711620 0.000000 0.000000 
#    y 0.000000 1.722330 0.000000 
#    z 0.000000 0.000000 1.748150 
# 
# From -- ./inp_files/5242.got.cif
#   From: 2010.03.12/outbox.cif.g09.slc.cpg/sg50_3_cif.got.tgz:5242.got - 2010.04.16 13:23:21.
