data_PCOD8205684
_publ_section_title
;
Structure prediction by ZEFSAII (Michael W. Deem and Ramdas Pophale) SiO2 
 PCOD8205684
Probable space group: P B A N
;
_chemical_formula_sum "Si O2"
_cell_formula_units_Z 26
_cell_length_a 9.239380
_cell_length_b 10.136160
_cell_length_c 14.622902
_cell_angle_alpha 90.000000
_cell_angle_beta 90.000000
_cell_angle_gamma 90.000000
_cell_volume 1369.461590
_symmetry_space_group_name_H-M "P B A N"
_symmetry_group_IT_number 50
_space_group.IT_coordinate_system_code '2'
_symmetry_cell_setting 'orthorhombic'
loop_
_space_group_symop_operation_xyz
x,y,z
1/2-x,1/2-y,z
x,1/2-y,-z
1/2-x,y,-z
-x,-y,-z
1/2+x,1/2+y,-z
-x,1/2+y,z
1/2+x,-y,z
loop_
_atom_site_type_symbol
_atom_site_label
_atom_site_fract_x
_atom_site_fract_y
_atom_site_fract_z
Si Si1 0.662078 0.872379 0.175745
Si Si2 0.594316 0.385704 0.460681
Si Si3 0.157010 0.880452 0.751443
Si Si4 0.250000 0.250000 0.000000
O O1 0.750000 0.750000 0.222558
O O2 0.492724 0.874815 0.195186
O O3 0.661443 0.850635 0.065605
O O4 0.742629 0.002478 0.211232
O O5 0.527123 0.250000 0.500000
O O6 0.750000 0.406898 0.500000
O O7 0.500000 0.500000 0.500000
O O8 0.606664 0.394218 0.352492
O O9 0.250000 0.750000 0.766607
#
# Coordination Sequence:
#
# PCOD8205684 Si02
#       4
#     8   8   8   2
#     4  10  24  44  69  93 135 170 217 274 334 400
#     4  11  24  42  62  94 135 172 223 268 314 388
#     4  12  23  43  68  98 132 177 223 271 333 385
#     4   8  24  48  64 100 134 160 232 268 340 404
#
# _framework density 18.985562999999999
#
# number of rings (size 3 to 8) (size 9 to 14) (size 15 to 20)
#    0.923    0.308    3.077    3.692    4.308    1.846 
#    0.000    0.000    0.000    0.000    0.000    0.000 
#    0.000    0.000    0.000    0.000    0.000    0.000 
#
# Total GULP energy -322095.544602 kJ/mol
# GULP energy per Si atom -12388.290177 kJ/mol
# Density = 1.894235 g / cm^3
# Si number density = 18.985563 Si / 1000 Ang^3
#
#
#
# Elastic Constant Matrix: (Units=GPa)
#
#
# Indices 1 2 3 4 5 6 
#
# 1 134.1131 87.0579 56.2476 0.0000 0.0000 0.0000
# 2 87.0579 196.5891 70.0291 0.0000 0.0000 0.0000
# 3 56.2476 70.0291 167.5840 0.0000 0.0000 0.0000
# 4 0.0000 0.0000 0.0000 24.8387 0.0000 0.0000
# 5 0.0000 0.0000 0.0000 0.0000 32.8925 0.0000
# 6 0.0000 0.0000 0.0000 0.0000 0.0000 39.4568
#
#
#
# Elastic Compliance Matrix: (Units=1/GPa)
#
#
# Indices 1 2 3 4 5 6 
#
# 1 0.010977 -0.004169 -0.001942 0.000000 0.000000 0.000000
# 2 -0.004169 0.007560 -0.001760 0.000000 0.000000 0.000000
# 3 -0.001942 -0.001760 0.007354 0.000000 0.000000 0.000000
# 4 0.000000 0.000000 0.000000 0.040260 0.000000 0.000000
# 5 0.000000 0.000000 0.000000 0.000000 0.030402 0.000000
# 6 0.000000 0.000000 0.000000 0.000000 0.000000 0.025344
#
#
# Mechanical properties :
#
#
# Convention : Reuss Voigt Hill
#
# Bulk Modulus (GPa) = 98.52978 102.77282 100.65130
# Shear Modulus (GPa) = 35.45505 38.43436 36.94470
#
# Velocity S-wave (km/s) = 4.32612 4.50421 4.41606
# Velocity P-wave (km/s) = 8.77289 9.01666 8.89561
#
# Compressibility (1/GPa) = 0.01014922
#
# Stress axis : x y z
#
# Youngs Moduli (GPa) = 91.09549 132.27504 135.97381
#
# Poissons Ratio (x) = 0.55151 0.26408
# Poissons Ratio (y) = 0.37982 0.23927
# Poissons Ratio (z) = 0.17692 0.23277
#
# Static dielectric constant tensor:
#      x y z
#    x 3.596690 0.000000 0.000000 
#    y 0.000000 3.609450 0.000000 
#    z 0.000000 0.000000 3.371210 
# 
# 
# High freq. dielectric constant tensor:
#      x y z
#    x 1.747200 0.000000 0.000000 
#    y 0.000000 1.753090 0.000000 
#    z 0.000000 0.000000 1.744710 
# 
# From -- ./inp_files/25569.got.cif
#   From: 2010.03.12/outbox.cif.g09.slc.cpg/sg50_13_cif.got.tgz:25569.got - 2010.04.16 13:23:21.
