data_PCOD8205978
_publ_section_title
;
Structure prediction by ZEFSAII (Michael W. Deem and Ramdas Pophale) SiO2 
 PCOD8205978
Probable space group: P M M A
;
_chemical_formula_sum "Si O2"
_cell_formula_units_Z 56
_cell_length_a 13.372022
_cell_length_b 31.826280
_cell_length_c 5.282461
_cell_angle_alpha 90.000000
_cell_angle_beta 90.000000
_cell_angle_gamma 90.000000
_cell_volume 2248.118819
_symmetry_space_group_name_H-M "P M M A"
_symmetry_group_IT_number 51
_symmetry_cell_setting 'orthorhombic'
loop_
_space_group_symop_operation_xyz
x,y,z
1/2-x,-y,z
1/2+x,-y,-z
-x,y,-z
-x,-y,-z
1/2+x,y,-z
1/2-x,y,z
x,-y,z
loop_
_atom_site_type_symbol
_atom_site_label
_atom_site_fract_x
_atom_site_fract_y
_atom_site_fract_z
Si Si1 0.369081 0.811600 0.664305
Si Si2 0.869594 0.906588 0.343016
Si Si3 0.384022 0.364781 0.740921
Si Si4 0.604300 0.670024 0.761129
Si Si5 0.630366 0.235322 0.834657
Si Si6 0.434250 0.454420 0.750187
Si Si7 0.369425 0.047682 0.156597
O O1 0.250000 0.810590 0.671859
O O2 0.407803 0.859090 0.692319
O O3 0.407710 0.794411 0.393763
O O4 0.409622 0.783337 0.898254
O O5 0.750000 0.908402 0.345920
O O6 0.911717 0.924971 0.608280
O O7 0.911537 0.934127 0.108783
O O8 0.335946 0.341611 0.495981
O O9 0.501994 0.356037 0.749511
O O10 0.359456 0.414686 0.733880
O O11 0.333670 0.345156 0.992616
O O12 0.582488 0.719333 0.784655
O O13 0.750000 0.239192 0.833201
O O14 0.500000 0.453337 0.500000
O O15 0.378209 0.500000 0.763311
O O16 0.500000 0.448599 0.000000
O O17 0.250000 0.050033 0.155487
O O18 0.406353 0.000000 0.186516
#
# Coordination Sequence:
#
# PCOD8205978 Si02
#       7
#     8   8   8   8   8   8   8
#     4   9  17  28  40  53  72  98 135 177 211 239
#     4   9  15  23  34  46  63  91 121 158 203 235
#     4  10  17  30  43  65  88 110 136 161 201 249
#     4  10  18  28  44  59  84 111 134 170 206 247
#     4  10  19  30  42  59  79 104 140 181 214 236
#     4  10  16  25  41  63  91 112 131 161 199 243
#     4   9  15  21  30  46  66  87 116 155 198 241
#
# _framework density 24.909714000000001
#
# number of rings (size 3 to 8) (size 9 to 14) (size 15 to 20)
#    0.000    2.429    2.857    2.143    0.000    5.143 
#    0.000    0.000    0.000    0.000    0.000    0.000 
#    0.000    6.286    0.000    0.000    0.000    0.000 
#
# Total GULP energy -694145.741734 kJ/mol
# GULP energy per Si atom -12395.459674 kJ/mol
# Density = 2.485302 g / cm^3
# Si number density = 24.909714 Si / 1000 Ang^3
#
#
#
# Elastic Constant Matrix: (Units=GPa)
#
#
# Indices 1 2 3 4 5 6 
#
# 1 22.5598 -11.2204 1.7340 0.0000 0.0000 0.0000
# 2 -11.2204 248.3242 107.0692 0.0000 0.0000 0.0000
# 3 1.7340 107.0692 267.2870 0.0000 0.0000 0.0000
# 4 0.0000 0.0000 0.0000 53.5944 0.0000 0.0000
# 5 0.0000 0.0000 0.0000 0.0000 9.2551 0.0000
# 6 0.0000 0.0000 0.0000 0.0000 0.0000 19.9891
#
#
#
# Elastic Compliance Matrix: (Units=1/GPa)
#
#
# Indices 1 2 3 4 5 6 
#
# 1 0.045751 0.002654 -0.001360 0.000000 0.000000 0.000000
# 2 0.002654 0.005022 -0.002029 0.000000 0.000000 0.000000
# 3 -0.001360 -0.002029 0.004563 0.000000 0.000000 0.000000
# 4 0.000000 0.000000 0.000000 0.018659 0.000000 0.000000
# 5 0.000000 0.000000 0.000000 0.000000 0.108048 0.000000
# 6 0.000000 0.000000 0.000000 0.000000 0.000000 0.050027
#
#
# Mechanical properties :
#
#
# Convention : Reuss Voigt Hill
#
# Bulk Modulus (GPa) = 18.56479 81.48185 50.02332
# Shear Modulus (GPa) = 19.88116 45.94028 32.91072
#
# Velocity S-wave (km/s) = 2.82818 4.29916 3.63878
# Velocity P-wave (km/s) = 4.25838 7.57797 6.14652
#
# Compressibility (1/GPa) = 0.05386540
#
# Stress axis : x y z
#
# Youngs Moduli (GPa) = 21.85746 199.13861 219.16384
#
# Poissons Ratio (x) = -0.52842 0.29801
# Poissons Ratio (y) = -0.05800 0.44463
# Poissons Ratio (z) = 0.02972 0.40401
#
# Static dielectric constant tensor:
#      x y z
#    x 3.864420 0.000000 0.000000 
#    y 0.000000 4.679000 0.000000 
#    z 0.000000 0.000000 6.321830 
# 
# 
# High freq. dielectric constant tensor:
#      x y z
#    x 1.967110 0.000000 0.000000 
#    y 0.000000 1.998270 0.000000 
#    z 0.000000 0.000000 2.019890 
# 
# From -- ./inp_files/2672.got.cif
#   From: 2010.03.12/outbox.cif.g09.slc.cpg/sg51_2_cif.got.tgz:2672.got - 2010.04.16 13:43:02.
