data_PCOD8205230
_publ_section_title
;
Structure prediction by ZEFSAII (Michael W. Deem and Ramdas Pophale) SiO2 
 PCOD8205230
Probable space group: P B A N
;
_chemical_formula_sum "Si O2"
_cell_formula_units_Z 48
_cell_length_a 8.498217
_cell_length_b 14.999983
_cell_length_c 19.100866
_cell_angle_alpha 90.000000
_cell_angle_beta 90.000000
_cell_angle_gamma 90.000000
_cell_volume 2434.846803
_symmetry_space_group_name_H-M "P B A N"
_symmetry_group_IT_number 50
_space_group.IT_coordinate_system_code '2'
_symmetry_cell_setting 'orthorhombic'
loop_
_space_group_symop_operation_xyz
x,y,z
1/2-x,1/2-y,z
x,1/2-y,-z
1/2-x,y,-z
-x,-y,-z
1/2+x,1/2+y,-z
-x,1/2+y,z
1/2+x,-y,z
loop_
_atom_site_type_symbol
_atom_site_label
_atom_site_fract_x
_atom_site_fract_y
_atom_site_fract_z
Si Si1 0.562161 0.250000 0.100947
Si Si2 0.062549 0.397656 0.000000
Si Si3 0.935873 0.649310 0.500000
Si Si4 0.564082 0.091162 0.645886
Si Si5 0.063108 0.750000 0.740402
Si Si6 0.435918 0.591161 0.354114
O O1 0.750000 0.250000 0.094154
O O2 0.497081 0.341396 0.067008
O O3 0.500555 0.250001 0.180507
O O4 0.497080 0.158604 0.067008
O O5 0.250000 0.401270 0.000000
O O6 0.000000 0.500000 0.000000
O O7 0.999791 0.750000 0.500000
O O8 0.750000 0.645215 0.500000
O O9 0.999166 0.600365 0.432022
O O10 0.999164 0.600365 0.567979
O O11 0.497118 0.165495 0.698265
O O12 0.750000 0.093348 0.642763
O O13 0.499999 0.000001 0.678255
O O14 0.250000 0.750000 0.741193
O O15 0.997119 0.665492 0.698267
#
# Coordination Sequence:
#
# PCOD8205230 Si02
#       6
#     8   8   8   8   8   8
#     4  10  20  39  63  91 123 155 192 240 290 344
#     4  11  22  39  62  92 122 157 198 237 284 340
#     4  11  22  37  58  84 110 144 194 247 293 343
#     4  11  22  39  59  83 113 151 193 238 291 346
#     4   9  21  39  60  84 118 155 190 231 288 348
#     4  11  22  39  59  83 113 151 193 238 291 346
#
# _framework density 19.713767000000001
#
# number of rings (size 3 to 8) (size 9 to 14) (size 15 to 20)
#    0.000    1.500    1.667    5.000    0.000    2.000 
#    0.000   10.000    0.000    0.000    0.000    0.000 
#    0.000    0.000    0.000    0.000    0.000    0.000 
#
# Total GULP energy -595186.965934 kJ/mol
# GULP energy per Si atom -12399.728457 kJ/mol
# Density = 1.966890 g / cm^3
# Si number density = 19.713767 Si / 1000 Ang^3
#
#
#
# Elastic Constant Matrix: (Units=GPa)
#
#
# Indices 1 2 3 4 5 6 
#
# 1 91.0223 45.2134 32.0682 0.0000 0.0000 0.0000
# 2 45.2134 198.4533 85.4550 0.0000 0.0000 0.0000
# 3 32.0682 85.4550 176.8935 0.0000 0.0000 0.0000
# 4 0.0000 0.0000 0.0000 -9.1531 0.0000 0.0000
# 5 0.0000 0.0000 0.0000 0.0000 9.8833 0.0000
# 6 0.0000 0.0000 0.0000 0.0000 0.0000 34.8511
#
#
#
# Elastic Compliance Matrix: (Units=1/GPa)
#
#
# Indices 1 2 3 4 5 6 
#
# 1 0.012565 -0.002376 -0.001130 0.000000 0.000000 0.000000
# 2 -0.002376 0.006812 -0.002860 0.000000 0.000000 0.000000
# 3 -0.001130 -0.002860 0.007240 0.000000 0.000000 0.000000
# 4 0.000000 0.000000 0.000000 -0.109253 0.000000 0.000000
# 5 0.000000 0.000000 0.000000 0.000000 0.101181 0.000000
# 6 0.000000 0.000000 0.000000 0.000000 0.000000 0.028693
#
#
# Mechanical properties :
#
#
# Convention : Reuss Voigt Hill
#
# Bulk Modulus (GPa) = 72.02458 87.98246 80.00352
# Shear Modulus (GPa) = 77.40281 27.35845 52.38063
#
# Velocity S-wave (km/s) = 6.27284 3.72934 5.16026
# Velocity P-wave (km/s) = 9.43818 7.95429 8.72783
#
# Compressibility (1/GPa) = 0.01388415
#
# Stress axis : x y z
#
# Youngs Moduli (GPa) = 79.58837 146.80396 138.12970
#
# Poissons Ratio (x) = 0.34881 0.15608
# Poissons Ratio (y) = 0.18910 0.39505
# Poissons Ratio (z) = 0.08993 0.41985
#
# Static dielectric constant tensor:
#      x y z
#    x 3.514880 0.000000 0.000000 
#    y 0.000000 3.516750 0.000000 
#    z 0.000000 0.000000 4.043130 
# 
# 
# High freq. dielectric constant tensor:
#      x y z
#    x 1.767120 0.000000 0.000000 
#    y 0.000000 1.786540 0.000000 
#    z 0.000000 0.000000 1.767360 
# 
# From -- ./inp_files/28695.got.cif
#   From: 2010.03.12/outbox.cif.g09.slc.cpg/sg50_15_cif.got.tgz:28695.got - 2010.04.16 13:23:21.
