data_PCOD8205708
_publ_section_title
;
Structure prediction by ZEFSAII (Michael W. Deem and Ramdas Pophale) SiO2 
 PCOD8205708
Probable space group: P B A N
;
_chemical_formula_sum "Si O2"
_cell_formula_units_Z 54
_cell_length_a 14.318274
_cell_length_b 12.202933
_cell_length_c 13.862407
_cell_angle_alpha 90.000000
_cell_angle_beta 90.000000
_cell_angle_gamma 90.000000
_cell_volume 2422.108208
_symmetry_space_group_name_H-M "P B A N"
_symmetry_group_IT_number 50
_space_group.IT_coordinate_system_code '2'
_symmetry_cell_setting 'orthorhombic'
loop_
_space_group_symop_operation_xyz
x,y,z
1/2-x,1/2-y,z
x,1/2-y,-z
1/2-x,y,-z
-x,-y,-z
1/2+x,1/2+y,-z
-x,1/2+y,z
1/2+x,-y,z
loop_
_atom_site_type_symbol
_atom_site_label
_atom_site_fract_x
_atom_site_fract_y
_atom_site_fract_z
Si Si1 0.889125 0.944244 0.093185
Si Si2 0.687414 0.352300 0.670926
Si Si3 0.250000 0.509248 0.500000
Si Si4 0.016669 0.301957 0.245516
Si Si5 0.336586 0.188744 0.402096
Si Si6 0.542799 0.896337 0.099193
Si Si7 0.703940 0.056927 0.134937
Si Si8 0.750000 0.250000 0.000000
O O1 0.931671 0.901949 0.192923
O O2 0.779421 0.970686 0.093733
O O3 0.910125 0.861218 0.003486
O O4 0.939208 0.060935 0.073440
O O5 0.750000 0.250000 0.641996
O O6 0.681720 0.420815 0.570964
O O7 0.589178 0.320456 0.721364
O O8 0.739582 0.416902 0.756873
O O9 0.185223 0.437820 0.428030
O O10 0.070262 0.290098 0.344642
O O11 0.031828 0.198160 0.177013
O O12 0.250000 0.250000 0.347931
O O13 0.355468 0.250000 0.500000
O O14 0.604416 0.996657 0.141702
O O15 0.691196 0.168011 0.070220
#
# Coordination Sequence:
#
# PCOD8205708 Si02
#       8
#     8   8   4   8   8   8   8   2
#     4  11  24  42  65 103 141 193 240 283 352 411
#     4  12  26  45  69 103 135 181 234 297 364 414
#     4  10  24  48  74  94 138 176 232 304 360 434
#     4  12  26  42  71 103 141 184 233 297 352 434
#     4   9  23  44  68 100 130 178 225 289 364 431
#     4  11  25  42  65 103 146 188 237 286 344 426
#     4  12  24  44  70 102 144 193 242 289 350 418
#     4  12  24  44  76 100 140 202 240 288 336 420
#
# _framework density 22.294626999999998
#
# number of rings (size 3 to 8) (size 9 to 14) (size 15 to 20)
#    0.000    1.037    3.704    2.444    6.222    1.778 
#    0.000    1.481    0.000    0.000    0.000    0.000 
#    0.000    0.000    0.000    0.000    0.000    0.000 
#
# Total GULP energy -669062.189464 kJ/mol
# GULP energy per Si atom -12390.040546 kJ/mol
# Density = 2.224388 g / cm^3
# Si number density = 22.294627 Si / 1000 Ang^3
#
#
#
# Elastic Constant Matrix: (Units=GPa)
#
#
# Indices 1 2 3 4 5 6 
#
# 1 86.8354 49.0697 39.8035 0.0000 0.0000 0.0000
# 2 49.0697 92.1875 46.7401 0.0000 0.0000 0.0000
# 3 39.8035 46.7401 109.4018 0.0000 0.0000 0.0000
# 4 0.0000 0.0000 0.0000 23.7242 0.0000 0.0000
# 5 0.0000 0.0000 0.0000 0.0000 32.5546 0.0000
# 6 0.0000 0.0000 0.0000 0.0000 0.0000 19.2696
#
#
#
# Elastic Compliance Matrix: (Units=1/GPa)
#
#
# Indices 1 2 3 4 5 6 
#
# 1 0.017207 -0.007640 -0.002996 0.000000 0.000000 0.000000
# 2 -0.007640 0.017239 -0.004585 0.000000 0.000000 0.000000
# 3 -0.002996 -0.004585 0.012190 0.000000 0.000000 0.000000
# 4 0.000000 0.000000 0.000000 0.042151 0.000000 0.000000
# 5 0.000000 0.000000 0.000000 0.000000 0.030718 0.000000
# 6 0.000000 0.000000 0.000000 0.000000 0.000000 0.051895
#
#
# Mechanical properties :
#
#
# Convention : Reuss Voigt Hill
#
# Bulk Modulus (GPa) = 61.75751 62.18347 61.97049
# Shear Modulus (GPa) = 24.12672 25.29711 24.71192
#
# Velocity S-wave (km/s) = 3.29321 3.37215 3.33291
# Velocity P-wave (km/s) = 6.49778 6.56613 6.53204
#
# Compressibility (1/GPa) = 0.01619236
#
# Stress axis : x y z
#
# Youngs Moduli (GPa) = 58.11755 58.00890 82.03545
#
# Poissons Ratio (x) = 0.44316 0.24581
# Poissons Ratio (y) = 0.44399 0.37617
# Poissons Ratio (z) = 0.17414 0.26600
#
# Static dielectric constant tensor:
#      x y z
#    x 4.805820 0.000000 0.000000 
#    y 0.000000 4.118860 0.000000 
#    z 0.000000 0.000000 4.215700 
# 
# 
# High freq. dielectric constant tensor:
#      x y z
#    x 1.870850 0.000000 0.000000 
#    y 0.000000 1.873060 0.000000 
#    z 0.000000 0.000000 1.894300 
# 
# From -- ./inp_files/26532.got.cif
#   From: 2010.03.12/outbox.cif.g09.slc.cpg/sg50_14_cif.got.tgz:26532.got - 2010.04.16 13:23:21.
