data_PCOD8205943
_publ_section_title
;
Structure prediction by ZEFSAII (Michael W. Deem and Ramdas Pophale) SiO2 
 PCOD8205943
Probable space group: P M M A
;
_chemical_formula_sum "Si O2"
_cell_formula_units_Z 32
_cell_length_a 8.704708
_cell_length_b 21.023455
_cell_length_c 9.137262
_cell_angle_alpha 90.000000
_cell_angle_beta 90.000000
_cell_angle_gamma 90.000000
_cell_volume 1672.146695
_symmetry_space_group_name_H-M "P M M A"
_symmetry_group_IT_number 51
_symmetry_cell_setting 'orthorhombic'
loop_
_space_group_symop_operation_xyz
x,y,z
1/2-x,-y,z
1/2+x,-y,-z
-x,y,-z
-x,-y,-z
1/2+x,y,-z
1/2-x,y,z
x,-y,z
loop_
_atom_site_type_symbol
_atom_site_label
_atom_site_fract_x
_atom_site_fract_y
_atom_site_fract_z
Si Si1 0.570849 0.263710 0.658488
Si Si2 0.433044 0.500000 0.660995
Si Si3 0.932791 0.383998 0.839645
Si Si4 0.068894 0.000000 0.663265
Si Si5 0.929982 0.124374 0.659912
O O1 0.500000 0.275510 0.500000
O O2 0.750000 0.269933 0.631884
O O3 0.513928 0.316360 0.773113
O O4 0.532036 0.193886 0.728240
O O5 0.250000 0.500000 0.656877
O O6 0.500000 0.500000 0.500000
O O7 0.493343 0.562014 0.741556
O O8 0.750000 0.391907 0.843333
O O9 0.000000 0.389981 0.000000
O O10 0.000000 0.000000 0.500000
O O11 0.009047 0.064568 0.744815
O O12 0.250000 0.000000 0.659598
O O13 0.750000 0.111169 0.652295
O O14 0.000000 0.126806 0.500000
#
# Coordination Sequence:
#
# PCOD8205943 Si02
#       5
#     8   4   8   4   8
#     4   9  19  33  52  76 104 136 176 219 265 316
#     4  12  25  42  63  88 114 144 178 218 263 314
#     4  11  23  40  59  83 112 145 181 221 266 317
#     4  10  16  22  34  58  91 128 165 206 254 308
#     4   9  15  25  40  62  92 128 165 208 257 309
#
# _framework density 19.137079
#
# number of rings (size 3 to 8) (size 9 to 14) (size 15 to 20)
#    0.000    2.000    0.000    6.375    0.000    5.000 
#    0.000    0.000    0.000    0.000    0.000    0.875 
#    0.000    0.000    0.000    0.000    0.000    0.000 
#
# Total GULP energy -396550.716803 kJ/mol
# GULP energy per Si atom -12392.209900 kJ/mol
# Density = 1.909352 g / cm^3
# Si number density = 19.137079 Si / 1000 Ang^3
#
#
#
# Elastic Constant Matrix: (Units=GPa)
#
#
# Indices 1 2 3 4 5 6 
#
# 1 121.1916 80.7810 40.8435 0.0000 0.0000 0.0000
# 2 80.7810 215.3015 71.2685 0.0000 0.0000 0.0000
# 3 40.8435 71.2685 96.4963 0.0000 0.0000 0.0000
# 4 0.0000 0.0000 0.0000 130.8583 0.0000 0.0000
# 5 0.0000 0.0000 0.0000 0.0000 23.2469 0.0000
# 6 0.0000 0.0000 0.0000 0.0000 0.0000 27.1770
#
#
#
# Elastic Compliance Matrix: (Units=1/GPa)
#
#
# Indices 1 2 3 4 5 6 
#
# 1 0.011344 -0.003530 -0.002194 0.000000 0.000000 0.000000
# 2 -0.003530 0.007246 -0.003858 0.000000 0.000000 0.000000
# 3 -0.002194 -0.003858 0.014141 0.000000 0.000000 0.000000
# 4 0.000000 0.000000 0.000000 0.007642 0.000000 0.000000
# 5 0.000000 0.000000 0.000000 0.000000 0.043016 0.000000
# 6 0.000000 0.000000 0.000000 0.000000 0.000000 0.036796
#
#
# Mechanical properties :
#
#
# Convention : Reuss Voigt Hill
#
# Bulk Modulus (GPa) = 73.70768 90.97506 82.34137
# Shear Modulus (GPa) = 34.75342 52.26286 43.50814
#
# Velocity S-wave (km/s) = 4.26611 5.23154 4.77330
# Velocity P-wave (km/s) = 7.92878 9.17245 8.57320
#
# Compressibility (1/GPa) = 0.01356711
#
# Stress axis : x y z
#
# Youngs Moduli (GPa) = 88.15421 138.00850 70.71648
#
# Poissons Ratio (x) = 0.48714 0.15519
# Poissons Ratio (y) = 0.31116 0.27279
# Poissons Ratio (z) = 0.19345 0.53237
#
# Static dielectric constant tensor:
#      x y z
#    x 3.622050 0.000000 0.000000 
#    y 0.000000 5.441570 0.000000 
#    z 0.000000 0.000000 3.077510 
# 
# 
# High freq. dielectric constant tensor:
#      x y z
#    x 1.757700 0.000000 0.000000 
#    y 0.000000 1.783440 0.000000 
#    z 0.000000 0.000000 1.686160 
# 
# From -- ./inp_files/4879.got.cif
#   From: 2010.03.12/outbox.cif.g09.slc.cpg/sg51_3_cif.got.tgz:4879.got - 2010.04.16 13:43:02.
