data_PCOD8205688
_publ_section_title
;
Structure prediction by ZEFSAII (Michael W. Deem and Ramdas Pophale) SiO2 
 PCOD8205688
Probable space group: P B A N
;
_chemical_formula_sum "Si O2"
_cell_formula_units_Z 38
_cell_length_a 16.916397
_cell_length_b 17.275108
_cell_length_c 4.871140
_cell_angle_alpha 90.000000
_cell_angle_beta 90.000000
_cell_angle_gamma 90.000000
_cell_volume 1423.505835
_symmetry_space_group_name_H-M "P B A N"
_symmetry_group_IT_number 50
_space_group.IT_coordinate_system_code '2'
_symmetry_cell_setting 'orthorhombic'
loop_
_space_group_symop_operation_xyz
x,y,z
1/2-x,1/2-y,z
x,1/2-y,-z
1/2-x,y,-z
-x,-y,-z
1/2+x,1/2+y,-z
-x,1/2+y,z
1/2+x,-y,z
loop_
_atom_site_type_symbol
_atom_site_label
_atom_site_fract_x
_atom_site_fract_y
_atom_site_fract_z
Si Si1 0.250000 0.106493 0.000000
Si Si2 0.150208 0.612779 0.816262
Si Si3 0.905447 0.673503 0.162264
Si Si4 0.973016 0.600034 0.668463
Si Si5 0.250000 0.750000 0.000000
Si Si6 0.155937 0.985608 0.656597
O O1 0.188799 0.161336 0.161427
O O2 0.293547 0.056889 0.232666
O O3 0.193806 0.695918 0.809354
O O4 0.195406 0.548293 0.628236
O O5 0.066680 0.613533 0.659286
O O6 0.148685 0.584939 0.128858
O O7 0.936370 0.668241 0.474756
O O8 0.931455 0.750000 0.000000
O O9 0.947247 0.605803 0.987216
O O10 0.933237 0.517534 0.579555
#
# Coordination Sequence:
#
# PCOD8205688 Si02
#       6
#     4   8   8   8   2   8
#     4  10  24  44  74 112 150 184 244 302 374 450
#     4  12  27  50  74 107 150 190 262 309 379 460
#     4  11  24  43  70 110 150 197 231 295 375 448
#     4  11  24  45  76 108 144 194 256 310 371 437
#     4  12  34  50  76 112 152 220 242 318 404 456
#     4  11  24  46  78 109 144 195 247 325 374 431
#
# _framework density 26.694655000000001
#
# number of rings (size 3 to 8) (size 9 to 14) (size 15 to 20)
#    0.000    0.842    0.000    6.632    1.474   13.474 
#    3.789    4.211    4.632    0.000    0.000    0.000 
#    0.000    0.000    0.000    0.000    0.000    0.000 
#
# Total GULP energy -471106.253861 kJ/mol
# GULP energy per Si atom -12397.532996 kJ/mol
# Density = 2.663390 g / cm^3
# Si number density = 26.694655 Si / 1000 Ang^3
#
#
#
# Elastic Constant Matrix: (Units=GPa)
#
#
# Indices 1 2 3 4 5 6 
#
# 1 108.2594 28.6384 30.6169 0.0000 0.0000 0.0000
# 2 28.6384 109.6867 26.4684 0.0000 0.0000 0.0000
# 3 30.6169 26.4684 125.0601 0.0000 0.0000 0.0000
# 4 0.0000 0.0000 0.0000 43.6020 0.0000 0.0000
# 5 0.0000 0.0000 0.0000 0.0000 34.8979 0.0000
# 6 0.0000 0.0000 0.0000 0.0000 0.0000 21.3791
#
#
#
# Elastic Compliance Matrix: (Units=1/GPa)
#
#
# Indices 1 2 3 4 5 6 
#
# 1 0.010412 -0.002217 -0.002080 0.000000 0.000000 0.000000
# 2 -0.002217 0.010079 -0.001591 0.000000 0.000000 0.000000
# 3 -0.002080 -0.001591 0.008842 0.000000 0.000000 0.000000
# 4 0.000000 0.000000 0.000000 0.022935 0.000000 0.000000
# 5 0.000000 0.000000 0.000000 0.000000 0.028655 0.000000
# 6 0.000000 0.000000 0.000000 0.000000 0.000000 0.046775
#
#
# Mechanical properties :
#
#
# Convention : Reuss Voigt Hill
#
# Bulk Modulus (GPa) = 56.95059 57.16153 57.05606
# Shear Modulus (GPa) = 34.40579 37.12797 35.76688
#
# Velocity S-wave (km/s) = 3.59397 3.73344 3.66437
# Velocity P-wave (km/s) = 6.21310 6.32806 6.27084
#
# Compressibility (1/GPa) = 0.01755908
#
# Stress axis : x y z
#
# Youngs Moduli (GPa) = 96.04658 99.21200 113.09683
#
# Poissons Ratio (x) = 0.21991 0.23522
# Poissons Ratio (y) = 0.21289 0.17989
# Poissons Ratio (z) = 0.19976 0.15781
#
# Static dielectric constant tensor:
#      x y z
#    x 5.313310 0.000000 0.000000 
#    y 0.000000 4.676800 0.000000 
#    z 0.000000 0.000000 4.744030 
# 
# 
# High freq. dielectric constant tensor:
#      x y z
#    x 2.096810 0.000000 0.000000 
#    y 0.000000 2.058590 0.000000 
#    z 0.000000 0.000000 2.080900 
# 
# From -- ./inp_files/4226.got.cif
#   From: 2010.03.12/outbox.cif.g09.slc.cpg/sg50_3_cif.got.tgz:4226.got - 2010.04.16 13:23:21.
