data_PCOD8205458
_publ_section_title
;
Structure prediction by ZEFSAII (Michael W. Deem and Ramdas Pophale) SiO2 
 PCOD8205458
Probable space group: P B A N
;
_chemical_formula_sum "Si O2"
_cell_formula_units_Z 34
_cell_length_a 15.222322
_cell_length_b 8.634496
_cell_length_c 13.141224
_cell_angle_alpha 90.000000
_cell_angle_beta 90.000000
_cell_angle_gamma 90.000000
_cell_volume 1727.244089
_symmetry_space_group_name_H-M "P B A N"
_symmetry_group_IT_number 50
_space_group.IT_coordinate_system_code '2'
_symmetry_cell_setting 'orthorhombic'
loop_
_space_group_symop_operation_xyz
x,y,z
1/2-x,1/2-y,z
x,1/2-y,-z
1/2-x,y,-z
-x,-y,-z
1/2+x,1/2+y,-z
-x,1/2+y,z
1/2+x,-y,z
loop_
_atom_site_type_symbol
_atom_site_label
_atom_site_fract_x
_atom_site_fract_y
_atom_site_fract_z
Si Si1 0.852777 0.069897 0.506402
Si Si2 0.250000 0.750000 0.000000
Si Si3 0.258758 0.584842 0.806590
Si Si4 0.587908 0.580200 0.303818
Si Si5 0.092142 0.444178 0.721774
O O1 0.875921 0.250000 0.500000
O O2 0.750000 0.034483 0.500000
O O3 0.906131 0.973906 0.421032
O O4 0.883981 0.015828 0.614740
O O5 0.296416 0.629752 0.920475
O O6 0.250000 0.750000 0.745509
O O7 0.325606 0.474142 0.752773
O O8 0.163742 0.498430 0.806396
O O9 0.503339 0.508685 0.247284
O O10 0.586301 0.762207 0.291169
#
# Coordination Sequence:
#
# PCOD8205458 Si02
#       5
#     8   2   8   8   8
#     4  11  22  37  60  94 133 181 213 253 308 372
#     4   8  24  44  78  86 128 154 206 288 336 378
#     4  10  21  44  68  92 121 163 206 265 334 375
#     4  12  24  39  64  96 134 172 214 259 310 382
#     4  12  24  39  64  96 134 172 214 259 310 382
#
# _framework density 19.684536999999999
#
# number of rings (size 3 to 8) (size 9 to 14) (size 15 to 20)
#    0.706    0.235    2.353    6.353    0.000    0.941 
#    0.000    3.529    0.000    0.000    0.000    0.000 
#    0.000    0.000    0.000    0.000    0.000    0.000 
#
# Total GULP energy -421247.725107 kJ/mol
# GULP energy per Si atom -12389.638974 kJ/mol
# Density = 1.963973 g / cm^3
# Si number density = 19.684537 Si / 1000 Ang^3
#
#
#
# Elastic Constant Matrix: (Units=GPa)
#
#
# Indices 1 2 3 4 5 6 
#
# 1 110.6061 43.4871 6.8913 0.0000 0.0000 0.0000
# 2 43.4871 165.9696 20.2489 0.0000 0.0000 0.0000
# 3 6.8913 20.2489 75.1100 0.0000 0.0000 0.0000
# 4 0.0000 0.0000 0.0000 -33.6304 0.0000 0.0000
# 5 0.0000 0.0000 0.0000 0.0000 -25.5446 0.0000
# 6 0.0000 0.0000 0.0000 0.0000 0.0000 23.6708
#
#
#
# Elastic Compliance Matrix: (Units=1/GPa)
#
#
# Indices 1 2 3 4 5 6 
#
# 1 0.010083 -0.002615 -0.000220 0.000000 0.000000 0.000000
# 2 -0.002615 0.006908 -0.001622 0.000000 0.000000 0.000000
# 3 -0.000220 -0.001622 0.013771 0.000000 0.000000 0.000000
# 4 0.000000 0.000000 0.000000 -0.029735 0.000000 0.000000
# 5 0.000000 0.000000 0.000000 0.000000 -0.039147 0.000000
# 6 0.000000 0.000000 0.000000 0.000000 0.000000 0.042246
#
#
# Mechanical properties :
#
#
# Convention : Reuss Voigt Hill
#
# Bulk Modulus (GPa) = 45.77205 54.77113 50.27159
# Shear Modulus (GPa) = 246.00870 11.63639 128.82254
#
# Velocity S-wave (km/s) = 11.19138 2.43398 8.09849
# Velocity P-wave (km/s) = 13.79490 5.98196 10.63210
#
# Compressibility (1/GPa) = 0.02184740
#
# Stress axis : x y z
#
# Youngs Moduli (GPa) = 99.17708 144.75250 72.61418
#
# Poissons Ratio (x) = 0.37854 0.01598
# Poissons Ratio (y) = 0.25935 0.11782
# Poissons Ratio (z) = 0.02183 0.23486
#
# Static dielectric constant tensor:
#      x y z
#    x 4.177170 0.000000 0.000000 
#    y 0.000000 3.331010 0.000000 
#    z 0.000000 0.000000 3.432730 
# 
# 
# High freq. dielectric constant tensor:
#      x y z
#    x 1.770340 0.000000 0.000000 
#    y 0.000000 1.787580 0.000000 
#    z 0.000000 0.000000 1.736870 
# 
# From -- ./inp_files/26179.got.cif
#   From: 2010.03.12/outbox.cif.g09.slc.cpg/sg50_14_cif.got.tgz:26179.got - 2010.04.16 13:23:21.
