data_PCOD8205043
_publ_section_title
;
Structure prediction by ZEFSAII (Michael W. Deem and Ramdas Pophale) SiO2 
 PCOD8205043
Probable space group: P B A N
;
_chemical_formula_sum "Si O2"
_cell_formula_units_Z 48
_cell_length_a 16.377956
_cell_length_b 30.267759
_cell_length_c 5.038224
_cell_angle_alpha 90.000000
_cell_angle_beta 90.000000
_cell_angle_gamma 90.000000
_cell_volume 2497.568681
_symmetry_space_group_name_H-M "P B A N"
_symmetry_group_IT_number 50
_space_group.IT_coordinate_system_code '2'
_symmetry_cell_setting 'orthorhombic'
loop_
_space_group_symop_operation_xyz
x,y,z
1/2-x,1/2-y,z
x,1/2-y,-z
1/2-x,y,-z
-x,-y,-z
1/2+x,1/2+y,-z
-x,1/2+y,z
1/2+x,-y,z
loop_
_atom_site_type_symbol
_atom_site_label
_atom_site_fract_x
_atom_site_fract_y
_atom_site_fract_z
Si Si1 0.659123 0.322781 0.604680
Si Si2 0.021661 0.385093 0.879791
Si Si3 0.196138 0.982861 0.249670
Si Si4 0.696475 0.585634 0.755086
Si Si5 0.930020 0.295723 0.898699
Si Si6 0.067966 0.587594 0.624044
O O1 0.750000 0.318470 0.500000
O O2 0.603447 0.294713 0.400910
O O3 0.635111 0.373950 0.627827
O O4 0.646190 0.303629 0.899554
O O5 0.113889 0.386416 0.775866
O O6 0.997853 0.333798 0.906011
O O7 0.967083 0.413466 0.673520
O O8 0.007408 0.405601 0.171482
O O9 0.250000 0.971551 0.500000
O O10 0.111022 0.957409 0.283484
O O11 0.172971 0.034157 0.231504
O O12 0.250000 0.967065 0.000000
O O13 0.750000 0.597766 0.500000
O O14 0.750000 0.600448 0.000000
O O15 0.971355 0.250000 0.000000
#
# Coordination Sequence:
#
# PCOD8205043 Si02
#       6
#     8   8   8   8   8   8
#     4  10  20  32  49  74 105 140 176 209 242 291
#     4  10  21  36  54  77 102 134 174 215 264 316
#     4  10  20  33  51  76 108 145 179 213 254 299
#     4  10  21  37  56  78 103 133 172 218 269 320
#     4  10  21  35  51  74 102 135 171 211 261 307
#     4  10  20  33  51  76 107 141 176 211 250 299
#
# _framework density 19.218689999999999
#
# number of rings (size 3 to 8) (size 9 to 14) (size 15 to 20)
#    0.000    2.000    0.000    3.500    0.000    6.000 
#    0.000    0.000    0.000    0.500    0.000    1.167 
#    0.000    0.000    0.000    0.000    0.000    0.000 
#
# Total GULP energy -595059.598564 kJ/mol
# GULP energy per Si atom -12397.074970 kJ/mol
# Density = 1.917495 g / cm^3
# Si number density = 19.218690 Si / 1000 Ang^3
#
#
#
# Elastic Constant Matrix: (Units=GPa)
#
#
# Indices 1 2 3 4 5 6 
#
# 1 107.2025 52.5771 29.7242 0.0000 0.0000 0.0000
# 2 52.5771 62.0338 29.9715 0.0000 0.0000 0.0000
# 3 29.7242 29.9715 113.5129 0.0000 0.0000 0.0000
# 4 0.0000 0.0000 0.0000 28.5398 0.0000 0.0000
# 5 0.0000 0.0000 0.0000 0.0000 16.0388 0.0000
# 6 0.0000 0.0000 0.0000 0.0000 0.0000 14.2207
#
#
#
# Elastic Compliance Matrix: (Units=1/GPa)
#
#
# Indices 1 2 3 4 5 6 
#
# 1 0.016012 -0.013234 -0.000699 0.000000 0.000000 0.000000
# 2 -0.013234 0.029415 -0.004301 0.000000 0.000000 0.000000
# 3 -0.000699 -0.004301 0.010128 0.000000 0.000000 0.000000
# 4 0.000000 0.000000 0.000000 0.035039 0.000000 0.000000
# 5 0.000000 0.000000 0.000000 0.000000 0.062349 0.000000
# 6 0.000000 0.000000 0.000000 0.000000 0.000000 0.070320
#
#
# Mechanical properties :
#
#
# Convention : Reuss Voigt Hill
#
# Bulk Modulus (GPa) = 52.38933 56.36610 54.37771
# Shear Modulus (GPa) = 18.79043 23.12495 20.95769
#
# Velocity S-wave (km/s) = 3.13024 3.47256 3.30583
# Velocity P-wave (km/s) = 6.35478 6.74319 6.55187
#
# Compressibility (1/GPa) = 0.01908786
#
# Stress axis : x y z
#
# Youngs Moduli (GPa) = 62.45196 33.99665 98.73404
#
# Poissons Ratio (x) = 0.44990 0.06899
# Poissons Ratio (y) = 0.82647 0.42467
# Poissons Ratio (z) = 0.04364 0.14623
#
# Static dielectric constant tensor:
#      x y z
#    x 3.154160 0.000000 0.000000 
#    y 0.000000 3.465160 0.000000 
#    z 0.000000 0.000000 3.849390 
# 
# 
# High freq. dielectric constant tensor:
#      x y z
#    x 1.721410 0.000000 0.000000 
#    y 0.000000 1.732300 0.000000 
#    z 0.000000 0.000000 1.774940 
# 
# From -- ./inp_files/3555.got.cif
#   From: 2010.03.12/outbox.cif.g09.slc.cpg/sg50_2_cif.got.tgz:3555.got - 2010.04.16 13:23:21.
