data_PCOD8205889
_publ_section_title
;
Structure prediction by ZEFSAII (Michael W. Deem and Ramdas Pophale) SiO2 
 PCOD8205889
Probable space group: P B A N
;
_chemical_formula_sum "Si O2"
_cell_formula_units_Z 34
_cell_length_a 9.472535
_cell_length_b 17.948570
_cell_length_c 8.522298
_cell_angle_alpha 90.000000
_cell_angle_beta 90.000000
_cell_angle_gamma 90.000000
_cell_volume 1448.947961
_symmetry_space_group_name_H-M "P B A N"
_symmetry_group_IT_number 50
_space_group.IT_coordinate_system_code '2'
_symmetry_cell_setting 'orthorhombic'
loop_
_space_group_symop_operation_xyz
x,y,z
1/2-x,1/2-y,z
x,1/2-y,-z
1/2-x,y,-z
-x,-y,-z
1/2+x,1/2+y,-z
-x,1/2+y,z
1/2+x,-y,z
loop_
_atom_site_type_symbol
_atom_site_label
_atom_site_fract_x
_atom_site_fract_y
_atom_site_fract_z
Si Si1 0.250000 0.750000 0.500000
Si Si2 0.413772 0.245954 0.171105
Si Si3 0.555478 0.133538 0.653045
Si Si4 0.744158 0.018046 0.815887
Si Si5 0.473116 0.088399 0.317710
O O1 0.336835 0.802234 0.387930
O O2 0.250000 0.250000 0.146470
O O3 0.430065 0.323399 0.263555
O O4 0.476404 0.174291 0.262160
O O5 0.488378 0.250000 0.000000
O O6 0.633229 0.082679 0.779836
O O7 0.498069 0.086562 0.505090
O O8 0.901100 0.038540 0.757074
O O9 0.680160 0.945333 0.727235
O O10 0.750000 0.001337 0.000000
#
# Coordination Sequence:
#
# PCOD8205889 Si02
#       5
#     2   8   8   8   8
#     4  12  20  44  68  96 144 172 248 306 344 432
#     4  11  26  46  76 107 143 184 241 304 368 432
#     4  12  23  46  74 104 142 189 247 306 363 430
#     4  12  27  45  73 104 151 194 240 299 370 439
#     4  12  26  47  70 109 145 192 243 298 365 439
#
# _framework density 23.465299999999999
#
# number of rings (size 3 to 8) (size 9 to 14) (size 15 to 20)
#    0.000    0.235    4.706    2.824    6.588    1.882 
#    0.000    2.353    0.000    0.000    0.000    0.000 
#    0.000    0.000    0.000    0.000    0.000    0.000 
#
# Total GULP energy -421510.789625 kJ/mol
# GULP energy per Si atom -12397.376165 kJ/mol
# Density = 2.341189 g / cm^3
# Si number density = 23.465300 Si / 1000 Ang^3
#
#
#
# Elastic Constant Matrix: (Units=GPa)
#
#
# Indices 1 2 3 4 5 6 
#
# 1 84.8085 32.2892 47.6911 0.0000 0.0000 0.0000
# 2 32.2892 89.7351 20.5683 0.0000 0.0000 0.0000
# 3 47.6911 20.5683 126.1939 0.0000 0.0000 0.0000
# 4 0.0000 0.0000 0.0000 35.9482 0.0000 0.0000
# 5 0.0000 0.0000 0.0000 0.0000 30.5292 0.0000
# 6 0.0000 0.0000 0.0000 0.0000 0.0000 58.7914
#
#
#
# Elastic Compliance Matrix: (Units=1/GPa)
#
#
# Indices 1 2 3 4 5 6 
#
# 1 0.016715 -0.004744 -0.005544 0.000000 0.000000 0.000000
# 2 -0.004744 0.012923 -0.000314 0.000000 0.000000 0.000000
# 3 -0.005544 -0.000314 0.010070 0.000000 0.000000 0.000000
# 4 0.000000 0.000000 0.000000 0.027818 0.000000 0.000000
# 5 0.000000 0.000000 0.000000 0.000000 0.032756 0.000000
# 6 0.000000 0.000000 0.000000 0.000000 0.000000 0.017009
#
#
# Mechanical properties :
#
#
# Convention : Reuss Voigt Hill
#
# Bulk Modulus (GPa) = 54.03624 55.75940 54.89782
# Shear Modulus (GPa) = 34.56356 38.39971 36.48163
#
# Velocity S-wave (km/s) = 3.84209 4.04969 3.94725
# Velocity P-wave (km/s) = 6.53914 6.75875 6.64985
#
# Compressibility (1/GPa) = 0.01850610
#
# Stress axis : x y z
#
# Youngs Moduli (GPa) = 59.82734 77.38316 99.30034
#
# Poissons Ratio (x) = 0.36709 0.55049
# Poissons Ratio (y) = 0.28381 0.03113
# Poissons Ratio (z) = 0.33166 0.02426
#
# Static dielectric constant tensor:
#      x y z
#    x 4.161450 0.000000 0.000000 
#    y 0.000000 3.361310 0.000000 
#    z 0.000000 0.000000 4.285750 
# 
# 
# High freq. dielectric constant tensor:
#      x y z
#    x 1.933600 0.000000 0.000000 
#    y 0.000000 1.948520 0.000000 
#    z 0.000000 0.000000 1.936140 
# 
# From -- ./inp_files/9211.got.cif
#   From: 2010.03.12/outbox.cif.g09.slc.cpg/sg50_5_cif.got.tgz:9211.got - 2010.04.16 13:23:21.
