data_PCOD8205299
_publ_section_title
;
Structure prediction by ZEFSAII (Michael W. Deem and Ramdas Pophale) SiO2 
 PCOD8205299
Probable space group: P B A N
;
_chemical_formula_sum "Si O2"
_cell_formula_units_Z 64
_cell_length_a 16.442907
_cell_length_b 9.254681
_cell_length_c 21.943014
_cell_angle_alpha 90.000000
_cell_angle_beta 90.000000
_cell_angle_gamma 90.000000
_cell_volume 3339.153118
_symmetry_space_group_name_H-M "P B A N"
_symmetry_group_IT_number 50
_space_group.IT_coordinate_system_code '2'
_symmetry_cell_setting 'orthorhombic'
loop_
_space_group_symop_operation_xyz
x,y,z
1/2-x,1/2-y,z
x,1/2-y,-z
1/2-x,y,-z
-x,-y,-z
1/2+x,1/2+y,-z
-x,1/2+y,z
1/2+x,-y,z
loop_
_atom_site_type_symbol
_atom_site_label
_atom_site_fract_x
_atom_site_fract_y
_atom_site_fract_z
Si Si1 0.750000 0.921066 0.069542
Si Si2 0.415349 0.078535 0.135207
Si Si3 0.416817 0.580269 0.500000
Si Si4 0.421969 0.415942 0.727263
Si Si5 0.842859 0.592186 0.394451
Si Si6 0.415349 0.421465 0.135207
Si Si7 0.657141 0.592186 0.394451
Si Si8 0.078031 0.084058 0.272737
O O1 0.750000 0.750000 0.076076
O O2 0.834896 0.978212 0.099281
O O3 0.665104 0.978212 0.099281
O O4 0.750000 0.973326 0.000000
O O5 0.395213 0.035500 0.205141
O O6 0.427685 0.250000 0.125616
O O7 0.500000 0.000000 0.114166
O O8 0.426911 0.750000 0.500000
O O9 0.500000 0.500000 0.500000
O O10 0.372981 0.533995 0.438047
O O11 0.372981 0.533995 0.561953
O O12 0.353251 0.448743 0.676914
O O13 0.446286 0.250000 0.730072
O O14 0.500000 0.500000 0.703715
O O15 0.750000 0.610441 0.408760
O O16 0.884979 0.750000 0.407510
O O17 0.853251 0.551257 0.323086
O O18 0.395213 0.464500 0.205141
#
# Coordination Sequence:
#
# PCOD8205299 Si02
#       8
#     8   8   8   8   8   8   8   8
#     4   9  18  32  53  81 111 146 187 226 268 327
#     4   9  18  33  54  79 110 145 185 229 274 323
#     4  12  25  40  57  75 101 137 177 216 263 316
#     4   9  18  32  52  77 103 135 174 217 264 314
#     4  10  21  36  55  79 106 135 171 215 265 318
#     4   9  18  33  54  79 110 145 185 229 274 323
#     4  10  21  36  55  79 106 135 171 215 265 318
#     4   9  18  32  52  77 103 135 174 217 264 314
#
# _framework density 19.166536000000001
#
# number of rings (size 3 to 8) (size 9 to 14) (size 15 to 20)
#    0.000    2.375    0.000    2.250    1.750    5.500 
#    0.000    0.625    0.000    0.750    0.000    0.000 
#    0.000    0.000    0.000    0.000    0.000    0.000 
#
# Total GULP energy -792993.066806 kJ/mol
# GULP energy per Si atom -12390.516669 kJ/mol
# Density = 1.912291 g / cm^3
# Si number density = 19.166536 Si / 1000 Ang^3
#
#
#
# Elastic Constant Matrix: (Units=GPa)
#
#
# Indices 1 2 3 4 5 6 
#
# 1 127.7211 44.2648 64.2584 0.0000 0.0000 0.0000
# 2 44.2648 70.6576 42.6629 0.0000 0.0000 0.0000
# 3 64.2584 42.6629 121.0766 0.0000 0.0000 0.0000
# 4 0.0000 0.0000 0.0000 39.9519 0.0000 0.0000
# 5 0.0000 0.0000 0.0000 0.0000 36.9272 0.0000
# 6 0.0000 0.0000 0.0000 0.0000 0.0000 27.2967
#
#
#
# Elastic Compliance Matrix: (Units=1/GPa)
#
#
# Indices 1 2 3 4 5 6 
#
# 1 0.011735 -0.004562 -0.004621 0.000000 0.000000 0.000000
# 2 -0.004562 0.019751 -0.004538 0.000000 0.000000 0.000000
# 3 -0.004621 -0.004538 0.012311 0.000000 0.000000 0.000000
# 4 0.000000 0.000000 0.000000 0.025030 0.000000 0.000000
# 5 0.000000 0.000000 0.000000 0.000000 0.027080 0.000000
# 6 0.000000 0.000000 0.000000 0.000000 0.000000 0.036634
#
#
# Mechanical properties :
#
#
# Convention : Reuss Voigt Hill
#
# Bulk Modulus (GPa) = 61.14364 69.09194 65.11779
# Shear Modulus (GPa) = 30.22324 32.05312 31.13818
#
# Velocity S-wave (km/s) = 3.97530 4.09387 4.03502
# Velocity P-wave (km/s) = 7.28294 7.64675 7.46706
#
# Compressibility (1/GPa) = 0.01635493
#
# Stress axis : x y z
#
# Youngs Moduli (GPa) = 85.21240 50.63074 81.22941
#
# Poissons Ratio (x) = 0.23097 0.37535
# Poissons Ratio (y) = 0.38872 0.36865
# Poissons Ratio (z) = 0.39375 0.22978
#
# Static dielectric constant tensor:
#      x y z
#    x 2.807680 0.000000 0.000000 
#    y 0.000000 3.163030 0.000000 
#    z 0.000000 0.000000 3.613080 
# 
# 
# High freq. dielectric constant tensor:
#      x y z
#    x 1.744160 0.000000 0.000000 
#    y 0.000000 1.722100 0.000000 
#    z 0.000000 0.000000 1.752940 
# 
# From -- ./inp_files/31763.got.cif
#   From: 2010.03.12/outbox.cif.g09.slc.cpg/sg50_16_cif.got.tgz:31763.got - 2010.04.16 13:23:21.
