data_PCOD8205408
_publ_section_title
;
Structure prediction by ZEFSAII (Michael W. Deem and Ramdas Pophale) SiO2 
 PCOD8205408
Probable space group: P B A N
;
_chemical_formula_sum "Si O2"
_cell_formula_units_Z 40
_cell_length_a 11.597639
_cell_length_b 13.095624
_cell_length_c 12.386226
_cell_angle_alpha 90.000000
_cell_angle_beta 90.000000
_cell_angle_gamma 90.000000
_cell_volume 1881.199191
_symmetry_space_group_name_H-M "P B A N"
_symmetry_group_IT_number 50
_space_group.IT_coordinate_system_code '2'
_symmetry_cell_setting 'orthorhombic'
loop_
_space_group_symop_operation_xyz
x,y,z
1/2-x,1/2-y,z
x,1/2-y,-z
1/2-x,y,-z
-x,-y,-z
1/2+x,1/2+y,-z
-x,1/2+y,z
1/2+x,-y,z
loop_
_atom_site_type_symbol
_atom_site_label
_atom_site_fract_x
_atom_site_fract_y
_atom_site_fract_z
Si Si1 0.485667 0.309288 0.388796
Si Si2 0.301482 0.646203 0.747348
Si Si3 0.344729 0.031798 0.703217
Si Si4 0.656592 0.823532 0.778855
Si Si5 0.965687 0.496664 0.876685
O O1 0.480678 0.250000 0.500000
O O2 0.615765 0.327250 0.352313
O O3 0.420907 0.420698 0.395251
O O4 0.420640 0.245007 0.298153
O O5 0.250000 0.750000 0.798569
O O6 0.194942 0.585313 0.690504
O O7 0.362231 0.581829 0.844334
O O8 0.226651 0.095034 0.708375
O O9 0.422001 0.038013 0.811264
O O10 0.750000 0.750000 0.840112
O O11 0.573076 0.886103 0.857324
O O12 0.000000 0.500000 0.000000
#
# Coordination Sequence:
#
# PCOD8205408 Si02
#       5
#     8   8   8   8   8
#     4  10  21  40  64  90 119 157 204 251 301 360
#     4  10  21  40  60  88 128 161 199 251 302 361
#     4   9  20  39  60  86 122 156 195 249 298 355
#     4   9  19  37  58  85 119 154 198 248 297 354
#     4  10  21  40  62  87 121 160 204 251 300 358
#
# _framework density 21.263031999999999
#
# number of rings (size 3 to 8) (size 9 to 14) (size 15 to 20)
#    0.000    2.400    0.000    1.200    0.000    7.200 
#    0.000   46.000    0.000    0.000    0.000    0.000 
#    0.000    0.000    0.000    0.000    0.000    0.000 
#
# Total GULP energy -495579.257484 kJ/mol
# GULP energy per Si atom -12389.481437 kJ/mol
# Density = 2.121464 g / cm^3
# Si number density = 21.263032 Si / 1000 Ang^3
#
#
#
# Elastic Constant Matrix: (Units=GPa)
#
#
# Indices 1 2 3 4 5 6 
#
# 1 97.5374 53.1663 46.8467 0.0000 0.0000 0.0000
# 2 53.1663 144.7291 53.7662 0.0000 0.0000 0.0000
# 3 46.8467 53.7662 118.1286 0.0000 0.0000 0.0000
# 4 0.0000 0.0000 0.0000 29.2316 0.0000 0.0000
# 5 0.0000 0.0000 0.0000 0.0000 12.6528 0.0000
# 6 0.0000 0.0000 0.0000 0.0000 0.0000 59.6834
#
#
#
# Elastic Compliance Matrix: (Units=1/GPa)
#
#
# Indices 1 2 3 4 5 6 
#
# 1 0.014179 -0.003755 -0.003914 0.000000 0.000000 0.000000
# 2 -0.003755 0.009310 -0.002748 0.000000 0.000000 0.000000
# 3 -0.003914 -0.002748 0.011269 0.000000 0.000000 0.000000
# 4 0.000000 0.000000 0.000000 0.034210 0.000000 0.000000
# 5 0.000000 0.000000 0.000000 0.000000 0.079034 0.000000
# 6 0.000000 0.000000 0.000000 0.000000 0.000000 0.016755
#
#
# Mechanical properties :
#
#
# Convention : Reuss Voigt Hill
#
# Bulk Modulus (GPa) = 71.82309 74.21708 73.02009
# Shear Modulus (GPa) = 26.28385 34.08795 30.18590
#
# Velocity S-wave (km/s) = 3.51968 4.00829 3.77190
# Velocity P-wave (km/s) = 7.09713 7.51012 7.30654
#
# Compressibility (1/GPa) = 0.01392310
#
# Stress axis : x y z
#
# Youngs Moduli (GPa) = 70.52697 107.41483 88.74295
#
# Poissons Ratio (x) = 0.40330 0.34735
# Poissons Ratio (y) = 0.26480 0.24390
# Poissons Ratio (z) = 0.27605 0.29521
#
# Static dielectric constant tensor:
#      x y z
#    x 4.247640 0.000000 0.000000 
#    y 0.000000 4.558760 0.000000 
#    z 0.000000 0.000000 3.246470 
# 
# 
# High freq. dielectric constant tensor:
#      x y z
#    x 1.858380 0.000000 0.000000 
#    y 0.000000 1.859140 0.000000 
#    z 0.000000 0.000000 1.772850 
# 
# From -- ./inp_files/20008.got.cif
#   From: 2010.03.12/outbox.cif.g09.slc.cpg/sg50_11_cif.got.tgz:20008.got - 2010.04.16 13:23:21.
