data_PCOD8205208
_publ_section_title
;
Structure prediction by ZEFSAII (Michael W. Deem and Ramdas Pophale) SiO2 
 PCOD8205208
Probable space group: P B A N
;
_chemical_formula_sum "Si O2"
_cell_formula_units_Z 56
_cell_length_a 20.273750
_cell_length_b 13.813164
_cell_length_c 9.459225
_cell_angle_alpha 90.000000
_cell_angle_beta 90.000000
_cell_angle_gamma 90.000000
_cell_volume 2649.005200
_symmetry_space_group_name_H-M "P B A N"
_symmetry_group_IT_number 50
_space_group.IT_coordinate_system_code '2'
_symmetry_cell_setting 'orthorhombic'
loop_
_space_group_symop_operation_xyz
x,y,z
1/2-x,1/2-y,z
x,1/2-y,-z
1/2-x,y,-z
-x,-y,-z
1/2+x,1/2+y,-z
-x,1/2+y,z
1/2+x,-y,z
loop_
_atom_site_type_symbol
_atom_site_label
_atom_site_fract_x
_atom_site_fract_y
_atom_site_fract_z
Si Si1 0.499671 0.995791 0.266742
Si Si2 0.327489 0.259339 0.664573
Si Si3 0.309383 0.853408 0.574755
Si Si4 0.866137 0.941668 0.166482
Si Si5 0.133446 0.082792 0.151279
Si Si6 0.254978 0.928943 0.839806
Si Si7 0.046089 0.864506 0.488849
O O1 0.439430 0.014696 0.161916
O O2 0.504253 0.093893 0.359159
O O3 0.565094 0.973794 0.177575
O O4 0.480980 0.905191 0.364873
O O5 0.250000 0.250000 0.693393
O O6 0.345220 0.250000 0.500000
O O7 0.354134 0.363073 0.712629
O O8 0.365942 0.178140 0.753209
O O9 0.313239 0.750000 0.500000
O O10 0.250000 0.914736 0.500000
O O11 0.285341 0.844742 0.738899
O O12 0.379716 0.902901 0.547170
O O13 0.817699 0.032190 0.197820
O O14 0.856606 0.891528 0.013803
O O15 0.195410 0.017016 0.190012
O O16 0.250000 0.889652 0.000000
O O17 0.040452 0.750000 0.500000
#
# Coordination Sequence:
#
# PCOD8205208 Si02
#       7
#     8   8   8   8   8   8   8
#     4  11  24  39  64  96 131 181 218 271 330 394
#     4  11  25  41  65 102 135 169 219 279 336 399
#     4  10  20  38  63  89 117 160 210 266 320 379
#     4  11  24  41  65  94 131 173 222 270 330 401
#     4  11  23  42  64  92 134 175 219 270 329 396
#     4  10  21  39  64  92 126 169 214 269 327 393
#     4  10  23  40  61  94 133 168 216 273 326 385
#
# _framework density 21.14001
#
# number of rings (size 3 to 8) (size 9 to 14) (size 15 to 20)
#    0.000    1.429    2.857    1.714    6.000    1.714 
#    0.000    1.429    0.000    0.000    0.000    0.000 
#    0.000    0.000    0.000    0.000    0.000    0.000 
#
# Total GULP energy -694124.430390 kJ/mol
# GULP energy per Si atom -12395.079114 kJ/mol
# Density = 2.109189 g / cm^3
# Si number density = 21.140010 Si / 1000 Ang^3
#
#
#
# Elastic Constant Matrix: (Units=GPa)
#
#
# Indices 1 2 3 4 5 6 
#
# 1 114.2204 18.3008 22.7349 0.0000 0.0000 0.0000
# 2 18.3008 73.7690 34.1472 0.0000 0.0000 0.0000
# 3 22.7349 34.1472 111.1090 0.0000 0.0000 0.0000
# 4 0.0000 0.0000 0.0000 19.0070 0.0000 0.0000
# 5 0.0000 0.0000 0.0000 0.0000 27.5946 0.0000
# 6 0.0000 0.0000 0.0000 0.0000 0.0000 20.4571
#
#
#
# Elastic Compliance Matrix: (Units=1/GPa)
#
#
# Indices 1 2 3 4 5 6 
#
# 1 0.009298 -0.001663 -0.001392 0.000000 0.000000 0.000000
# 2 -0.001663 0.016101 -0.004608 0.000000 0.000000 0.000000
# 3 -0.001392 -0.004608 0.010701 0.000000 0.000000 0.000000
# 4 0.000000 0.000000 0.000000 0.052612 0.000000 0.000000
# 5 0.000000 0.000000 0.000000 0.000000 0.036239 0.000000
# 6 0.000000 0.000000 0.000000 0.000000 0.000000 0.048883
#
#
# Mechanical properties :
#
#
# Convention : Reuss Voigt Hill
#
# Bulk Modulus (GPa) = 48.13245 49.94046 49.03646
# Shear Modulus (GPa) = 25.49910 28.33944 26.91927
#
# Velocity S-wave (km/s) = 3.47681 3.66534 3.57232
# Velocity P-wave (km/s) = 6.23983 6.44887 6.34521
#
# Compressibility (1/GPa) = 0.02077600
#
# Stress axis : x y z
#
# Youngs Moduli (GPa) = 107.54556 62.10633 93.44756
#
# Poissons Ratio (x) = 0.10326 0.13005
# Poissons Ratio (y) = 0.17880 0.43063
# Poissons Ratio (z) = 0.14967 0.28620
#
# Static dielectric constant tensor:
#      x y z
#    x 4.526640 0.000000 0.000000 
#    y 0.000000 3.429230 0.000000 
#    z 0.000000 0.000000 3.895260 
# 
# 
# High freq. dielectric constant tensor:
#      x y z
#    x 1.850770 0.000000 0.000000 
#    y 0.000000 1.804220 0.000000 
#    z 0.000000 0.000000 1.834810 
# 
# From -- ./inp_files/13308.got.cif
#   From: 2010.03.12/outbox.cif.g09.slc.cpg/sg50_7_cif.got.tgz:13308.got - 2010.04.16 13:23:21.
