data_PCOD8205161
_publ_section_title
;
Structure prediction by ZEFSAII (Michael W. Deem and Ramdas Pophale) SiO2 
 PCOD8205161
Probable space group: P B A N
;
_chemical_formula_sum "Si O2"
_cell_formula_units_Z 52
_cell_length_a 20.712780
_cell_length_b 23.181185
_cell_length_c 5.304021
_cell_angle_alpha 90.000000
_cell_angle_beta 90.000000
_cell_angle_gamma 90.000000
_cell_volume 2546.708631
_symmetry_space_group_name_H-M "P B A N"
_symmetry_group_IT_number 50
_space_group.IT_coordinate_system_code '2'
_symmetry_cell_setting 'orthorhombic'
loop_
_space_group_symop_operation_xyz
x,y,z
1/2-x,1/2-y,z
x,1/2-y,-z
1/2-x,y,-z
-x,-y,-z
1/2+x,1/2+y,-z
-x,1/2+y,z
1/2+x,-y,z
loop_
_atom_site_type_symbol
_atom_site_label
_atom_site_fract_x
_atom_site_fract_y
_atom_site_fract_z
Si Si1 0.750000 0.961682 0.000000
Si Si2 0.817498 0.886136 0.375753
Si Si3 0.586615 0.694089 0.132966
Si Si4 0.055427 0.782969 0.258419
Si Si5 0.553423 0.091348 0.391472
Si Si6 0.971053 0.585167 0.095538
Si Si7 0.134555 0.012392 0.296636
O O1 0.697465 0.919555 0.879817
O O2 0.793974 0.001169 0.817763
O O3 0.750000 0.867123 0.500000
O O4 0.860405 0.829599 0.329280
O O5 0.859803 0.931736 0.528389
O O6 0.522117 0.713617 0.277865
O O7 0.617816 0.750000 0.000000
O O8 0.568159 0.645187 0.929124
O O9 0.083007 0.750000 0.500000
O O10 0.082938 0.847766 0.292727
O O11 0.077032 0.750000 0.000000
O O12 0.516261 0.093678 0.658354
O O13 0.612379 0.046437 0.432523
O O14 0.507625 0.070583 0.164421
O O15 0.922705 0.530852 0.108105
#
# Coordination Sequence:
#
# PCOD8205161 Si02
#       7
#     4   8   8   8   8   8   8
#     4  10  22  40  59  76 117 156 196 250 308 342
#     4  10  22  40  59  78 114 159 203 263 306 337
#     4  10  20  37  62  78 112 162 206 243 297 362
#     4  10  20  37  56  85 123 153 184 234 297 356
#     4  11  23  35  61  94 119 155 197 240 301 379
#     4  11  22  37  59  88 124 153 192 257 306 353
#     4  11  22  37  61  83 119 153 198 246 311 364
#
# _framework density 20.418510999999999
#
# number of rings (size 3 to 8) (size 9 to 14) (size 15 to 20)
#    0.000    1.538    1.538    5.538    2.154    0.000 
#    0.000    0.385    3.385    0.000    0.000    0.538 
#    0.000    0.000    0.000    0.000    0.000    0.000 
#
# Total GULP energy -644313.913844 kJ/mol
# GULP energy per Si atom -12390.652189 kJ/mol
# Density = 2.037204 g / cm^3
# Si number density = 20.418511 Si / 1000 Ang^3
#
#
#
# Elastic Constant Matrix: (Units=GPa)
#
#
# Indices 1 2 3 4 5 6 
#
# 1 47.0371 45.0585 20.2072 0.0000 0.0000 0.0000
# 2 45.0585 117.5285 22.7842 0.0000 0.0000 0.0000
# 3 20.2072 22.7842 99.0638 0.0000 0.0000 0.0000
# 4 0.0000 0.0000 0.0000 38.8294 0.0000 0.0000
# 5 0.0000 0.0000 0.0000 0.0000 15.2510 0.0000
# 6 0.0000 0.0000 0.0000 0.0000 0.0000 37.8613
#
#
#
# Elastic Compliance Matrix: (Units=1/GPa)
#
#
# Indices 1 2 3 4 5 6 
#
# 1 0.035246 -0.012685 -0.004272 0.000000 0.000000 0.000000
# 2 -0.012685 0.013471 -0.000511 0.000000 0.000000 0.000000
# 3 -0.004272 -0.000511 0.011083 0.000000 0.000000 0.000000
# 4 0.000000 0.000000 0.000000 0.025754 0.000000 0.000000
# 5 0.000000 0.000000 0.000000 0.000000 0.065570 0.000000
# 6 0.000000 0.000000 0.000000 0.000000 0.000000 0.026412
#
#
# Mechanical properties :
#
#
# Convention : Reuss Voigt Hill
#
# Bulk Modulus (GPa) = 40.21686 48.85881 44.53784
# Shear Modulus (GPa) = 22.64910 30.09363 26.37137
#
# Velocity S-wave (km/s) = 3.33414 3.84323 3.59770
# Velocity P-wave (km/s) = 5.87887 6.60867 6.25442
#
# Compressibility (1/GPa) = 0.02486519
#
# Stress axis : x y z
#
# Youngs Moduli (GPa) = 28.37183 74.23541 90.22478
#
# Poissons Ratio (x) = 0.94165 0.38546
# Poissons Ratio (y) = 0.35989 0.04608
# Poissons Ratio (z) = 0.12121 0.03792
#
# Static dielectric constant tensor:
#      x y z
#    x -1.047210 0.000000 0.000000 
#    y 0.000000 3.854310 0.000000 
#    z 0.000000 0.000000 3.781900 
# 
# 
# High freq. dielectric constant tensor:
#      x y z
#    x 1.758480 0.000000 0.000000 
#    y 0.000000 1.796010 0.000000 
#    z 0.000000 0.000000 1.807030 
# 
# From -- ./inp_files/5347.got.cif
#   From: 2010.03.12/outbox.cif.g09.slc.cpg/sg50_3_cif.got.tgz:5347.got - 2010.04.16 13:23:21.
