data_PCOD8205404
_publ_section_title
;
Structure prediction by ZEFSAII (Michael W. Deem and Ramdas Pophale) SiO2 
 PCOD8205404
Probable space group: P B A N
;
_chemical_formula_sum "Si O2"
_cell_formula_units_Z 40
_cell_length_a 8.401361
_cell_length_b 25.164917
_cell_length_c 8.220258
_cell_angle_alpha 90.000000
_cell_angle_beta 90.000000
_cell_angle_gamma 90.000000
_cell_volume 1737.923266
_symmetry_space_group_name_H-M "P B A N"
_symmetry_group_IT_number 50
_space_group.IT_coordinate_system_code '2'
_symmetry_cell_setting 'orthorhombic'
loop_
_space_group_symop_operation_xyz
x,y,z
1/2-x,1/2-y,z
x,1/2-y,-z
1/2-x,y,-z
-x,-y,-z
1/2+x,1/2+y,-z
-x,1/2+y,z
1/2+x,-y,z
loop_
_atom_site_type_symbol
_atom_site_label
_atom_site_fract_x
_atom_site_fract_y
_atom_site_fract_z
Si Si1 0.538178 0.848764 0.820099
Si Si2 0.963067 0.478585 0.818737
Si Si3 0.437828 0.258484 0.321005
Si Si4 0.607072 0.632499 0.806918
Si Si5 0.339152 0.938697 0.672582
O O1 0.491259 0.786637 0.799551
O O2 0.711538 0.861570 0.744280
O O3 0.397152 0.880973 0.731971
O O4 0.565105 0.864552 0.004492
O O5 0.776572 0.465482 0.807071
O O6 0.051538 0.425523 0.754842
O O7 0.007054 0.522814 0.682320
O O8 0.000000 0.500000 0.000000
O O9 0.250000 0.250000 0.313843
O O10 0.507370 0.250000 0.500000
O O11 0.489394 0.318113 0.271217
O O12 0.250000 0.934680 0.500000
#
# Coordination Sequence:
#
# PCOD8205404 Si02
#       5
#     8   8   8   8   8
#     4  10  21  40  67  99 135 172 233 279 344 404
#     4  12  25  44  69  97 135 178 234 282 348 423
#     4   9  19  37  64 100 136 174 224 281 339 404
#     4  10  21  39  70  99 131 180 226 289 331 411
#     4  12  27  45  67 100 140 181 228 293 354 420
#
# _framework density 23.015976999999999
#
# number of rings (size 3 to 8) (size 9 to 14) (size 15 to 20)
#    0.000    1.400    2.000    3.000    5.600    2.400 
#    3.600    1.000    0.000    2.400    0.000    0.000 
#    0.000    0.000    0.000    0.000    0.000    0.000 
#
# Total GULP energy -495600.486855 kJ/mol
# GULP energy per Si atom -12390.012171 kJ/mol
# Density = 2.296359 g / cm^3
# Si number density = 23.015977 Si / 1000 Ang^3
#
#
#
# Elastic Constant Matrix: (Units=GPa)
#
#
# Indices 1 2 3 4 5 6 
#
# 1 69.2288 30.8471 31.9022 0.0000 0.0000 0.0000
# 2 30.8471 163.7431 35.4718 0.0000 0.0000 0.0000
# 3 31.9022 35.4718 75.4438 0.0000 0.0000 0.0000
# 4 0.0000 0.0000 0.0000 36.8232 0.0000 0.0000
# 5 0.0000 0.0000 0.0000 0.0000 28.9343 0.0000
# 6 0.0000 0.0000 0.0000 0.0000 0.0000 33.3780
#
#
#
# Elastic Compliance Matrix: (Units=1/GPa)
#
#
# Indices 1 2 3 4 5 6 
#
# 1 0.018508 -0.001994 -0.006889 0.000000 0.000000 0.000000
# 2 -0.001994 0.007015 -0.002455 0.000000 0.000000 0.000000
# 3 -0.006889 -0.002455 0.017322 0.000000 0.000000 0.000000
# 4 0.000000 0.000000 0.000000 0.027157 0.000000 0.000000
# 5 0.000000 0.000000 0.000000 0.000000 0.034561 0.000000
# 6 0.000000 0.000000 0.000000 0.000000 0.000000 0.029960
#
#
# Mechanical properties :
#
#
# Convention : Reuss Voigt Hill
#
# Bulk Modulus (GPa) = 49.58076 56.09532 52.83804
# Shear Modulus (GPa) = 30.50257 33.84007 32.17132
#
# Velocity S-wave (km/s) = 3.64439 3.83859 3.74275
# Velocity P-wave (km/s) = 6.26876 6.63865 6.45635
#
# Compressibility (1/GPa) = 0.02016911
#
# Stress axis : x y z
#
# Youngs Moduli (GPa) = 54.03091 142.55939 57.73021
#
# Poissons Ratio (x) = 0.28432 0.39768
# Poissons Ratio (y) = 0.10776 0.14171
# Poissons Ratio (z) = 0.37219 0.34995
#
# Static dielectric constant tensor:
#      x y z
#    x 4.075140 0.000000 0.000000 
#    y 0.000000 4.543480 0.000000 
#    z 0.000000 0.000000 3.972530 
# 
# 
# High freq. dielectric constant tensor:
#      x y z
#    x 1.881140 0.000000 0.000000 
#    y 0.000000 1.932900 0.000000 
#    z 0.000000 0.000000 1.897310 
# 
# From -- ./inp_files/9551.got.cif
#   From: 2010.03.12/outbox.cif.g09.slc.cpg/sg50_5_cif.got.tgz:9551.got - 2010.04.16 13:23:21.
