data_PCOD8205571
_publ_section_title
;
Structure prediction by ZEFSAII (Michael W. Deem and Ramdas Pophale) SiO2 
 PCOD8205571
Probable space group: P B A N
;
_chemical_formula_sum "Si O2"
_cell_formula_units_Z 30
_cell_length_a 19.822345
_cell_length_b 5.188302
_cell_length_c 12.451716
_cell_angle_alpha 90.000000
_cell_angle_beta 90.000000
_cell_angle_gamma 90.000000
_cell_volume 1280.588168
_symmetry_space_group_name_H-M "P B A N"
_symmetry_group_IT_number 50
_space_group.IT_coordinate_system_code '2'
_symmetry_cell_setting 'orthorhombic'
loop_
_space_group_symop_operation_xyz
x,y,z
1/2-x,1/2-y,z
x,1/2-y,-z
1/2-x,y,-z
-x,-y,-z
1/2+x,1/2+y,-z
-x,1/2+y,z
1/2+x,-y,z
loop_
_atom_site_type_symbol
_atom_site_label
_atom_site_fract_x
_atom_site_fract_y
_atom_site_fract_z
Si Si1 0.455778 0.499159 0.779957
Si Si2 0.250000 0.750000 0.500000
Si Si3 0.250000 0.250000 0.759851
Si Si4 0.854487 0.616875 0.606935
Si Si5 0.168239 0.505447 0.071216
O O1 0.487661 0.215919 0.785992
O O2 0.416342 0.521096 0.666658
O O3 0.406038 0.537168 0.879736
O O4 0.203629 0.584148 0.421686
O O5 0.184060 0.322614 0.686032
O O6 0.225181 0.013980 0.835312
O O7 0.883425 0.750000 0.500000
O O8 0.170766 0.250000 0.000000
O O9 0.186379 0.750000 0.000000
#
# Coordination Sequence:
#
# PCOD8205571 Si02
#       5
#     8   2   4   8   8
#     4  11  27  47  71 103 142 189 247 297 348 427
#     4  12  22  40  76 102 142 192 234 286 362 444
#     4  10  22  44  66 104 146 176 238 296 358 436
#     4  11  24  44  70 106 145 192 233 295 367 432
#     4  11  25  44  71 103 140 188 241 302 367 423
#
# _framework density 23.426735999999998
#
# number of rings (size 3 to 8) (size 9 to 14) (size 15 to 20)
#    0.000    1.067    2.667    2.000    3.733   10.667 
#    0.000    0.000    0.000    0.000    0.000    0.000 
#    0.000    0.000    0.000    0.000    0.000    0.000 
#
# Total GULP energy -371921.361270 kJ/mol
# GULP energy per Si atom -12397.378709 kJ/mol
# Density = 2.337342 g / cm^3
# Si number density = 23.426736 Si / 1000 Ang^3
#
#
#
# Elastic Constant Matrix: (Units=GPa)
#
#
# Indices 1 2 3 4 5 6 
#
# 1 104.5876 21.0351 48.4380 0.0000 0.0000 0.0000
# 2 21.0351 105.8866 44.0116 0.0000 0.0000 0.0000
# 3 48.4380 44.0116 149.3100 0.0000 0.0000 0.0000
# 4 0.0000 0.0000 0.0000 30.8909 0.0000 0.0000
# 5 0.0000 0.0000 0.0000 0.0000 39.5907 0.0000
# 6 0.0000 0.0000 0.0000 0.0000 0.0000 0.1304
#
#
#
# Elastic Compliance Matrix: (Units=1/GPa)
#
#
# Indices 1 2 3 4 5 6 
#
# 1 0.011314 -0.000823 -0.003428 0.000000 0.000000 0.000000
# 2 -0.000823 0.010823 -0.002923 0.000000 0.000000 0.000000
# 3 -0.003428 -0.002923 0.008671 0.000000 0.000000 0.000000
# 4 0.000000 0.000000 0.000000 0.032372 0.000000 0.000000
# 5 0.000000 0.000000 0.000000 0.000000 0.025258 0.000000
# 6 0.000000 0.000000 0.000000 0.000000 0.000000 7.670179
#
#
# Mechanical properties :
#
#
# Convention : Reuss Voigt Hill
#
# Bulk Modulus (GPa) = 60.75274 65.19485 62.97380
# Shear Modulus (GPa) = 0.64280 30.54235 15.59258
#
# Velocity S-wave (km/s) = 0.52439 3.61465 2.58270
# Velocity P-wave (km/s) = 5.13381 6.73131 5.98609
#
# Compressibility (1/GPa) = 0.01646016
#
# Stress axis : x y z
#
# Youngs Moduli (GPa) = 88.38229 92.39972 115.32402
#
# Poissons Ratio (x) = 0.07603 0.39533
# Poissons Ratio (y) = 0.07273 0.33711
# Poissons Ratio (z) = 0.30298 0.27010
#
# Static dielectric constant tensor:
#      x y z
#    x 4.406430 0.000000 0.000000 
#    y 0.000000 4.360300 0.000000 
#    z 0.000000 0.000000 4.873840 
# 
# 
# High freq. dielectric constant tensor:
#      x y z
#    x 1.933490 0.000000 0.000000 
#    y 0.000000 1.908740 0.000000 
#    z 0.000000 0.000000 1.953390 
# 
# From -- ./inp_files/22116.got.cif
#   From: 2010.03.12/outbox.cif.g09.slc.cpg/sg50_12_cif.got.tgz:22116.got - 2010.04.16 13:23:21.
