data_PCOD8205569
_publ_section_title
;
Structure prediction by ZEFSAII (Michael W. Deem and Ramdas Pophale) SiO2 
 PCOD8205569
Probable space group: P B A N
;
_chemical_formula_sum "Si O2"
_cell_formula_units_Z 44
_cell_length_a 29.319939
_cell_length_b 7.826549
_cell_length_c 9.161467
_cell_angle_alpha 90.000000
_cell_angle_beta 90.000000
_cell_angle_gamma 90.000000
_cell_volume 2102.317922
_symmetry_space_group_name_H-M "P B A N"
_symmetry_group_IT_number 50
_space_group.IT_coordinate_system_code '2'
_symmetry_cell_setting 'orthorhombic'
loop_
_space_group_symop_operation_xyz
x,y,z
1/2-x,1/2-y,z
x,1/2-y,-z
1/2-x,y,-z
-x,-y,-z
1/2+x,1/2+y,-z
-x,1/2+y,z
1/2+x,-y,z
loop_
_atom_site_type_symbol
_atom_site_label
_atom_site_fract_x
_atom_site_fract_y
_atom_site_fract_z
Si Si1 0.750000 0.250000 0.000000
Si Si2 0.055507 0.237456 0.837826
Si Si3 0.315348 0.989581 0.144773
Si Si4 0.622691 0.914706 0.605173
Si Si5 0.250000 0.250000 0.000000
Si Si6 0.615088 0.250000 0.000000
Si Si7 0.458601 0.881115 0.784066
Si Si8 0.424794 0.750000 0.500000
O O1 0.721072 0.341384 0.124910
O O2 0.086630 0.125854 0.732354
O O3 0.049582 0.419277 0.762128
O O4 0.006968 0.144600 0.862708
O O5 0.077781 0.250000 0.000000
O O6 0.357126 0.922079 0.042818
O O7 0.331040 0.029210 0.310654
O O8 0.286786 0.152578 0.096568
O O9 0.630861 0.750000 0.500000
O O10 0.606419 0.080454 0.515419
O O11 0.583843 0.298215 0.865071
O O12 0.459807 0.783440 0.630662
#
# Coordination Sequence:
#
# PCOD8205569 Si02
#       8
#     2   8   8   8   2   4   8   4
#     4   8  20  46  76 108 126 170 216 300 360 424
#     4  12  26  42  66 102 141 185 246 297 334 387
#     4  10  22  43  73 104 136 166 228 281 361 419
#     4  12  26  46  70 103 142 191 233 282 344 425
#     4  10  24  42  76 110 130 162 212 306 356 426
#     4  11  22  41  71 100 134 190 229 289 332 411
#     4  12  25  41  65  98 145 188 240 286 342 393
#     4  12  26  46  64  97 142 196 232 281 344 414
#
# _framework density 20.929279000000001
#
# number of rings (size 3 to 8) (size 9 to 14) (size 15 to 20)
#    0.000    0.727    4.545    2.727    5.091    1.455 
#    3.273    0.455    0.000    0.000    0.000    0.000 
#    0.000    0.000    0.000    0.000    0.000    0.000 
#
# Total GULP energy -545126.440767 kJ/mol
# GULP energy per Si atom -12389.237290 kJ/mol
# Density = 2.088164 g / cm^3
# Si number density = 20.929279 Si / 1000 Ang^3
#
#
#
# Elastic Constant Matrix: (Units=GPa)
#
#
# Indices 1 2 3 4 5 6 
#
# 1 107.3991 36.9563 40.9055 0.0000 0.0000 0.0000
# 2 36.9563 130.3121 41.1879 0.0000 0.0000 0.0000
# 3 40.9055 41.1879 112.4939 0.0000 0.0000 0.0000
# 4 0.0000 0.0000 0.0000 167.7167 0.0000 0.0000
# 5 0.0000 0.0000 0.0000 0.0000 -8.3475 0.0000
# 6 0.0000 0.0000 0.0000 0.0000 0.0000 19.2453
#
#
#
# Elastic Compliance Matrix: (Units=1/GPa)
#
#
# Indices 1 2 3 4 5 6 
#
# 1 0.011321 -0.002159 -0.003326 0.000000 0.000000 0.000000
# 2 -0.002159 0.009090 -0.002543 0.000000 0.000000 0.000000
# 3 -0.003326 -0.002543 0.011030 0.000000 0.000000 0.000000
# 4 0.000000 0.000000 0.000000 0.005962 0.000000 0.000000
# 5 0.000000 0.000000 0.000000 0.000000 -0.119797 0.000000
# 6 0.000000 0.000000 0.000000 0.000000 0.000000 0.051961
#
#
# Mechanical properties :
#
#
# Convention : Reuss Voigt Hill
#
# Bulk Modulus (GPa) = 65.00168 65.36714 65.18441
# Shear Modulus (GPa) = -540.66127 51.13326 -244.76401
#
# Velocity S-wave (km/s) = -16.09001 4.94818 -10.82599
# Velocity P-wave (km/s) = 17.72172 7.99663 11.18287
#
# Compressibility (1/GPa) = 0.01538422
#
# Stress axis : x y z
#
# Youngs Moduli (GPa) = 88.33250 110.01055 90.66317
#
# Poissons Ratio (x) = 0.23755 0.30154
# Poissons Ratio (y) = 0.19074 0.23056
# Poissons Ratio (z) = 0.29379 0.27976
#
# Static dielectric constant tensor:
#      x y z
#    x 3.851830 0.000000 0.000000 
#    y 0.000000 0.334980 0.000000 
#    z 0.000000 0.000000 3.775650 
# 
# 
# High freq. dielectric constant tensor:
#      x y z
#    x 1.815000 0.000000 0.000000 
#    y 0.000000 1.843800 0.000000 
#    z 0.000000 0.000000 1.812190 
# 
# From -- ./inp_files/16894.got.cif
#   From: 2010.03.12/outbox.cif.g09.slc.cpg/sg50_9_cif.got.tgz:16894.got - 2010.04.16 13:23:21.
