data_PCOD8205664
_publ_section_title
;
Structure prediction by ZEFSAII (Michael W. Deem and Ramdas Pophale) SiO2 
 PCOD8205664
Probable space group: P B A N
;
_chemical_formula_sum "Si O2"
_cell_formula_units_Z 46
_cell_length_a 27.244149
_cell_length_b 8.377125
_cell_length_c 9.759736
_cell_angle_alpha 90.000000
_cell_angle_beta 90.000000
_cell_angle_gamma 90.000000
_cell_volume 2227.441531
_symmetry_space_group_name_H-M "P B A N"
_symmetry_group_IT_number 50
_space_group.IT_coordinate_system_code '2'
_symmetry_cell_setting 'orthorhombic'
loop_
_space_group_symop_operation_xyz
x,y,z
1/2-x,1/2-y,z
x,1/2-y,-z
1/2-x,y,-z
-x,-y,-z
1/2+x,1/2+y,-z
-x,1/2+y,z
1/2+x,-y,z
loop_
_atom_site_type_symbol
_atom_site_label
_atom_site_fract_x
_atom_site_fract_y
_atom_site_fract_z
Si Si1 0.360875 0.750000 0.000000
Si Si2 0.250000 0.250000 0.000000
Si Si3 0.863771 0.250000 0.500000
Si Si4 0.513655 0.936317 0.851370
Si Si5 0.430472 0.782998 0.241305
Si Si6 0.409190 0.250000 0.000000
Si Si7 0.807318 0.569297 0.459842
Si Si8 0.672540 0.546696 0.857860
O O1 0.395556 0.669701 0.885878
O O2 0.324736 0.871427 0.922624
O O3 0.280346 0.356699 0.101207
O O4 0.898809 0.232294 0.629685
O O5 0.832711 0.413638 0.530515
O O6 0.463954 0.869475 0.788205
O O7 0.557274 0.810839 0.874919
O O8 0.533288 0.066495 0.742014
O O9 0.500000 0.000000 0.000000
O O10 0.376822 0.379718 0.079531
O O11 0.826099 0.750000 0.500000
O O12 0.750000 0.558028 0.500000
O O13 0.823290 0.541430 0.304310
#
# Coordination Sequence:
#
# PCOD8205664 Si02
#       8
#     4   2   4   8   8   4   8   8
#     4  12  21  41  71 102 136 178 237 295 353 424
#     4  10  24  42  64 108 132 166 230 314 350 418
#     4  12  29  48  68 106 154 186 244 293 366 444
#     4  12  21  39  68  98 137 180 233 291 351 415
#     4  12  25  42  67 103 137 187 237 290 357 428
#     4  11  21  37  68 102 130 178 221 304 342 414
#     4  11  26  49  75 100 142 198 240 295 370 446
#     4  11  24  43  70 103 138 177 241 293 367 426
#
# _framework density 20.651498
#
# number of rings (size 3 to 8) (size 9 to 14) (size 15 to 20)
#    0.000    0.522    6.957    1.304    2.435    2.435 
#    3.130    0.000    0.000    0.000    0.000    0.000 
#    0.000    0.000    0.000    0.000    0.000    0.000 
#
# Total GULP energy -569983.910463 kJ/mol
# GULP energy per Si atom -12390.954575 kJ/mol
# Density = 2.060449 g / cm^3
# Si number density = 20.651498 Si / 1000 Ang^3
#
#
#
# Elastic Constant Matrix: (Units=GPa)
#
#
# Indices 1 2 3 4 5 6 
#
# 1 109.4632 58.6511 46.5597 0.0000 0.0000 0.0000
# 2 58.6511 150.4833 39.6302 0.0000 0.0000 0.0000
# 3 46.5597 39.6302 110.3536 0.0000 0.0000 0.0000
# 4 0.0000 0.0000 0.0000 38.4547 0.0000 0.0000
# 5 0.0000 0.0000 0.0000 0.0000 62.0587 0.0000
# 6 0.0000 0.0000 0.0000 0.0000 0.0000 -1.0277
#
#
#
# Elastic Compliance Matrix: (Units=1/GPa)
#
#
# Indices 1 2 3 4 5 6 
#
# 1 0.013001 -0.004001 -0.004049 0.000000 0.000000 0.000000
# 2 -0.004001 0.008571 -0.001390 0.000000 0.000000 0.000000
# 3 -0.004049 -0.001390 0.011269 0.000000 0.000000 0.000000
# 4 0.000000 0.000000 0.000000 0.026005 0.000000 0.000000
# 5 0.000000 0.000000 0.000000 0.000000 0.016114 0.000000
# 6 0.000000 0.000000 0.000000 0.000000 0.000000 -0.973020
#
#
# Mechanical properties :
#
#
# Convention : Reuss Voigt Hill
#
# Bulk Modulus (GPa) = 71.62220 73.33136 72.47678
# Shear Modulus (GPa) = -5.71737 34.92775 14.60519
#
# Velocity S-wave (km/s) = -1.66569 4.11700 2.66225
# Velocity P-wave (km/s) = 5.57291 7.62795 6.67993
#
# Compressibility (1/GPa) = 0.01396215
#
# Stress axis : x y z
#
# Youngs Moduli (GPa) = 76.91512 116.67667 88.73879
#
# Poissons Ratio (x) = 0.46683 0.35927
# Poissons Ratio (y) = 0.30774 0.12333
# Poissons Ratio (z) = 0.31140 0.16216
#
# Static dielectric constant tensor:
#      x y z
#    x 3.918890 0.000000 0.000000 
#    y 0.000000 4.164810 0.000000 
#    z 0.000000 0.000000 3.311030 
# 
# 
# High freq. dielectric constant tensor:
#      x y z
#    x 1.819120 0.000000 0.000000 
#    y 0.000000 1.827430 0.000000 
#    z 0.000000 0.000000 1.790940 
# 
# From -- ./inp_files/16888.got.cif
#   From: 2010.03.12/outbox.cif.g09.slc.cpg/sg50_9_cif.got.tgz:16888.got - 2010.04.16 13:23:21.
