data_PCOD8205160
_publ_section_title
;
Structure prediction by ZEFSAII (Michael W. Deem and Ramdas Pophale) SiO2 
 PCOD8205160
Probable space group: P B A N
;
_chemical_formula_sum "Si O2"
_cell_formula_units_Z 52
_cell_length_a 16.931991
_cell_length_b 14.211996
_cell_length_c 11.147146
_cell_angle_alpha 90.000000
_cell_angle_beta 90.000000
_cell_angle_gamma 90.000000
_cell_volume 2682.420101
_symmetry_space_group_name_H-M "P B A N"
_symmetry_group_IT_number 50
_space_group.IT_coordinate_system_code '2'
_symmetry_cell_setting 'orthorhombic'
loop_
_space_group_symop_operation_xyz
x,y,z
1/2-x,1/2-y,z
x,1/2-y,-z
1/2-x,y,-z
-x,-y,-z
1/2+x,1/2+y,-z
-x,1/2+y,z
1/2+x,-y,z
loop_
_atom_site_type_symbol
_atom_site_label
_atom_site_fract_x
_atom_site_fract_y
_atom_site_fract_z
Si Si1 0.335014 0.938861 0.479050
Si Si2 0.894529 0.589904 0.682781
Si Si3 0.536145 0.750000 0.000000
Si Si4 0.106020 0.047122 0.297017
Si Si5 0.509452 0.064614 0.112465
Si Si6 0.336168 0.272403 0.199056
Si Si7 0.997341 0.355514 0.525995
O O1 0.250000 0.889756 0.500000
O O2 0.402637 0.860714 0.463485
O O3 0.332760 0.012360 0.366566
O O4 0.349820 0.993950 0.599921
O O5 0.928470 0.559753 0.811660
O O6 0.855689 0.693008 0.699657
O O7 0.967636 0.586104 0.586917
O O8 0.479407 0.829797 0.941341
O O9 0.594402 0.713237 0.897069
O O10 0.169899 0.124175 0.255539
O O11 0.030495 0.105242 0.348253
O O12 0.082142 0.972376 0.193113
O O13 0.500000 0.000000 0.000000
O O14 0.250000 0.250000 0.142156
O O15 0.023790 0.250000 0.500000
#
# Coordination Sequence:
#
# PCOD8205160 Si02
#       7
#     8   8   4   8   8   8   8
#     4  11  22  36  56  83 116 149 189 243 304 359
#     4  10  20  37  55  84 113 148 190 238 288 362
#     4  10  23  34  56  82 122 153 200 246 283 356
#     4  11  20  37  58  84 118 155 195 244 295 367
#     4  11  20  37  60  85 114 156 205 241 289 339
#     4  11  21  34  54  85 122 151 185 238 304 360
#     4  11  20  36  58  80 113 150 197 242 293 350
#
# _framework density 19.385480999999999
#
# number of rings (size 3 to 8) (size 9 to 14) (size 15 to 20)
#    0.000    1.231    6.154    2.077    0.000    0.308 
#    0.000    2.308    0.000    0.000    0.000    0.000 
#    0.000    0.000    0.000    0.000    0.000    0.000 
#
# Total GULP energy -644439.950421 kJ/mol
# GULP energy per Si atom -12393.075970 kJ/mol
# Density = 1.934136 g / cm^3
# Si number density = 19.385481 Si / 1000 Ang^3
#
#
#
# Elastic Constant Matrix: (Units=GPa)
#
#
# Indices 1 2 3 4 5 6 
#
# 1 81.5677 18.8946 7.6343 0.0000 0.0000 0.0000
# 2 18.8946 77.4878 35.8109 0.0000 0.0000 0.0000
# 3 7.6343 35.8109 93.6572 0.0000 0.0000 0.0000
# 4 0.0000 0.0000 0.0000 32.2909 0.0000 0.0000
# 5 0.0000 0.0000 0.0000 0.0000 12.0814 0.0000
# 6 0.0000 0.0000 0.0000 0.0000 0.0000 27.1459
#
#
#
# Elastic Compliance Matrix: (Units=1/GPa)
#
#
# Indices 1 2 3 4 5 6 
#
# 1 0.012996 -0.003255 0.000185 0.000000 0.000000 0.000000
# 2 -0.003255 0.016490 -0.006040 0.000000 0.000000 0.000000
# 3 0.000185 -0.006040 0.012972 0.000000 0.000000 0.000000
# 4 0.000000 0.000000 0.000000 0.030968 0.000000 0.000000
# 5 0.000000 0.000000 0.000000 0.000000 0.082772 0.000000
# 6 0.000000 0.000000 0.000000 0.000000 0.000000 0.036838
#
#
# Mechanical properties :
#
#
# Convention : Reuss Voigt Hill
#
# Bulk Modulus (GPa) = 41.25539 41.93248 41.59394
# Shear Modulus (GPa) = 22.79618 26.99518 24.89568
#
# Velocity S-wave (km/s) = 3.43292 3.73573 3.58752
# Velocity P-wave (km/s) = 6.08614 6.34708 6.21798
#
# Compressibility (1/GPa) = 0.02423925
#
# Stress axis : x y z
#
# Youngs Moduli (GPa) = 76.94482 60.64218 77.09161
#
# Poissons Ratio (x) = 0.19736 -0.01426
# Poissons Ratio (y) = 0.25042 0.46563
# Poissons Ratio (z) = -0.01424 0.36627
#
# Static dielectric constant tensor:
#      x y z
#    x 3.738820 0.000000 0.000000 
#    y 0.000000 3.055230 0.000000 
#    z 0.000000 0.000000 3.267420 
# 
# 
# High freq. dielectric constant tensor:
#      x y z
#    x 1.727820 0.000000 0.000000 
#    y 0.000000 1.751280 0.000000 
#    z 0.000000 0.000000 1.758900 
# 
# From -- ./inp_files/21888.got.cif
#   From: 2010.03.12/outbox.cif.g09.slc.cpg/sg50_11_cif.got.tgz:21888.got - 2010.04.16 13:23:21.
