data_PCOD8205300
_publ_section_title
;
Structure prediction by ZEFSAII (Michael W. Deem and Ramdas Pophale) SiO2 
 PCOD8205300
Probable space group: P B A N
;
_chemical_formula_sum "Si O2"
_cell_formula_units_Z 48
_cell_length_a 17.315435
_cell_length_b 5.194058
_cell_length_c 24.940664
_cell_angle_alpha 90.000000
_cell_angle_beta 90.000000
_cell_angle_gamma 90.000000
_cell_volume 2243.097818
_symmetry_space_group_name_H-M "P B A N"
_symmetry_group_IT_number 50
_space_group.IT_coordinate_system_code '2'
_symmetry_cell_setting 'orthorhombic'
loop_
_space_group_symop_operation_xyz
x,y,z
1/2-x,1/2-y,z
x,1/2-y,-z
1/2-x,y,-z
-x,-y,-z
1/2+x,1/2+y,-z
-x,1/2+y,z
1/2+x,-y,z
loop_
_atom_site_type_symbol
_atom_site_label
_atom_site_fract_x
_atom_site_fract_y
_atom_site_fract_z
Si Si1 0.216614 0.499729 0.440293
Si Si2 0.798239 0.505922 0.783699
Si Si3 0.035046 0.839194 0.940136
Si Si4 0.798952 0.503026 0.907845
Si Si5 0.451905 0.016972 0.283177
Si Si6 0.952096 0.004197 0.407661
O O1 0.250000 0.250000 0.409307
O O2 0.250000 0.500012 0.500000
O O3 0.124739 0.496921 0.442916
O O4 0.250000 0.750000 0.409401
O O5 0.750000 0.250000 0.773954
O O6 0.819587 0.544378 0.845807
O O7 0.876175 0.478351 0.751189
O O8 0.750000 0.750000 0.762487
O O9 0.121352 0.954287 0.939394
O O10 0.020932 0.558085 0.912058
O O11 0.009111 0.750000 0.000000
O O12 0.750000 0.250000 0.917961
O O13 0.750000 0.750000 0.929566
O O14 0.488400 0.291502 0.268584
O O15 0.428917 0.000908 0.345411
O O16 0.003454 0.761671 0.423686
#
# Coordination Sequence:
#
# PCOD8205300 Si02
#       6
#     8   8   8   8   8   8
#     4  10  21  38  56  81 110 139 182 228 271 329
#     4  10  21  36  55  82 114 147 183 226 276 329
#     4  10  21  37  56  80 109 142 184 231 277 325
#     4  10  21  37  56  81 113 147 186 229 277 335
#     4  10  21  36  56  83 112 144 186 227 271 332
#     4  10  21  38  58  81 111 146 182 227 278 328
#
# _framework density 21.398978
#
# number of rings (size 3 to 8) (size 9 to 14) (size 15 to 20)
#    0.000    2.000    0.000    3.000    0.000    3.000 
#    0.000   10.833    0.000    0.000    0.000    0.000 
#    0.000    0.000    0.000    0.000    0.000    0.000 
#
# Total GULP energy -595005.012319 kJ/mol
# GULP energy per Si atom -12395.937757 kJ/mol
# Density = 2.135027 g / cm^3
# Si number density = 21.398978 Si / 1000 Ang^3
#
#
#
# Elastic Constant Matrix: (Units=GPa)
#
#
# Indices 1 2 3 4 5 6 
#
# 1 158.2087 80.9978 33.4575 0.0000 0.0000 0.0000
# 2 80.9978 220.0932 20.0462 0.0000 0.0000 0.0000
# 3 33.4575 20.0462 31.0928 0.0000 0.0000 0.0000
# 4 0.0000 0.0000 0.0000 13.0294 0.0000 0.0000
# 5 0.0000 0.0000 0.0000 0.0000 38.3014 0.0000
# 6 0.0000 0.0000 0.0000 0.0000 0.0000 35.5227
#
#
#
# Elastic Compliance Matrix: (Units=1/GPa)
#
#
# Indices 1 2 3 4 5 6 
#
# 1 0.009509 -0.002728 -0.008474 0.000000 0.000000 0.000000
# 2 -0.002728 0.005609 -0.000681 0.000000 0.000000 0.000000
# 3 -0.008474 -0.000681 0.041719 0.000000 0.000000 0.000000
# 4 0.000000 0.000000 0.000000 0.076749 0.000000 0.000000
# 5 0.000000 0.000000 0.000000 0.000000 0.026109 0.000000
# 6 0.000000 0.000000 0.000000 0.000000 0.000000 0.028151
#
#
# Mechanical properties :
#
#
# Convention : Reuss Voigt Hill
#
# Bulk Modulus (GPa) = 30.23680 75.37751 52.80716
# Shear Modulus (GPa) = 22.45805 35.69691 29.07748
#
# Velocity S-wave (km/s) = 3.24310 4.08874 3.69022
# Velocity P-wave (km/s) = 5.30889 7.58892 6.54889
#
# Compressibility (1/GPa) = 0.03307228
#
# Stress axis : x y z
#
# Youngs Moduli (GPa) = 105.15981 178.27058 23.96965
#
# Poissons Ratio (x) = 0.48628 0.20312
# Poissons Ratio (y) = 0.28685 0.01633
# Poissons Ratio (z) = 0.89111 0.12145
#
# Static dielectric constant tensor:
#      x y z
#    x 3.743270 0.000000 0.000000 
#    y 0.000000 3.943190 0.000000 
#    z 0.000000 0.000000 3.377590 
# 
# 
# High freq. dielectric constant tensor:
#      x y z
#    x 1.844190 0.000000 0.000000 
#    y 0.000000 1.877660 0.000000 
#    z 0.000000 0.000000 1.803060 
# 
# From -- ./inp_files/32257.got.cif
#   From: 2010.03.12/outbox.cif.g09.slc.cpg/sg50_17_cif.got.tgz:32257.got - 2010.04.16 13:23:21.
