data_PCOD8205751
_publ_section_title
;
Structure prediction by ZEFSAII (Michael W. Deem and Ramdas Pophale) SiO2 
 PCOD8205751
Probable space group: P B A N
;
_chemical_formula_sum "Si O2"
_cell_formula_units_Z 48
_cell_length_a 14.652187
_cell_length_b 7.985483
_cell_length_c 17.333347
_cell_angle_alpha 90.000000
_cell_angle_beta 90.000000
_cell_angle_gamma 90.000000
_cell_volume 2028.084629
_symmetry_space_group_name_H-M "P B A N"
_symmetry_group_IT_number 50
_space_group.IT_coordinate_system_code '2'
_symmetry_cell_setting 'orthorhombic'
loop_
_space_group_symop_operation_xyz
x,y,z
1/2-x,1/2-y,z
x,1/2-y,-z
1/2-x,y,-z
-x,-y,-z
1/2+x,1/2+y,-z
-x,1/2+y,z
1/2+x,-y,z
loop_
_atom_site_type_symbol
_atom_site_label
_atom_site_fract_x
_atom_site_fract_y
_atom_site_fract_z
Si Si1 0.771127 0.555308 0.415979
Si Si2 0.447916 0.370684 0.926436
Si Si3 0.931609 0.882332 0.684221
Si Si4 0.123738 0.998421 0.701267
Si Si5 0.604771 0.561082 0.849484
Si Si6 0.704624 0.071303 0.865762
O O1 0.750000 0.750000 0.418693
O O2 0.750000 0.475803 0.500000
O O3 0.876120 0.535874 0.387476
O O4 0.708176 0.459773 0.354525
O O5 0.547109 0.452431 0.912200
O O6 0.424487 0.255210 0.853409
O O7 0.369501 0.515689 0.931020
O O8 0.448332 0.250000 0.000000
O O9 0.898323 0.694905 0.700248
O O10 0.913833 0.994797 0.761506
O O11 0.038968 0.892687 0.666983
O O12 0.149384 0.929083 0.785550
O O13 0.711967 0.558016 0.867019
O O14 0.750000 0.250000 0.883940
#
# Coordination Sequence:
#
# PCOD8205751 Si02
#       6
#     8   8   8   8   8   8
#     4   9  20  39  64  98 141 188 239 297 360 426
#     4  12  27  48  72 105 145 185 228 300 369 433
#     4  11  21  38  67  99 135 187 239 291 358 425
#     4  11  23  39  66 100 140 181 239 295 353 426
#     4  12  23  43  70 100 137 185 238 288 358 432
#     4  12  26  42  71 104 138 186 245 295 355 434
#
# _framework density 23.667652
#
# number of rings (size 3 to 8) (size 9 to 14) (size 15 to 20)
#    0.000    0.833    5.000    2.000    2.333    2.000 
#    0.000    0.833    0.000    3.500    0.000    0.000 
#    0.000    0.000    0.000    0.000    0.000    0.000 
#
# Total GULP energy -595032.647950 kJ/mol
# GULP energy per Si atom -12396.513499 kJ/mol
# Density = 2.361378 g / cm^3
# Si number density = 23.667652 Si / 1000 Ang^3
#
#
#
# Elastic Constant Matrix: (Units=GPa)
#
#
# Indices 1 2 3 4 5 6 
#
# 1 157.1070 27.7497 41.4795 0.0000 0.0000 0.0000
# 2 27.7497 65.0242 37.8292 0.0000 0.0000 0.0000
# 3 41.4795 37.8292 94.8001 0.0000 0.0000 0.0000
# 4 0.0000 0.0000 0.0000 17.9706 0.0000 0.0000
# 5 0.0000 0.0000 0.0000 0.0000 38.1741 0.0000
# 6 0.0000 0.0000 0.0000 0.0000 0.0000 42.4072
#
#
#
# Elastic Compliance Matrix: (Units=1/GPa)
#
#
# Indices 1 2 3 4 5 6 
#
# 1 0.007329 -0.001644 -0.002551 0.000000 0.000000 0.000000
# 2 -0.001644 0.020397 -0.007420 0.000000 0.000000 0.000000
# 3 -0.002551 -0.007420 0.014626 0.000000 0.000000 0.000000
# 4 0.000000 0.000000 0.000000 0.055647 0.000000 0.000000
# 5 0.000000 0.000000 0.000000 0.000000 0.026196 0.000000
# 6 0.000000 0.000000 0.000000 0.000000 0.000000 0.023581
#
#
# Mechanical properties :
#
#
# Convention : Reuss Voigt Hill
#
# Bulk Modulus (GPa) = 52.29493 59.00538 55.65016
# Shear Modulus (GPa) = 28.18835 33.70191 30.94513
#
# Velocity S-wave (km/s) = 3.45484 3.77764 3.61984
# Velocity P-wave (km/s) = 6.16912 6.63418 6.40587
#
# Compressibility (1/GPa) = 0.01912231
#
# Stress axis : x y z
#
# Youngs Moduli (GPa) = 136.44647 49.02642 68.37341
#
# Poissons Ratio (x) = 0.08058 0.17441
# Poissons Ratio (y) = 0.22427 0.50734
# Poissons Ratio (z) = 0.34805 0.36378
#
# Static dielectric constant tensor:
#      x y z
#    x 4.577150 0.000000 0.000000 
#    y 0.000000 4.194220 0.000000 
#    z 0.000000 0.000000 4.422870 
# 
# 
# High freq. dielectric constant tensor:
#      x y z
#    x 1.952040 0.000000 0.000000 
#    y 0.000000 1.924210 0.000000 
#    z 0.000000 0.000000 1.924350 
# 
# From -- ./inp_files/28701.got.cif
#   From: 2010.03.12/outbox.cif.g09.slc.cpg/sg50_15_cif.got.tgz:28701.got - 2010.04.16 13:23:21.
