data_PCOD8205278
_publ_section_title
;
Structure prediction by ZEFSAII (Michael W. Deem and Ramdas Pophale) SiO2 
 PCOD8205278
Probable space group: P B A N
;
_chemical_formula_sum "Si O2"
_cell_formula_units_Z 64
_cell_length_a 11.673359
_cell_length_b 27.693720
_cell_length_c 10.990332
_cell_angle_alpha 90.000000
_cell_angle_beta 90.000000
_cell_angle_gamma 90.000000
_cell_volume 3552.940633
_symmetry_space_group_name_H-M "P B A N"
_symmetry_group_IT_number 50
_space_group.IT_coordinate_system_code '2'
_symmetry_cell_setting 'orthorhombic'
loop_
_space_group_symop_operation_xyz
x,y,z
1/2-x,1/2-y,z
x,1/2-y,-z
1/2-x,y,-z
-x,-y,-z
1/2+x,1/2+y,-z
-x,1/2+y,z
1/2+x,-y,z
loop_
_atom_site_type_symbol
_atom_site_label
_atom_site_fract_x
_atom_site_fract_y
_atom_site_fract_z
Si Si1 0.254567 0.304396 0.802695
Si Si2 0.986882 0.443341 0.200044
Si Si3 0.394063 0.062174 0.577322
Si Si4 0.382738 0.610878 0.980053
Si Si5 0.819338 0.605592 0.670526
Si Si6 0.415151 0.545051 0.752692
Si Si7 0.306480 0.539678 0.386690
Si Si8 0.061576 0.304844 0.987781
O O1 0.250000 0.250000 0.752923
O O2 0.286874 0.338277 0.688666
O O3 0.352048 0.313208 0.902035
O O4 0.130483 0.315423 0.862603
O O5 0.905011 0.431315 0.315850
O O6 0.102537 0.412870 0.218262
O O7 0.012109 0.500525 0.192760
O O8 0.924738 0.428577 0.076946
O O9 0.382973 0.095692 0.457877
O O10 0.300831 0.077715 0.677675
O O11 0.519617 0.067161 0.635027
O O12 0.364904 0.006532 0.546473
O O13 0.402416 0.587969 0.848420
O O14 0.250000 0.623257 0.000000
O O15 0.452565 0.660301 0.994536
O O16 0.290931 0.525919 0.711862
O O17 0.250000 0.569629 0.500000
O O18 0.015841 0.250000 0.000000
#
# Coordination Sequence:
#
# PCOD8205278 Si02
#       8
#     8   8   8   8   8   8   8   8
#     4   9  18  34  60  86 112 142 176 229 286 345
#     4  11  22  35  54  78 112 153 183 230 284 329
#     4  10  21  33  53  81 106 148 192 226 263 323
#     4  12  23  38  54  81 114 144 185 238 286 340
#     4  11  18  35  55  81 111 141 188 226 274 331
#     4  11  22  37  52  77 116 151 190 231 276 329
#     4  11  19  35  53  74 107 150 198 231 260 318
#     4   9  19  37  59  84 110 142 183 225 287 346
#
# _framework density 18.013248999999998
#
# number of rings (size 3 to 8) (size 9 to 14) (size 15 to 20)
#    0.000    1.500    5.000    2.625    0.000    2.250 
#    0.000    1.250    0.000    0.000    0.000    0.000 
#    0.000    1.000    0.000    0.000    0.000    0.000 
#
# Total GULP energy -793317.974796 kJ/mol
# GULP energy per Si atom -12395.593356 kJ/mol
# Density = 1.797225 g / cm^3
# Si number density = 18.013249 Si / 1000 Ang^3
#
#
#
# Elastic Constant Matrix: (Units=GPa)
#
#
# Indices 1 2 3 4 5 6 
#
# 1 99.5414 39.1485 18.8648 0.0000 0.0000 0.0000
# 2 39.1485 88.5780 35.4559 0.0000 0.0000 0.0000
# 3 18.8648 35.4559 60.4656 0.0000 0.0000 0.0000
# 4 0.0000 0.0000 0.0000 25.7316 0.0000 0.0000
# 5 0.0000 0.0000 0.0000 0.0000 26.6309 0.0000
# 6 0.0000 0.0000 0.0000 0.0000 0.0000 26.8967
#
#
#
# Elastic Compliance Matrix: (Units=1/GPa)
#
#
# Indices 1 2 3 4 5 6 
#
# 1 0.012192 -0.005052 -0.000842 0.000000 0.000000 0.000000
# 2 -0.005052 0.016845 -0.008302 0.000000 0.000000 0.000000
# 3 -0.000842 -0.008302 0.021669 0.000000 0.000000 0.000000
# 4 0.000000 0.000000 0.000000 0.038863 0.000000 0.000000
# 5 0.000000 0.000000 0.000000 0.000000 0.037550 0.000000
# 6 0.000000 0.000000 0.000000 0.000000 0.000000 0.037179
#
#
# Mechanical properties :
#
#
# Convention : Reuss Voigt Hill
#
# Bulk Modulus (GPa) = 44.81017 48.39149 46.60083
# Shear Modulus (GPa) = 24.98408 26.19289 25.58849
#
# Velocity S-wave (km/s) = 3.72826 3.81739 3.77309
# Velocity P-wave (km/s) = 6.59269 6.80828 6.70135
#
# Compressibility (1/GPa) = 0.02231636
#
# Stress axis : x y z
#
# Youngs Moduli (GPa) = 82.01856 59.36447 46.14928
#
# Poissons Ratio (x) = 0.29989 0.03884
# Poissons Ratio (y) = 0.41433 0.38311
# Poissons Ratio (z) = 0.06904 0.49282
#
# Static dielectric constant tensor:
#      x y z
#    x 3.524420 0.000000 0.000000 
#    y 0.000000 3.138330 0.000000 
#    z 0.000000 0.000000 3.242660 
# 
# 
# High freq. dielectric constant tensor:
#      x y z
#    x 1.710810 0.000000 0.000000 
#    y 0.000000 1.665790 0.000000 
#    z 0.000000 0.000000 1.691350 
# 
# From -- ./inp_files/20538.got.cif
#   From: 2010.03.12/outbox.cif.g09.slc.cpg/sg50_11_cif.got.tgz:20538.got - 2010.04.16 13:23:21.
