data_PCOD8205626
_publ_section_title
;
Structure prediction by ZEFSAII (Michael W. Deem and Ramdas Pophale) SiO2 
 PCOD8205626
Probable space group: P B A N
;
_chemical_formula_sum "Si O2"
_cell_formula_units_Z 38
_cell_length_a 8.677125
_cell_length_b 11.660228
_cell_length_c 16.933749
_cell_angle_alpha 90.000000
_cell_angle_beta 90.000000
_cell_angle_gamma 90.000000
_cell_volume 1713.310256
_symmetry_space_group_name_H-M "P B A N"
_symmetry_group_IT_number 50
_space_group.IT_coordinate_system_code '2'
_symmetry_cell_setting 'orthorhombic'
loop_
_space_group_symop_operation_xyz
x,y,z
1/2-x,1/2-y,z
x,1/2-y,-z
1/2-x,y,-z
-x,-y,-z
1/2+x,1/2+y,-z
-x,1/2+y,z
1/2+x,-y,z
loop_
_atom_site_type_symbol
_atom_site_label
_atom_site_fract_x
_atom_site_fract_y
_atom_site_fract_z
Si Si1 0.935072 0.348749 0.861007
Si Si2 0.187814 0.483145 0.794329
Si Si3 0.476102 0.155395 0.435176
Si Si4 0.960057 0.656356 0.738796
Si Si5 0.750000 0.250000 0.000000
Si Si6 0.250000 0.522850 0.500000
O O1 0.796446 0.416624 0.822121
O O2 0.973698 0.238438 0.807005
O O3 0.871638 0.320259 0.947394
O O4 0.088321 0.427399 0.866717
O O5 0.063161 0.539883 0.735125
O O6 0.282211 0.378818 0.754841
O O7 0.434888 0.250000 0.500000
O O8 0.466964 0.212919 0.348204
O O9 0.646261 0.105272 0.446414
O O10 0.352402 0.053134 0.440917
#
# Coordination Sequence:
#
# PCOD8205626 Si02
#       6
#     8   8   8   8   2   4
#     4  11  24  44  68  98 134 168 216 269 331 401
#     4  10  23  42  69  98 128 179 215 269 337 391
#     4  11  24  40  64  92 134 177 224 276 333 376
#     4  11  22  43  66  98 132 175 227 277 327 402
#     4  12  24  48  70 100 136 164 214 284 324 412
#     4  10  24  42  56  94 128 176 226 276 322 390
#
# _framework density 22.179286999999999
#
# number of rings (size 3 to 8) (size 9 to 14) (size 15 to 20)
#    0.000    1.263    2.105    2.526    0.000   14.316 
#    0.000    1.053    0.000    0.000    0.000    0.000 
#    0.000    0.000    0.000    0.000    0.000    0.000 
#
# Total GULP energy -471043.475626 kJ/mol
# GULP energy per Si atom -12395.880938 kJ/mol
# Density = 2.212881 g / cm^3
# Si number density = 22.179287 Si / 1000 Ang^3
#
#
#
# Elastic Constant Matrix: (Units=GPa)
#
#
# Indices 1 2 3 4 5 6 
#
# 1 128.6418 22.1818 28.1587 0.0000 0.0000 0.0000
# 2 22.1818 63.0197 20.7261 0.0000 0.0000 0.0000
# 3 28.1587 20.7261 130.4837 0.0000 0.0000 0.0000
# 4 0.0000 0.0000 0.0000 21.2007 0.0000 0.0000
# 5 0.0000 0.0000 0.0000 0.0000 22.7067 0.0000
# 6 0.0000 0.0000 0.0000 0.0000 0.0000 -5.8438
#
#
#
# Elastic Compliance Matrix: (Units=1/GPa)
#
#
# Indices 1 2 3 4 5 6 
#
# 1 0.008524 -0.002527 -0.001438 0.000000 0.000000 0.000000
# 2 -0.002527 0.017492 -0.002233 0.000000 0.000000 0.000000
# 3 -0.001438 -0.002233 0.008329 0.000000 0.000000 0.000000
# 4 0.000000 0.000000 0.000000 0.047168 0.000000 0.000000
# 5 0.000000 0.000000 0.000000 0.000000 0.044040 0.000000
# 6 0.000000 0.000000 0.000000 0.000000 0.000000 -0.171120
#
#
# Mechanical properties :
#
#
# Convention : Reuss Voigt Hill
#
# Bulk Modulus (GPa) = 45.56219 51.58650 48.57434
# Shear Modulus (GPa) = -193.39151 24.35129 -84.52011
#
# Velocity S-wave (km/s) = -9.34794 3.31710 -6.17984
# Velocity P-wave (km/s) = 9.79411 6.16281 5.38259
#
# Compressibility (1/GPa) = 0.02194802
#
# Stress axis : x y z
#
# Youngs Moduli (GPa) = 117.31443 57.16878 120.06491
#
# Poissons Ratio (x) = 0.14449 0.17266
# Poissons Ratio (y) = 0.29650 0.26811
# Poissons Ratio (z) = 0.16871 0.12766
#
# Static dielectric constant tensor:
#      x y z
#    x 4.491270 0.000000 0.000000 
#    y 0.000000 4.116150 0.000000 
#    z 0.000000 0.000000 3.757560 
# 
# 
# High freq. dielectric constant tensor:
#      x y z
#    x 1.904820 0.000000 0.000000 
#    y 0.000000 1.879630 0.000000 
#    z 0.000000 0.000000 1.842530 
# 
# From -- ./inp_files/28519.got.cif
#   From: 2010.03.12/outbox.cif.g09.slc.cpg/sg50_15_cif.got.tgz:28519.got - 2010.04.16 13:23:21.
