data_PCOD8205100
_publ_section_title
;
Structure prediction by ZEFSAII (Michael W. Deem and Ramdas Pophale) SiO2 
 PCOD8205100
Probable space group: P B A N
;
_chemical_formula_sum "Si O2"
_cell_formula_units_Z 58
_cell_length_a 28.843919
_cell_length_b 8.254348
_cell_length_c 11.905401
_cell_angle_alpha 90.000000
_cell_angle_beta 90.000000
_cell_angle_gamma 90.000000
_cell_volume 2834.530079
_symmetry_space_group_name_H-M "P B A N"
_symmetry_group_IT_number 50
_space_group.IT_coordinate_system_code '2'
_symmetry_cell_setting 'orthorhombic'
loop_
_space_group_symop_operation_xyz
x,y,z
1/2-x,1/2-y,z
x,1/2-y,-z
1/2-x,y,-z
-x,-y,-z
1/2+x,1/2+y,-z
-x,1/2+y,z
1/2+x,-y,z
loop_
_atom_site_type_symbol
_atom_site_label
_atom_site_fract_x
_atom_site_fract_y
_atom_site_fract_z
Si Si1 0.724153 0.404401 0.808013
Si Si2 0.158271 0.161484 0.116960
Si Si3 0.662073 0.261584 0.369879
Si Si4 0.303431 0.095288 0.299357
Si Si5 0.486580 0.474341 0.751472
Si Si6 0.442177 0.770075 0.629673
Si Si7 0.552027 0.684656 0.879580
Si Si8 0.250000 0.250000 0.500000
O O1 0.750000 0.250000 0.866966
O O2 0.686204 0.490740 0.887483
O O3 0.700292 0.343615 0.693749
O O4 0.760604 0.542720 0.777778
O O5 0.170706 0.265338 0.228221
O O6 0.104176 0.117017 0.124155
O O7 0.169824 0.250000 0.000000
O O8 0.675302 0.250000 0.500000
O O9 0.662155 0.446020 0.324192
O O10 0.611404 0.187170 0.346706
O O11 0.284541 0.149554 0.420442
O O12 0.454002 0.607348 0.696217
O O13 0.525846 0.419165 0.664373
O O14 0.515008 0.543539 0.857298
O O15 0.453605 0.327454 0.788135
O O16 0.451453 0.750000 0.500000
O O17 0.538892 0.750000 0.000000
#
# Coordination Sequence:
#
# PCOD8205100 Si02
#       8
#     8   8   8   8   8   8   8   2
#     4  10  21  39  59  84 116 154 197 244 294 350
#     4  11  23  41  61  86 121 157 200 248 292 352
#     4  10  21  36  57  85 120 154 197 246 300 351
#     4  11  22  37  59  85 116 155 197 241 297 351
#     4  10  20  36  58  83 115 149 192 242 290 352
#     4  10  20  35  55  81 116 155 192 236 290 355
#     4  10  21  37  61  86 114 151 192 243 294 343
#     4  12  20  36  60  84 116 148 198 242 292 344
#
# _framework density 20.461943999999999
#
# number of rings (size 3 to 8) (size 9 to 14) (size 15 to 20)
#    0.000    1.655    1.379    3.310    0.000    3.034 
#    0.000    4.828    3.034   11.586    0.000    0.000 
#    0.000    0.000    0.000    0.000    0.000    0.000 
#
# Total GULP energy -719197.240788 kJ/mol
# GULP energy per Si atom -12399.952427 kJ/mol
# Density = 2.041537 g / cm^3
# Si number density = 20.461944 Si / 1000 Ang^3
#
#
#
# Elastic Constant Matrix: (Units=GPa)
#
#
# Indices 1 2 3 4 5 6 
#
# 1 88.3041 24.3319 30.6240 0.0000 0.0000 0.0000
# 2 24.3319 64.3857 12.2957 0.0000 0.0000 0.0000
# 3 30.6240 12.2957 75.5516 0.0000 0.0000 0.0000
# 4 0.0000 0.0000 0.0000 17.1240 0.0000 0.0000
# 5 0.0000 0.0000 0.0000 0.0000 0.2479 0.0000
# 6 0.0000 0.0000 0.0000 0.0000 0.0000 18.6014
#
#
#
# Elastic Compliance Matrix: (Units=1/GPa)
#
#
# Indices 1 2 3 4 5 6 
#
# 1 0.014308 -0.004438 -0.005077 0.000000 0.000000 0.000000
# 2 -0.004438 0.017406 -0.001034 0.000000 0.000000 0.000000
# 3 -0.005077 -0.001034 0.015462 0.000000 0.000000 0.000000
# 4 0.000000 0.000000 0.000000 0.058398 0.000000 0.000000
# 5 0.000000 0.000000 0.000000 0.000000 4.034314 0.000000
# 6 0.000000 0.000000 0.000000 0.000000 0.000000 0.053759
#
#
# Mechanical properties :
#
#
# Convention : Reuss Voigt Hill
#
# Bulk Modulus (GPa) = 38.34604 40.30497 39.32550
# Shear Modulus (GPa) = 1.18387 17.92731 9.55559
#
# Velocity S-wave (km/s) = 0.76146 2.96316 2.16335
# Velocity P-wave (km/s) = 4.42199 5.60780 5.04982
#
# Compressibility (1/GPa) = 0.02607831
#
# Stress axis : x y z
#
# Youngs Moduli (GPa) = 69.89051 57.45199 64.67326
#
# Poissons Ratio (x) = 0.25494 0.32837
# Poissons Ratio (y) = 0.31014 0.06687
# Poissons Ratio (z) = 0.35486 0.05941
#
# Static dielectric constant tensor:
#      x y z
#    x 3.775070 0.000000 0.000000 
#    y 0.000000 3.734360 0.000000 
#    z 0.000000 0.000000 3.560230 
# 
# 
# High freq. dielectric constant tensor:
#      x y z
#    x 1.810550 0.000000 0.000000 
#    y 0.000000 1.800500 0.000000 
#    z 0.000000 0.000000 1.795570 
# 
# From -- ./inp_files/23372.got.cif
#   From: 2010.03.12/outbox.cif.g09.slc.cpg/sg50_12_cif.got.tgz:23372.got - 2010.04.16 13:23:21.
