data_PCOD8205710
_publ_section_title
;
Structure prediction by ZEFSAII (Michael W. Deem and Ramdas Pophale) SiO2 
 PCOD8205710
Probable space group: P B A N
;
_chemical_formula_sum "Si O2"
_cell_formula_units_Z 36
_cell_length_a 22.474143
_cell_length_b 4.921597
_cell_length_c 14.730559
_cell_angle_alpha 90.000000
_cell_angle_beta 90.000000
_cell_angle_gamma 90.000000
_cell_volume 1629.327610
_symmetry_space_group_name_H-M "P B A N"
_symmetry_group_IT_number 50
_space_group.IT_coordinate_system_code '2'
_symmetry_cell_setting 'orthorhombic'
loop_
_space_group_symop_operation_xyz
x,y,z
1/2-x,1/2-y,z
x,1/2-y,-z
1/2-x,y,-z
-x,-y,-z
1/2+x,1/2+y,-z
-x,1/2+y,z
1/2+x,-y,z
loop_
_atom_site_type_symbol
_atom_site_label
_atom_site_fract_x
_atom_site_fract_y
_atom_site_fract_z
Si Si1 0.145565 0.822895 0.709051
Si Si2 0.290331 0.981158 0.110707
Si Si3 0.681742 0.691508 0.604194
Si Si4 0.387968 0.750000 0.000000
Si Si5 0.960325 0.117016 0.825395
O O1 0.171259 0.618516 0.633378
O O2 0.084336 0.697623 0.745251
O O3 0.191516 0.879654 0.789802
O O4 0.137221 0.113490 0.660674
O O5 0.250000 0.250000 0.112426
O O6 0.250000 0.750000 0.067200
O O7 0.348333 0.994146 0.045105
O O8 0.750000 0.750000 0.627509
O O9 0.667382 0.750000 0.500000
O O10 0.429190 0.876241 0.922944
O O11 0.018104 0.307819 0.816497
#
# Coordination Sequence:
#
# PCOD8205710 Si02
#       5
#     8   8   8   4   8
#     4  11  22  39  63  91 124 165 206 251 310 370
#     4  11  23  38  58  88 129 166 202 247 306 381
#     4  11  22  38  64  97 130 161 195 241 304 382
#     4  10  25  40  62  92 122 166 213 264 320 366
#     4  11  24  43  65  87 117 160 216 272 314 358
#
# _framework density 22.095006000000001
#
# number of rings (size 3 to 8) (size 9 to 14) (size 15 to 20)
#    0.000    1.111    0.000    7.000    0.000   10.667 
#    0.000    3.333    0.000   13.333    0.000    0.000 
#    0.000    0.000    0.000    0.000    0.000    0.000 
#
# Total GULP energy -446276.134913 kJ/mol
# GULP energy per Si atom -12396.559303 kJ/mol
# Density = 2.204472 g / cm^3
# Si number density = 22.095006 Si / 1000 Ang^3
#
#
#
# Elastic Constant Matrix: (Units=GPa)
#
#
# Indices 1 2 3 4 5 6 
#
# 1 82.9142 18.7012 35.3805 0.0000 0.0000 0.0000
# 2 18.7012 102.0966 21.0765 0.0000 0.0000 0.0000
# 3 35.3805 21.0765 119.4095 0.0000 0.0000 0.0000
# 4 0.0000 0.0000 0.0000 42.6866 0.0000 0.0000
# 5 0.0000 0.0000 0.0000 0.0000 23.2543 0.0000
# 6 0.0000 0.0000 0.0000 0.0000 0.0000 33.8747
#
#
#
# Elastic Compliance Matrix: (Units=1/GPa)
#
#
# Indices 1 2 3 4 5 6 
#
# 1 0.014114 -0.001787 -0.003866 0.000000 0.000000 0.000000
# 2 -0.001787 0.010391 -0.001305 0.000000 0.000000 0.000000
# 3 -0.003866 -0.001305 0.009750 0.000000 0.000000 0.000000
# 4 0.000000 0.000000 0.000000 0.023427 0.000000 0.000000
# 5 0.000000 0.000000 0.000000 0.000000 0.043003 0.000000
# 6 0.000000 0.000000 0.000000 0.000000 0.000000 0.029521
#
#
# Mechanical properties :
#
#
# Convention : Reuss Voigt Hill
#
# Bulk Modulus (GPa) = 49.16617 50.52629 49.84623
# Shear Modulus (GPa) = 33.13432 35.24727 34.19080
#
# Velocity S-wave (km/s) = 3.87671 3.99840 3.93802
# Velocity P-wave (km/s) = 6.50684 6.65084 6.57923
#
# Compressibility (1/GPa) = 0.02033919
#
# Stress axis : x y z
#
# Youngs Moduli (GPa) = 70.85397 96.23429 102.55985
#
# Poissons Ratio (x) = 0.17197 0.39653
# Poissons Ratio (y) = 0.12662 0.13380
# Poissons Ratio (z) = 0.27395 0.12555
#
# Static dielectric constant tensor:
#      x y z
#    x 3.962100 0.000000 0.000000 
#    y 0.000000 3.984530 0.000000 
#    z 0.000000 0.000000 4.081330 
# 
# 
# High freq. dielectric constant tensor:
#      x y z
#    x 1.860550 0.000000 0.000000 
#    y 0.000000 1.876360 0.000000 
#    z 0.000000 0.000000 1.879730 
# 
# From -- ./inp_files/29775.got.cif
#   From: 2010.03.12/outbox.cif.g09.slc.cpg/sg50_15_cif.got.tgz:29775.got - 2010.04.16 13:23:21.
