data_PCOD8205945
_publ_section_title
;
Structure prediction by ZEFSAII (Michael W. Deem and Ramdas Pophale) SiO2 
 PCOD8205945
Probable space group: P M M A
;
_chemical_formula_sum "Si O2"
_cell_formula_units_Z 48
_cell_length_a 8.860055
_cell_length_b 20.709587
_cell_length_c 19.615296
_cell_angle_alpha 90.000000
_cell_angle_beta 90.000000
_cell_angle_gamma 90.000000
_cell_volume 3599.172999
_symmetry_space_group_name_H-M "P M M A"
_symmetry_group_IT_number 51
_symmetry_cell_setting 'orthorhombic'
loop_
_space_group_symop_operation_xyz
x,y,z
1/2-x,-y,z
1/2+x,-y,-z
-x,y,-z
-x,-y,-z
1/2+x,y,-z
1/2-x,y,z
x,-y,z
loop_
_atom_site_type_symbol
_atom_site_label
_atom_site_fract_x
_atom_site_fract_y
_atom_site_fract_z
Si Si1 0.424051 0.123835 0.427314
Si Si2 0.070773 0.500000 0.425938
Si Si3 0.424930 0.426830 0.798003
Si Si4 0.928995 0.000000 0.424144
Si Si5 0.920436 0.423189 0.932848
Si Si6 0.927343 0.381029 0.348940
Si Si7 0.925780 0.266941 0.574070
O O1 0.500000 0.130633 0.500000
O O2 0.250000 0.104484 0.435517
O O3 0.441965 0.194688 0.393866
O O4 0.509633 0.065484 0.386866
O O5 0.250000 0.500000 0.431539
O O6 0.000000 0.500000 0.500000
O O7 0.017234 0.436623 0.387139
O O8 0.250000 0.426750 0.815849
O O9 0.480585 0.500000 0.783738
O O10 0.507820 0.395667 0.863229
O O11 0.461435 0.384550 0.731567
O O12 0.000000 0.000000 0.500000
O O13 0.750000 0.000000 0.425185
O O14 0.750000 0.399764 0.935498
O O15 0.937514 0.500000 0.932449
O O16 0.000000 0.394240 0.000000
O O17 0.750000 0.389412 0.363928
O O18 0.986604 0.312219 0.373568
O O19 0.750000 0.286300 0.567808
O O20 0.000000 0.273879 0.500000
#
# Coordination Sequence:
#
# PCOD8205945 Si02
#       7
#     8   4   8   4   8   8   8
#     4   9  16  26  39  54  74  95 118 146 182 223
#     4  12  24  36  48  58  71  90 121 162 202 244
#     4   9  17  30  44  57  75  96 119 149 187 229
#     4  10  16  22  36  56  76  94 116 142 177 220
#     4   9  16  25  39  59  79  98 118 141 174 216
#     4  11  21  34  47  59  75  96 123 158 200 239
#     4  10  20  32  44  58  74  97 126 159 196 236
#
# _framework density 13.336397
#
# number of rings (size 3 to 8) (size 9 to 14) (size 15 to 20)
#    0.000    2.167    0.833    5.000    0.000    5.333 
#    0.000    0.000    0.000    0.000    0.000    0.000 
#    0.000    0.000    0.000    0.000    0.000    0.000 
#
# Total GULP energy -594933.694068 kJ/mol
# GULP energy per Si atom -12394.451960 kJ/mol
# Density = 1.330604 g / cm^3
# Si number density = 13.336397 Si / 1000 Ang^3
#
#
#
# Elastic Constant Matrix: (Units=GPa)
#
#
# Indices 1 2 3 4 5 6 
#
# 1 108.3950 40.5792 49.1930 0.0000 0.0000 0.0000
# 2 40.5792 76.7695 32.7955 0.0000 0.0000 0.0000
# 3 49.1930 32.7955 83.2885 0.0000 0.0000 0.0000
# 4 0.0000 0.0000 0.0000 -1.0766 0.0000 0.0000
# 5 0.0000 0.0000 0.0000 0.0000 20.9892 0.0000
# 6 0.0000 0.0000 0.0000 0.0000 0.0000 19.4271
#
#
#
# Elastic Compliance Matrix: (Units=1/GPa)
#
#
# Indices 1 2 3 4 5 6 
#
# 1 0.013832 -0.004594 -0.006361 0.000000 0.000000 0.000000
# 2 -0.004594 0.017186 -0.004054 0.000000 0.000000 0.000000
# 3 -0.006361 -0.004054 0.017359 0.000000 0.000000 0.000000
# 4 0.000000 0.000000 0.000000 -0.928879 0.000000 0.000000
# 5 0.000000 0.000000 0.000000 0.000000 0.047644 0.000000
# 6 0.000000 0.000000 0.000000 0.000000 0.000000 0.051475
#
#
# Mechanical properties :
#
#
# Convention : Reuss Voigt Hill
#
# Bulk Modulus (GPa) = 54.46462 57.06539 55.76500
# Shear Modulus (GPa) = -6.70920 17.59362 5.44221
#
# Velocity S-wave (km/s) = -2.24537 3.63605 2.02227
# Velocity P-wave (km/s) = 5.84855 7.77881 6.88169
#
# Compressibility (1/GPa) = 0.01836054
#
# Stress axis : x y z
#
# Youngs Moduli (GPa) = 72.29558 58.18644 57.60539
#
# Poissons Ratio (x) = 0.26732 0.36641
# Poissons Ratio (y) = 0.33214 0.23351
# Poissons Ratio (z) = 0.45985 0.23587
#
# Static dielectric constant tensor:
#      x y z
#    x 2.797010 0.000000 0.000000 
#    y 0.000000 3.057880 0.000000 
#    z 0.000000 0.000000 2.481840 
# 
# 
# High freq. dielectric constant tensor:
#      x y z
#    x 1.529630 0.000000 0.000000 
#    y 0.000000 1.483910 0.000000 
#    z 0.000000 0.000000 1.469880 
# 
# From -- ./inp_files/28143.got.cif
#   From: 2010.03.12/outbox.cif.g09.slc.cpg/sg51_15_cif.got.tgz:28143.got - 2010.04.16 13:43:02.
