data_PCOD8205007
_publ_section_title
;
Structure prediction by ZEFSAII (Michael W. Deem and Ramdas Pophale) SiO2 
 PCOD8205007
Probable space group: P B A N
;
_chemical_formula_sum "Si O2"
_cell_formula_units_Z 56
_cell_length_a 13.904012
_cell_length_b 33.628672
_cell_length_c 5.302227
_cell_angle_alpha 90.000000
_cell_angle_beta 90.000000
_cell_angle_gamma 90.000000
_cell_volume 2479.180619
_symmetry_space_group_name_H-M "P B A N"
_symmetry_group_IT_number 50
_space_group.IT_coordinate_system_code '2'
_symmetry_cell_setting 'orthorhombic'
loop_
_space_group_symop_operation_xyz
x,y,z
1/2-x,1/2-y,z
x,1/2-y,-z
1/2-x,y,-z
-x,-y,-z
1/2+x,1/2+y,-z
-x,1/2+y,z
1/2+x,-y,z
loop_
_atom_site_type_symbol
_atom_site_label
_atom_site_fract_x
_atom_site_fract_y
_atom_site_fract_z
Si Si1 0.858885 0.397507 0.871629
Si Si2 0.036860 0.789420 0.406476
Si Si3 0.855648 0.195263 0.099783
Si Si4 0.309520 0.011059 0.754007
Si Si5 0.446250 0.125301 0.397092
Si Si6 0.637533 0.072985 0.369801
Si Si7 0.421557 0.089263 0.890649
O O1 0.872945 0.350935 0.848186
O O2 0.806976 0.420130 0.636296
O O3 0.963989 0.417417 0.913086
O O4 0.805157 0.405653 0.138379
O O5 0.976898 0.750000 0.500000
O O6 0.121605 0.788037 0.621612
O O7 0.970078 0.828109 0.407868
O O8 0.077262 0.786679 0.121201
O O9 0.750000 0.205113 0.000000
O O10 0.250000 0.022901 0.500000
O O11 0.373544 0.046708 0.857629
O O12 0.377554 0.973820 0.678315
O O13 0.250000 0.997335 0.000000
O O14 0.540099 0.097497 0.418497
O O15 0.387790 0.116106 0.652853
O O16 0.386991 0.112218 0.146750
#
# Coordination Sequence:
#
# PCOD8205007 Si02
#       7
#     8   8   8   8   8   8   8
#     4  10  19  37  60  83 101 153 211 240 287 331
#     4  12  23  40  59  86 122 154 199 256 293 348
#     4  12  23  38  56  83 119 156 200 244 290 352
#     4  12  26  40  54  90 124 152 194 250 317 358
#     4  10  19  39  61  88 104 156 210 238 297 340
#     4  10  20  36  57  77 113 147 194 245 282 347
#     4  10  20  38  65  77 116 153 196 252 287 368
#
# _framework density 22.588107000000001
#
# number of rings (size 3 to 8) (size 9 to 14) (size 15 to 20)
#    0.000    1.143    5.714    2.571    0.000    8.000 
#    0.000    0.000    0.000    0.000    0.000    0.000 
#    0.000    8.571    0.000    0.000    0.000    0.000 
#
# Total GULP energy -693743.612693 kJ/mol
# GULP energy per Si atom -12388.278798 kJ/mol
# Density = 2.253670 g / cm^3
# Si number density = 22.588107 Si / 1000 Ang^3
#
#
#
# Elastic Constant Matrix: (Units=GPa)
#
#
# Indices 1 2 3 4 5 6 
#
# 1 15.9678 20.0068 5.1285 0.0000 0.0000 0.0000
# 2 20.0068 175.4842 51.1442 0.0000 0.0000 0.0000
# 3 5.1285 51.1442 206.7291 0.0000 0.0000 0.0000
# 4 0.0000 0.0000 0.0000 44.7530 0.0000 0.0000
# 5 0.0000 0.0000 0.0000 0.0000 17.1374 0.0000
# 6 0.0000 0.0000 0.0000 0.0000 0.0000 0.7951
#
#
#
# Elastic Compliance Matrix: (Units=1/GPa)
#
#
# Indices 1 2 3 4 5 6 
#
# 1 0.073077 -0.008409 0.000268 0.000000 0.000000 0.000000
# 2 -0.008409 0.007109 -0.001550 0.000000 0.000000 0.000000
# 3 0.000268 -0.001550 0.005214 0.000000 0.000000 0.000000
# 4 0.000000 0.000000 0.000000 0.022345 0.000000 0.000000
# 5 0.000000 0.000000 0.000000 0.000000 0.058352 0.000000
# 6 0.000000 0.000000 0.000000 0.000000 0.000000 1.257689
#
#
# Mechanical properties :
#
#
# Convention : Reuss Voigt Hill
#
# Bulk Modulus (GPa) = 15.14789 61.19335 38.17062
# Shear Modulus (GPa) = 3.41256 33.99721 18.70488
#
# Velocity S-wave (km/s) = 1.23047 3.88376 2.88077
# Velocity P-wave (km/s) = 2.95625 6.87468 5.29153
#
# Compressibility (1/GPa) = 0.06601582
#
# Stress axis : x y z
#
# Youngs Moduli (GPa) = 13.68428 140.66569 191.78720
#
# Poissons Ratio (x) = 1.18291 -0.05132
# Poissons Ratio (y) = 0.11508 0.29730
# Poissons Ratio (z) = -0.00366 0.21805
#
# Static dielectric constant tensor:
#      x y z
#    x 3.507290 0.000000 0.000000 
#    y 0.000000 4.210060 0.000000 
#    z 0.000000 0.000000 6.708180 
# 
# 
# High freq. dielectric constant tensor:
#      x y z
#    x 1.831200 0.000000 0.000000 
#    y 0.000000 1.894650 0.000000 
#    z 0.000000 0.000000 1.952150 
# 
# From -- ./inp_files/3759.got.cif
#   From: 2010.03.12/outbox.cif.g09.slc.cpg/sg50_2_cif.got.tgz:3759.got - 2010.04.16 13:23:21.
