data_PCOD8205284
_publ_section_title
;
Structure prediction by ZEFSAII (Michael W. Deem and Ramdas Pophale) SiO2 
 PCOD8205284
Probable space group: P B A N
;
_chemical_formula_sum "Si O2"
_cell_formula_units_Z 40
_cell_length_a 5.124932
_cell_length_b 32.633078
_cell_length_c 11.322900
_cell_angle_alpha 90.000000
_cell_angle_beta 90.000000
_cell_angle_gamma 90.000000
_cell_volume 1893.667903
_symmetry_space_group_name_H-M "P B A N"
_symmetry_group_IT_number 50
_space_group.IT_coordinate_system_code '2'
_symmetry_cell_setting 'orthorhombic'
loop_
_space_group_symop_operation_xyz
x,y,z
1/2-x,1/2-y,z
x,1/2-y,-z
1/2-x,y,-z
-x,-y,-z
1/2+x,1/2+y,-z
-x,1/2+y,z
1/2+x,-y,z
loop_
_atom_site_type_symbol
_atom_site_label
_atom_site_fract_x
_atom_site_fract_y
_atom_site_fract_z
Si Si1 0.265946 0.380613 0.634505
Si Si2 0.197717 0.811131 0.869070
Si Si3 0.436978 0.982954 0.131567
Si Si4 0.737606 0.398428 0.219467
Si Si5 0.810497 0.706340 0.728548
O O1 0.250000 0.395343 0.500000
O O2 0.494040 0.403651 0.707072
O O3 0.307947 0.331237 0.636775
O O4 0.989484 0.392566 0.686726
O O5 0.257635 0.859662 0.866408
O O6 0.402465 0.788502 0.783935
O O7 0.901182 0.802023 0.831698
O O8 0.250000 0.794763 0.000000
O O9 0.327282 0.936918 0.135267
O O10 0.716769 0.988398 0.195955
O O11 0.500000 0.000000 0.000000
O O12 0.750000 0.750000 0.665118
#
# Coordination Sequence:
#
# PCOD8205284 Si02
#       5
#     8   8   8   8   8
#     4  10  21  39  62  83 108 155 198 237 290 330
#     4  10  21  34  53  80 113 159 187 223 284 353
#     4  10  21  36  57  89 118 151 178 228 289 343
#     4  10  21  38  58  85 120 145 191 239 277 345
#     4  10  21  36  53  82 114 145 195 245 282 331
#
# _framework density 21.123027
#
# number of rings (size 3 to 8) (size 9 to 14) (size 15 to 20)
#    0.000    2.000    0.000    3.000    2.800    2.800 
#    7.200    0.000    0.000   19.200    0.000    0.000 
#    0.000    0.000    0.000    0.000    0.000    0.000 
#
# Total GULP energy -495696.771262 kJ/mol
# GULP energy per Si atom -12392.419282 kJ/mol
# Density = 2.107495 g / cm^3
# Si number density = 21.123027 Si / 1000 Ang^3
#
#
#
# Elastic Constant Matrix: (Units=GPa)
#
#
# Indices 1 2 3 4 5 6 
#
# 1 128.1755 13.2817 2.8412 0.0000 0.0000 0.0000
# 2 13.2817 113.8356 6.7924 0.0000 0.0000 0.0000
# 3 2.8412 6.7924 56.8712 0.0000 0.0000 0.0000
# 4 0.0000 0.0000 0.0000 8.4027 0.0000 0.0000
# 5 0.0000 0.0000 0.0000 0.0000 15.5317 0.0000
# 6 0.0000 0.0000 0.0000 0.0000 0.0000 29.2849
#
#
#
# Elastic Compliance Matrix: (Units=1/GPa)
#
#
# Indices 1 2 3 4 5 6 
#
# 1 0.007902 -0.000905 -0.000287 0.000000 0.000000 0.000000
# 2 -0.000905 0.008951 -0.001024 0.000000 0.000000 0.000000
# 3 -0.000287 -0.001024 0.017720 0.000000 0.000000 0.000000
# 4 0.000000 0.000000 0.000000 0.119009 0.000000 0.000000
# 5 0.000000 0.000000 0.000000 0.000000 0.064385 0.000000
# 6 0.000000 0.000000 0.000000 0.000000 0.000000 0.034147
#
#
# Mechanical properties :
#
#
# Convention : Reuss Voigt Hill
#
# Bulk Modulus (GPa) = 33.17572 38.30143 35.73857
# Shear Modulus (GPa) = 18.75520 29.04166 23.89843
#
# Velocity S-wave (km/s) = 2.98300 3.71196 3.36727
# Velocity P-wave (km/s) = 5.25399 6.04512 5.66339
#
# Compressibility (1/GPa) = 0.03014253
#
# Stress axis : x y z
#
# Youngs Moduli (GPa) = 126.55153 111.71612 56.43280
#
# Poissons Ratio (x) = 0.10109 0.01618
# Poissons Ratio (y) = 0.11451 0.05778
# Poissons Ratio (z) = 0.03628 0.11438
#
# Static dielectric constant tensor:
#      x y z
#    x 1.369090 0.000000 0.000000 
#    y 0.000000 3.991790 0.000000 
#    z 0.000000 0.000000 2.947340 
# 
# 
# High freq. dielectric constant tensor:
#      x y z
#    x 1.861880 0.000000 0.000000 
#    y 0.000000 1.829150 0.000000 
#    z 0.000000 0.000000 1.777340 
# 
# From -- ./inp_files/17877.got.cif
#   From: 2010.03.12/outbox.cif.g09.slc.cpg/sg50_9_cif.got.tgz:17877.got - 2010.04.16 13:23:21.
