data_PCOD8205015
_publ_section_title
;
Structure prediction by ZEFSAII (Michael W. Deem and Ramdas Pophale) SiO2 
 PCOD8205015
Probable space group: P B A N
;
_chemical_formula_sum "Si O2"
_cell_formula_units_Z 56
_cell_length_a 12.698505
_cell_length_b 15.965620
_cell_length_c 13.402839
_cell_angle_alpha 90.000000
_cell_angle_beta 90.000000
_cell_angle_gamma 90.000000
_cell_volume 2717.284950
_symmetry_space_group_name_H-M "P B A N"
_symmetry_group_IT_number 50
_space_group.IT_coordinate_system_code '2'
_symmetry_cell_setting 'orthorhombic'
loop_
_space_group_symop_operation_xyz
x,y,z
1/2-x,1/2-y,z
x,1/2-y,-z
1/2-x,y,-z
-x,-y,-z
1/2+x,1/2+y,-z
-x,1/2+y,z
1/2+x,-y,z
loop_
_atom_site_type_symbol
_atom_site_label
_atom_site_fract_x
_atom_site_fract_y
_atom_site_fract_z
Si Si1 0.258040 0.848076 0.382258
Si Si2 0.406285 0.948110 0.749812
Si Si3 0.398452 0.354752 0.786772
Si Si4 0.125461 0.251408 0.389506
Si Si5 0.981153 0.381696 0.714852
Si Si6 0.716942 0.554964 0.896411
Si Si7 0.555386 0.699719 0.902728
O O1 0.250000 0.750000 0.356644
O O2 0.250000 0.864298 0.500000
O O3 0.162366 0.899603 0.332873
O O4 0.370099 0.879033 0.340773
O O5 0.484283 0.886362 0.808821
O O6 0.476508 0.023631 0.705057
O O7 0.334271 0.980172 0.837612
O O8 0.398235 0.338828 0.666990
O O9 0.310724 0.418606 0.823075
O O10 0.377988 0.267018 0.840626
O O11 0.250000 0.250000 0.392860
O O12 0.076398 0.250000 0.500000
O O13 0.073241 0.172860 0.334766
O O14 0.969433 0.346578 0.829961
O O15 0.640279 0.629746 0.932340
O O16 0.750000 0.513154 0.000000
O O17 0.508368 0.750000 0.000000
#
# Coordination Sequence:
#
# PCOD8205015 Si02
#       7
#     8   8   8   8   8   8   8
#     4  11  25  46  73  94 128 188 238 276 338 419
#     4  11  25  43  60  97 134 173 215 284 335 394
#     4  11  21  37  64  88 129 164 211 269 323 391
#     4  10  21  38  63  96 129 163 210 278 341 396
#     4  10  23  41  65  98 136 170 227 280 342 400
#     4  11  22  39  66  95 129 169 216 271 339 399
#     4  10  19  37  65  98 122 163 218 266 324 396
#
# _framework density 20.608806000000001
#
# number of rings (size 3 to 8) (size 9 to 14) (size 15 to 20)
#    0.000    1.429    1.429    5.571    4.000    1.143 
#    7.714    0.000    0.000    0.000    0.000    0.000 
#    0.000    0.000    0.000    0.000    0.000    0.000 
#
# Total GULP energy -693899.066480 kJ/mol
# GULP energy per Si atom -12391.054759 kJ/mol
# Density = 2.056190 g / cm^3
# Si number density = 20.608806 Si / 1000 Ang^3
#
#
#
# Elastic Constant Matrix: (Units=GPa)
#
#
# Indices 1 2 3 4 5 6 
#
# 1 87.1662 35.9076 41.3232 0.0000 0.0000 0.0000
# 2 35.9076 93.1182 54.6089 0.0000 0.0000 0.0000
# 3 41.3232 54.6089 140.7332 0.0000 0.0000 0.0000
# 4 0.0000 0.0000 0.0000 50.0499 0.0000 0.0000
# 5 0.0000 0.0000 0.0000 0.0000 25.3477 0.0000
# 6 0.0000 0.0000 0.0000 0.0000 0.0000 25.9644
#
#
#
# Elastic Compliance Matrix: (Units=1/GPa)
#
#
# Indices 1 2 3 4 5 6 
#
# 1 0.014380 -0.003973 -0.002681 0.000000 0.000000 0.000000
# 2 -0.003973 0.015000 -0.004654 0.000000 0.000000 0.000000
# 3 -0.002681 -0.004654 0.009699 0.000000 0.000000 0.000000
# 4 0.000000 0.000000 0.000000 0.019980 0.000000 0.000000
# 5 0.000000 0.000000 0.000000 0.000000 0.039451 0.000000
# 6 0.000000 0.000000 0.000000 0.000000 0.000000 0.038514
#
#
# Mechanical properties :
#
#
# Convention : Reuss Voigt Hill
#
# Bulk Modulus (GPa) = 60.74039 64.96634 62.85336
# Shear Modulus (GPa) = 30.27955 32.88424 31.58190
#
# Velocity S-wave (km/s) = 3.83724 3.99888 3.91889
# Velocity P-wave (km/s) = 7.01210 7.27416 7.14433
#
# Compressibility (1/GPa) = 0.01646351
#
# Stress axis : x y z
#
# Youngs Moduli (GPa) = 69.54193 66.66477 103.10677
#
# Poissons Ratio (x) = 0.26486 0.27640
# Poissons Ratio (y) = 0.27629 0.47986
# Poissons Ratio (z) = 0.18642 0.31026
#
# Static dielectric constant tensor:
#      x y z
#    x 3.695480 0.000000 0.000000 
#    y 0.000000 3.867770 0.000000 
#    z 0.000000 0.000000 4.218960 
# 
# 
# High freq. dielectric constant tensor:
#      x y z
#    x 1.800820 0.000000 0.000000 
#    y 0.000000 1.806960 0.000000 
#    z 0.000000 0.000000 1.815410 
# 
# From -- ./inp_files/25956.got.cif
#   From: 2010.03.12/outbox.cif.g09.slc.cpg/sg50_13_cif.got.tgz:25956.got - 2010.04.16 13:23:21.
