data_PCOD8205276
_publ_section_title
;
Structure prediction by ZEFSAII (Michael W. Deem and Ramdas Pophale) SiO2 
 PCOD8205276
Probable space group: P B A N
;
_chemical_formula_sum "Si O2"
_cell_formula_units_Z 42
_cell_length_a 17.410145
_cell_length_b 9.484956
_cell_length_c 13.559935
_cell_angle_alpha 90.000000
_cell_angle_beta 90.000000
_cell_angle_gamma 90.000000
_cell_volume 2239.212534
_symmetry_space_group_name_H-M "P B A N"
_symmetry_group_IT_number 50
_space_group.IT_coordinate_system_code '2'
_symmetry_cell_setting 'orthorhombic'
loop_
_space_group_symop_operation_xyz
x,y,z
1/2-x,1/2-y,z
x,1/2-y,-z
1/2-x,y,-z
-x,-y,-z
1/2+x,1/2+y,-z
-x,1/2+y,z
1/2+x,-y,z
loop_
_atom_site_type_symbol
_atom_site_label
_atom_site_fract_x
_atom_site_fract_y
_atom_site_fract_z
Si Si1 0.452804 0.228204 0.891740
Si Si2 0.903256 0.999881 0.745493
Si Si3 0.664569 0.728271 0.615802
Si Si4 0.626235 0.293234 0.158902
Si Si5 0.250000 0.750000 0.000000
Si Si6 0.073959 0.049410 0.736670
O O1 0.543760 0.197714 0.893926
O O2 0.435332 0.375745 0.841275
O O3 0.406126 0.102700 0.840092
O O4 0.419961 0.250000 0.000000
O O5 0.862884 0.143569 0.784156
O O6 0.988105 0.016440 0.699330
O O7 0.857496 0.927629 0.655084
O O8 0.750000 0.750000 0.654793
O O9 0.658530 0.750000 0.500000
O O10 0.610402 0.849268 0.657110
O O11 0.692013 0.329060 0.076706
O O12 0.626733 0.411454 0.245217
#
# Coordination Sequence:
#
# PCOD8205276 Si02
#       6
#     8   8   8   8   2   8
#     4   9  17  33  55  76 104 144 188 223 257 311
#     4   9  20  37  58  81 107 143 185 230 270 321
#     4  10  22  41  61  81 108 142 181 230 289 334
#     4  10  21  33  50  79 116 141 182 217 266 316
#     4  12  24  28  44  82 118 160 166 214 272 324
#     4   9  20  37  58  81 107 143 185 230 270 321
#
# _framework density 18.756594
#
# number of rings (size 3 to 8) (size 9 to 14) (size 15 to 20)
#    0.000    2.476    0.952    1.143    5.333    3.048 
#    0.000    0.952    0.000    6.857    0.000    0.000 
#    0.000    0.000    0.000    0.000    0.000    0.000 
#
# Total GULP energy -520419.286961 kJ/mol
# GULP energy per Si atom -12390.935404 kJ/mol
# Density = 1.871390 g / cm^3
# Si number density = 18.756594 Si / 1000 Ang^3
#
#
#
# Elastic Constant Matrix: (Units=GPa)
#
#
# Indices 1 2 3 4 5 6 
#
# 1 81.5721 26.8098 30.4860 0.0000 0.0000 0.0000
# 2 26.8098 103.1556 18.0204 0.0000 0.0000 0.0000
# 3 30.4860 18.0204 58.4439 0.0000 0.0000 0.0000
# 4 0.0000 0.0000 0.0000 15.4389 0.0000 0.0000
# 5 0.0000 0.0000 0.0000 0.0000 21.4230 0.0000
# 6 0.0000 0.0000 0.0000 0.0000 0.0000 13.0666
#
#
#
# Elastic Compliance Matrix: (Units=1/GPa)
#
#
# Indices 1 2 3 4 5 6 
#
# 1 0.015984 -0.002851 -0.007458 0.000000 0.000000 0.000000
# 2 -0.002851 0.010755 -0.001829 0.000000 0.000000 0.000000
# 3 -0.007458 -0.001829 0.021565 0.000000 0.000000 0.000000
# 4 0.000000 0.000000 0.000000 0.064772 0.000000 0.000000
# 5 0.000000 0.000000 0.000000 0.000000 0.046679 0.000000
# 6 0.000000 0.000000 0.000000 0.000000 0.000000 0.076531
#
#
# Mechanical properties :
#
#
# Convention : Reuss Voigt Hill
#
# Bulk Modulus (GPa) = 41.62100 43.75598 42.68849
# Shear Modulus (GPa) = 18.61712 21.17605 19.89658
#
# Velocity S-wave (km/s) = 3.15392 3.36369 3.26049
# Velocity P-wave (km/s) = 5.95828 6.20201 6.08137
#
# Compressibility (1/GPa) = 0.02402633
#
# Stress axis : x y z
#
# Youngs Moduli (GPa) = 62.56423 92.98367 46.37186
#
# Poissons Ratio (x) = 0.26511 0.34586
# Poissons Ratio (y) = 0.17838 0.08480
# Poissons Ratio (z) = 0.46663 0.17005
#
# Static dielectric constant tensor:
#      x y z
#    x 3.530260 0.000000 0.000000 
#    y 0.000000 3.587800 0.000000 
#    z 0.000000 0.000000 3.194010 
# 
# 
# High freq. dielectric constant tensor:
#      x y z
#    x 1.721180 0.000000 0.000000 
#    y 0.000000 1.732660 0.000000 
#    z 0.000000 0.000000 1.709270 
# 
# From -- ./inp_files/21732.got.cif
#   From: 2010.03.12/outbox.cif.g09.slc.cpg/sg50_11_cif.got.tgz:21732.got - 2010.04.16 13:23:21.
