data_PCOD8205776
_publ_section_title
;
Structure prediction by ZEFSAII (Michael W. Deem and Ramdas Pophale) SiO2 
 PCOD8205776
Probable space group: P B A N
;
_chemical_formula_sum "Si O2"
_cell_formula_units_Z 56
_cell_length_a 13.233114
_cell_length_b 13.021842
_cell_length_c 17.510564
_cell_angle_alpha 90.000000
_cell_angle_beta 90.000000
_cell_angle_gamma 90.000000
_cell_volume 3017.411978
_symmetry_space_group_name_H-M "P B A N"
_symmetry_group_IT_number 50
_space_group.IT_coordinate_system_code '2'
_symmetry_cell_setting 'orthorhombic'
loop_
_space_group_symop_operation_xyz
x,y,z
1/2-x,1/2-y,z
x,1/2-y,-z
1/2-x,y,-z
-x,-y,-z
1/2+x,1/2+y,-z
-x,1/2+y,z
1/2+x,-y,z
loop_
_atom_site_type_symbol
_atom_site_label
_atom_site_fract_x
_atom_site_fract_y
_atom_site_fract_z
Si Si1 0.502229 0.151744 0.445690
Si Si2 0.864353 0.871107 0.079294
Si Si3 0.132433 0.138692 0.095660
Si Si4 0.355002 0.517053 0.542125
Si Si5 0.112986 0.660136 0.712242
Si Si6 0.836426 0.111980 0.297284
Si Si7 0.510392 0.994943 0.809576
O O1 0.489789 0.250000 0.500000
O O2 0.393372 0.096838 0.433494
O O3 0.552449 0.178975 0.365731
O O4 0.573327 0.065639 0.479874
O O5 0.882652 0.758472 0.114627
O O6 0.748247 0.898042 0.096859
O O7 0.931163 0.957733 0.116853
O O8 0.900157 0.877782 0.991748
O O9 0.069418 0.078782 0.160242
O O10 0.250000 0.502933 0.500000
O O11 0.356422 0.595490 0.613104
O O12 0.139307 0.775807 0.736233
O O13 0.215800 0.592594 0.709206
O O14 0.044002 0.603094 0.773190
O O15 0.907552 0.035559 0.250507
#
# Coordination Sequence:
#
# PCOD8205776 Si02
#       7
#     8   8   8   8   8   8   8
#     4  11  22  38  61  82 106 144 194 237 281 339
#     4   9  19  37  59  86 114 151 192 226 276 332
#     4   9  19  37  61  84 113 151 193 229 268 345
#     4  11  22  38  61  82 106 144 194 237 281 339
#     4  11  23  37  56  83 113 150 189 232 285 341
#     4  11  23  37  56  83 113 150 189 232 285 341
#     4  12  21  36  57  86 119 148 183 239 287 329
#
# _framework density 18.558951
#
# number of rings (size 3 to 8) (size 9 to 14) (size 15 to 20)
#    0.000    1.429    4.286    3.000    0.000    0.571 
#    0.000    0.000    0.000    0.000    0.000   12.000 
#    0.000    0.000    0.000    0.000    0.000    0.000 
#
# Total GULP energy -693987.092581 kJ/mol
# GULP energy per Si atom -12392.626653 kJ/mol
# Density = 1.851671 g / cm^3
# Si number density = 18.558951 Si / 1000 Ang^3
#
#
#
# Elastic Constant Matrix: (Units=GPa)
#
#
# Indices 1 2 3 4 5 6 
#
# 1 78.3012 38.8531 30.8242 0.0000 0.0000 0.0000
# 2 38.8531 68.2997 20.4768 0.0000 0.0000 0.0000
# 3 30.8242 20.4768 70.4325 0.0000 0.0000 0.0000
# 4 0.0000 0.0000 0.0000 29.1405 0.0000 0.0000
# 5 0.0000 0.0000 0.0000 0.0000 33.0030 0.0000
# 6 0.0000 0.0000 0.0000 0.0000 0.0000 35.5818
#
#
#
# Elastic Compliance Matrix: (Units=1/GPa)
#
#
# Indices 1 2 3 4 5 6 
#
# 1 0.019810 -0.009498 -0.005908 0.000000 0.000000 0.000000
# 2 -0.009498 0.020593 -0.001830 0.000000 0.000000 0.000000
# 3 -0.005908 -0.001830 0.017316 0.000000 0.000000 0.000000
# 4 0.000000 0.000000 0.000000 0.034317 0.000000 0.000000
# 5 0.000000 0.000000 0.000000 0.000000 0.030300 0.000000
# 6 0.000000 0.000000 0.000000 0.000000 0.000000 0.028104
#
#
# Mechanical properties :
#
#
# Convention : Reuss Voigt Hill
#
# Bulk Modulus (GPa) = 43.01849 44.14907 43.58378
# Shear Modulus (GPa) = 25.95227 28.00368 26.97797
#
# Velocity S-wave (km/s) = 3.74353 3.88868 3.81680
# Velocity P-wave (km/s) = 6.47419 6.63345 6.55430
#
# Compressibility (1/GPa) = 0.02324582
#
# Stress axis : x y z
#
# Youngs Moduli (GPa) = 50.47987 48.56015 57.75048
#
# Poissons Ratio (x) = 0.46121 0.34121
# Poissons Ratio (y) = 0.47944 0.10571
# Poissons Ratio (z) = 0.29825 0.08888
#
# Static dielectric constant tensor:
#      x y z
#    x 3.812330 0.000000 0.000000 
#    y 0.000000 3.342740 0.000000 
#    z 0.000000 0.000000 3.345030 
# 
# 
# High freq. dielectric constant tensor:
#      x y z
#    x 1.727660 0.000000 0.000000 
#    y 0.000000 1.718910 0.000000 
#    z 0.000000 0.000000 1.717590 
# 
# From -- ./inp_files/25954.got.cif
#   From: 2010.03.12/outbox.cif.g09.slc.cpg/sg50_13_cif.got.tgz:25954.got - 2010.04.16 13:23:21.
