data_PCOD8205414
_publ_section_title
;
Structure prediction by ZEFSAII (Michael W. Deem and Ramdas Pophale) SiO2 
 PCOD8205414
Probable space group: P B A N
;
_chemical_formula_sum "Si O2"
_cell_formula_units_Z 38
_cell_length_a 14.487889
_cell_length_b 8.459711
_cell_length_c 14.994866
_cell_angle_alpha 90.000000
_cell_angle_beta 90.000000
_cell_angle_gamma 90.000000
_cell_volume 1837.821069
_symmetry_space_group_name_H-M "P B A N"
_symmetry_group_IT_number 50
_space_group.IT_coordinate_system_code '2'
_symmetry_cell_setting 'orthorhombic'
loop_
_space_group_symop_operation_xyz
x,y,z
1/2-x,1/2-y,z
x,1/2-y,-z
1/2-x,y,-z
-x,-y,-z
1/2+x,1/2+y,-z
-x,1/2+y,z
1/2+x,-y,z
loop_
_atom_site_type_symbol
_atom_site_label
_atom_site_fract_x
_atom_site_fract_y
_atom_site_fract_z
Si Si1 0.395187 0.953963 0.402508
Si Si2 0.969985 0.207753 0.898895
Si Si3 0.250000 0.750000 0.500000
Si Si4 0.384664 0.008810 0.194424
Si Si5 0.718768 0.069677 0.093699
Si Si6 0.957947 0.750000 0.500000
O O1 0.305535 0.860402 0.432888
O O2 0.396115 0.986834 0.298644
O O3 0.482356 0.845726 0.427546
O O4 0.394452 0.124215 0.449717
O O5 0.926014 0.359975 0.855503
O O6 0.892783 0.065544 0.895235
O O7 0.997872 0.250000 0.000000
O O8 0.059936 0.160649 0.841960
O O9 0.274936 0.023911 0.171305
O O10 0.750000 0.250000 0.094814
O O11 0.750000 0.992111 0.000000
#
# Coordination Sequence:
#
# PCOD8205414 Si02
#       6
#     8   8   2   8   8   4
#     4  10  21  40  64  94 119 163 209 257 324 388
#     4  11  21  37  60  89 124 167 206 251 311 358
#     4  10  24  38  64  90 126 164 204 258 332 394
#     4  11  22  36  64  90 119 161 214 253 298 381
#     4   9  17  34  55  82 118 162 195 240 297 354
#     4   9  20  42  64  85 130 156 194 271 328 376
#
# _framework density 20.676659999999998
#
# number of rings (size 3 to 8) (size 9 to 14) (size 15 to 20)
#    0.000    1.895    4.211    1.895    4.421    0.421 
#    0.000    1.053    4.632    0.000    0.000    0.000 
#    0.000    0.000    0.000    0.000    0.000    0.000 
#
# Total GULP energy -471047.294651 kJ/mol
# GULP energy per Si atom -12395.981438 kJ/mol
# Density = 2.062960 g / cm^3
# Si number density = 20.676660 Si / 1000 Ang^3
#
#
#
# Elastic Constant Matrix: (Units=GPa)
#
#
# Indices 1 2 3 4 5 6 
#
# 1 47.6780 8.4170 29.1693 0.0000 0.0000 0.0000
# 2 8.4170 70.6743 32.6248 0.0000 0.0000 0.0000
# 3 29.1693 32.6248 166.9320 0.0000 0.0000 0.0000
# 4 0.0000 0.0000 0.0000 43.5068 0.0000 0.0000
# 5 0.0000 0.0000 0.0000 0.0000 18.3105 0.0000
# 6 0.0000 0.0000 0.0000 0.0000 0.0000 111.3301
#
#
#
# Elastic Compliance Matrix: (Units=1/GPa)
#
#
# Indices 1 2 3 4 5 6 
#
# 1 0.023548 -0.000995 -0.003920 0.000000 0.000000 0.000000
# 2 -0.000995 0.015595 -0.002874 0.000000 0.000000 0.000000
# 3 -0.003920 -0.002874 0.007237 0.000000 0.000000 0.000000
# 4 0.000000 0.000000 0.000000 0.022985 0.000000 0.000000
# 5 0.000000 0.000000 0.000000 0.000000 0.054614 0.000000
# 6 0.000000 0.000000 0.000000 0.000000 0.000000 0.008982
#
#
# Mechanical properties :
#
#
# Convention : Reuss Voigt Hill
#
# Bulk Modulus (GPa) = 32.46565 47.30071 39.88318
# Shear Modulus (GPa) = 31.48495 48.96767 40.22631
#
# Velocity S-wave (km/s) = 3.90645 4.87175 4.41556
# Velocity P-wave (km/s) = 6.00690 7.38724 6.73254
#
# Compressibility (1/GPa) = 0.03080179
#
# Stress axis : x y z
#
# Youngs Moduli (GPa) = 42.46624 64.12489 138.17560
#
# Poissons Ratio (x) = 0.06379 0.54169
# Poissons Ratio (y) = 0.04224 0.39711
# Poissons Ratio (z) = 0.16648 0.18429
#
# Static dielectric constant tensor:
#      x y z
#    x 4.420360 0.000000 0.000000 
#    y 0.000000 3.560680 0.000000 
#    z 0.000000 0.000000 3.668500 
# 
# 
# High freq. dielectric constant tensor:
#      x y z
#    x 1.809070 0.000000 0.000000 
#    y 0.000000 1.795220 0.000000 
#    z 0.000000 0.000000 1.806530 
# 
# From -- ./inp_files/24605.got.cif
#   From: 2010.03.12/outbox.cif.g09.slc.cpg/sg50_13_cif.got.tgz:24605.got - 2010.04.16 13:23:21.
