data_PCOD8205102
_publ_section_title
;
Structure prediction by ZEFSAII (Michael W. Deem and Ramdas Pophale) SiO2 
 PCOD8205102
Probable space group: P B A N
;
_chemical_formula_sum "Si O2"
_cell_formula_units_Z 40
_cell_length_a 19.859102
_cell_length_b 9.236308
_cell_length_c 10.976669
_cell_angle_alpha 90.000000
_cell_angle_beta 90.000000
_cell_angle_gamma 90.000000
_cell_volume 2013.393126
_symmetry_space_group_name_H-M "P B A N"
_symmetry_group_IT_number 50
_space_group.IT_coordinate_system_code '2'
_symmetry_cell_setting 'orthorhombic'
loop_
_space_group_symop_operation_xyz
x,y,z
1/2-x,1/2-y,z
x,1/2-y,-z
1/2-x,y,-z
-x,-y,-z
1/2+x,1/2+y,-z
-x,1/2+y,z
1/2+x,-y,z
loop_
_atom_site_type_symbol
_atom_site_label
_atom_site_fract_x
_atom_site_fract_y
_atom_site_fract_z
Si Si1 0.862680 0.031138 0.262316
Si Si2 0.070593 0.922361 0.492683
Si Si3 0.601071 0.360917 0.766137
Si Si4 0.468245 0.382360 0.913482
Si Si5 0.735270 0.419664 0.868170
O O1 0.881341 0.004780 0.404249
O O2 0.873897 0.199227 0.243415
O O3 0.783628 0.002322 0.232564
O O4 0.906090 0.936715 0.167568
O O5 0.060227 0.750000 0.500000
O O6 0.101710 0.950466 0.360051
O O7 0.000000 0.000000 0.500000
O O8 0.527185 0.342932 0.820315
O O9 0.655924 0.449329 0.845199
O O10 0.445359 0.250000 0.000000
O O11 0.500000 0.500000 0.000000
O O12 0.750000 0.250000 0.868715
O O13 0.750000 0.487913 0.000000
#
# Coordination Sequence:
#
# PCOD8205102 Si02
#       5
#     8   8   8   8   8
#     4  10  20  36  55  84 115 149 193 240 290 344
#     4  10  20  35  56  84 114 145 192 241 290 345
#     4  10  20  35  56  85 113 151 191 240 289 348
#     4  12  22  33  56  85 114 146 195 238 286 343
#     4   9  18  32  54  81 117 148 183 232 293 347
#
# _framework density 19.866959000000001
#
# number of rings (size 3 to 8) (size 9 to 14) (size 15 to 20)
#    0.000    1.800    4.000    1.200    2.800    0.800 
#    0.000    4.000    0.000    5.400    0.000    1.400 
#    0.000    0.000    0.000    0.000    0.000    0.000 
#
# Total GULP energy -495563.294668 kJ/mol
# GULP energy per Si atom -12389.082367 kJ/mol
# Density = 1.982174 g / cm^3
# Si number density = 19.866959 Si / 1000 Ang^3
#
#
#
# Elastic Constant Matrix: (Units=GPa)
#
#
# Indices 1 2 3 4 5 6 
#
# 1 102.9381 0.7264 40.9163 0.0000 0.0000 0.0000
# 2 0.7264 28.1470 22.8692 0.0000 0.0000 0.0000
# 3 40.9163 22.8692 145.6623 0.0000 0.0000 0.0000
# 4 0.0000 0.0000 0.0000 25.0945 0.0000 0.0000
# 5 0.0000 0.0000 0.0000 0.0000 -72.5770 0.0000
# 6 0.0000 0.0000 0.0000 0.0000 0.0000 18.1251
#
#
#
# Elastic Compliance Matrix: (Units=1/GPa)
#
#
# Indices 1 2 3 4 5 6 
#
# 1 0.011096 0.002574 -0.003521 0.000000 0.000000 0.000000
# 2 0.002574 0.041320 -0.007210 0.000000 0.000000 0.000000
# 3 -0.003521 -0.007210 0.008986 0.000000 0.000000 0.000000
# 4 0.000000 0.000000 0.000000 0.039849 0.000000 0.000000
# 5 0.000000 0.000000 0.000000 0.000000 -0.013778 0.000000
# 6 0.000000 0.000000 0.000000 0.000000 0.000000 0.055172
#
#
# Mechanical properties :
#
#
# Convention : Reuss Voigt Hill
#
# Bulk Modulus (GPa) = 22.17886 45.08571 33.63228
# Shear Modulus (GPa) = 28.73755 8.27755 18.50755
#
# Velocity S-wave (km/s) = 3.80741 2.04341 3.05548
# Velocity P-wave (km/s) = 5.52417 5.32076 5.42342
#
# Compressibility (1/GPa) = 0.04508798
#
# Stress axis : x y z
#
# Youngs Moduli (GPa) = 90.12282 24.20151 111.28051
#
# Poissons Ratio (x) = -0.06231 0.39182
# Poissons Ratio (y) = -0.23202 0.80238
# Poissons Ratio (z) = 0.31733 0.17450
#
# Static dielectric constant tensor:
#      x y z
#    x 7.075680 0.000000 0.000000 
#    y 0.000000 3.274300 0.000000 
#    z 0.000000 0.000000 4.272750 
# 
# 
# High freq. dielectric constant tensor:
#      x y z
#    x 1.776850 0.000000 0.000000 
#    y 0.000000 1.731630 0.000000 
#    z 0.000000 0.000000 1.791800 
# 
# From -- ./inp_files/18754.got.cif
#   From: 2010.03.12/outbox.cif.g09.slc.cpg/sg50_10_cif.got.tgz:18754.got - 2010.04.16 13:23:21.
