data_PCOD8205920
_publ_section_title
;
Structure prediction by ZEFSAII (Michael W. Deem and Ramdas Pophale) SiO2 
 PCOD8205920
Probable space group: P M M A
;
_chemical_formula_sum "Si O2"
_cell_formula_units_Z 40
_cell_length_a 26.180720
_cell_length_b 9.247961
_cell_length_c 9.609431
_cell_angle_alpha 90.000000
_cell_angle_beta 90.000000
_cell_angle_gamma 90.000000
_cell_volume 2326.618882
_symmetry_space_group_name_H-M "P M M A"
_symmetry_group_IT_number 51
_symmetry_cell_setting 'orthorhombic'
loop_
_space_group_symop_operation_xyz
x,y,z
1/2-x,-y,z
1/2+x,-y,-z
-x,y,-z
-x,-y,-z
1/2+x,y,-z
1/2-x,y,z
x,-y,z
loop_
_atom_site_type_symbol
_atom_site_label
_atom_site_fract_x
_atom_site_fract_y
_atom_site_fract_z
Si Si1 0.641480 0.159355 0.072848
Si Si2 0.545878 0.666970 0.105115
Si Si3 0.457744 0.829474 0.609141
Si Si4 0.845917 0.839536 0.403473
Si Si5 0.250000 0.168696 0.901809
Si Si6 0.250000 0.670748 0.614880
O O1 0.597681 0.273009 0.032285
O O2 0.650677 0.160396 0.237380
O O3 0.623653 0.000000 0.023258
O O4 0.697900 0.197261 0.008477
O O5 0.554656 0.500000 0.139626
O O6 0.532393 0.749077 0.246380
O O7 0.500000 0.692556 0.000000
O O8 0.500000 0.777061 0.500000
O O9 0.402140 0.790230 0.543739
O O10 0.461140 0.000000 0.639760
O O11 0.801565 0.732277 0.458282
O O12 0.832834 0.000000 0.458668
O O13 0.250000 0.000000 0.849621
O O14 0.250000 0.278758 0.773560
O O15 0.250000 0.500000 0.602551
#
# Coordination Sequence:
#
# PCOD8205920 Si02
#       6
#     8   8   8   8   4   4
#     4   8  14  25  41  59  81 111 144 179 218 258
#     4  10  20  31  43  64  94 123 150 180 215 259
#     4   9  18  32  49  68  88 113 149 188 223 262
#     4   8  14  25  39  56  82 111 136 171 219 260
#     4   8  14  24  36  54  81 108 135 172 220 262
#     4  10  16  20  32  56  83 110 141 172 204 252
#
# _framework density 17.192329000000001
#
# number of rings (size 3 to 8) (size 9 to 14) (size 15 to 20)
#    0.000    3.200    0.000    3.900    0.000    9.200 
#    0.000    0.000    0.000    0.000    0.000    1.400 
#    0.000    3.200    0.000    0.000    0.000    0.000 
#
# Total GULP energy -495545.978083 kJ/mol
# GULP energy per Si atom -12388.649452 kJ/mol
# Density = 1.715320 g / cm^3
# Si number density = 17.192329 Si / 1000 Ang^3
#
#
#
# Elastic Constant Matrix: (Units=GPa)
#
#
# Indices 1 2 3 4 5 6 
#
# 1 172.2674 79.0266 33.3549 0.0000 0.0000 0.0000
# 2 79.0266 103.2201 29.3118 0.0000 0.0000 0.0000
# 3 33.3549 29.3118 25.6047 0.0000 0.0000 0.0000
# 4 0.0000 0.0000 0.0000 12.7788 0.0000 0.0000
# 5 0.0000 0.0000 0.0000 0.0000 17.1192 0.0000
# 6 0.0000 0.0000 0.0000 0.0000 0.0000 23.4330
#
#
#
# Elastic Compliance Matrix: (Units=1/GPa)
#
#
# Indices 1 2 3 4 5 6 
#
# 1 0.009535 -0.005590 -0.006022 0.000000 0.000000 0.000000
# 2 -0.005590 0.017632 -0.012902 0.000000 0.000000 0.000000
# 3 -0.006022 -0.012902 0.061670 0.000000 0.000000 0.000000
# 4 0.000000 0.000000 0.000000 0.078254 0.000000 0.000000
# 5 0.000000 0.000000 0.000000 0.000000 0.058414 0.000000
# 6 0.000000 0.000000 0.000000 0.000000 0.000000 0.042675
#
#
# Mechanical properties :
#
#
# Convention : Reuss Voigt Hill
#
# Bulk Modulus (GPa) = 25.12018 64.94208 45.03113
# Shear Modulus (GPa) = 15.12952 21.29282 18.21117
#
# Velocity S-wave (km/s) = 2.96972 3.52306 3.25816
# Velocity P-wave (km/s) = 5.13829 7.37598 6.35638
#
# Compressibility (1/GPa) = 0.03980863
#
# Stress axis : x y z
#
# Youngs Moduli (GPa) = 104.87148 56.71497 16.21524
#
# Poissons Ratio (x) = 0.31706 0.09765
# Poissons Ratio (y) = 0.58627 0.20921
# Poissons Ratio (z) = 0.63153 0.73175
#
# Static dielectric constant tensor:
#      x y z
#    x 4.176410 0.000000 0.000000 
#    y 0.000000 3.171180 0.000000 
#    z 0.000000 0.000000 2.492530 
# 
# 
# High freq. dielectric constant tensor:
#      x y z
#    x 1.696940 0.000000 0.000000 
#    y 0.000000 1.658990 0.000000 
#    z 0.000000 0.000000 1.574700 
# 
# From -- ./inp_files/12222.got.cif
#   From: 2010.03.12/outbox.cif.g09.slc.cpg/sg51_7_cif.got.tgz:12222.got - 2010.04.16 13:43:02.
