data_PCOD8205119
_publ_section_title
;
Structure prediction by ZEFSAII (Michael W. Deem and Ramdas Pophale) SiO2 
 PCOD8205119
Probable space group: P B A N
;
_chemical_formula_sum "Si O2"
_cell_formula_units_Z 64
_cell_length_a 30.547359
_cell_length_b 8.931762
_cell_length_c 11.935781
_cell_angle_alpha 90.000000
_cell_angle_beta 90.000000
_cell_angle_gamma 90.000000
_cell_volume 3256.579260
_symmetry_space_group_name_H-M "P B A N"
_symmetry_group_IT_number 50
_space_group.IT_coordinate_system_code '2'
_symmetry_cell_setting 'orthorhombic'
loop_
_space_group_symop_operation_xyz
x,y,z
1/2-x,1/2-y,z
x,1/2-y,-z
1/2-x,y,-z
-x,-y,-z
1/2+x,1/2+y,-z
-x,1/2+y,z
1/2+x,-y,z
loop_
_atom_site_type_symbol
_atom_site_label
_atom_site_fract_x
_atom_site_fract_y
_atom_site_fract_z
Si Si1 0.246733 0.072363 0.371615
Si Si2 0.571492 0.912080 0.278312
Si Si3 0.954917 0.422028 0.477895
Si Si4 0.362477 0.927458 0.007035
Si Si5 0.455478 0.420450 0.036520
Si Si6 0.174100 0.082733 0.777710
Si Si7 0.329369 0.082995 0.793028
Si Si8 0.101049 0.349902 0.400012
O O1 0.250000 0.250000 0.380131
O O2 0.250000 0.007038 0.500000
O O3 0.285904 0.011893 0.292741
O O4 0.202722 0.021337 0.305309
O O5 0.541991 0.918315 0.169576
O O6 0.622824 0.918628 0.258032
O O7 0.563013 0.756363 0.345803
O O8 0.557929 0.056589 0.348817
O O9 0.958093 0.250000 0.500000
O O10 0.918617 0.495847 0.556817
O O11 0.000000 0.500000 0.500000
O O12 0.338876 0.971533 0.122525
O O13 0.367323 0.750000 0.000000
O O14 0.411398 0.997343 0.005579
O O15 0.331066 0.983380 0.905838
O O16 0.453559 0.250000 0.000000
O O17 0.500000 0.500000 0.000000
O O18 0.185130 0.247949 0.827362
O O19 0.135073 0.100372 0.691529
O O20 0.123156 0.250000 0.500000
#
# Coordination Sequence:
#
# PCOD8205119 Si02
#       8
#     8   8   8   8   8   8   8   8
#     4   9  19  32  61  97 121 148 196 252 307 364
#     4   9  20  37  58  82 115 156 187 238 293 344
#     4  11  23  37  55  80 111 150 194 236 286 347
#     4  11  23  40  60  84 118 164 210 245 296 356
#     4  11  23  40  63  91 120 153 197 248 302 354
#     4  10  20  35  62  91 117 155 195 249 302 357
#     4   9  19  38  61  85 122 152 195 250 302 358
#     4   9  19  34  57  83 115 151 190 234 295 354
#
# _framework density 19.652522999999999
#
# number of rings (size 3 to 8) (size 9 to 14) (size 15 to 20)
#    0.000    2.125    0.000    4.125    7.000    5.500 
#    0.000    3.125    0.000    0.750    0.000    0.000 
#    0.000    0.000    0.000    0.000    0.000    0.000 
#
# Total GULP energy -793221.557922 kJ/mol
# GULP energy per Si atom -12394.086843 kJ/mol
# Density = 1.960779 g / cm^3
# Si number density = 19.652523 Si / 1000 Ang^3
#
#
#
# Elastic Constant Matrix: (Units=GPa)
#
#
# Indices 1 2 3 4 5 6 
#
# 1 83.7786 45.2133 66.6493 0.0000 0.0000 0.0000
# 2 45.2133 136.6990 67.5705 0.0000 0.0000 0.0000
# 3 66.6493 67.5705 170.1932 0.0000 0.0000 0.0000
# 4 0.0000 0.0000 0.0000 24.7971 0.0000 0.0000
# 5 0.0000 0.0000 0.0000 0.0000 10.1073 0.0000
# 6 0.0000 0.0000 0.0000 0.0000 0.0000 5.7221
#
#
#
# Elastic Compliance Matrix: (Units=1/GPa)
#
#
# Indices 1 2 3 4 5 6 
#
# 1 0.018356 -0.003133 -0.005945 0.000000 0.000000 0.000000
# 2 -0.003133 0.009636 -0.002599 0.000000 0.000000 0.000000
# 3 -0.005945 -0.002599 0.009235 0.000000 0.000000 0.000000
# 4 0.000000 0.000000 0.000000 0.040327 0.000000 0.000000
# 5 0.000000 0.000000 0.000000 0.000000 0.098938 0.000000
# 6 0.000000 0.000000 0.000000 0.000000 0.000000 0.174760
#
#
# Mechanical properties :
#
#
# Convention : Reuss Voigt Hill
#
# Bulk Modulus (GPa) = 72.07214 83.28190 77.67702
# Shear Modulus (GPa) = 13.18458 22.20781 17.69620
#
# Velocity S-wave (km/s) = 2.59295 3.36523 3.00401
# Velocity P-wave (km/s) = 6.76146 7.58742 7.18632
#
# Compressibility (1/GPa) = 0.01387499
#
# Stress axis : x y z
#
# Youngs Moduli (GPa) = 54.47758 103.77544 108.27797
#
# Poissons Ratio (x) = 0.32511 0.64367
# Poissons Ratio (y) = 0.17067 0.28141
# Poissons Ratio (z) = 0.32385 0.26970
#
# Static dielectric constant tensor:
#      x y z
#    x 3.622720 0.000000 0.000000 
#    y 0.000000 3.638900 0.000000 
#    z 0.000000 0.000000 3.993930 
# 
# 
# High freq. dielectric constant tensor:
#      x y z
#    x 1.762670 0.000000 0.000000 
#    y 0.000000 1.741130 0.000000 
#    z 0.000000 0.000000 1.784790 
# 
# From -- ./inp_files/23408.got.cif
#   From: 2010.03.12/outbox.cif.g09.slc.cpg/sg50_12_cif.got.tgz:23408.got - 2010.04.16 13:23:21.
