data_PCOD8205067
_publ_section_title
;
Structure prediction by ZEFSAII (Michael W. Deem and Ramdas Pophale) SiO2 
 PCOD8205067
Probable space group: P B A N
;
_chemical_formula_sum "Si O2"
_cell_formula_units_Z 56
_cell_length_a 25.296017
_cell_length_b 13.953562
_cell_length_c 8.989417
_cell_angle_alpha 90.000000
_cell_angle_beta 90.000000
_cell_angle_gamma 90.000000
_cell_volume 3172.990397
_symmetry_space_group_name_H-M "P B A N"
_symmetry_group_IT_number 50
_space_group.IT_coordinate_system_code '2'
_symmetry_cell_setting 'orthorhombic'
loop_
_space_group_symop_operation_xyz
x,y,z
1/2-x,1/2-y,z
x,1/2-y,-z
1/2-x,y,-z
-x,-y,-z
1/2+x,1/2+y,-z
-x,1/2+y,z
1/2+x,-y,z
loop_
_atom_site_type_symbol
_atom_site_label
_atom_site_fract_x
_atom_site_fract_y
_atom_site_fract_z
Si Si1 0.993820 0.566415 0.675109
Si Si2 0.108508 0.535802 0.620903
Si Si3 0.688280 0.357852 0.164258
Si Si4 0.065765 0.348095 0.585101
Si Si5 0.193974 0.861900 0.183702
Si Si6 0.500589 0.237002 0.823921
Si Si7 0.916080 0.398425 0.692848
O O1 0.982603 0.594201 0.500088
O O2 0.983965 0.659882 0.769382
O O3 0.952852 0.487840 0.734840
O O4 0.053431 0.534479 0.710988
O O5 0.115965 0.421680 0.580696
O O6 0.156818 0.570183 0.719589
O O7 0.098497 0.606632 0.481815
O O8 0.745776 0.392965 0.220849
O O9 0.682681 0.248514 0.219947
O O10 0.640626 0.418125 0.232207
O O11 0.683390 0.373697 0.989535
O O12 0.080850 0.250000 0.500000
O O13 0.045435 0.330623 0.753919
O O14 0.556942 0.199322 0.757313
O O15 0.502147 0.250000 0.000000
#
# Coordination Sequence:
#
# PCOD8205067 Si02
#       7
#     8   8   8   8   8   8   8
#     4  10  20  34  51  74 107 142 173 215 267 318
#     4  11  19  34  55  78 101 142 184 215 264 315
#     4   9  20  37  50  76 110 141 174 212 268 302
#     4   9  18  36  51  70 110 141 170 218 271 316
#     4   9  20  36  55  73 105 146 176 212 257 322
#     4  11  22  31  47  76 109 142 176 216 264 314
#     4  11  21  34  51  77 108 138 179 221 258 312
#
# _framework density 17.648966000000001
#
# number of rings (size 3 to 8) (size 9 to 14) (size 15 to 20)
#    0.000    2.000    2.857    2.571    4.000    4.000 
#    0.000    1.429    0.000    0.000    0.000   17.000 
#    0.000   21.714    0.000    0.000    0.000    0.000 
#
# Total GULP energy -693813.929379 kJ/mol
# GULP energy per Si atom -12389.534453 kJ/mol
# Density = 1.760880 g / cm^3
# Si number density = 17.648966 Si / 1000 Ang^3
#
#
#
# Elastic Constant Matrix: (Units=GPa)
#
#
# Indices 1 2 3 4 5 6 
#
# 1 129.8324 57.3885 53.9065 0.0000 0.0000 0.0000
# 2 57.3885 84.2420 36.5693 0.0000 0.0000 0.0000
# 3 53.9065 36.5693 83.6255 0.0000 0.0000 0.0000
# 4 0.0000 0.0000 0.0000 17.6190 0.0000 0.0000
# 5 0.0000 0.0000 0.0000 0.0000 26.4908 0.0000
# 6 0.0000 0.0000 0.0000 0.0000 0.0000 19.6909
#
#
#
# Elastic Compliance Matrix: (Units=1/GPa)
#
#
# Indices 1 2 3 4 5 6 
#
# 1 0.012767 -0.006325 -0.005464 0.000000 0.000000 0.000000
# 2 -0.006325 0.017786 -0.003700 0.000000 0.000000 0.000000
# 3 -0.005464 -0.003700 0.017098 0.000000 0.000000 0.000000
# 4 0.000000 0.000000 0.000000 0.056757 0.000000 0.000000
# 5 0.000000 0.000000 0.000000 0.000000 0.037749 0.000000
# 6 0.000000 0.000000 0.000000 0.000000 0.000000 0.050785
#
#
# Mechanical properties :
#
#
# Convention : Reuss Voigt Hill
#
# Bulk Modulus (GPa) = 59.97993 65.93652 62.95822
# Shear Modulus (GPa) = 21.78868 22.74920 22.26894
#
# Velocity S-wave (km/s) = 3.51744 3.59413 3.55599
# Velocity P-wave (km/s) = 7.11022 7.39357 7.25328
#
# Compressibility (1/GPa) = 0.01667224
#
# Stress axis : x y z
#
# Youngs Moduli (GPa) = 78.32920 56.22430 58.48599
#
# Poissons Ratio (x) = 0.35564 0.31954
# Poissons Ratio (y) = 0.49546 0.21642
# Poissons Ratio (z) = 0.42795 0.20805
#
# Static dielectric constant tensor:
#      x y z
#    x 3.196010 0.000000 0.000000 
#    y 0.000000 3.521240 0.000000 
#    z 0.000000 0.000000 3.334960 
# 
# 
# High freq. dielectric constant tensor:
#      x y z
#    x 1.661680 0.000000 0.000000 
#    y 0.000000 1.680670 0.000000 
#    z 0.000000 0.000000 1.673810 
# 
# From -- ./inp_files/13266.got.cif
#   From: 2010.03.12/outbox.cif.g09.slc.cpg/sg50_7_cif.got.tgz:13266.got - 2010.04.16 13:23:21.
