data_PCOD8205224
_publ_section_title
;
Structure prediction by ZEFSAII (Michael W. Deem and Ramdas Pophale) SiO2 
 PCOD8205224
Probable space group: P B A N
;
_chemical_formula_sum "Si O2"
_cell_formula_units_Z 56
_cell_length_a 16.914748
_cell_length_b 15.653137
_cell_length_c 10.245285
_cell_angle_alpha 90.000000
_cell_angle_beta 90.000000
_cell_angle_gamma 90.000000
_cell_volume 2712.632509
_symmetry_space_group_name_H-M "P B A N"
_symmetry_group_IT_number 50
_space_group.IT_coordinate_system_code '2'
_symmetry_cell_setting 'orthorhombic'
loop_
_space_group_symop_operation_xyz
x,y,z
1/2-x,1/2-y,z
x,1/2-y,-z
1/2-x,y,-z
-x,-y,-z
1/2+x,1/2+y,-z
-x,1/2+y,z
1/2+x,-y,z
loop_
_atom_site_type_symbol
_atom_site_label
_atom_site_fract_x
_atom_site_fract_y
_atom_site_fract_z
Si Si1 0.414487 0.762683 0.144439
Si Si2 0.168039 0.197940 0.391126
Si Si3 0.163322 0.497100 0.523088
Si Si4 0.093058 0.194697 0.111141
Si Si5 0.847710 0.067299 0.252959
Si Si6 0.659377 0.969880 0.001679
Si Si7 0.836045 0.096170 0.768358
O O1 0.508448 0.761071 0.130380
O O2 0.398846 0.851091 0.216860
O O3 0.378287 0.687939 0.233998
O O4 0.376086 0.750000 0.000000
O O5 0.250000 0.250000 0.382099
O O6 0.116295 0.250000 0.500000
O O7 0.172256 0.102591 0.446629
O O8 0.134674 0.199317 0.248369
O O9 0.250000 0.535074 0.500000
O O10 0.119808 0.524047 0.387800
O O11 0.124424 0.542898 0.648992
O O12 0.138172 0.250000 0.000000
O O13 0.096438 0.098105 0.057425
O O14 0.757693 0.100337 0.254652
O O15 0.862758 0.993992 0.145660
O O16 0.750000 0.935257 0.000000
O O17 0.649183 0.052973 0.091933
#
# Coordination Sequence:
#
# PCOD8205224 Si02
#       7
#     8   8   8   8   8   8   8
#     4  11  23  44  60  93 134 171 213 268 328 379
#     4  11  23  40  67  91 127 171 204 265 321 387
#     4  10  20  39  61  99 128 157 211 263 328 374
#     4  11  27  41  60  96 130 171 216 262 326 388
#     4  10  22  37  69  99 120 165 218 268 324 384
#     4  10  21  37  65  95 119 160 218 274 316 380
#     4  10  20  39  68  91 129 167 215 269 314 384
#
# _framework density 20.644151999999998
#
# number of rings (size 3 to 8) (size 9 to 14) (size 15 to 20)
#    0.000    1.571    4.286    0.429    4.000    1.714 
#    2.571    2.857    0.000    0.000    0.000    0.000 
#    0.000    0.000    0.000    0.000    0.000    0.000 
#
# Total GULP energy -693758.852061 kJ/mol
# GULP energy per Si atom -12388.550930 kJ/mol
# Density = 2.059717 g / cm^3
# Si number density = 20.644152 Si / 1000 Ang^3
#
#
#
# Elastic Constant Matrix: (Units=GPa)
#
#
# Indices 1 2 3 4 5 6 
#
# 1 37.9500 31.9812 28.7127 0.0000 0.0000 0.0000
# 2 31.9812 124.0742 71.3670 0.0000 0.0000 0.0000
# 3 28.7127 71.3670 188.8422 0.0000 0.0000 0.0000
# 4 0.0000 0.0000 0.0000 39.1399 0.0000 0.0000
# 5 0.0000 0.0000 0.0000 0.0000 9.8631 0.0000
# 6 0.0000 0.0000 0.0000 0.0000 0.0000 -2.0699
#
#
#
# Elastic Compliance Matrix: (Units=1/GPa)
#
#
# Indices 1 2 3 4 5 6 
#
# 1 0.034499 -0.007507 -0.002408 0.000000 0.000000 0.000000
# 2 -0.007507 0.011932 -0.003368 0.000000 0.000000 0.000000
# 3 -0.002408 -0.003368 0.006934 0.000000 0.000000 0.000000
# 4 0.000000 0.000000 0.000000 0.025549 0.000000 0.000000
# 5 0.000000 0.000000 0.000000 0.000000 0.101388 0.000000
# 6 0.000000 0.000000 0.000000 0.000000 0.000000 -0.483114
#
#
# Mechanical properties :
#
#
# Convention : Reuss Voigt Hill
#
# Bulk Modulus (GPa) = 37.31537 68.33202 52.82369
# Shear Modulus (GPa) = -18.70474 23.97365 2.63446
#
# Velocity S-wave (km/s) = -3.01334 3.41145 1.13088
# Velocity P-wave (km/s) = 2.45108 6.97776 5.22958
#
# Compressibility (1/GPa) = 0.02679861
#
# Stress axis : x y z
#
# Youngs Moduli (GPa) = 28.98633 83.80897 144.20889
#
# Poissons Ratio (x) = 0.62916 0.34731
# Poissons Ratio (y) = 0.21760 0.48567
# Poissons Ratio (z) = 0.06981 0.28226
#
# Static dielectric constant tensor:
#      x y z
#    x 3.381060 0.000000 0.000000 
#    y 0.000000 3.747790 0.000000 
#    z 0.000000 0.000000 3.632960 
# 
# 
# High freq. dielectric constant tensor:
#      x y z
#    x 1.762050 0.000000 0.000000 
#    y 0.000000 1.813060 0.000000 
#    z 0.000000 0.000000 1.834420 
# 
# From -- ./inp_files/15348.got.cif
#   From: 2010.03.12/outbox.cif.g09.slc.cpg/sg50_8_cif.got.tgz:15348.got - 2010.04.16 13:23:21.
