data_PCOD8205895
_publ_section_title
;
Structure prediction by ZEFSAII (Michael W. Deem and Ramdas Pophale) SiO2 
 PCOD8205895
Probable space group: P B A N
;
_chemical_formula_sum "Si O2"
_cell_formula_units_Z 18
_cell_length_a 13.684438
_cell_length_b 10.499169
_cell_length_c 4.903858
_cell_angle_alpha 90.000000
_cell_angle_beta 90.000000
_cell_angle_gamma 90.000000
_cell_volume 704.562912
_symmetry_space_group_name_H-M "P B A N"
_symmetry_group_IT_number 50
_space_group.IT_coordinate_system_code '2'
_symmetry_cell_setting 'orthorhombic'
loop_
_space_group_symop_operation_xyz
x,y,z
1/2-x,1/2-y,z
x,1/2-y,-z
1/2-x,y,-z
-x,-y,-z
1/2+x,1/2+y,-z
-x,1/2+y,z
1/2+x,-y,z
loop_
_atom_site_type_symbol
_atom_site_label
_atom_site_fract_x
_atom_site_fract_y
_atom_site_fract_z
Si Si1 0.250000 0.750000 0.000000
Si Si2 0.989309 0.837237 0.261077
Si Si3 0.848109 0.048969 0.380433
O O1 0.178520 0.833497 0.812448
O O2 0.944727 0.750000 0.500000
O O3 0.091085 0.899280 0.360176
O O4 0.910805 0.948955 0.201960
O O5 0.006124 0.750000 0.000000
O O6 0.750000 0.984244 0.500000
#
# Coordination Sequence:
#
# PCOD8205895 Si02
#       3
#     2   8   8
#     4  12  26  52  80 124 146 214 266 318 382 500
#     4  11  28  53  79 116 159 207 262 327 400 466
#     4  11  28  49  83 114 162 209 265 326 393 474
#
# _framework density 25.547756
#
# number of rings (size 3 to 8) (size 9 to 14) (size 15 to 20)
#    0.000    0.889    0.000    3.333   18.667    4.444 
#    0.000    0.000    4.889    0.000    0.000    0.000 
#    0.000    0.000    0.000    0.000    0.000    0.000 
#
# Total GULP energy -223273.933428 kJ/mol
# GULP energy per Si atom -12404.107413 kJ/mol
# Density = 2.548961 g / cm^3
# Si number density = 25.547756 Si / 1000 Ang^3
#
#
#
# Elastic Constant Matrix: (Units=GPa)
#
#
# Indices 1 2 3 4 5 6 
#
# 1 206.0532 96.4801 69.5583 0.0000 0.0000 0.0000
# 2 96.4801 140.9452 58.3648 0.0000 0.0000 0.0000
# 3 69.5583 58.3648 155.7258 0.0000 0.0000 0.0000
# 4 0.0000 0.0000 0.0000 52.6156 0.0000 0.0000
# 5 0.0000 0.0000 0.0000 0.0000 26.0301 0.0000
# 6 0.0000 0.0000 0.0000 0.0000 0.0000 68.5378
#
#
#
# Elastic Compliance Matrix: (Units=1/GPa)
#
#
# Indices 1 2 3 4 5 6 
#
# 1 0.007499 -0.004435 -0.001688 0.000000 0.000000 0.000000
# 2 -0.004435 0.011021 -0.002150 0.000000 0.000000 0.000000
# 3 -0.001688 -0.002150 0.007981 0.000000 0.000000 0.000000
# 4 0.000000 0.000000 0.000000 0.019006 0.000000 0.000000
# 5 0.000000 0.000000 0.000000 0.000000 0.038417 0.000000
# 6 0.000000 0.000000 0.000000 0.000000 0.000000 0.014590
#
#
# Mechanical properties :
#
#
# Convention : Reuss Voigt Hill
#
# Bulk Modulus (GPa) = 100.42984 105.72561 103.07773
# Shear Modulus (GPa) = 42.23791 47.99141 45.11466
#
# Velocity S-wave (km/s) = 4.07048 4.33887 4.20681
# Velocity P-wave (km/s) = 7.84141 8.15931 8.00194
#
# Compressibility (1/GPa) = 0.00995720
#
# Stress axis : x y z
#
# Youngs Moduli (GPa) = 133.34763 90.73874 125.29670
#
# Poissons Ratio (x) = 0.40238 0.21146
# Poissons Ratio (y) = 0.59133 0.26935
# Poissons Ratio (z) = 0.22504 0.19506
#
# Static dielectric constant tensor:
#      x y z
#    x 5.025490 0.000000 0.000000 
#    y 0.000000 5.075840 0.000000 
#    z 0.000000 0.000000 4.179350 
# 
# 
# High freq. dielectric constant tensor:
#      x y z
#    x 2.034920 0.000000 0.000000 
#    y 0.000000 2.021320 0.000000 
#    z 0.000000 0.000000 2.031780 
# 
# From -- ./inp_files/1343.got.cif
#   From: 2010.03.12/outbox.cif.g09.slc.cpg/sg50_1_cif.got.tgz:1343.got - 2010.04.16 13:23:21.
