data_PCOD8205603
_publ_section_title
;
Structure prediction by ZEFSAII (Michael W. Deem and Ramdas Pophale) SiO2 
 PCOD8205603
Probable space group: P B A N
;
_chemical_formula_sum "Si O2"
_cell_formula_units_Z 40
_cell_length_a 8.367800
_cell_length_b 14.306300
_cell_length_c 14.549580
_cell_angle_alpha 90.000000
_cell_angle_beta 90.000000
_cell_angle_gamma 90.000000
_cell_volume 1741.763062
_symmetry_space_group_name_H-M "P B A N"
_symmetry_group_IT_number 50
_space_group.IT_coordinate_system_code '2'
_symmetry_cell_setting 'orthorhombic'
loop_
_space_group_symop_operation_xyz
x,y,z
1/2-x,1/2-y,z
x,1/2-y,-z
1/2-x,y,-z
-x,-y,-z
1/2+x,1/2+y,-z
-x,1/2+y,z
1/2+x,-y,z
loop_
_atom_site_type_symbol
_atom_site_label
_atom_site_fract_x
_atom_site_fract_y
_atom_site_fract_z
Si Si1 0.250000 0.022448 0.500000
Si Si2 0.073963 0.768941 0.730602
Si Si3 0.928863 0.473517 0.775751
Si Si4 0.193732 0.448512 0.903588
Si Si5 0.471879 0.899855 0.616140
Si Si6 0.250000 0.250000 0.844486
O O1 0.381418 0.090069 0.454612
O O2 0.318869 0.954671 0.578120
O O3 0.250000 0.750000 0.777959
O O4 0.067041 0.880431 0.712562
O O5 0.067254 0.709931 0.634675
O O6 0.915279 0.742784 0.787363
O O7 0.753925 0.500549 0.810254
O O8 0.007737 0.458672 0.878226
O O9 0.992907 0.558867 0.716217
O O10 0.248654 0.340946 0.908113
O O11 0.250000 0.494660 0.000000
#
# Coordination Sequence:
#
# PCOD8205603 Si02
#       6
#     4   8   8   8   8   4
#     4  10  24  40  72 100 132 180 214 303 355 400
#     4  11  23  41  69  95 130 182 235 270 334 425
#     4  11  23  40  69  95 129 190 220 273 353 406
#     4  11  22  40  65 100 138 176 231 289 340 404
#     4  11  22  46  65  98 139 170 232 282 346 426
#     4  10  23  40  68 101 132 186 232 283 348 408
#
# _framework density 22.965236999999998
#
# number of rings (size 3 to 8) (size 9 to 14) (size 15 to 20)
#    0.000    1.200    2.000    4.500    2.800    0.000 
#    0.000   10.500    0.000    1.200    0.000    0.000 
#    0.000    0.000    0.000    0.000    0.000    0.000 
#
# Total GULP energy -495524.623558 kJ/mol
# GULP energy per Si atom -12388.115589 kJ/mol
# Density = 2.291297 g / cm^3
# Si number density = 22.965237 Si / 1000 Ang^3
#
#
#
# Elastic Constant Matrix: (Units=GPa)
#
#
# Indices 1 2 3 4 5 6 
#
# 1 112.2186 1.8194 21.4714 0.0000 0.0000 0.0000
# 2 1.8194 98.6519 33.2406 0.0000 0.0000 0.0000
# 3 21.4714 33.2406 86.2321 0.0000 0.0000 0.0000
# 4 0.0000 0.0000 0.0000 26.4731 0.0000 0.0000
# 5 0.0000 0.0000 0.0000 0.0000 31.8959 0.0000
# 6 0.0000 0.0000 0.0000 0.0000 0.0000 22.8373
#
#
#
# Elastic Compliance Matrix: (Units=1/GPa)
#
#
# Indices 1 2 3 4 5 6 
#
# 1 0.009400 0.000707 -0.002613 0.000000 0.000000 0.000000
# 2 0.000707 0.011703 -0.004687 0.000000 0.000000 0.000000
# 3 -0.002613 -0.004687 0.014054 0.000000 0.000000 0.000000
# 4 0.000000 0.000000 0.000000 0.037774 0.000000 0.000000
# 5 0.000000 0.000000 0.000000 0.000000 0.031352 0.000000
# 6 0.000000 0.000000 0.000000 0.000000 0.000000 0.043788
#
#
# Mechanical properties :
#
#
# Convention : Reuss Voigt Hill
#
# Bulk Modulus (GPa) = 45.51607 45.57393 45.54500
# Shear Modulus (GPa) = 29.65934 32.27934 30.96934
#
# Velocity S-wave (km/s) = 3.59763 3.75317 3.67622
# Velocity P-wave (km/s) = 6.09260 6.21848 6.15586
#
# Compressibility (1/GPa) = 0.02197026
#
# Stress axis : x y z
#
# Youngs Moduli (GPa) = 106.38656 85.44825 71.15361
#
# Poissons Ratio (x) = -0.06042 0.18593
# Poissons Ratio (y) = -0.07523 0.33352
# Poissons Ratio (z) = 0.27799 0.40052
#
# Static dielectric constant tensor:
#      x y z
#    x 4.470520 0.000000 0.000000 
#    y 0.000000 4.177760 0.000000 
#    z 0.000000 0.000000 3.655500 
# 
# 
# High freq. dielectric constant tensor:
#      x y z
#    x 1.931330 0.000000 0.000000 
#    y 0.000000 1.905340 0.000000 
#    z 0.000000 0.000000 1.881980 
# 
# From -- ./inp_files/24723.got.cif
#   From: 2010.03.12/outbox.cif.g09.slc.cpg/sg50_13_cif.got.tgz:24723.got - 2010.04.16 13:23:21.
