data_PCOD8205242
_publ_section_title
;
Structure prediction by ZEFSAII (Michael W. Deem and Ramdas Pophale) SiO2 
 PCOD8205242
Probable space group: P B A N
;
_chemical_formula_sum "Si O2"
_cell_formula_units_Z 48
_cell_length_a 9.709021
_cell_length_b 24.988028
_cell_length_c 8.965457
_cell_angle_alpha 90.000000
_cell_angle_beta 90.000000
_cell_angle_gamma 90.000000
_cell_volume 2175.103145
_symmetry_space_group_name_H-M "P B A N"
_symmetry_group_IT_number 50
_space_group.IT_coordinate_system_code '2'
_symmetry_cell_setting 'orthorhombic'
loop_
_space_group_symop_operation_xyz
x,y,z
1/2-x,1/2-y,z
x,1/2-y,-z
1/2-x,y,-z
-x,-y,-z
1/2+x,1/2+y,-z
-x,1/2+y,z
1/2+x,-y,z
loop_
_atom_site_type_symbol
_atom_site_label
_atom_site_fract_x
_atom_site_fract_y
_atom_site_fract_z
Si Si1 0.944627 0.511480 0.166787
Si Si2 0.481360 0.322062 0.837254
Si Si3 0.487609 0.298073 0.171220
Si Si4 0.739712 0.332796 0.334385
Si Si5 0.285071 0.955048 0.333038
Si Si6 0.722159 0.879145 0.168648
O O1 0.077251 0.516118 0.272699
O O2 0.847607 0.463675 0.225262
O O3 0.838091 0.561387 0.176485
O O4 0.000000 0.500000 0.000000
O O5 0.423488 0.261246 0.824831
O O6 0.615401 0.331684 0.743364
O O7 0.375905 0.367107 0.768125
O O8 0.516880 0.327033 0.012234
O O9 0.633662 0.293944 0.252246
O O10 0.380994 0.338192 0.252250
O O11 0.750000 0.310187 0.500000
O O12 0.679682 0.392737 0.334824
O O13 0.250000 0.976473 0.500000
O O14 0.750000 0.859869 0.000000
#
# Coordination Sequence:
#
# PCOD8205242 Si02
#       6
#     8   8   8   8   8   8
#     4  12  25  43  70 103 130 169 223 281 330 388
#     4  10  22  37  66  93 126 168 214 267 330 389
#     4  10  20  40  63  93 126 168 212 270 329 387
#     4  11  24  41  63  92 130 173 215 263 325 390
#     4  11  26  45  66  94 135 177 214 265 336 408
#     4  10  21  39  62  96 129 162 209 269 327 387
#
# _framework density 22.067917999999999
#
# number of rings (size 3 to 8) (size 9 to 14) (size 15 to 20)
#    0.000    1.333    1.667    3.500    7.000    6.000 
#    0.000    0.833    0.000    2.000    0.000    0.000 
#    0.000    0.000    0.000    0.000    0.000    0.000 
#
# Total GULP energy -594796.147180 kJ/mol
# GULP energy per Si atom -12391.586400 kJ/mol
# Density = 2.201769 g / cm^3
# Si number density = 22.067918 Si / 1000 Ang^3
#
#
#
# Elastic Constant Matrix: (Units=GPa)
#
#
# Indices 1 2 3 4 5 6 
#
# 1 147.4847 22.4574 55.1711 0.0000 0.0000 0.0000
# 2 22.4574 64.2741 18.1994 0.0000 0.0000 0.0000
# 3 55.1711 18.1994 100.7963 0.0000 0.0000 0.0000
# 4 0.0000 0.0000 0.0000 22.5465 0.0000 0.0000
# 5 0.0000 0.0000 0.0000 0.0000 -4.7133 0.0000
# 6 0.0000 0.0000 0.0000 0.0000 0.0000 38.4876
#
#
#
# Elastic Compliance Matrix: (Units=1/GPa)
#
#
# Indices 1 2 3 4 5 6 
#
# 1 0.008716 -0.001786 -0.004448 0.000000 0.000000 0.000000
# 2 -0.001786 0.016763 -0.002049 0.000000 0.000000 0.000000
# 3 -0.004448 -0.002049 0.012726 0.000000 0.000000 0.000000
# 4 0.000000 0.000000 0.000000 0.044353 0.000000 0.000000
# 5 0.000000 0.000000 0.000000 0.000000 -0.212165 0.000000
# 6 0.000000 0.000000 0.000000 0.000000 0.000000 0.025982
#
#
# Mechanical properties :
#
#
# Convention : Reuss Voigt Hill
#
# Bulk Modulus (GPa) = 46.21519 56.02342 51.11931
# Shear Modulus (GPa) = -62.62108 25.71265 -18.45421
#
# Velocity S-wave (km/s) = -5.33274 3.41715 -2.89493
# Velocity P-wave (km/s) = 4.11458 6.40399 3.46997
#
# Compressibility (1/GPa) = 0.02163791
#
# Stress axis : x y z
#
# Youngs Moduli (GPa) = 114.72641 59.65678 78.58021
#
# Poissons Ratio (x) = 0.10654 0.34956
# Poissons Ratio (y) = 0.20489 0.16101
# Poissons Ratio (z) = 0.51036 0.12224
#
# Static dielectric constant tensor:
#      x y z
#    x 4.237200 0.000000 0.000000 
#    y 0.000000 4.080490 0.000000 
#    z 0.000000 0.000000 3.845820 
# 
# 
# High freq. dielectric constant tensor:
#      x y z
#    x 1.887180 0.000000 0.000000 
#    y 0.000000 1.875020 0.000000 
#    z 0.000000 0.000000 1.839330 
# 
# From -- ./inp_files/10072.got.cif
#   From: 2010.03.12/outbox.cif.g09.slc.cpg/sg50_6_cif.got.tgz:10072.got - 2010.04.16 13:23:21.
