data_PCOD8205467
_publ_section_title
;
Structure prediction by ZEFSAII (Michael W. Deem and Ramdas Pophale) SiO2 
 PCOD8205467
Probable space group: P B A N
;
_chemical_formula_sum "Si O2"
_cell_formula_units_Z 48
_cell_length_a 9.051179
_cell_length_b 15.407106
_cell_length_c 14.515216
_cell_angle_alpha 90.000000
_cell_angle_beta 90.000000
_cell_angle_gamma 90.000000
_cell_volume 2024.182786
_symmetry_space_group_name_H-M "P B A N"
_symmetry_group_IT_number 50
_space_group.IT_coordinate_system_code '2'
_symmetry_cell_setting 'orthorhombic'
loop_
_space_group_symop_operation_xyz
x,y,z
1/2-x,1/2-y,z
x,1/2-y,-z
1/2-x,y,-z
-x,-y,-z
1/2+x,1/2+y,-z
-x,1/2+y,z
1/2+x,-y,z
loop_
_atom_site_type_symbol
_atom_site_label
_atom_site_fract_x
_atom_site_fract_y
_atom_site_fract_z
Si Si1 0.250000 0.250000 0.500000
Si Si2 0.177622 0.941367 0.900289
Si Si3 0.750000 0.003213 0.500000
Si Si4 0.999127 0.535249 0.623726
Si Si5 0.479573 0.912594 0.825515
Si Si6 0.500994 0.832375 0.380644
Si Si7 0.750000 0.250000 0.500000
Si Si8 0.917381 0.227266 0.187985
O O1 0.351964 0.190651 0.564462
O O2 0.311290 0.947368 0.827698
O O3 0.076170 0.856610 0.879383
O O4 0.250000 0.932893 0.000000
O O5 0.081522 0.028602 0.891175
O O6 0.649991 0.062575 0.430341
O O7 0.638629 0.940748 0.557315
O O8 0.999054 0.433543 0.642684
O O9 0.975724 0.586078 0.718309
O O10 0.488855 0.812730 0.861181
O O11 0.353340 0.810145 0.436668
O O12 0.506168 0.786272 0.281856
O O13 0.750000 0.250000 0.213580
#
# Coordination Sequence:
#
# PCOD8205467 Si02
#       8
#     2   8   4   8   8   8   2   8
#     4  10  26  34  56  92 138 188 226 292 336 396
#     4  11  24  48  75 105 135 178 223 287 354 423
#     4  10  24  36  58  96 134 186 238 280 326 404
#     4  11  22  39  62  91 137 183 232 282 339 398
#     4  11  24  42  73 104 138 179 231 284 348 415
#     4  11  21  40  58  92 135 182 235 281 346 388
#     4  10  22  34  68  88 132 190 246 292 312 416
#     4  10  23  42  69 101 135 179 229 285 341 419
#
# _framework density 23.713273000000001
#
# number of rings (size 3 to 8) (size 9 to 14) (size 15 to 20)
#    0.000    1.333    2.500    2.500    2.333   11.000 
#    0.000    0.000    0.000    1.000    0.000    0.000 
#    0.000    0.000    0.000    0.000    0.000    0.000 
#
# Total GULP energy -595147.614419 kJ/mol
# GULP energy per Si atom -12398.908634 kJ/mol
# Density = 2.365930 g / cm^3
# Si number density = 23.713273 Si / 1000 Ang^3
#
#
#
# Elastic Constant Matrix: (Units=GPa)
#
#
# Indices 1 2 3 4 5 6 
#
# 1 119.0337 54.1127 38.6128 0.0000 0.0000 0.0000
# 2 54.1127 163.7697 52.8927 0.0000 0.0000 0.0000
# 3 38.6128 52.8927 123.7534 0.0000 0.0000 0.0000
# 4 0.0000 0.0000 0.0000 21.0376 0.0000 0.0000
# 5 0.0000 0.0000 0.0000 0.0000 25.9807 0.0000
# 6 0.0000 0.0000 0.0000 0.0000 0.0000 35.1519
#
#
#
# Elastic Compliance Matrix: (Units=1/GPa)
#
#
# Indices 1 2 3 4 5 6 
#
# 1 0.010313 -0.002748 -0.002043 0.000000 0.000000 0.000000
# 2 -0.002748 0.007816 -0.002483 0.000000 0.000000 0.000000
# 3 -0.002043 -0.002483 0.009780 0.000000 0.000000 0.000000
# 4 0.000000 0.000000 0.000000 0.047534 0.000000 0.000000
# 5 0.000000 0.000000 0.000000 0.000000 0.038490 0.000000
# 6 0.000000 0.000000 0.000000 0.000000 0.000000 0.028448
#
#
# Mechanical properties :
#
#
# Convention : Reuss Voigt Hill
#
# Bulk Modulus (GPa) = 74.85159 77.53258 76.19208
# Shear Modulus (GPa) = 30.98230 33.82994 32.40612
#
# Velocity S-wave (km/s) = 3.61853 3.78117 3.70074
# Velocity P-wave (km/s) = 7.00658 7.19929 7.10359
#
# Compressibility (1/GPa) = 0.01335977
#
# Stress axis : x y z
#
# Youngs Moduli (GPa) = 96.96585 127.94207 102.25429
#
# Poissons Ratio (x) = 0.35154 0.20895
# Poissons Ratio (y) = 0.26643 0.25393
# Poissons Ratio (z) = 0.19814 0.31772
#
# Static dielectric constant tensor:
#      x y z
#    x 4.967670 0.000000 0.000000 
#    y 0.000000 4.370290 0.000000 
#    z 0.000000 0.000000 4.107710 
# 
# 
# High freq. dielectric constant tensor:
#      x y z
#    x 1.935970 0.000000 0.000000 
#    y 0.000000 1.948860 0.000000 
#    z 0.000000 0.000000 1.927190 
# 
# From -- ./inp_files/25079.got.cif
#   From: 2010.03.12/outbox.cif.g09.slc.cpg/sg50_13_cif.got.tgz:25079.got - 2010.04.16 13:23:21.
