data_PCOD8205906
_publ_section_title
;
Structure prediction by ZEFSAII (Michael W. Deem and Ramdas Pophale) SiO2 
 PCOD8205906
Probable space group: P B A N
;
_chemical_formula_sum "Si O2"
_cell_formula_units_Z 32
_cell_length_a 20.324453
_cell_length_b 13.965258
_cell_length_c 4.994261
_cell_angle_alpha 90.000000
_cell_angle_beta 90.000000
_cell_angle_gamma 90.000000
_cell_volume 1417.552213
_symmetry_space_group_name_H-M "P B A N"
_symmetry_group_IT_number 50
_space_group.IT_coordinate_system_code '2'
_symmetry_cell_setting 'orthorhombic'
loop_
_space_group_symop_operation_xyz
x,y,z
1/2-x,1/2-y,z
x,1/2-y,-z
1/2-x,y,-z
-x,-y,-z
1/2+x,1/2+y,-z
-x,1/2+y,z
1/2+x,-y,z
loop_
_atom_site_type_symbol
_atom_site_label
_atom_site_fract_x
_atom_site_fract_y
_atom_site_fract_z
Si Si1 0.891261 0.187532 0.238952
Si Si2 0.890749 0.855964 0.414393
Si Si3 0.794647 0.485858 0.739968
Si Si4 0.973632 0.897888 0.910129
O O1 0.878977 0.250000 0.500000
O O2 0.854950 0.086514 0.232787
O O3 0.861491 0.250000 0.000000
O O4 0.968394 0.169050 0.199024
O O5 0.869764 0.750000 0.500000
O O6 0.941092 0.847361 0.166848
O O7 0.824965 0.910370 0.323354
O O8 0.922263 0.912195 0.667123
O O9 0.750000 0.448235 0.500000
O O10 0.750000 0.493370 0.000000
O O11 0.000000 0.000000 0.000000
#
# Coordination Sequence:
#
# PCOD8205906 Si02
#       4
#     8   8   8   8
#     4  12  26  44  73 107 142 182 233 293 361 429
#     4  12  26  47  73 106 141 187 235 296 361 426
#     4  12  28  48  72  99 142 193 247 291 343 415
#     4  12  24  44  75 107 146 181 226 295 375 431
#
# _framework density 22.574124999999999
#
# number of rings (size 3 to 8) (size 9 to 14) (size 15 to 20)
#    0.000    0.000    2.500    8.250    3.500    3.500 
#    0.000    1.250    0.000    0.000    0.000    0.000 
#    0.000    0.000    0.000    0.000    0.000    0.000 
#
# Total GULP energy -397056.576710 kJ/mol
# GULP energy per Si atom -12408.018022 kJ/mol
# Density = 2.252275 g / cm^3
# Si number density = 22.574125 Si / 1000 Ang^3
#
#
#
# Elastic Constant Matrix: (Units=GPa)
#
#
# Indices 1 2 3 4 5 6 
#
# 1 84.9625 36.7899 47.6327 0.0000 0.0000 0.0000
# 2 36.7899 112.0819 48.2608 0.0000 0.0000 0.0000
# 3 47.6327 48.2608 188.0879 0.0000 0.0000 0.0000
# 4 0.0000 0.0000 0.0000 43.6737 0.0000 0.0000
# 5 0.0000 0.0000 0.0000 0.0000 61.6992 0.0000
# 6 0.0000 0.0000 0.0000 0.0000 0.0000 33.3003
#
#
#
# Elastic Compliance Matrix: (Units=1/GPa)
#
#
# Indices 1 2 3 4 5 6 
#
# 1 0.014960 -0.003686 -0.002843 0.000000 0.000000 0.000000
# 2 -0.003686 0.010939 -0.001873 0.000000 0.000000 0.000000
# 3 -0.002843 -0.001873 0.006517 0.000000 0.000000 0.000000
# 4 0.000000 0.000000 0.000000 0.022897 0.000000 0.000000
# 5 0.000000 0.000000 0.000000 0.000000 0.016208 0.000000
# 6 0.000000 0.000000 0.000000 0.000000 0.000000 0.030030
#
#
# Mechanical properties :
#
#
# Convention : Reuss Voigt Hill
#
# Bulk Modulus (GPa) = 64.05645 72.27769 68.16707
# Shear Modulus (GPa) = 40.46673 44.56457 42.51565
#
# Velocity S-wave (km/s) = 4.23852 4.44795 4.34450
# Velocity P-wave (km/s) = 7.23817 7.64634 7.44505
#
# Compressibility (1/GPa) = 0.01561123
#
# Stress axis : x y z
#
# Youngs Moduli (GPa) = 66.84558 91.41919 153.44072
#
# Poissons Ratio (x) = 0.33701 0.43618
# Poissons Ratio (y) = 0.24642 0.28741
# Poissons Ratio (z) = 0.19002 0.17124
#
# Static dielectric constant tensor:
#      x y z
#    x 4.060890 0.000000 0.000000 
#    y 0.000000 4.045630 0.000000 
#    z 0.000000 0.000000 4.421640 
# 
# 
# High freq. dielectric constant tensor:
#      x y z
#    x 1.886600 0.000000 0.000000 
#    y 0.000000 1.902680 0.000000 
#    z 0.000000 0.000000 1.915140 
# 
# From -- ./inp_files/3990.got.cif
#   From: 2010.03.12/outbox.cif.g09.slc.cpg/sg50_2_cif.got.tgz:3990.got - 2010.04.16 13:23:21.
