data_PCOD8205040
_publ_section_title
;
Structure prediction by ZEFSAII (Michael W. Deem and Ramdas Pophale) SiO2 
 PCOD8205040
Probable space group: P B A N
;
_chemical_formula_sum "Si O2"
_cell_formula_units_Z 28
_cell_length_a 8.956196
_cell_length_b 28.080987
_cell_length_c 5.326893
_cell_angle_alpha 90.000000
_cell_angle_beta 90.000000
_cell_angle_gamma 90.000000
_cell_volume 1339.707322
_symmetry_space_group_name_H-M "P B A N"
_symmetry_group_IT_number 50
_space_group.IT_coordinate_system_code '2'
_symmetry_cell_setting 'orthorhombic'
loop_
_space_group_symop_operation_xyz
x,y,z
1/2-x,1/2-y,z
x,1/2-y,-z
1/2-x,y,-z
-x,-y,-z
1/2+x,1/2+y,-z
-x,1/2+y,z
1/2+x,-y,z
loop_
_atom_site_type_symbol
_atom_site_label
_atom_site_fract_x
_atom_site_fract_y
_atom_site_fract_z
Si Si1 0.003496 0.042729 0.314239
Si Si2 0.927446 0.303563 0.000881
Si Si3 0.250000 0.999889 0.000000
Si Si4 0.572414 0.356878 0.496572
O O1 0.999443 0.091010 0.474000
O O2 0.858893 0.037631 0.137154
O O3 0.000000 0.000000 0.500000
O O4 0.158570 0.037375 0.167473
O O5 0.985348 0.331959 0.247299
O O6 0.991790 0.250000 0.000000
O O7 0.750000 0.302216 0.000000
O O8 0.985055 0.327915 0.745928
O O9 0.750000 0.360653 0.500000
#
# Coordination Sequence:
#
# PCOD8205040 Si02
#       4
#     8   8   4   8
#     4  11  23  39  58  87 123 163 205 253 302 368
#     4   9  18  32  50  80 117 153 194 242 302 364
#     4  10  24  38  60  80 128 162 210 252 304 356
#     4  10  20  31  56  81 117 160 194 241 305 362
#
# _framework density 20.900086000000002
#
# number of rings (size 3 to 8) (size 9 to 14) (size 15 to 20)
#    0.000    2.000    0.000    3.429   14.000    3.429 
#    0.000    0.000    0.000    0.000    0.000    1.000 
#    0.000    0.000    0.000    0.000    0.000    0.000 
#
# Total GULP energy -347140.687089 kJ/mol
# GULP energy per Si atom -12397.881682 kJ/mol
# Density = 2.085252 g / cm^3
# Si number density = 20.900086 Si / 1000 Ang^3
#
#
#
# Elastic Constant Matrix: (Units=GPa)
#
#
# Indices 1 2 3 4 5 6 
#
# 1 59.4086 22.8286 26.9336 0.0000 0.0000 0.0000
# 2 22.8286 199.2405 93.8853 0.0000 0.0000 0.0000
# 3 26.9336 93.8853 177.0525 0.0000 0.0000 0.0000
# 4 0.0000 0.0000 0.0000 49.3508 0.0000 0.0000
# 5 0.0000 0.0000 0.0000 0.0000 -2.4715 0.0000
# 6 0.0000 0.0000 0.0000 0.0000 0.0000 20.9686
#
#
#
# Elastic Compliance Matrix: (Units=1/GPa)
#
#
# Indices 1 2 3 4 5 6 
#
# 1 0.018241 -0.001043 -0.002222 0.000000 0.000000 0.000000
# 2 -0.001043 0.006751 -0.003421 0.000000 0.000000 0.000000
# 3 -0.002222 -0.003421 0.007800 0.000000 0.000000 0.000000
# 4 0.000000 0.000000 0.000000 0.020263 0.000000 0.000000
# 5 0.000000 0.000000 0.000000 0.000000 -0.404616 0.000000
# 6 0.000000 0.000000 0.000000 0.000000 0.000000 0.047690
#
#
# Mechanical properties :
#
#
# Convention : Reuss Voigt Hill
#
# Bulk Modulus (GPa) = 51.49381 80.33296 65.91338
# Shear Modulus (GPa) = -17.60396 33.03985 7.71794
#
# Velocity S-wave (km/s) = -2.90537 3.98030 1.92375
# Velocity P-wave (km/s) = 3.66560 7.72294 6.04485
#
# Compressibility (1/GPa) = 0.01941981
#
# Stress axis : x y z
#
# Youngs Moduli (GPa) = 54.82266 148.13547 128.20465
#
# Poissons Ratio (x) = 0.15452 0.28483
# Poissons Ratio (y) = 0.05718 0.43858
# Poissons Ratio (z) = 0.12180 0.50676
#
# Static dielectric constant tensor:
#      x y z
#    x 3.450410 0.000000 0.000000 
#    y 0.000000 3.722050 0.000000 
#    z 0.000000 0.000000 4.096870 
# 
# 
# High freq. dielectric constant tensor:
#      x y z
#    x 1.769260 0.000000 0.000000 
#    y 0.000000 1.823370 0.000000 
#    z 0.000000 0.000000 1.839500 
# 
# From -- ./inp_files/825.got.cif
#   From: 2010.03.12/outbox.cif.g09.slc.cpg/sg50_1_cif.got.tgz:825.got - 2010.04.16 13:23:21.
