data_PCOD8205785
_publ_section_title
;
Structure prediction by ZEFSAII (Michael W. Deem and Ramdas Pophale) SiO2 
 PCOD8205785
Probable space group: P B A N
;
_chemical_formula_sum "Si O2"
_cell_formula_units_Z 34
_cell_length_a 20.730198
_cell_length_b 9.088216
_cell_length_c 7.844086
_cell_angle_alpha 90.000000
_cell_angle_beta 90.000000
_cell_angle_gamma 90.000000
_cell_volume 1477.829859
_symmetry_space_group_name_H-M "P B A N"
_symmetry_group_IT_number 50
_space_group.IT_coordinate_system_code '2'
_symmetry_cell_setting 'orthorhombic'
loop_
_space_group_symop_operation_xyz
x,y,z
1/2-x,1/2-y,z
x,1/2-y,-z
1/2-x,y,-z
-x,-y,-z
1/2+x,1/2+y,-z
-x,1/2+y,z
1/2+x,-y,z
loop_
_atom_site_type_symbol
_atom_site_label
_atom_site_fract_x
_atom_site_fract_y
_atom_site_fract_z
Si Si1 0.927090 0.553049 0.676349
Si Si2 0.028808 0.757023 0.807586
Si Si3 0.750000 0.250000 0.500000
Si Si4 0.320810 0.259687 0.295372
Si Si5 0.863959 0.066414 0.661392
O O1 0.962231 0.430409 0.785802
O O2 0.863132 0.620685 0.767438
O O3 0.909739 0.477524 0.497204
O O4 0.977333 0.690494 0.671944
O O5 0.097752 0.677012 0.783615
O O6 0.002943 0.750000 0.000000
O O7 0.796465 0.143779 0.609777
O O8 0.250000 0.250000 0.215683
O O9 0.320058 0.250000 0.500000
O O10 0.349330 0.416527 0.236319
#
# Coordination Sequence:
#
# PCOD8205785 Si02
#       5
#     8   8   2   8   8
#     4  11  22  42  64  97 126 174 221 270 325 394
#     4  12  25  41  63  93 133 173 215 272 335 394
#     4  12  20  40  72  96 124 160 222 276 320 376
#     4   9  19  36  64  94 125 159 211 271 325 378
#     4  11  22  39  67  96 125 165 220 272 328 393
#
# _framework density 23.006706000000001
#
# number of rings (size 3 to 8) (size 9 to 14) (size 15 to 20)
#    0.000    1.176    2.353    5.647    0.000    3.765 
#    0.000    0.588    0.000    4.941    0.000    0.000 
#    0.000    0.000    0.000    0.000    0.000    0.000 
#
# Total GULP energy -421388.444861 kJ/mol
# GULP energy per Si atom -12393.777790 kJ/mol
# Density = 2.295434 g / cm^3
# Si number density = 23.006706 Si / 1000 Ang^3
#
#
#
# Elastic Constant Matrix: (Units=GPa)
#
#
# Indices 1 2 3 4 5 6 
#
# 1 132.6020 47.9175 19.6680 0.0000 0.0000 0.0000
# 2 47.9175 144.8538 15.1752 0.0000 0.0000 0.0000
# 3 19.6680 15.1752 46.0214 0.0000 0.0000 0.0000
# 4 0.0000 0.0000 0.0000 13.0251 0.0000 0.0000
# 5 0.0000 0.0000 0.0000 0.0000 8.1789 0.0000
# 6 0.0000 0.0000 0.0000 0.0000 0.0000 49.3482
#
#
#
# Elastic Compliance Matrix: (Units=1/GPa)
#
#
# Indices 1 2 3 4 5 6 
#
# 1 0.008935 -0.002647 -0.002946 0.000000 0.000000 0.000000
# 2 -0.002647 0.007935 -0.001485 0.000000 0.000000 0.000000
# 3 -0.002946 -0.001485 0.023478 0.000000 0.000000 0.000000
# 4 0.000000 0.000000 0.000000 0.076775 0.000000 0.000000
# 5 0.000000 0.000000 0.000000 0.000000 0.122265 0.000000
# 6 0.000000 0.000000 0.000000 0.000000 0.000000 0.020264
#
#
# Mechanical properties :
#
#
# Convention : Reuss Voigt Hill
#
# Bulk Modulus (GPa) = 38.18027 54.33319 46.25673
# Shear Modulus (GPa) = 17.69676 30.15822 23.92749
#
# Velocity S-wave (km/s) = 2.77645 3.62449 3.22844
# Velocity P-wave (km/s) = 5.18744 6.41743 5.83494
#
# Compressibility (1/GPa) = 0.02619154
#
# Stress axis : x y z
#
# Youngs Moduli (GPa) = 111.92176 126.02806 42.59378
#
# Poissons Ratio (x) = 0.33360 0.12546
# Poissons Ratio (y) = 0.29626 0.06326
# Poissons Ratio (z) = 0.32968 0.18717
#
# Static dielectric constant tensor:
#      x y z
#    x 4.495140 0.000000 0.000000 
#    y 0.000000 4.702790 0.000000 
#    z 0.000000 0.000000 3.430970 
# 
# 
# High freq. dielectric constant tensor:
#      x y z
#    x 1.926590 0.000000 0.000000 
#    y 0.000000 1.938910 0.000000 
#    z 0.000000 0.000000 1.842420 
# 
# From -- ./inp_files/9233.got.cif
#   From: 2010.03.12/outbox.cif.g09.slc.cpg/sg50_5_cif.got.tgz:9233.got - 2010.04.16 13:23:21.
