data_PCOD8205459
_publ_section_title
;
Structure prediction by ZEFSAII (Michael W. Deem and Ramdas Pophale) SiO2 
 PCOD8205459
Probable space group: P B A N
;
_chemical_formula_sum "Si O2"
_cell_formula_units_Z 48
_cell_length_a 23.943439
_cell_length_b 13.817552
_cell_length_c 6.476807
_cell_angle_alpha 90.000000
_cell_angle_beta 90.000000
_cell_angle_gamma 90.000000
_cell_volume 2142.784972
_symmetry_space_group_name_H-M "P B A N"
_symmetry_group_IT_number 50
_space_group.IT_coordinate_system_code '2'
_symmetry_cell_setting 'orthorhombic'
loop_
_space_group_symop_operation_xyz
x,y,z
1/2-x,1/2-y,z
x,1/2-y,-z
1/2-x,y,-z
-x,-y,-z
1/2+x,1/2+y,-z
-x,1/2+y,z
1/2+x,-y,z
loop_
_atom_site_type_symbol
_atom_site_label
_atom_site_fract_x
_atom_site_fract_y
_atom_site_fract_z
Si Si1 0.842458 0.851634 0.581216
Si Si2 0.129087 0.465932 0.955971
Si Si3 0.439617 0.418223 0.663141
Si Si4 0.936405 0.413226 0.371035
Si Si5 0.645640 0.250000 0.500000
Si Si6 0.250000 0.006880 0.500000
Si Si7 0.789687 0.121287 0.168709
O O1 0.817089 0.750000 0.500000
O O2 0.838136 0.880804 0.825495
O O3 0.906472 0.855525 0.506590
O O4 0.805970 0.932021 0.463274
O O5 0.085218 0.515821 0.804560
O O6 0.093108 0.408320 0.123268
O O7 0.167061 0.547611 0.062284
O O8 0.501874 0.375222 0.689125
O O9 0.441246 0.530515 0.589697
O O10 0.893346 0.326155 0.385704
O O11 0.682031 0.299482 0.318642
O O12 0.255480 0.940061 0.700520
O O13 0.750000 0.173508 0.000000
#
# Coordination Sequence:
#
# PCOD8205459 Si02
#       7
#     8   8   8   8   4   4   8
#     4  11  24  40  70 105 136 178 241 297 348 430
#     4  11  21  46  69  96 139 187 233 276 369 438
#     4  10  21  44  70  98 144 188 226 283 372 420
#     4  10  23  42  70 101 142 185 228 297 350 423
#     4  12  26  49  68 112 142 175 260 300 342 444
#     4  12  23  49  68  96 144 192 230 301 373 420
#     4  12  26  48  72  97 141 198 234 300 373 435
#
# _framework density 22.400753999999999
#
# number of rings (size 3 to 8) (size 9 to 14) (size 15 to 20)
#    0.000    1.000    5.000    1.750    1.167    1.667 
#    3.000    1.667    0.000    0.000    0.000    0.000 
#    0.000    0.000    0.000    0.000    0.000    0.000 
#
# Total GULP energy -594900.061580 kJ/mol
# GULP energy per Si atom -12393.751283 kJ/mol
# Density = 2.234977 g / cm^3
# Si number density = 22.400754 Si / 1000 Ang^3
#
#
#
# Elastic Constant Matrix: (Units=GPa)
#
#
# Indices 1 2 3 4 5 6 
#
# 1 119.2151 44.7183 50.7519 0.0000 0.0000 0.0000
# 2 44.7183 109.8427 52.7878 0.0000 0.0000 0.0000
# 3 50.7519 52.7878 133.2292 0.0000 0.0000 0.0000
# 4 0.0000 0.0000 0.0000 35.9595 0.0000 0.0000
# 5 0.0000 0.0000 0.0000 0.0000 41.0586 0.0000
# 6 0.0000 0.0000 0.0000 0.0000 0.0000 12.1062
#
#
#
# Elastic Compliance Matrix: (Units=1/GPa)
#
#
# Indices 1 2 3 4 5 6 
#
# 1 0.010744 -0.002973 -0.002915 0.000000 0.000000 0.000000
# 2 -0.002973 0.012068 -0.003649 0.000000 0.000000 0.000000
# 3 -0.002915 -0.003649 0.010062 0.000000 0.000000 0.000000
# 4 0.000000 0.000000 0.000000 0.027809 0.000000 0.000000
# 5 0.000000 0.000000 0.000000 0.000000 0.024355 0.000000
# 6 0.000000 0.000000 0.000000 0.000000 0.000000 0.082602
#
#
# Mechanical properties :
#
#
# Convention : Reuss Voigt Hill
#
# Bulk Modulus (GPa) = 72.46276 73.20034 72.83155
# Shear Modulus (GPa) = 26.13487 32.09345 29.11416
#
# Velocity S-wave (km/s) = 3.41940 3.78920 3.60904
# Velocity P-wave (km/s) = 6.92880 7.20365 7.06756
#
# Compressibility (1/GPa) = 0.01380019
#
# Stress axis : x y z
#
# Youngs Moduli (GPa) = 93.07143 82.86373 99.38394
#
# Poissons Ratio (x) = 0.24639 0.28969
# Poissons Ratio (y) = 0.27674 0.36264
# Poissons Ratio (z) = 0.27129 0.30236
#
# Static dielectric constant tensor:
#      x y z
#    x 4.136980 0.000000 0.000000 
#    y 0.000000 3.941750 0.000000 
#    z 0.000000 0.000000 4.270460 
# 
# 
# High freq. dielectric constant tensor:
#      x y z
#    x 1.891520 0.000000 0.000000 
#    y 0.000000 1.868170 0.000000 
#    z 0.000000 0.000000 1.889430 
# 
# From -- ./inp_files/6629.got.cif
#   From: 2010.03.12/outbox.cif.g09.slc.cpg/sg50_4_cif.got.tgz:6629.got - 2010.04.16 13:23:21.
