data_PCOD8205194
_publ_section_title
;
Structure prediction by ZEFSAII (Michael W. Deem and Ramdas Pophale) SiO2 
 PCOD8205194
Probable space group: P B A N
;
_chemical_formula_sum "Si O2"
_cell_formula_units_Z 52
_cell_length_a 8.676990
_cell_length_b 25.831135
_cell_length_c 11.125773
_cell_angle_alpha 90.000000
_cell_angle_beta 90.000000
_cell_angle_gamma 90.000000
_cell_volume 2493.691821
_symmetry_space_group_name_H-M "P B A N"
_symmetry_group_IT_number 50
_space_group.IT_coordinate_system_code '2'
_symmetry_cell_setting 'orthorhombic'
loop_
_space_group_symop_operation_xyz
x,y,z
1/2-x,1/2-y,z
x,1/2-y,-z
1/2-x,y,-z
-x,-y,-z
1/2+x,1/2+y,-z
-x,1/2+y,z
1/2+x,-y,z
loop_
_atom_site_type_symbol
_atom_site_label
_atom_site_fract_x
_atom_site_fract_y
_atom_site_fract_z
Si Si1 0.776116 0.864974 0.143574
Si Si2 0.816894 0.523997 0.132331
Si Si3 0.364852 0.932203 0.190947
Si Si4 0.750000 0.351747 0.000000
Si Si5 0.573823 0.190324 0.200029
Si Si6 0.603537 0.783432 0.298254
Si Si7 0.164559 0.848272 0.623660
O O1 0.752251 0.923462 0.187516
O O2 0.654220 0.827196 0.205592
O O3 0.942378 0.853376 0.199527
O O4 0.750000 0.859633 0.000000
O O5 0.777260 0.472097 0.207389
O O6 0.999715 0.531051 0.141339
O O7 0.750000 0.514795 0.000000
O O8 0.340787 0.887896 0.092576
O O9 0.390019 0.902885 0.317944
O O10 0.637045 0.312177 0.934352
O O11 0.502505 0.246172 0.219830
O O12 0.707968 0.179620 0.294905
O O13 0.750000 0.750000 0.353436
O O14 0.488352 0.811189 0.395268
O O15 0.250000 0.859934 0.500000
#
# Coordination Sequence:
#
# PCOD8205194 Si02
#       7
#     8   8   8   4   8   8   8
#     4  10  21  39  61  96 141 172 207 265 332 401
#     4  11  21  35  66  95 134 170 213 269 332 401
#     4  11  23  38  64  96 128 177 213 270 335 398
#     4  10  20  38  57  96 136 160 217 256 340 400
#     4  10  23  37  65  94 127 174 213 266 329 401
#     4  10  22  44  65  96 127 173 223 265 331 396
#     4  11  25  48  66  90 131 171 224 286 326 383
#
# _framework density 20.852616000000001
#
# number of rings (size 3 to 8) (size 9 to 14) (size 15 to 20)
#    0.000    1.538    2.308    2.769    6.462    4.000 
#    2.769    6.154    0.000    0.000    0.000    0.000 
#    0.000    0.000    0.000    0.000    0.000    0.000 
#
# Total GULP energy -644267.113288 kJ/mol
# GULP energy per Si atom -12389.752179 kJ/mol
# Density = 2.080515 g / cm^3
# Si number density = 20.852616 Si / 1000 Ang^3
#
#
#
# Elastic Constant Matrix: (Units=GPa)
#
#
# Indices 1 2 3 4 5 6 
#
# 1 118.9483 40.4876 37.5124 0.0000 0.0000 0.0000
# 2 40.4876 99.8430 33.8598 0.0000 0.0000 0.0000
# 3 37.5124 33.8598 80.2057 0.0000 0.0000 0.0000
# 4 0.0000 0.0000 0.0000 -19.4376 0.0000 0.0000
# 5 0.0000 0.0000 0.0000 0.0000 27.3330 0.0000
# 6 0.0000 0.0000 0.0000 0.0000 0.0000 -14.8956
#
#
#
# Elastic Compliance Matrix: (Units=1/GPa)
#
#
# Indices 1 2 3 4 5 6 
#
# 1 0.010604 -0.003056 -0.003670 0.000000 0.000000 0.000000
# 2 -0.003056 0.012570 -0.003877 0.000000 0.000000 0.000000
# 3 -0.003670 -0.003877 0.015821 0.000000 0.000000 0.000000
# 4 0.000000 0.000000 0.000000 -0.051447 0.000000 0.000000
# 5 0.000000 0.000000 0.000000 0.000000 0.036586 0.000000
# 6 0.000000 0.000000 0.000000 0.000000 0.000000 -0.067134
#
#
# Mechanical properties :
#
#
# Convention : Reuss Voigt Hill
#
# Bulk Modulus (GPa) = 56.21185 58.07963 57.14574
# Shear Modulus (GPa) = -315.17998 11.07577 -152.05210
#
# Velocity S-wave (km/s) = -12.30750 2.30716 -8.54844
# Velocity P-wave (km/s) = 13.22690 5.91694 8.36483
#
# Compressibility (1/GPa) = 0.01778984
#
# Stress axis : x y z
#
# Youngs Moduli (GPa) = 94.30024 79.55592 63.20663
#
# Poissons Ratio (x) = 0.24310 0.23195
# Poissons Ratio (y) = 0.28816 0.24507
# Poissons Ratio (z) = 0.34605 0.30846
#
# Static dielectric constant tensor:
#      x y z
#    x 4.344090 0.000000 0.000000 
#    y 0.000000 4.021490 0.000000 
#    z 0.000000 0.000000 3.534060 
# 
# 
# High freq. dielectric constant tensor:
#      x y z
#    x 1.839810 0.000000 0.000000 
#    y 0.000000 1.832160 0.000000 
#    z 0.000000 0.000000 1.766240 
# 
# From -- ./inp_files/19346.got.cif
#   From: 2010.03.12/outbox.cif.g09.slc.cpg/sg50_10_cif.got.tgz:19346.got - 2010.04.16 13:23:21.
