data_PCOD8205469
_publ_section_title
;
Structure prediction by ZEFSAII (Michael W. Deem and Ramdas Pophale) SiO2 
 PCOD8205469
Probable space group: P B A N
;
_chemical_formula_sum "Si O2"
_cell_formula_units_Z 48
_cell_length_a 13.827295
_cell_length_b 14.225743
_cell_length_c 12.140622
_cell_angle_alpha 90.000000
_cell_angle_beta 90.000000
_cell_angle_gamma 90.000000
_cell_volume 2388.103387
_symmetry_space_group_name_H-M "P B A N"
_symmetry_group_IT_number 50
_space_group.IT_coordinate_system_code '2'
_symmetry_cell_setting 'orthorhombic'
loop_
_space_group_symop_operation_xyz
x,y,z
1/2-x,1/2-y,z
x,1/2-y,-z
1/2-x,y,-z
-x,-y,-z
1/2+x,1/2+y,-z
-x,1/2+y,z
1/2+x,-y,z
loop_
_atom_site_type_symbol
_atom_site_label
_atom_site_fract_x
_atom_site_fract_y
_atom_site_fract_z
Si Si1 0.007139 0.147765 0.511312
Si Si2 0.541640 0.505425 0.664821
Si Si3 0.707553 0.648301 0.392071
Si Si4 0.292655 0.050899 0.815901
Si Si5 0.554096 0.640093 0.970308
Si Si6 0.592280 0.488681 0.145136
O O1 0.956198 0.250000 0.500000
O O2 0.043637 0.108309 0.393100
O O3 0.093378 0.159118 0.597734
O O4 0.937480 0.071823 0.569718
O O5 0.624648 0.490743 0.755753
O O6 0.438160 0.498192 0.726729
O O7 0.750000 0.750000 0.397393
O O8 0.750000 0.591329 0.500000
O O9 0.733539 0.608264 0.274021
O O10 0.345581 0.118527 0.904470
O O11 0.209760 0.982826 0.868643
O O12 0.459332 0.606139 0.901412
O O13 0.546722 0.750000 0.000000
O O14 0.554368 0.581035 0.082264
#
# Coordination Sequence:
#
# PCOD8205469 Si02
#       6
#     8   8   8   8   8   8
#     4  11  20  36  55  87 128 160 202 252 306 372
#     4  10  22  35  59  88 117 171 200 245 315 371
#     4  11  19  31  55  92 123 151 193 256 310 366
#     4  11  21  36  61  90 121 161 207 252 319 372
#     4  10  24  42  63  93 121 160 211 266 324 379
#     4  10  22  40  61  88 126 157 206 267 317 378
#
# _framework density 20.099633000000001
#
# number of rings (size 3 to 8) (size 9 to 14) (size 15 to 20)
#    0.000    1.500    5.000    0.500    2.333    3.333 
#    0.000    0.000    0.000   28.000    0.000    0.000 
#    0.000    0.000    0.000    0.000    0.000    0.000 
#
# Total GULP energy -594715.176821 kJ/mol
# GULP energy per Si atom -12389.899517 kJ/mol
# Density = 2.005389 g / cm^3
# Si number density = 20.099633 Si / 1000 Ang^3
#
#
#
# Elastic Constant Matrix: (Units=GPa)
#
#
# Indices 1 2 3 4 5 6 
#
# 1 103.4758 44.7027 25.0034 0.0000 0.0000 0.0000
# 2 44.7027 122.5670 43.3551 0.0000 0.0000 0.0000
# 3 25.0034 43.3551 86.3104 0.0000 0.0000 0.0000
# 4 0.0000 0.0000 0.0000 23.9166 0.0000 0.0000
# 5 0.0000 0.0000 0.0000 0.0000 34.9697 0.0000
# 6 0.0000 0.0000 0.0000 0.0000 0.0000 22.5940
#
#
#
# Elastic Compliance Matrix: (Units=1/GPa)
#
#
# Indices 1 2 3 4 5 6 
#
# 1 0.011630 -0.003709 -0.001506 0.000000 0.000000 0.000000
# 2 -0.003709 0.011105 -0.004504 0.000000 0.000000 0.000000
# 3 -0.001506 -0.004504 0.014285 0.000000 0.000000 0.000000
# 4 0.000000 0.000000 0.000000 0.041812 0.000000 0.000000
# 5 0.000000 0.000000 0.000000 0.000000 0.028596 0.000000
# 6 0.000000 0.000000 0.000000 0.000000 0.000000 0.044260
#
#
# Mechanical properties :
#
#
# Convention : Reuss Voigt Hill
#
# Bulk Modulus (GPa) = 56.87589 59.83064 58.35326
# Shear Modulus (GPa) = 28.25091 29.58219 28.91655
#
# Velocity S-wave (km/s) = 3.75313 3.84054 3.79708
# Velocity P-wave (km/s) = 6.86583 7.03548 6.95117
#
# Compressibility (1/GPa) = 0.01758214
#
# Stress axis : x y z
#
# Youngs Moduli (GPa) = 85.98165 90.05280 70.00556
#
# Poissons Ratio (x) = 0.33401 0.10543
# Poissons Ratio (y) = 0.31891 0.31527
# Poissons Ratio (z) = 0.12950 0.40555
#
# Static dielectric constant tensor:
#      x y z
#    x 3.653960 0.000000 0.000000 
#    y 0.000000 3.466490 0.000000 
#    z 0.000000 0.000000 -6.578030 
# 
# 
# High freq. dielectric constant tensor:
#      x y z
#    x 1.773890 0.000000 0.000000 
#    y 0.000000 1.751580 0.000000 
#    z 0.000000 0.000000 1.806360 
# 
# From -- ./inp_files/21054.got.cif
#   From: 2010.03.12/outbox.cif.g09.slc.cpg/sg50_11_cif.got.tgz:21054.got - 2010.04.16 13:23:21.
