data_PCOD8205438
_publ_section_title
;
Structure prediction by ZEFSAII (Michael W. Deem and Ramdas Pophale) SiO2 
 PCOD8205438
Probable space group: P B A N
;
_chemical_formula_sum "Si O2"
_cell_formula_units_Z 26
_cell_length_a 30.703003
_cell_length_b 4.997923
_cell_length_c 8.330675
_cell_angle_alpha 90.000000
_cell_angle_beta 90.000000
_cell_angle_gamma 90.000000
_cell_volume 1278.352449
_symmetry_space_group_name_H-M "P B A N"
_symmetry_group_IT_number 50
_space_group.IT_coordinate_system_code '2'
_symmetry_cell_setting 'orthorhombic'
loop_
_space_group_symop_operation_xyz
x,y,z
1/2-x,1/2-y,z
x,1/2-y,-z
1/2-x,y,-z
-x,-y,-z
1/2+x,1/2+y,-z
-x,1/2+y,z
1/2+x,-y,z
loop_
_atom_site_type_symbol
_atom_site_label
_atom_site_fract_x
_atom_site_fract_y
_atom_site_fract_z
Si Si1 0.527580 0.763648 0.185512
Si Si2 0.393157 0.011368 0.607191
Si Si3 0.666175 0.013448 0.099477
Si Si4 0.250000 0.750000 0.000000
O O1 0.513225 0.460062 0.223329
O O2 0.565923 0.872017 0.295751
O O3 0.542450 0.750000 0.000000
O O4 0.375540 0.250000 0.500000
O O5 0.352813 0.961607 0.723745
O O6 0.404705 0.750000 0.500000
O O7 0.718647 0.062799 0.110075
O O8 0.654756 0.750000 0.000000
O O9 0.643069 0.250000 0.000000
#
# Coordination Sequence:
#
# PCOD8205438 Si02
#       4
#     8   8   8   2
#     4  10  22  40  62  88 121 168 221 257 291 356
#     4  12  25  39  61  96 133 165 199 254 326 369
#     4  10  21  41  69  89 119 159 216 249 301 373
#     4   8  22  40  76  88 110 160 220 252 302 364
#
# _framework density 20.338678999999999
#
# number of rings (size 3 to 8) (size 9 to 14) (size 15 to 20)
#    0.923    0.615    0.000    5.077    0.000    7.385 
#    0.000    0.769    0.000    0.000    0.000    0.000 
#    0.000    0.000    0.000    0.000    0.000    0.000 
#
# Total GULP energy -322094.728199 kJ/mol
# GULP energy per Si atom -12388.258777 kJ/mol
# Density = 2.029239 g / cm^3
# Si number density = 20.338679 Si / 1000 Ang^3
#
#
#
# Elastic Constant Matrix: (Units=GPa)
#
#
# Indices 1 2 3 4 5 6 
#
# 1 94.9548 22.6768 68.1765 0.0000 0.0000 0.0000
# 2 22.6768 148.8905 64.4414 0.0000 0.0000 0.0000
# 3 68.1765 64.4414 139.2441 0.0000 0.0000 0.0000
# 4 0.0000 0.0000 0.0000 45.3588 0.0000 0.0000
# 5 0.0000 0.0000 0.0000 0.0000 -2.1887 0.0000
# 6 0.0000 0.0000 0.0000 0.0000 0.0000 363.6782
#
#
#
# Elastic Compliance Matrix: (Units=1/GPa)
#
#
# Indices 1 2 3 4 5 6 
#
# 1 0.016417 0.001224 -0.008604 0.000000 0.000000 0.000000
# 2 0.001224 0.008490 -0.004528 0.000000 0.000000 0.000000
# 3 -0.008604 -0.004528 0.013490 0.000000 0.000000 0.000000
# 4 0.000000 0.000000 0.000000 0.022046 0.000000 0.000000
# 5 0.000000 0.000000 0.000000 0.000000 -0.456884 0.000000
# 6 0.000000 0.000000 0.000000 0.000000 0.000000 0.002750
#
#
# Mechanical properties :
#
#
# Convention : Reuss Voigt Hill
#
# Bulk Modulus (GPa) = 68.59113 77.07541 72.83327
# Shear Modulus (GPa) = -13.69811 96.55596 41.42892
#
# Velocity S-wave (km/s) = -2.59800 6.89762 4.51816
# Velocity P-wave (km/s) = 4.97978 10.07047 7.94395
#
# Compressibility (1/GPa) = 0.01457915
#
# Stress axis : x y z
#
# Youngs Moduli (GPa) = 60.91278 117.78817 74.12850
#
# Poissons Ratio (x) = -0.14413 0.63783
# Poissons Ratio (y) = -0.07454 0.33567
# Poissons Ratio (z) = 0.52411 0.53336
#
# Static dielectric constant tensor:
#      x y z
#    x 3.412210 0.000000 0.000000 
#    y 0.000000 4.051070 0.000000 
#    z 0.000000 0.000000 3.892300 
# 
# 
# High freq. dielectric constant tensor:
#      x y z
#    x 1.780610 0.000000 0.000000 
#    y 0.000000 1.819000 0.000000 
#    z 0.000000 0.000000 1.787880 
# 
# From -- ./inp_files/16629.got.cif
#   From: 2010.03.12/outbox.cif.g09.slc.cpg/sg50_9_cif.got.tgz:16629.got - 2010.04.16 13:23:21.
