data_PCOD8205592
_publ_section_title
;
Structure prediction by ZEFSAII (Michael W. Deem and Ramdas Pophale) SiO2 
 PCOD8205592
Probable space group: P B A N
;
_chemical_formula_sum "Si O2"
_cell_formula_units_Z 30
_cell_length_a 16.378016
_cell_length_b 16.490818
_cell_length_c 5.403057
_cell_angle_alpha 90.000000
_cell_angle_beta 90.000000
_cell_angle_gamma 90.000000
_cell_volume 1459.294813
_symmetry_space_group_name_H-M "P B A N"
_symmetry_group_IT_number 50
_space_group.IT_coordinate_system_code '2'
_symmetry_cell_setting 'orthorhombic'
loop_
_space_group_symop_operation_xyz
x,y,z
1/2-x,1/2-y,z
x,1/2-y,-z
1/2-x,y,-z
-x,-y,-z
1/2+x,1/2+y,-z
-x,1/2+y,z
1/2+x,-y,z
loop_
_atom_site_type_symbol
_atom_site_label
_atom_site_fract_x
_atom_site_fract_y
_atom_site_fract_z
Si Si1 0.461850 0.250000 0.500000
Si Si2 0.667853 0.870215 0.345255
Si Si3 0.382168 0.787508 0.747781
Si Si4 0.750000 0.750000 0.000000
Si Si5 0.697379 0.045578 0.249909
O O1 0.408703 0.167381 0.509333
O O2 0.521351 0.235570 0.263349
O O3 0.750000 0.876193 0.500000
O O4 0.685213 0.805784 0.135093
O O5 0.648063 0.960183 0.245334
O O6 0.338489 0.750000 0.500000
O O7 0.369891 0.883991 0.751477
O O8 0.344418 0.750000 0.000000
O O9 0.750000 0.053339 0.500000
O O10 0.750000 0.051327 0.000000
#
# Coordination Sequence:
#
# PCOD8205592 Si02
#       5
#     4   8   8   2   8
#     4  10  23  40  61  94 134 172 208 256 321 396
#     4  11  22  38  64  95 124 166 213 268 316 376
#     4  10  24  43  62  95 124 174 211 254 329 370
#     4  12  18  36  64  94 118 164 216 248 334 360
#     4  11  24  42  66  96 125 162 221 270 313 373
#
# _framework density 20.557876
#
# number of rings (size 3 to 8) (size 9 to 14) (size 15 to 20)
#    0.800    0.533    4.000    1.600    1.867    4.267 
#    0.000    1.333    0.000    0.000    0.000    0.000 
#    0.000    0.000    0.000    0.000    0.000    0.000 
#
# Total GULP energy -371659.153311 kJ/mol
# GULP energy per Si atom -12388.638444 kJ/mol
# Density = 2.051108 g / cm^3
# Si number density = 20.557876 Si / 1000 Ang^3
#
#
#
# Elastic Constant Matrix: (Units=GPa)
#
#
# Indices 1 2 3 4 5 6 
#
# 1 60.4392 46.8010 15.1749 0.0000 0.0000 0.0000
# 2 46.8010 206.8065 48.5877 0.0000 0.0000 0.0000
# 3 15.1749 48.5877 140.3106 0.0000 0.0000 0.0000
# 4 0.0000 0.0000 0.0000 33.6193 0.0000 0.0000
# 5 0.0000 0.0000 0.0000 0.0000 4.6754 0.0000
# 6 0.0000 0.0000 0.0000 0.0000 0.0000 103.2414
#
#
#
# Elastic Compliance Matrix: (Units=1/GPa)
#
#
# Indices 1 2 3 4 5 6 
#
# 1 0.020116 -0.004399 -0.000652 0.000000 0.000000 0.000000
# 2 -0.004399 0.006226 -0.001680 0.000000 0.000000 0.000000
# 3 -0.000652 -0.001680 0.007779 0.000000 0.000000 0.000000
# 4 0.000000 0.000000 0.000000 0.029745 0.000000 0.000000
# 5 0.000000 0.000000 0.000000 0.000000 0.213886 0.000000
# 6 0.000000 0.000000 0.000000 0.000000 0.000000 0.009686
#
#
# Mechanical properties :
#
#
# Convention : Reuss Voigt Hill
#
# Bulk Modulus (GPa) = 48.40728 69.85373 59.13051
# Shear Modulus (GPa) = 16.24503 48.10673 32.17588
#
# Velocity S-wave (km/s) = 2.81412 4.84267 3.96047
# Velocity P-wave (km/s) = 5.84439 8.08217 7.05260
#
# Compressibility (1/GPa) = 0.02065805
#
# Stress axis : x y z
#
# Youngs Moduli (GPa) = 49.71241 160.62506 128.54484
#
# Poissons Ratio (x) = 0.70659 0.08384
# Poissons Ratio (y) = 0.21869 0.21597
# Poissons Ratio (z) = 0.03242 0.26987
#
# Static dielectric constant tensor:
#      x y z
#    x 3.390940 0.000000 0.000000 
#    y 0.000000 4.338220 0.000000 
#    z 0.000000 0.000000 3.878000 
# 
# 
# High freq. dielectric constant tensor:
#      x y z
#    x 1.777120 0.000000 0.000000 
#    y 0.000000 1.821640 0.000000 
#    z 0.000000 0.000000 1.810180 
# 
# From -- ./inp_files/4011.got.cif
#   From: 2010.03.12/outbox.cif.g09.slc.cpg/sg50_3_cif.got.tgz:4011.got - 2010.04.16 13:23:21.
