data_PCOD8205675
_publ_section_title
;
Structure prediction by ZEFSAII (Michael W. Deem and Ramdas Pophale) SiO2 
 PCOD8205675
Probable space group: P B A N
;
_chemical_formula_sum "Si O2"
_cell_formula_units_Z 36
_cell_length_a 13.509686
_cell_length_b 12.888184
_cell_length_c 9.252954
_cell_angle_alpha 90.000000
_cell_angle_beta 90.000000
_cell_angle_gamma 90.000000
_cell_volume 1611.081037
_symmetry_space_group_name_H-M "P B A N"
_symmetry_group_IT_number 50
_space_group.IT_coordinate_system_code '2'
_symmetry_cell_setting 'orthorhombic'
loop_
_space_group_symop_operation_xyz
x,y,z
1/2-x,1/2-y,z
x,1/2-y,-z
1/2-x,y,-z
-x,-y,-z
1/2+x,1/2+y,-z
-x,1/2+y,z
1/2+x,-y,z
loop_
_atom_site_type_symbol
_atom_site_label
_atom_site_fract_x
_atom_site_fract_y
_atom_site_fract_z
Si Si1 0.750000 0.750000 0.000000
Si Si2 0.861508 0.952173 0.549593
Si Si3 0.250000 0.750000 0.000000
Si Si4 0.029984 0.650665 0.601744
Si Si5 0.588105 0.611885 0.860215
Si Si6 0.572763 0.127477 0.085851
O O1 0.684085 0.675597 0.902826
O O2 0.750000 0.927518 0.500000
O O3 0.906115 0.887288 0.686163
O O4 0.929422 0.913408 0.420031
O O5 0.875234 0.075489 0.574758
O O6 0.319256 0.822482 0.903974
O O7 0.042220 0.750000 0.500000
O O8 0.018346 0.674504 0.772266
O O9 0.593035 0.494387 0.914746
O O10 0.488719 0.658328 0.939069
#
# Coordination Sequence:
#
# PCOD8205675 Si02
#       6
#     2   8   2   8   8   8
#     4  12  24  36  70 104 120 184 242 280 324 424
#     4  10  24  45  67  97 138 181 223 278 349 409
#     4  12  24  40  74  96 120 176 222 272 336 420
#     4  10  24  43  68  99 135 178 222 288 336 410
#     4  10  24  43  66  97 140 178 223 289 341 404
#     4  10  24  46  65  98 139 176 223 288 347 407
#
# _framework density 22.345244000000001
#
# number of rings (size 3 to 8) (size 9 to 14) (size 15 to 20)
#    0.000    1.778    0.000    1.333    9.333    4.444 
#   12.000    0.000    0.000    0.000    0.000    0.000 
#    0.000    0.000    0.000    0.000    0.000    0.000 
#
# Total GULP energy -446095.848947 kJ/mol
# GULP energy per Si atom -12391.551360 kJ/mol
# Density = 2.229439 g / cm^3
# Si number density = 22.345244 Si / 1000 Ang^3
#
#
#
# Elastic Constant Matrix: (Units=GPa)
#
#
# Indices 1 2 3 4 5 6 
#
# 1 142.5929 21.4044 67.4896 0.0000 0.0000 0.0000
# 2 21.4044 65.7409 51.8241 0.0000 0.0000 0.0000
# 3 67.4896 51.8241 146.0204 0.0000 0.0000 0.0000
# 4 0.0000 0.0000 0.0000 38.3289 0.0000 0.0000
# 5 0.0000 0.0000 0.0000 0.0000 29.5996 0.0000
# 6 0.0000 0.0000 0.0000 0.0000 0.0000 247.9565
#
#
#
# Elastic Compliance Matrix: (Units=1/GPa)
#
#
# Indices 1 2 3 4 5 6 
#
# 1 0.008988 0.000484 -0.004326 0.000000 0.000000 0.000000
# 2 0.000484 0.021146 -0.007729 0.000000 0.000000 0.000000
# 3 -0.004326 -0.007729 0.011591 0.000000 0.000000 0.000000
# 4 0.000000 0.000000 0.000000 0.026090 0.000000 0.000000
# 5 0.000000 0.000000 0.000000 0.000000 0.033784 0.000000
# 6 0.000000 0.000000 0.000000 0.000000 0.000000 0.004033
#
#
# Mechanical properties :
#
#
# Convention : Reuss Voigt Hill
#
# Bulk Modulus (GPa) = 53.81147 70.64339 62.22743
# Shear Modulus (GPa) = 37.04596 77.41940 57.23268
#
# Velocity S-wave (km/s) = 4.07614 5.89255 5.06641
# Velocity P-wave (km/s) = 6.80348 8.83059 7.88247
#
# Compressibility (1/GPa) = 0.01858340
#
# Stress axis : x y z
#
# Youngs Moduli (GPa) = 111.26258 47.28976 86.27653
#
# Poissons Ratio (x) = -0.02288 0.37321
# Poissons Ratio (y) = -0.05382 0.66680
# Poissons Ratio (z) = 0.48129 0.36548
#
# Static dielectric constant tensor:
#      x y z
#    x 3.896080 0.000000 0.000000 
#    y 0.000000 4.258840 0.000000 
#    z 0.000000 0.000000 4.147850 
# 
# 
# High freq. dielectric constant tensor:
#      x y z
#    x 1.869810 0.000000 0.000000 
#    y 0.000000 1.906040 0.000000 
#    z 0.000000 0.000000 1.884180 
# 
# From -- ./inp_files/12482.got.cif
#   From: 2010.03.12/outbox.cif.g09.slc.cpg/sg50_7_cif.got.tgz:12482.got - 2010.04.16 13:23:21.
