data_PCOD8205058
_publ_section_title
;
Structure prediction by ZEFSAII (Michael W. Deem and Ramdas Pophale) SiO2 
 PCOD8205058
Probable space group: P B A N
;
_chemical_formula_sum "Si O2"
_cell_formula_units_Z 56
_cell_length_a 9.384652
_cell_length_b 22.696801
_cell_length_c 13.999685
_cell_angle_alpha 90.000000
_cell_angle_beta 90.000000
_cell_angle_gamma 90.000000
_cell_volume 2981.955009
_symmetry_space_group_name_H-M "P B A N"
_symmetry_group_IT_number 50
_space_group.IT_coordinate_system_code '2'
_symmetry_cell_setting 'orthorhombic'
loop_
_space_group_symop_operation_xyz
x,y,z
1/2-x,1/2-y,z
x,1/2-y,-z
1/2-x,y,-z
-x,-y,-z
1/2+x,1/2+y,-z
-x,1/2+y,z
1/2+x,-y,z
loop_
_atom_site_type_symbol
_atom_site_label
_atom_site_fract_x
_atom_site_fract_y
_atom_site_fract_z
Si Si1 0.021401 0.127998 0.128769
Si Si2 0.664312 0.939938 0.585890
Si Si3 0.326437 0.563901 0.411858
Si Si4 0.591827 0.252033 0.887398
Si Si5 0.534180 0.379560 0.906883
Si Si6 0.789102 0.569180 0.795257
Si Si7 0.265605 0.931883 0.208794
O O1 0.998266 0.196989 0.152226
O O2 0.930804 0.086219 0.200044
O O3 0.183750 0.112638 0.149567
O O4 0.987736 0.114325 0.019115
O O5 0.750000 0.906156 0.500000
O O6 0.494449 0.944789 0.566606
O O7 0.691338 0.907830 0.686652
O O8 0.736320 0.003688 0.593129
O O9 0.250000 0.599682 0.500000
O O10 0.300808 0.593497 0.308317
O O11 0.750000 0.250000 0.840806
O O12 0.510129 0.313286 0.865914
O O13 0.610311 0.250000 0.000000
O O14 0.436825 0.425785 0.850958
O O15 0.694534 0.399014 0.881421
O O16 0.740629 0.501573 0.799143
#
# Coordination Sequence:
#
# PCOD8205058 Si02
#       7
#     8   8   8   8   8   8   8
#     4  11  23  35  58  80 109 154 190 228 273 322
#     4  10  20  34  54  77 110 146 184 229 273 326
#     4  10  20  33  54  79 108 146 185 230 272 325
#     4   9  18  36  58  77  99 140 200 244 267 304
#     4  11  21  39  55  79 114 148 189 234 270 319
#     4  11  24  35  51  85 120 146 181 222 280 344
#     4  11  22  35  55  82 117 150 184 219 275 343
#
# _framework density 18.779627000000001
#
# number of rings (size 3 to 8) (size 9 to 14) (size 15 to 20)
#    0.000    1.571    2.857    3.429    8.000    4.000 
#    0.000    2.143    0.000    0.000    0.000    6.000 
#    0.000    0.000    0.000    0.000    0.000    0.000 
#
# Total GULP energy -694012.434802 kJ/mol
# GULP energy per Si atom -12393.079193 kJ/mol
# Density = 1.873688 g / cm^3
# Si number density = 18.779627 Si / 1000 Ang^3
#
#
#
# Elastic Constant Matrix: (Units=GPa)
#
#
# Indices 1 2 3 4 5 6 
#
# 1 87.0120 15.5971 36.3142 0.0000 0.0000 0.0000
# 2 15.5971 72.6851 24.4450 0.0000 0.0000 0.0000
# 3 36.3142 24.4450 105.6825 0.0000 0.0000 0.0000
# 4 0.0000 0.0000 0.0000 4.5386 0.0000 0.0000
# 5 0.0000 0.0000 0.0000 0.0000 34.6759 0.0000
# 6 0.0000 0.0000 0.0000 0.0000 0.0000 20.7022
#
#
#
# Elastic Compliance Matrix: (Units=1/GPa)
#
#
# Indices 1 2 3 4 5 6 
#
# 1 0.013557 -0.001456 -0.004322 0.000000 0.000000 0.000000
# 2 -0.001456 0.015075 -0.002987 0.000000 0.000000 0.000000
# 3 -0.004322 -0.002987 0.011638 0.000000 0.000000 0.000000
# 4 0.000000 0.000000 0.000000 0.220332 0.000000 0.000000
# 5 0.000000 0.000000 0.000000 0.000000 0.028838 0.000000
# 6 0.000000 0.000000 0.000000 0.000000 0.000000 0.048304
#
#
# Mechanical properties :
#
#
# Convention : Reuss Voigt Hill
#
# Bulk Modulus (GPa) = 43.97167 46.45468 45.21317
# Shear Modulus (GPa) = 13.77968 24.58492 19.18230
#
# Velocity S-wave (km/s) = 2.71173 3.62211 3.19947
# Velocity P-wave (km/s) = 5.76802 6.50257 6.14628
#
# Compressibility (1/GPa) = 0.02274192
#
# Stress axis : x y z
#
# Youngs Moduli (GPa) = 73.76110 66.33586 85.92418
#
# Poissons Ratio (x) = 0.09657 0.37135
# Poissons Ratio (y) = 0.10737 0.25663
# Poissons Ratio (z) = 0.31878 0.19812
#
# Static dielectric constant tensor:
#      x y z
#    x 3.458600 0.000000 0.000000 
#    y 0.000000 3.227190 0.000000 
#    z 0.000000 0.000000 4.199040 
# 
# 
# High freq. dielectric constant tensor:
#      x y z
#    x 1.742420 0.000000 0.000000 
#    y 0.000000 1.686290 0.000000 
#    z 0.000000 0.000000 1.730480 
# 
# From -- ./inp_files/25234.got.cif
#   From: 2010.03.12/outbox.cif.g09.slc.cpg/sg50_13_cif.got.tgz:25234.got - 2010.04.16 13:23:21.
