data_PCOD8205461
_publ_section_title
;
Structure prediction by ZEFSAII (Michael W. Deem and Ramdas Pophale) SiO2 
 PCOD8205461
Probable space group: P B A N
;
_chemical_formula_sum "Si O2"
_cell_formula_units_Z 28
_cell_length_a 10.269244
_cell_length_b 20.982834
_cell_length_c 5.418568
_cell_angle_alpha 90.000000
_cell_angle_beta 90.000000
_cell_angle_gamma 90.000000
_cell_volume 1167.581340
_symmetry_space_group_name_H-M "P B A N"
_symmetry_group_IT_number 50
_space_group.IT_coordinate_system_code '2'
_symmetry_cell_setting 'orthorhombic'
loop_
_space_group_symop_operation_xyz
x,y,z
1/2-x,1/2-y,z
x,1/2-y,-z
1/2-x,y,-z
-x,-y,-z
1/2+x,1/2+y,-z
-x,1/2+y,z
1/2+x,-y,z
loop_
_atom_site_type_symbol
_atom_site_label
_atom_site_fract_x
_atom_site_fract_y
_atom_site_fract_z
Si Si1 0.615106 0.587978 0.624717
Si Si2 0.128407 0.951234 0.316048
Si Si3 0.973025 0.211259 0.242484
Si Si4 0.250000 0.852608 0.000000
O O1 0.750000 0.607573 0.500000
O O2 0.511137 0.564972 0.425146
O O3 0.632914 0.523824 0.793161
O O4 0.566018 0.649903 0.766783
O O5 0.250000 0.942025 0.500000
O O6 0.138554 0.898341 0.105457
O O7 0.986622 0.250000 0.500000
O O8 0.821573 0.190751 0.206400
O O9 0.017083 0.250000 0.000000
#
# Coordination Sequence:
#
# PCOD8205461 Si02
#       4
#     8   8   8   4
#     4  10  23  47  73 107 150 193 239 304 378 447
#     4  10  21  45  76 109 143 183 247 317 374 423
#     4  12  28  49  74 108 155 206 250 301 364 455
#     4  12  25  44  80 110 141 184 262 316 364 420
#
# _framework density 23.981202
#
# number of rings (size 3 to 8) (size 9 to 14) (size 15 to 20)
#    0.000    1.143    2.857    2.143    0.000    5.143 
#   10.286    4.286    0.000    0.000    0.000    0.000 
#    0.000    0.000    0.000    0.000    0.000    0.000 
#
# Total GULP energy -346907.781371 kJ/mol
# GULP energy per Si atom -12389.563620 kJ/mol
# Density = 2.392662 g / cm^3
# Si number density = 23.981202 Si / 1000 Ang^3
#
#
#
# Elastic Constant Matrix: (Units=GPa)
#
#
# Indices 1 2 3 4 5 6 
#
# 1 143.3223 55.2402 30.6089 0.0000 0.0000 0.0000
# 2 55.2402 170.6628 68.2572 0.0000 0.0000 0.0000
# 3 30.6089 68.2572 109.2330 0.0000 0.0000 0.0000
# 4 0.0000 0.0000 0.0000 44.7639 0.0000 0.0000
# 5 0.0000 0.0000 0.0000 0.0000 24.6439 0.0000
# 6 0.0000 0.0000 0.0000 0.0000 0.0000 51.4271
#
#
#
# Elastic Compliance Matrix: (Units=1/GPa)
#
#
# Indices 1 2 3 4 5 6 
#
# 1 0.008028 -0.002265 -0.000834 0.000000 0.000000 0.000000
# 2 -0.002265 0.008451 -0.004646 0.000000 0.000000 0.000000
# 3 -0.000834 -0.004646 0.012292 0.000000 0.000000 0.000000
# 4 0.000000 0.000000 0.000000 0.022339 0.000000 0.000000
# 5 0.000000 0.000000 0.000000 0.000000 0.040578 0.000000
# 6 0.000000 0.000000 0.000000 0.000000 0.000000 0.019445
#
#
# Mechanical properties :
#
#
# Convention : Reuss Voigt Hill
#
# Bulk Modulus (GPa) = 75.29971 81.27010 78.28490
# Shear Modulus (GPa) = 38.15308 42.10777 40.13043
#
# Velocity S-wave (km/s) = 3.99301 4.19485 4.09517
# Velocity P-wave (km/s) = 7.26130 7.57793 7.42130
#
# Compressibility (1/GPa) = 0.01328026
#
# Stress axis : x y z
#
# Youngs Moduli (GPa) = 124.55710 118.33163 81.35525
#
# Poissons Ratio (x) = 0.26801 0.06788
# Poissons Ratio (y) = 0.28211 0.37798
# Poissons Ratio (z) = 0.10393 0.54978
#
# Static dielectric constant tensor:
#      x y z
#    x 4.377550 0.000000 0.000000 
#    y 0.000000 5.202600 0.000000 
#    z 0.000000 0.000000 4.118440 
# 
# 
# High freq. dielectric constant tensor:
#      x y z
#    x 1.957310 0.000000 0.000000 
#    y 0.000000 1.987460 0.000000 
#    z 0.000000 0.000000 1.916750 
# 
# From -- ./inp_files/1882.got.cif
#   From: 2010.03.12/outbox.cif.g09.slc.cpg/sg50_1_cif.got.tgz:1882.got - 2010.04.16 13:23:21.
