data_PCOD8205306
_publ_section_title
;
Structure prediction by ZEFSAII (Michael W. Deem and Ramdas Pophale) SiO2 
 PCOD8205306
Probable space group: P B A N
;
_chemical_formula_sum "Si O2"
_cell_formula_units_Z 40
_cell_length_a 5.204705
_cell_length_b 14.609229
_cell_length_c 23.439726
_cell_angle_alpha 90.000000
_cell_angle_beta 90.000000
_cell_angle_gamma 90.000000
_cell_volume 1782.280052
_symmetry_space_group_name_H-M "P B A N"
_symmetry_group_IT_number 50
_space_group.IT_coordinate_system_code '2'
_symmetry_cell_setting 'orthorhombic'
loop_
_space_group_symop_operation_xyz
x,y,z
1/2-x,1/2-y,z
x,1/2-y,-z
1/2-x,y,-z
-x,-y,-z
1/2+x,1/2+y,-z
-x,1/2+y,z
1/2+x,-y,z
loop_
_atom_site_type_symbol
_atom_site_label
_atom_site_fract_x
_atom_site_fract_y
_atom_site_fract_z
Si Si1 0.504204 0.647079 0.524913
Si Si2 0.229386 0.140926 0.241098
Si Si3 0.229674 0.560990 0.937415
Si Si4 0.866903 0.559296 0.363424
Si Si5 0.735529 0.355100 0.819841
O O1 0.502612 0.750000 0.500000
O O2 0.750000 0.593241 0.500000
O O3 0.544493 0.640406 0.593102
O O4 0.250000 0.597593 0.500000
O O5 0.250000 0.250000 0.242661
O O6 0.140809 0.104854 0.302019
O O7 0.498209 0.100591 0.216194
O O8 0.007185 0.102235 0.199272
O O9 0.479936 0.500189 0.930348
O O10 0.208071 0.636109 0.887935
O O11 0.250000 0.608796 0.000000
O O12 0.580467 0.519643 0.372230
O O13 0.750000 0.250000 0.803586
#
# Coordination Sequence:
#
# PCOD8205306 Si02
#       5
#     8   8   8   8   8
#     4  10  23  43  66  92 119 165 204 236 299 380
#     4  10  23  41  62  88 123 165 202 247 305 375
#     4  10  21  36  57  87 121 162 206 252 311 369
#     4  12  26  42  65  98 126 154 202 259 306 358
#     4  10  21  39  60  89 120 161 211 253 300 359
#
# _framework density 22.443161
#
# number of rings (size 3 to 8) (size 9 to 14) (size 15 to 20)
#    0.000    1.600    0.000    3.600    2.800    7.600 
#    7.200    0.000    0.000    7.200    0.000    0.000 
#    0.000    0.000    0.000    0.000    0.000    0.000 
#
# Total GULP energy -495540.139853 kJ/mol
# GULP energy per Si atom -12388.503496 kJ/mol
# Density = 2.239208 g / cm^3
# Si number density = 22.443161 Si / 1000 Ang^3
#
#
#
# Elastic Constant Matrix: (Units=GPa)
#
#
# Indices 1 2 3 4 5 6 
#
# 1 210.3052 18.7004 62.4370 0.0000 0.0000 0.0000
# 2 18.7004 36.8453 33.7717 0.0000 0.0000 0.0000
# 3 62.4370 33.7717 198.1911 0.0000 0.0000 0.0000
# 4 0.0000 0.0000 0.0000 107.5515 0.0000 0.0000
# 5 0.0000 0.0000 0.0000 0.0000 42.2712 0.0000
# 6 0.0000 0.0000 0.0000 0.0000 0.0000 7.7208
#
#
#
# Elastic Compliance Matrix: (Units=1/GPa)
#
#
# Indices 1 2 3 4 5 6 
#
# 1 0.005304 -0.001375 -0.001437 0.000000 0.000000 0.000000
# 2 -0.001375 0.032521 -0.005108 0.000000 0.000000 0.000000
# 3 -0.001437 -0.005108 0.006369 0.000000 0.000000 0.000000
# 4 0.000000 0.000000 0.000000 0.009298 0.000000 0.000000
# 5 0.000000 0.000000 0.000000 0.000000 0.023657 0.000000
# 6 0.000000 0.000000 0.000000 0.000000 0.000000 0.129520
#
#
# Mechanical properties :
#
#
# Convention : Reuss Voigt Hill
#
# Bulk Modulus (GPa) = 35.26956 75.01775 55.14365
# Shear Modulus (GPa) = 21.55557 53.53754 37.54655
#
# Velocity S-wave (km/s) = 3.10248 4.88943 4.09462
# Velocity P-wave (km/s) = 5.34631 8.08539 6.85407
#
# Compressibility (1/GPa) = 0.02835306
#
# Stress axis : x y z
#
# Youngs Moduli (GPa) = 188.54536 30.74973 157.01931
#
# Poissons Ratio (x) = 0.04229 0.22556
# Poissons Ratio (y) = 0.25928 0.80210
# Poissons Ratio (z) = 0.27085 0.15708
#
# Static dielectric constant tensor:
#      x y z
#    x 5.960870 0.000000 0.000000 
#    y 0.000000 3.598210 0.000000 
#    z 0.000000 0.000000 4.274280 
# 
# 
# High freq. dielectric constant tensor:
#      x y z
#    x 1.919550 0.000000 0.000000 
#    y 0.000000 1.852670 0.000000 
#    z 0.000000 0.000000 1.896400 
# 
# From -- ./inp_files/28076.got.cif
#   From: 2010.03.12/outbox.cif.g09.slc.cpg/sg50_15_cif.got.tgz:28076.got - 2010.04.16 13:23:21.
