data_PCOD8205492
_publ_section_title
;
Structure prediction by ZEFSAII (Michael W. Deem and Ramdas Pophale) SiO2 
 PCOD8205492
Probable space group: P B A N
;
_chemical_formula_sum "Si O2"
_cell_formula_units_Z 64
_cell_length_a 16.160999
_cell_length_b 12.221046
_cell_length_c 16.008120
_cell_angle_alpha 90.000000
_cell_angle_beta 90.000000
_cell_angle_gamma 90.000000
_cell_volume 3161.672730
_symmetry_space_group_name_H-M "P B A N"
_symmetry_group_IT_number 50
_space_group.IT_coordinate_system_code '2'
_symmetry_cell_setting 'orthorhombic'
loop_
_space_group_symop_operation_xyz
x,y,z
1/2-x,1/2-y,z
x,1/2-y,-z
1/2-x,y,-z
-x,-y,-z
1/2+x,1/2+y,-z
-x,1/2+y,z
1/2+x,-y,z
loop_
_atom_site_type_symbol
_atom_site_label
_atom_site_fract_x
_atom_site_fract_y
_atom_site_fract_z
Si Si1 0.656755 0.866983 0.500000
Si Si2 0.596698 0.017746 0.833030
Si Si3 0.903302 0.482254 0.166970
Si Si4 0.093011 0.520784 0.363159
Si Si5 0.406989 0.979216 0.636841
Si Si6 0.658219 0.250000 0.637089
Si Si7 0.341918 0.750000 0.164688
Si Si8 0.250000 0.123321 0.901339
O O1 0.607176 0.750000 0.500000
O O2 0.750000 0.833484 0.500000
O O3 0.643757 0.933342 0.585001
O O4 0.643757 0.933342 0.414999
O O5 0.500000 1.000000 0.857010
O O6 0.664225 0.934804 0.872062
O O7 0.611678 0.006002 0.734400
O O8 0.612866 0.140426 0.866706
O O9 0.888322 0.493998 0.265600
O O10 0.887134 0.359574 0.133294
O O11 0.835775 0.565196 0.127938
O O12 0.112643 0.642376 0.395583
O O13 1.000000 0.500000 0.386748
O O14 0.387357 0.857624 0.604417
O O15 0.750000 0.250000 0.599868
O O16 0.660052 0.250000 0.736308
O O17 0.250000 0.750000 0.127044
O O18 0.250000 0.250000 0.869910
O O19 0.250000 0.119172 0.000000
#
# Coordination Sequence:
#
# PCOD8205492 Si02
#       8
#     8   8   8   8   8   8   8   8
#     4  11  25  39  55  83 127 165 209 265 307 369
#     4  10  22  40  68  95 125 167 214 261 317 382
#     4  10  22  40  68  95 125 167 214 261 317 382
#     4  10  22  39  61  88 121 159 208 259 315 365
#     4  10  22  39  61  88 121 159 208 259 315 365
#     4   9  18  33  60  85 113 150 198 261 301 364
#     4   9  16  34  61  93 123 149 205 267 307 361
#     4  11  26  45  65  96 136 172 208 257 316 382
#
# _framework density 20.242450000000002
#
# number of rings (size 3 to 8) (size 9 to 14) (size 15 to 20)
#    0.000    2.000    1.250    1.125    7.000    2.000 
#    0.000    2.500    0.000    0.000    0.000    0.000 
#    0.000    0.000    0.000    0.000    0.000    0.000 
#
# Total GULP energy -793057.299515 kJ/mol
# GULP energy per Si atom -12391.520305 kJ/mol
# Density = 2.019638 g / cm^3
# Si number density = 20.242450 Si / 1000 Ang^3
#
#
#
# Elastic Constant Matrix: (Units=GPa)
#
#
# Indices 1 2 3 4 5 6 
#
# 1 164.1408 100.8772 32.8857 0.0000 0.0000 0.0000
# 2 100.8772 221.4917 41.4466 0.0000 0.0000 0.0000
# 3 32.8857 41.4466 53.2011 0.0000 0.0000 0.0000
# 4 0.0000 0.0000 0.0000 32.9074 0.0000 0.0000
# 5 0.0000 0.0000 0.0000 0.0000 24.7190 0.0000
# 6 0.0000 0.0000 0.0000 0.0000 0.0000 42.6865
#
#
#
# Elastic Compliance Matrix: (Units=1/GPa)
#
#
# Indices 1 2 3 4 5 6 
#
# 1 0.008781 -0.003493 -0.002707 0.000000 0.000000 0.000000
# 2 -0.003493 0.006675 -0.003041 0.000000 0.000000 0.000000
# 3 -0.002707 -0.003041 0.022839 0.000000 0.000000 0.000000
# 4 0.000000 0.000000 0.000000 0.030388 0.000000 0.000000
# 5 0.000000 0.000000 0.000000 0.000000 0.040455 0.000000
# 6 0.000000 0.000000 0.000000 0.000000 0.000000 0.023427
#
#
# Mechanical properties :
#
#
# Convention : Reuss Voigt Hill
#
# Bulk Modulus (GPa) = 50.47063 87.69473 69.08268
# Shear Modulus (GPa) = 31.71578 37.63752 34.67665
#
# Velocity S-wave (km/s) = 3.96257 4.31668 4.14341
# Velocity P-wave (km/s) = 6.77666 8.26203 7.55594
#
# Compressibility (1/GPa) = 0.01981350
#
# Stress axis : x y z
#
# Youngs Moduli (GPa) = 113.87834 149.82029 43.78505
#
# Poissons Ratio (x) = 0.52330 0.11852
# Poissons Ratio (y) = 0.39776 0.13314
# Poissons Ratio (z) = 0.30826 0.45558
#
# Static dielectric constant tensor:
#      x y z
#    x 3.765450 0.000000 0.000000 
#    y 0.000000 4.079180 0.000000 
#    z 0.000000 0.000000 3.407700 
# 
# 
# High freq. dielectric constant tensor:
#      x y z
#    x 1.800890 0.000000 0.000000 
#    y 0.000000 1.810870 0.000000 
#    z 0.000000 0.000000 1.767690 
# 
# From -- ./inp_files/29548.got.cif
#   From: 2010.03.12/outbox.cif.g09.slc.cpg/sg50_15_cif.got.tgz:29548.got - 2010.04.16 13:23:21.
