data_PCOD8205196
_publ_section_title
;
Structure prediction by ZEFSAII (Michael W. Deem and Ramdas Pophale) SiO2 
 PCOD8205196
Probable space group: P B A N
;
_chemical_formula_sum "Si O2"
_cell_formula_units_Z 58
_cell_length_a 26.717389
_cell_length_b 11.978663
_cell_length_c 8.829896
_cell_angle_alpha 90.000000
_cell_angle_beta 90.000000
_cell_angle_gamma 90.000000
_cell_volume 2825.907546
_symmetry_space_group_name_H-M "P B A N"
_symmetry_group_IT_number 50
_space_group.IT_coordinate_system_code '2'
_symmetry_cell_setting 'orthorhombic'
loop_
_space_group_symop_operation_xyz
x,y,z
1/2-x,1/2-y,z
x,1/2-y,-z
1/2-x,y,-z
-x,-y,-z
1/2+x,1/2+y,-z
-x,1/2+y,z
1/2+x,-y,z
loop_
_atom_site_type_symbol
_atom_site_label
_atom_site_fract_x
_atom_site_fract_y
_atom_site_fract_z
Si Si1 0.914745 0.139036 0.816682
Si Si2 0.750000 0.250000 0.500000
Si Si3 0.194204 0.948199 0.647223
Si Si4 0.100206 0.887633 0.846290
Si Si5 0.350824 0.039853 0.648681
Si Si6 0.238445 0.123355 0.176557
Si Si7 0.052355 0.370057 0.544182
Si Si8 0.509918 0.511939 0.258595
O O1 0.913721 0.268956 0.770454
O O2 0.973630 0.104464 0.816648
O O3 0.883238 0.067970 0.696790
O O4 0.886580 0.125383 0.977319
O O5 0.782417 0.174001 0.384181
O O6 0.144868 0.939465 0.749432
O O7 0.186085 0.001634 0.483205
O O8 0.230278 0.031126 0.735465
O O9 0.052657 0.970927 0.855023
O O10 0.319768 0.095844 0.786339
O O11 0.388512 0.131790 0.580453
O O12 0.250000 0.250000 0.230653
O O13 0.250000 0.110690 0.000000
O O14 0.032529 0.250000 0.500000
O O15 0.040174 0.451313 0.406719
O O16 0.024247 0.406675 0.696595
#
# Coordination Sequence:
#
# PCOD8205196 Si02
#       8
#     8   2   8   8   8   8   8   8
#     4  10  23  39  61  92 129 166 211 264 322 385
#     4  12  24  44  64 100 128 168 222 282 328 384
#     4  12  24  42  68  94 129 167 219 268 330 389
#     4  11  22  39  63  91 126 172 212 262 328 386
#     4  11  22  42  63  92 125 160 210 265 315 381
#     4  11  26  46  67  94 130 171 216 269 331 395
#     4  10  21  35  58  90 119 155 204 253 311 366
#     4  10  20  38  58  88 124 165 205 258 309 382
#
# _framework density 20.524381000000002
#
# number of rings (size 3 to 8) (size 9 to 14) (size 15 to 20)
#    0.000    1.241    2.759    2.897    1.931    0.552 
#    1.241    0.000    0.000    6.621    0.000    0.000 
#    0.000    0.000    0.000    0.000    0.000    0.000 
#
# Total GULP energy -719097.695775 kJ/mol
# GULP energy per Si atom -12398.236134 kJ/mol
# Density = 2.047767 g / cm^3
# Si number density = 20.524381 Si / 1000 Ang^3
#
#
#
# Elastic Constant Matrix: (Units=GPa)
#
#
# Indices 1 2 3 4 5 6 
#
# 1 107.6771 41.2508 31.9692 0.0000 0.0000 0.0000
# 2 41.2508 94.4218 15.3433 0.0000 0.0000 0.0000
# 3 31.9692 15.3433 78.0578 0.0000 0.0000 0.0000
# 4 0.0000 0.0000 0.0000 33.2195 0.0000 0.0000
# 5 0.0000 0.0000 0.0000 0.0000 27.7414 0.0000
# 6 0.0000 0.0000 0.0000 0.0000 0.0000 29.4129
#
#
#
# Elastic Compliance Matrix: (Units=1/GPa)
#
#
# Indices 1 2 3 4 5 6 
#
# 1 0.012314 -0.004711 -0.004117 0.000000 0.000000 0.000000
# 2 -0.004711 0.012742 -0.000575 0.000000 0.000000 0.000000
# 3 -0.004117 -0.000575 0.014610 0.000000 0.000000 0.000000
# 4 0.000000 0.000000 0.000000 0.030103 0.000000 0.000000
# 5 0.000000 0.000000 0.000000 0.000000 0.036047 0.000000
# 6 0.000000 0.000000 0.000000 0.000000 0.000000 0.033999
#
#
# Mechanical properties :
#
#
# Convention : Reuss Voigt Hill
#
# Bulk Modulus (GPa) = 47.93886 50.80927 49.37406
# Shear Modulus (GPa) = 30.19764 30.84764 30.52264
#
# Velocity S-wave (km/s) = 3.83992 3.88103 3.86053
# Velocity P-wave (km/s) = 6.56260 6.70019 6.63175
#
# Compressibility (1/GPa) = 0.02085991
#
# Stress axis : x y z
#
# Youngs Moduli (GPa) = 81.20745 78.47896 68.44420
#
# Poissons Ratio (x) = 0.36969 0.28181
# Poissons Ratio (y) = 0.38254 0.03938
# Poissons Ratio (z) = 0.33436 0.04515
#
# Static dielectric constant tensor:
#      x y z
#    x 3.864820 0.000000 0.000000 
#    y 0.000000 3.776400 0.000000 
#    z 0.000000 0.000000 3.629410 
# 
# 
# High freq. dielectric constant tensor:
#      x y z
#    x 1.810770 0.000000 0.000000 
#    y 0.000000 1.803590 0.000000 
#    z 0.000000 0.000000 1.800680 
# 
# From -- ./inp_files/11748.got.cif
#   From: 2010.03.12/outbox.cif.g09.slc.cpg/sg50_6_cif.got.tgz:11748.got - 2010.04.16 13:23:21.
