data_PCOD8205652
_publ_section_title
;
Structure prediction by ZEFSAII (Michael W. Deem and Ramdas Pophale) SiO2 
 PCOD8205652
Probable space group: P B A N
;
_chemical_formula_sum "Si O2"
_cell_formula_units_Z 28
_cell_length_a 19.407606
_cell_length_b 11.196085
_cell_length_c 5.075862
_cell_angle_alpha 90.000000
_cell_angle_beta 90.000000
_cell_angle_gamma 90.000000
_cell_volume 1102.930026
_symmetry_space_group_name_H-M "P B A N"
_symmetry_group_IT_number 50
_space_group.IT_coordinate_system_code '2'
_symmetry_cell_setting 'orthorhombic'
loop_
_space_group_symop_operation_xyz
x,y,z
1/2-x,1/2-y,z
x,1/2-y,-z
1/2-x,y,-z
-x,-y,-z
1/2+x,1/2+y,-z
-x,1/2+y,z
1/2+x,-y,z
loop_
_atom_site_type_symbol
_atom_site_label
_atom_site_fract_x
_atom_site_fract_y
_atom_site_fract_z
Si Si1 0.646785 0.576392 0.736645
Si Si2 0.750000 0.750000 0.000000
Si Si3 0.647539 0.424987 0.254469
Si Si4 0.498252 0.874122 0.152387
Si Si5 0.250000 0.750000 0.500000
O O1 0.701506 0.675121 0.810110
O O2 0.669132 0.530658 0.450737
O O3 0.570817 0.633814 0.696281
O O4 0.649099 0.469354 0.952098
O O5 0.570189 0.380477 0.334362
O O6 0.702659 0.321752 0.295670
O O7 0.490372 0.750000 0.000000
O O8 0.500000 0.000000 0.000000
#
# Coordination Sequence:
#
# PCOD8205652 Si02
#       5
#     8   2   8   8   2
#     4  11  25  48  71 112 146 201 248 319 377 458
#     4  12  24  46  80 104 160 192 260 310 398 462
#     4  11  27  46  72 106 152 194 257 311 385 451
#     4  10  23  48  76 112 148 199 253 314 374 451
#     4  12  28  46  76 108 152 200 248 318 382 462
#
# _framework density 25.386924
#
# number of rings (size 3 to 8) (size 9 to 14) (size 15 to 20)
#    0.000    1.143    1.429    2.571    8.000    3.429 
#    0.000    0.000    0.000    0.000    0.000    0.000 
#    0.000    0.000    0.000    0.000    0.000    0.000 
#
# Total GULP energy -347051.773467 kJ/mol
# GULP energy per Si atom -12394.706195 kJ/mol
# Density = 2.532914 g / cm^3
# Si number density = 25.386924 Si / 1000 Ang^3
#
#
#
# Elastic Constant Matrix: (Units=GPa)
#
#
# Indices 1 2 3 4 5 6 
#
# 1 200.6828 58.6402 -4.1929 0.0000 0.0000 0.0000
# 2 58.6402 152.0896 17.7596 0.0000 0.0000 0.0000
# 3 -4.1929 17.7596 55.5446 0.0000 0.0000 0.0000
# 4 0.0000 0.0000 0.0000 15.2912 0.0000 0.0000
# 5 0.0000 0.0000 0.0000 0.0000 26.4539 0.0000
# 6 0.0000 0.0000 0.0000 0.0000 0.0000 50.7883
#
#
#
# Elastic Compliance Matrix: (Units=1/GPa)
#
#
# Indices 1 2 3 4 5 6 
#
# 1 0.005688 -0.002330 0.001175 0.000000 0.000000 0.000000
# 2 -0.002330 0.007785 -0.002665 0.000000 0.000000 0.000000
# 3 0.001175 -0.002665 0.018944 0.000000 0.000000 0.000000
# 4 0.000000 0.000000 0.000000 0.065397 0.000000 0.000000
# 5 0.000000 0.000000 0.000000 0.000000 0.037802 0.000000
# 6 0.000000 0.000000 0.000000 0.000000 0.000000 0.019690
#
#
# Mechanical properties :
#
#
# Convention : Reuss Voigt Hill
#
# Bulk Modulus (GPa) = 40.36197 61.41452 50.88825
# Shear Modulus (GPa) = 29.20457 40.91402 35.05930
#
# Velocity S-wave (km/s) = 3.39540 4.01885 3.72021
# Velocity P-wave (km/s) = 5.59508 6.76600 6.20821
#
# Compressibility (1/GPa) = 0.02477580
#
# Stress axis : x y z
#
# Youngs Moduli (GPa) = 175.79372 128.45566 52.78636
#
# Poissons Ratio (x) = 0.29936 -0.06200
# Poissons Ratio (y) = 0.40967 0.14068
# Poissons Ratio (z) = -0.20647 0.34233
#
# Static dielectric constant tensor:
#      x y z
#    x 5.609780 0.000000 0.000000 
#    y 0.000000 5.334520 0.000000 
#    z 0.000000 0.000000 4.309490 
# 
# 
# High freq. dielectric constant tensor:
#      x y z
#    x 2.056010 0.000000 0.000000 
#    y 0.000000 2.024790 0.000000 
#    z 0.000000 0.000000 1.982030 
# 
# From -- ./inp_files/4878.got.cif
#   From: 2010.03.12/outbox.cif.g09.slc.cpg/sg50_3_cif.got.tgz:4878.got - 2010.04.16 13:23:21.
