data_PCOD8205792
_publ_section_title
;
Structure prediction by ZEFSAII (Michael W. Deem and Ramdas Pophale) SiO2 
 PCOD8205792
Probable space group: P B A N
;
_chemical_formula_sum "Si O2"
_cell_formula_units_Z 48
_cell_length_a 28.398239
_cell_length_b 8.896342
_cell_length_c 8.972602
_cell_angle_alpha 90.000000
_cell_angle_beta 90.000000
_cell_angle_gamma 90.000000
_cell_volume 2266.842174
_symmetry_space_group_name_H-M "P B A N"
_symmetry_group_IT_number 50
_space_group.IT_coordinate_system_code '2'
_symmetry_cell_setting 'orthorhombic'
loop_
_space_group_symop_operation_xyz
x,y,z
1/2-x,1/2-y,z
x,1/2-y,-z
1/2-x,y,-z
-x,-y,-z
1/2+x,1/2+y,-z
-x,1/2+y,z
1/2+x,-y,z
loop_
_atom_site_type_symbol
_atom_site_label
_atom_site_fract_x
_atom_site_fract_y
_atom_site_fract_z
Si Si1 0.374096 0.841144 0.642623
Si Si2 0.982284 0.070705 0.656363
Si Si3 0.298186 0.686258 0.837808
Si Si4 0.200066 0.326478 0.146110
Si Si5 0.958639 0.796013 0.829836
Si Si6 0.868463 0.681572 0.347161
O O1 0.358328 0.750000 0.500000
O O2 0.431111 0.848997 0.650587
O O3 0.347540 0.749008 0.772168
O O4 0.353671 0.008923 0.630731
O O5 0.021028 0.187119 0.704802
O O6 0.982303 0.954949 0.794059
O O7 0.000000 0.000000 0.500000
O O8 0.250000 0.750000 0.756445
O O9 0.297995 0.506260 0.853331
O O10 0.296986 0.750000 0.000000
O O11 0.250000 0.250000 0.152499
O O12 0.175787 0.280132 0.300408
O O13 0.174864 0.250000 0.000000
O O14 0.903859 0.805651 0.792000
O O15 0.968118 0.750000 0.000000
O O16 0.889623 0.750000 0.500000
#
# Coordination Sequence:
#
# PCOD8205792 Si02
#       6
#     8   8   8   8   8   8
#     4  11  23  40  62  92 125 165 216 267 322 393
#     4  11  23  42  65  92 129 173 216 269 337 406
#     4  11  23  41  64  93 129 170 211 266 330 392
#     4  11  22  40  65  92 125 167 214 269 330 404
#     4  11  23  39  62  91 125 163 211 267 323 389
#     4  11  23  40  61  88 122 166 213 264 327 394
#
# _framework density 21.17483
#
# number of rings (size 3 to 8) (size 9 to 14) (size 15 to 20)
#    0.000    1.000    0.000    9.500    0.000    4.000 
#    0.000    3.333    0.000    0.000    0.000    0.000 
#    0.000    0.000    0.000    0.000    0.000    0.000 
#
# Total GULP energy -594693.213693 kJ/mol
# GULP energy per Si atom -12389.441952 kJ/mol
# Density = 2.112664 g / cm^3
# Si number density = 21.174830 Si / 1000 Ang^3
#
#
#
# Elastic Constant Matrix: (Units=GPa)
#
#
# Indices 1 2 3 4 5 6 
#
# 1 94.5702 55.0051 43.8959 0.0000 0.0000 0.0000
# 2 55.0051 185.4466 43.8770 0.0000 0.0000 0.0000
# 3 43.8959 43.8770 91.7259 0.0000 0.0000 0.0000
# 4 0.0000 0.0000 0.0000 25.5469 0.0000 0.0000
# 5 0.0000 0.0000 0.0000 0.0000 18.0465 0.0000
# 6 0.0000 0.0000 0.0000 0.0000 0.0000 48.8983
#
#
#
# Elastic Compliance Matrix: (Units=1/GPa)
#
#
# Indices 1 2 3 4 5 6 
#
# 1 0.015031 -0.003108 -0.005706 0.000000 0.000000 0.000000
# 2 -0.003108 0.006723 -0.001729 0.000000 0.000000 0.000000
# 3 -0.005706 -0.001729 0.014460 0.000000 0.000000 0.000000
# 4 0.000000 0.000000 0.000000 0.039144 0.000000 0.000000
# 5 0.000000 0.000000 0.000000 0.000000 0.055412 0.000000
# 6 0.000000 0.000000 0.000000 0.000000 0.000000 0.020451
#
#
# Mechanical properties :
#
#
# Convention : Reuss Voigt Hill
#
# Bulk Modulus (GPa) = 66.10443 73.03318 69.56880
# Shear Modulus (GPa) = 28.19306 33.76265 30.97785
#
# Velocity S-wave (km/s) = 3.65285 3.99741 3.82901
# Velocity P-wave (km/s) = 7.00552 7.47470 7.24391
#
# Compressibility (1/GPa) = 0.01512758
#
# Stress axis : x y z
#
# Youngs Moduli (GPa) = 66.53131 148.73674 69.15779
#
# Poissons Ratio (x) = 0.46229 0.39463
# Poissons Ratio (y) = 0.20679 0.11955
# Poissons Ratio (z) = 0.37964 0.25712
#
# Static dielectric constant tensor:
#      x y z
#    x 3.907590 0.000000 0.000000 
#    y 0.000000 3.744920 0.000000 
#    z 0.000000 0.000000 4.267580 
# 
# 
# High freq. dielectric constant tensor:
#      x y z
#    x 1.831940 0.000000 0.000000 
#    y 0.000000 1.851010 0.000000 
#    z 0.000000 0.000000 1.830460 
# 
# From -- ./inp_files/16979.got.cif
#   From: 2010.03.12/outbox.cif.g09.slc.cpg/sg50_9_cif.got.tgz:16979.got - 2010.04.16 13:23:21.
