data_PCOD8205232
_publ_section_title
;
Structure prediction by ZEFSAII (Michael W. Deem and Ramdas Pophale) SiO2 
 PCOD8205232
Probable space group: P B A N
;
_chemical_formula_sum "Si O2"
_cell_formula_units_Z 60
_cell_length_a 22.432132
_cell_length_b 5.377954
_cell_length_c 23.253735
_cell_angle_alpha 90.000000
_cell_angle_beta 90.000000
_cell_angle_gamma 90.000000
_cell_volume 2805.306732
_symmetry_space_group_name_H-M "P B A N"
_symmetry_group_IT_number 50
_space_group.IT_coordinate_system_code '2'
_symmetry_cell_setting 'orthorhombic'
loop_
_space_group_symop_operation_xyz
x,y,z
1/2-x,1/2-y,z
x,1/2-y,-z
1/2-x,y,-z
-x,-y,-z
1/2+x,1/2+y,-z
-x,1/2+y,z
1/2+x,-y,z
loop_
_atom_site_type_symbol
_atom_site_label
_atom_site_fract_x
_atom_site_fract_y
_atom_site_fract_z
Si Si1 0.320289 0.736468 0.374621
Si Si2 0.250000 0.250000 0.224186
Si Si3 0.816437 0.495702 0.023700
Si Si4 0.980057 0.984948 0.870203
Si Si5 0.657764 0.391793 0.254576
Si Si6 0.655110 0.483999 0.847195
Si Si7 0.179041 0.240981 0.565294
Si Si8 0.028474 0.447687 0.255701
O O1 0.250000 0.750000 0.381760
O O2 0.341686 0.704683 0.308343
O O3 0.346530 0.490152 0.404706
O O4 0.345906 0.991887 0.403186
O O5 0.221994 0.468246 0.262818
O O6 0.307580 0.309874 0.186016
O O7 0.812854 0.456757 0.091831
O O8 0.848250 0.750000 0.000000
O O9 0.750000 0.499605 0.000000
O O10 0.850614 0.250000 0.000000
O O11 0.911380 0.923494 0.858598
O O12 0.989734 0.249780 0.903920
O O13 0.013810 0.055111 0.811598
O O14 0.655733 0.262768 0.191981
O O15 0.599881 0.567096 0.261806
O O16 0.250000 0.250000 0.567538
O O17 0.155910 0.250000 0.500000
O O18 0.000933 0.700009 0.283995
#
# Coordination Sequence:
#
# PCOD8205232 Si02
#       8
#     8   4   8   8   8   8   8   8
#     4  10  21  34  51  83 131 159 203 265 304 378
#     4  12  26  36  57  94 131 174 198 234 314 428
#     4  10  24  43  62  85 118 155 206 261 293 367
#     4  10  20  39  63  92 114 157 206 264 303 378
#     4  12  26  37  60  95 135 170 204 257 340 398
#     4  12  25  40  68  89 126 168 208 254 330 390
#     4   9  18  34  56  76 111 175 225 254 292 353
#     4  10  20  40  60  85 118 165 211 263 301 384
#
# _framework density 21.388034000000001
#
# number of rings (size 3 to 8) (size 9 to 14) (size 15 to 20)
#    0.000    1.467    2.667    4.000   10.267    1.600 
#    0.000    0.000    0.000    2.400    0.000    0.000 
#    0.000   10.667    0.000    0.000    0.000    0.000 
#
# Total GULP energy -743420.063484 kJ/mol
# GULP energy per Si atom -12390.334391 kJ/mol
# Density = 2.133935 g / cm^3
# Si number density = 21.388034 Si / 1000 Ang^3
#
#
#
# Elastic Constant Matrix: (Units=GPa)
#
#
# Indices 1 2 3 4 5 6 
#
# 1 90.2576 31.6112 19.3001 0.0000 0.0000 0.0000
# 2 31.6112 179.0629 40.6031 0.0000 0.0000 0.0000
# 3 19.3001 40.6031 114.6977 0.0000 0.0000 0.0000
# 4 0.0000 0.0000 0.0000 21.5182 0.0000 0.0000
# 5 0.0000 0.0000 0.0000 0.0000 -1.2994 0.0000
# 6 0.0000 0.0000 0.0000 0.0000 0.0000 26.8817
#
#
#
# Elastic Compliance Matrix: (Units=1/GPa)
#
#
# Indices 1 2 3 4 5 6 
#
# 1 0.012007 -0.001807 -0.001381 0.000000 0.000000 0.000000
# 2 -0.001807 0.006344 -0.001942 0.000000 0.000000 0.000000
# 3 -0.001381 -0.001942 0.009638 0.000000 0.000000 0.000000
# 4 0.000000 0.000000 0.000000 0.046472 0.000000 0.000000
# 5 0.000000 0.000000 0.000000 0.000000 -0.769574 0.000000
# 6 0.000000 0.000000 0.000000 0.000000 0.000000 0.037200
#
#
# Mechanical properties :
#
#
# Convention : Reuss Voigt Hill
#
# Bulk Modulus (GPa) = 56.39834 63.00522 59.70178
# Shear Modulus (GPa) = -7.79128 28.92036 10.56454
#
# Velocity S-wave (km/s) = -1.91069 3.68118 2.22490
# Velocity P-wave (km/s) = 4.64314 6.89857 5.88001
#
# Compressibility (1/GPa) = 0.01773102
#
# Stress axis : x y z
#
# Youngs Moduli (GPa) = 83.28181 157.63270 103.75259
#
# Poissons Ratio (x) = 0.28478 0.14328
# Poissons Ratio (y) = 0.15046 0.20146
# Poissons Ratio (z) = 0.11501 0.30608
#
# Static dielectric constant tensor:
#      x y z
#    x 3.579470 0.000000 0.000000 
#    y 0.000000 5.968230 0.000000 
#    z 0.000000 0.000000 3.698970 
# 
# 
# High freq. dielectric constant tensor:
#      x y z
#    x 1.802640 0.000000 0.000000 
#    y 0.000000 1.866140 0.000000 
#    z 0.000000 0.000000 1.803230 
# 
# From -- ./inp_files/31888.got.cif
#   From: 2010.03.12/outbox.cif.g09.slc.cpg/sg50_16_cif.got.tgz:31888.got - 2010.04.16 13:23:21.
