data_PCOD8205905
_publ_section_title
;
Structure prediction by ZEFSAII (Michael W. Deem and Ramdas Pophale) SiO2 
 PCOD8205905
Probable space group: P B A N
;
_chemical_formula_sum "Si O2"
_cell_formula_units_Z 34
_cell_length_a 15.857282
_cell_length_b 18.004566
_cell_length_c 5.159740
_cell_angle_alpha 90.000000
_cell_angle_beta 90.000000
_cell_angle_gamma 90.000000
_cell_volume 1473.123728
_symmetry_space_group_name_H-M "P B A N"
_symmetry_group_IT_number 50
_space_group.IT_coordinate_system_code '2'
_symmetry_cell_setting 'orthorhombic'
loop_
_space_group_symop_operation_xyz
x,y,z
1/2-x,1/2-y,z
x,1/2-y,-z
1/2-x,y,-z
-x,-y,-z
1/2+x,1/2+y,-z
-x,1/2+y,z
1/2+x,-y,z
loop_
_atom_site_type_symbol
_atom_site_label
_atom_site_fract_x
_atom_site_fract_y
_atom_site_fract_z
Si Si1 0.843569 0.907476 0.574281
Si Si2 0.162924 0.856480 0.858832
Si Si3 0.410468 0.250000 0.500000
Si Si4 0.976078 0.250000 0.000000
Si Si5 0.250000 0.750000 0.500000
Si Si6 0.593607 0.516344 0.091647
O O1 0.750000 0.932923 0.500000
O O2 0.850350 0.818912 0.568441
O O3 0.861272 0.938984 0.860559
O O4 0.909141 0.937152 0.357774
O O5 0.179359 0.806509 0.609241
O O6 0.250000 0.841208 0.000000
O O7 0.080993 0.823924 0.000851
O O8 0.146123 0.943347 0.825267
O O9 0.467625 0.262620 0.749278
O O10 0.500000 0.500000 0.000000
#
# Coordination Sequence:
#
# PCOD8205905 Si02
#       6
#     8   8   4   4   2   8
#     4  12  26  49  72 108 136 196 243 302 369 432
#     4  12  25  43  68 106 144 191 243 298 365 449
#     4  12  26  46  75  99 146 184 248 310 358 446
#     4  12  25  44  69 106 142 192 238 302 373 432
#     4  12  24  44  72 108 144 196 242 302 366 434
#     4  12  28  47  73 106 150 191 241 304 374 440
#
# _framework density 23.080207000000001
#
# number of rings (size 3 to 8) (size 9 to 14) (size 15 to 20)
#    0.000    0.000    2.353    8.118    4.941    0.000 
#    0.000    3.529    0.000    0.000    0.000    0.000 
#    0.000    0.000    0.000    0.000    0.000    0.000 
#
# Total GULP energy -421379.379142 kJ/mol
# GULP energy per Si atom -12393.511151 kJ/mol
# Density = 2.302768 g / cm^3
# Si number density = 23.080207 Si / 1000 Ang^3
#
#
#
# Elastic Constant Matrix: (Units=GPa)
#
#
# Indices 1 2 3 4 5 6 
#
# 1 79.7584 16.9855 10.9412 0.0000 0.0000 0.0000
# 2 16.9855 170.0618 48.2647 0.0000 0.0000 0.0000
# 3 10.9412 48.2647 121.1771 0.0000 0.0000 0.0000
# 4 0.0000 0.0000 0.0000 31.3021 0.0000 0.0000
# 5 0.0000 0.0000 0.0000 0.0000 -135.0737 0.0000
# 6 0.0000 0.0000 0.0000 0.0000 0.0000 51.0528
#
#
#
# Elastic Compliance Matrix: (Units=1/GPa)
#
#
# Indices 1 2 3 4 5 6 
#
# 1 0.012868 -0.001077 -0.000733 0.000000 0.000000 0.000000
# 2 -0.001077 0.006720 -0.002579 0.000000 0.000000 0.000000
# 3 -0.000733 -0.002579 0.009346 0.000000 0.000000 0.000000
# 4 0.000000 0.000000 0.000000 0.031947 0.000000 0.000000
# 5 0.000000 0.000000 0.000000 0.000000 -0.007403 0.000000
# 6 0.000000 0.000000 0.000000 0.000000 0.000000 0.019588
#
#
# Mechanical properties :
#
#
# Convention : Reuss Voigt Hill
#
# Bulk Modulus (GPa) = 49.61563 58.15338 53.88450
# Shear Modulus (GPa) = 56.45812 9.10996 32.78404
#
# Velocity S-wave (km/s) = 4.95124 1.98888 3.77296
# Velocity P-wave (km/s) = 7.36411 5.52495 6.50981
#
# Compressibility (1/GPa) = 0.02015494
#
# Stress axis : x y z
#
# Youngs Moduli (GPa) = 77.71339 148.81368 106.99937
#
# Poissons Ratio (x) = 0.16031 0.07841
# Poissons Ratio (y) = 0.08372 0.27598
# Poissons Ratio (z) = 0.05695 0.38382
#
# Static dielectric constant tensor:
#      x y z
#    x 4.230830 0.000000 0.000000 
#    y 0.000000 5.000650 0.000000 
#    z 0.000000 0.000000 4.232400 
# 
# 
# High freq. dielectric constant tensor:
#      x y z
#    x 1.924030 0.000000 0.000000 
#    y 0.000000 1.931060 0.000000 
#    z 0.000000 0.000000 1.916060 
# 
# From -- ./inp_files/3077.got.cif
#   From: 2010.03.12/outbox.cif.g09.slc.cpg/sg50_2_cif.got.tgz:3077.got - 2010.04.16 13:23:21.
