data_PCOD8205753
_publ_section_title
;
Structure prediction by ZEFSAII (Michael W. Deem and Ramdas Pophale) SiO2 
 PCOD8205753
Probable space group: P B A N
;
_chemical_formula_sum "Si O2"
_cell_formula_units_Z 34
_cell_length_a 21.432467
_cell_length_b 7.994033
_cell_length_c 9.102140
_cell_angle_alpha 90.000000
_cell_angle_beta 90.000000
_cell_angle_gamma 90.000000
_cell_volume 1559.486471
_symmetry_space_group_name_H-M "P B A N"
_symmetry_group_IT_number 50
_space_group.IT_coordinate_system_code '2'
_symmetry_cell_setting 'orthorhombic'
loop_
_space_group_symop_operation_xyz
x,y,z
1/2-x,1/2-y,z
x,1/2-y,-z
1/2-x,y,-z
-x,-y,-z
1/2+x,1/2+y,-z
-x,1/2+y,z
1/2+x,-y,z
loop_
_atom_site_type_symbol
_atom_site_label
_atom_site_fract_x
_atom_site_fract_y
_atom_site_fract_z
Si Si1 0.139131 0.609934 0.669061
Si Si2 0.564778 0.566687 0.444542
Si Si3 0.750000 0.250000 0.500000
Si Si4 0.557107 0.109883 0.831870
Si Si5 0.083138 0.101438 0.099837
O O1 0.112427 0.569323 0.508512
O O2 0.209821 0.649182 0.622236
O O3 0.099519 0.748343 0.757571
O O4 0.132866 0.444082 0.772373
O O5 0.580898 0.750000 0.500000
O O6 0.500000 0.500000 0.500000
O O7 0.567084 0.557608 0.267354
O O8 0.483481 0.157365 0.830073
O O9 0.575391 0.066807 0.999127
O O10 0.110874 0.250000 0.000000
#
# Coordination Sequence:
#
# PCOD8205753 Si02
#       5
#     8   8   2   8   8
#     4  12  24  45  70  98 142 184 237 285 335 419
#     4  12  23  37  66 106 142 178 220 287 362 420
#     4  12  28  48  72 100 128 200 260 282 332 404
#     4  11  21  39  65 106 144 177 216 278 359 427
#     4  11  23  38  67 107 142 172 213 284 363 423
#
# _framework density 21.802049
#
# number of rings (size 3 to 8) (size 9 to 14) (size 15 to 20)
#    0.000    0.471    4.706    6.353    0.000    0.000 
#    0.000    2.941    0.000    1.412    0.000    0.000 
#    0.000    0.000    0.000    0.000    0.000    0.000 
#
# Total GULP energy -421258.171774 kJ/mol
# GULP energy per Si atom -12389.946229 kJ/mol
# Density = 2.175243 g / cm^3
# Si number density = 21.802049 Si / 1000 Ang^3
#
#
#
# Elastic Constant Matrix: (Units=GPa)
#
#
# Indices 1 2 3 4 5 6 
#
# 1 126.9624 41.7784 55.0026 0.0000 0.0000 0.0000
# 2 41.7784 67.1200 21.2698 0.0000 0.0000 0.0000
# 3 55.0026 21.2698 134.0295 0.0000 0.0000 0.0000
# 4 0.0000 0.0000 0.0000 51.4106 0.0000 0.0000
# 5 0.0000 0.0000 0.0000 0.0000 28.1118 0.0000
# 6 0.0000 0.0000 0.0000 0.0000 0.0000 22.9349
#
#
#
# Elastic Compliance Matrix: (Units=1/GPa)
#
#
# Indices 1 2 3 4 5 6 
#
# 1 0.011461 -0.005942 -0.003760 0.000000 0.000000 0.000000
# 2 -0.005942 0.018768 -0.000540 0.000000 0.000000 0.000000
# 3 -0.003760 -0.000540 0.009090 0.000000 0.000000 0.000000
# 4 0.000000 0.000000 0.000000 0.019451 0.000000 0.000000
# 5 0.000000 0.000000 0.000000 0.000000 0.035572 0.000000
# 6 0.000000 0.000000 0.000000 0.000000 0.000000 0.043602
#
#
# Mechanical properties :
#
#
# Convention : Reuss Voigt Hill
#
# Bulk Modulus (GPa) = 53.09423 62.69039 57.89231
# Shear Modulus (GPa) = 30.35702 34.49553 32.42627
#
# Velocity S-wave (km/s) = 3.73553 3.98202 3.86074
# Velocity P-wave (km/s) = 6.55830 7.06815 6.81799
#
# Compressibility (1/GPa) = 0.01883444
#
# Stress axis : x y z
#
# Youngs Moduli (GPa) = 87.25523 53.28112 110.01293
#
# Poissons Ratio (x) = 0.31660 0.41367
# Poissons Ratio (y) = 0.51847 0.05940
# Poissons Ratio (z) = 0.32810 0.02877
#
# Static dielectric constant tensor:
#      x y z
#    x 6.109430 0.000000 0.000000 
#    y 0.000000 4.235740 0.000000 
#    z 0.000000 0.000000 4.497280 
# 
# 
# High freq. dielectric constant tensor:
#      x y z
#    x 1.784770 0.000000 0.000000 
#    y 0.000000 1.873130 0.000000 
#    z 0.000000 0.000000 1.896490 
# 
# From -- ./inp_files/9247.got.cif
#   From: 2010.03.12/outbox.cif.g09.slc.cpg/sg50_5_cif.got.tgz:9247.got - 2010.04.16 13:23:21.
