data_PCOD8205679
_publ_section_title
;
Structure prediction by ZEFSAII (Michael W. Deem and Ramdas Pophale) SiO2 
 PCOD8205679
Probable space group: P B A N
;
_chemical_formula_sum "Si O2"
_cell_formula_units_Z 64
_cell_length_a 29.778355
_cell_length_b 10.734674
_cell_length_c 9.810902
_cell_angle_alpha 90.000000
_cell_angle_beta 90.000000
_cell_angle_gamma 90.000000
_cell_volume 3136.162089
_symmetry_space_group_name_H-M "P B A N"
_symmetry_group_IT_number 50
_space_group.IT_coordinate_system_code '2'
_symmetry_cell_setting 'orthorhombic'
loop_
_space_group_symop_operation_xyz
x,y,z
1/2-x,1/2-y,z
x,1/2-y,-z
1/2-x,y,-z
-x,-y,-z
1/2+x,1/2+y,-z
-x,1/2+y,z
1/2+x,-y,z
loop_
_atom_site_type_symbol
_atom_site_label
_atom_site_fract_x
_atom_site_fract_y
_atom_site_fract_z
Si Si1 0.697663 0.386026 0.980941
Si Si2 0.652812 0.997901 0.771132
Si Si3 0.097602 0.774349 0.651178
Si Si4 0.062639 0.102659 0.149287
Si Si5 0.143456 0.973714 0.265768
Si Si6 0.197227 0.396635 0.490960
Si Si7 0.515126 0.450758 0.352260
Si Si8 0.566471 0.886303 0.850737
O O1 0.682150 0.478070 0.097329
O O2 0.675416 0.250000 0.000000
O O3 0.750000 0.375287 0.000000
O O4 0.684326 0.437000 0.832617
O O5 0.627409 0.122338 0.723975
O O6 0.684771 0.944054 0.657050
O O7 0.619077 0.891095 0.819563
O O8 0.115290 0.750000 0.500000
O O9 0.107369 0.640780 0.721305
O O10 0.045046 0.822159 0.646664
O O11 0.051375 0.246343 0.135851
O O12 0.029126 0.052785 0.262101
O O13 0.113574 0.082121 0.198953
O O14 0.055737 0.044113 0.996322
O O15 0.166836 0.024855 0.402742
O O16 0.186725 0.250000 0.500000
O O17 0.250000 0.424777 0.500000
O O18 0.500000 0.500000 0.500000
O O19 0.544148 0.556657 0.282362
#
# Coordination Sequence:
#
# PCOD8205679 Si02
#       8
#     8   8   8   8   8   8   8   8
#     4  11  23  40  66 104 139 172 218 271 335 401
#     4  11  21  44  65  91 136 172 212 272 324 396
#     4  11  23  41  65  97 129 172 219 267 336 402
#     4  11  24  42  67  90 128 172 221 269 325 398
#     4  12  23  43  70  98 134 181 219 274 335 402
#     4  11  25  44  67  98 133 176 229 278 332 397
#     4  11  26  43  67  95 131 165 219 285 330 396
#     4  10  24  44  62  92 126 171 217 264 327 393
#
# _framework density 20.407108000000001
#
# number of rings (size 3 to 8) (size 9 to 14) (size 15 to 20)
#    0.000    1.000    3.750    2.625    5.250    0.000 
#    0.000    0.625    0.000    3.000    0.000    0.000 
#    0.000    0.000    0.000    0.000    0.000    0.000 
#
# Total GULP energy -793108.031467 kJ/mol
# GULP energy per Si atom -12392.312992 kJ/mol
# Density = 2.036066 g / cm^3
# Si number density = 20.407108 Si / 1000 Ang^3
#
#
#
# Elastic Constant Matrix: (Units=GPa)
#
#
# Indices 1 2 3 4 5 6 
#
# 1 98.9063 33.6436 42.9852 0.0000 0.0000 0.0000
# 2 33.6436 75.5310 29.1851 0.0000 0.0000 0.0000
# 3 42.9852 29.1851 137.2130 0.0000 0.0000 0.0000
# 4 0.0000 0.0000 0.0000 105.3661 0.0000 0.0000
# 5 0.0000 0.0000 0.0000 0.0000 44.2989 0.0000
# 6 0.0000 0.0000 0.0000 0.0000 0.0000 25.1769
#
#
#
# Elastic Compliance Matrix: (Units=1/GPa)
#
#
# Indices 1 2 3 4 5 6 
#
# 1 0.013024 -0.004603 -0.003101 0.000000 0.000000 0.000000
# 2 -0.004603 0.016052 -0.001972 0.000000 0.000000 0.000000
# 3 -0.003101 -0.001972 0.008679 0.000000 0.000000 0.000000
# 4 0.000000 0.000000 0.000000 0.009491 0.000000 0.000000
# 5 0.000000 0.000000 0.000000 0.000000 0.022574 0.000000
# 6 0.000000 0.000000 0.000000 0.000000 0.000000 0.039719
#
#
# Mechanical properties :
#
#
# Convention : Reuss Voigt Hill
#
# Bulk Modulus (GPa) = 54.34091 58.14200 56.24146
# Shear Modulus (GPa) = 37.03012 48.69081 42.86047
#
# Velocity S-wave (km/s) = 4.26440 4.88994 4.58784
# Velocity P-wave (km/s) = 7.13674 7.77399 7.46217
#
# Compressibility (1/GPa) = 0.01840234
#
# Stress axis : x y z
#
# Youngs Moduli (GPa) = 76.78101 62.29757 115.22195
#
# Poissons Ratio (x) = 0.28676 0.35731
# Poissons Ratio (y) = 0.35343 0.22724
# Poissons Ratio (z) = 0.23810 0.12287
#
# Static dielectric constant tensor:
#      x y z
#    x 3.182990 0.000000 0.000000 
#    y 0.000000 3.846840 0.000000 
#    z 0.000000 0.000000 4.245790 
# 
# 
# High freq. dielectric constant tensor:
#      x y z
#    x 1.799340 0.000000 0.000000 
#    y 0.000000 1.795350 0.000000 
#    z 0.000000 0.000000 1.817740 
# 
# From -- ./inp_files/17088.got.cif
#   From: 2010.03.12/outbox.cif.g09.slc.cpg/sg50_9_cif.got.tgz:17088.got - 2010.04.16 13:23:21.
