data_PCOD8205200
_publ_section_title
;
Structure prediction by ZEFSAII (Michael W. Deem and Ramdas Pophale) SiO2 
 PCOD8205200
Probable space group: P B A N
;
_chemical_formula_sum "Si O2"
_cell_formula_units_Z 48
_cell_length_a 18.877607
_cell_length_b 10.783283
_cell_length_c 10.872754
_cell_angle_alpha 90.000000
_cell_angle_beta 90.000000
_cell_angle_gamma 90.000000
_cell_volume 2213.285841
_symmetry_space_group_name_H-M "P B A N"
_symmetry_group_IT_number 50
_space_group.IT_coordinate_system_code '2'
_symmetry_cell_setting 'orthorhombic'
loop_
_space_group_symop_operation_xyz
x,y,z
1/2-x,1/2-y,z
x,1/2-y,-z
1/2-x,y,-z
-x,-y,-z
1/2+x,1/2+y,-z
-x,1/2+y,z
1/2+x,-y,z
loop_
_atom_site_type_symbol
_atom_site_label
_atom_site_fract_x
_atom_site_fract_y
_atom_site_fract_z
Si Si1 0.083127 0.881961 0.850540
Si Si2 0.929227 0.822463 0.808185
Si Si3 0.062800 0.420191 0.352273
Si Si4 0.181282 0.673344 0.755149
Si Si5 0.589481 0.019621 0.401572
Si Si6 0.674779 0.532400 0.951851
O O1 0.126286 0.757647 0.828550
O O2 0.003417 0.834708 0.883104
O O3 0.076664 0.956534 0.724347
O O4 0.120894 0.963674 0.954736
O O5 0.917508 0.695173 0.733994
O O6 0.921712 0.933375 0.714231
O O7 0.866082 0.844098 0.905674
O O8 0.109989 0.440532 0.476114
O O9 0.984233 0.403970 0.409599
O O10 0.250000 0.750000 0.718954
O O11 0.150388 0.619842 0.627239
O O12 0.199509 0.561010 0.845272
O O13 0.750000 0.580642 0.000000
#
# Coordination Sequence:
#
# PCOD8205200 Si02
#       6
#     8   8   8   8   8   8
#     4  11  22  37  60  98 128 165 219 269 324 387
#     4  10  21  39  63  93 130 168 221 270 323 391
#     4  10  20  38  60  92 129 163 213 271 317 393
#     4  11  21  39  66  91 128 165 214 273 329 393
#     4   9  20  37  64  92 124 167 212 264 333 383
#     4  11  23  40  64  90 127 175 218 265 332 395
#
# _framework density 21.687211999999999
#
# number of rings (size 3 to 8) (size 9 to 14) (size 15 to 20)
#    0.000    1.667    3.333    1.500    0.000    1.333 
#    3.000    3.333    0.000    0.000    4.333    0.000 
#    0.000    0.000    0.000    0.000    0.000    0.000 
#
# Total GULP energy -594871.353900 kJ/mol
# GULP energy per Si atom -12393.153206 kJ/mol
# Density = 2.163785 g / cm^3
# Si number density = 21.687212 Si / 1000 Ang^3
#
#
#
# Elastic Constant Matrix: (Units=GPa)
#
#
# Indices 1 2 3 4 5 6 
#
# 1 139.6473 54.1360 59.7209 0.0000 0.0000 0.0000
# 2 54.1360 77.9333 31.2028 0.0000 0.0000 0.0000
# 3 59.7209 31.2028 101.9969 0.0000 0.0000 0.0000
# 4 0.0000 0.0000 0.0000 25.7383 0.0000 0.0000
# 5 0.0000 0.0000 0.0000 0.0000 27.9810 0.0000
# 6 0.0000 0.0000 0.0000 0.0000 0.0000 34.2678
#
#
#
# Elastic Compliance Matrix: (Units=1/GPa)
#
#
# Indices 1 2 3 4 5 6 
#
# 1 0.011646 -0.006108 -0.004950 0.000000 0.000000 0.000000
# 2 -0.006108 0.017826 -0.001877 0.000000 0.000000 0.000000
# 3 -0.004950 -0.001877 0.013277 0.000000 0.000000 0.000000
# 4 0.000000 0.000000 0.000000 0.038853 0.000000 0.000000
# 5 0.000000 0.000000 0.000000 0.000000 0.035739 0.000000
# 6 0.000000 0.000000 0.000000 0.000000 0.000000 0.029182
#
#
# Mechanical properties :
#
#
# Convention : Reuss Voigt Hill
#
# Bulk Modulus (GPa) = 59.24785 67.74410 63.49598
# Shear Modulus (GPa) = 28.08718 29.23195 28.65957
#
# Velocity S-wave (km/s) = 3.60266 3.67534 3.63918
# Velocity P-wave (km/s) = 6.68462 7.02250 6.85564
#
# Compressibility (1/GPa) = 0.01687825
#
# Stress axis : x y z
#
# Youngs Moduli (GPa) = 85.86947 56.09893 75.31868
#
# Poissons Ratio (x) = 0.34263 0.37285
# Poissons Ratio (y) = 0.52445 0.14138
# Poissons Ratio (z) = 0.42508 0.10530
#
# Static dielectric constant tensor:
#      x y z
#    x 4.112540 0.000000 0.000000 
#    y 0.000000 3.857720 0.000000 
#    z 0.000000 0.000000 3.966660 
# 
# 
# High freq. dielectric constant tensor:
#      x y z
#    x 1.840050 0.000000 0.000000 
#    y 0.000000 1.852590 0.000000 
#    z 0.000000 0.000000 1.854090 
# 
# From -- ./inp_files/21801.got.cif
#   From: 2010.03.12/outbox.cif.g09.slc.cpg/sg50_11_cif.got.tgz:21801.got - 2010.04.16 13:23:21.
