data_PCOD8205813
_publ_section_title
;
Structure prediction by ZEFSAII (Michael W. Deem and Ramdas Pophale) SiO2 
 PCOD8205813
Probable space group: P B A N
;
_chemical_formula_sum "Si O2"
_cell_formula_units_Z 64
_cell_length_a 18.153535
_cell_length_b 12.317817
_cell_length_c 13.890251
_cell_angle_alpha 90.000000
_cell_angle_beta 90.000000
_cell_angle_gamma 90.000000
_cell_volume 3106.025724
_symmetry_space_group_name_H-M "P B A N"
_symmetry_group_IT_number 50
_space_group.IT_coordinate_system_code '2'
_symmetry_cell_setting 'orthorhombic'
loop_
_space_group_symop_operation_xyz
x,y,z
1/2-x,1/2-y,z
x,1/2-y,-z
1/2-x,y,-z
-x,-y,-z
1/2+x,1/2+y,-z
-x,1/2+y,z
1/2+x,-y,z
loop_
_atom_site_type_symbol
_atom_site_label
_atom_site_fract_x
_atom_site_fract_y
_atom_site_fract_z
Si Si1 0.032501 0.786842 0.697301
Si Si2 0.384891 0.253587 0.606198
Si Si3 0.577588 0.476095 0.170544
Si Si4 0.354383 0.018431 0.650043
Si Si5 0.931165 0.083061 0.810362
Si Si6 0.630711 0.135735 0.527370
Si Si7 0.691260 0.967248 0.669431
Si Si8 0.164127 0.878334 0.007142
O O1 0.034221 0.881341 0.775444
O O2 0.080002 0.691274 0.745943
O O3 0.059805 0.830446 0.592726
O O4 0.950898 0.738281 0.683010
O O5 0.419430 0.250000 0.500000
O O6 0.325746 0.349889 0.622519
O O7 0.344550 0.139020 0.611232
O O8 0.514138 0.566343 0.148046
O O9 0.641307 0.524656 0.236786
O O10 0.615840 0.436556 0.073833
O O11 0.412616 0.014868 0.736965
O O12 0.385031 0.933907 0.569144
O O13 0.274206 0.001736 0.696921
O O14 0.869910 0.082797 0.892780
O O15 0.669977 0.250000 0.500000
O O16 0.681512 0.061520 0.591660
O O17 0.155238 0.750000 0.000000
O O18 0.250000 0.912676 0.000000
#
# Coordination Sequence:
#
# PCOD8205813 Si02
#       8
#     8   8   8   8   8   8   8   8
#     4  11  23  40  61  98 127 166 219 269 328 375
#     4  12  24  40  65  89 135 178 225 275 314 384
#     4  11  23  44  68  95 127 170 217 273 326 398
#     4  12  25  40  62  95 132 178 223 271 329 381
#     4  12  23  43  69  94 128 169 219 271 324 399
#     4  11  23  40  59  90 132 171 221 268 317 382
#     4  11  25  41  63  91 131 177 222 271 328 385
#     4  11  24  43  69 100 133 164 206 271 344 412
#
# _framework density 20.605108999999999
#
# number of rings (size 3 to 8) (size 9 to 14) (size 15 to 20)
#    0.000    0.625    6.250    2.250    0.000    2.000 
#    0.000    0.000    0.000    0.000    0.000    3.500 
#    0.000    0.000    0.000    0.000    0.000    0.000 
#
# Total GULP energy -792980.004108 kJ/mol
# GULP energy per Si atom -12390.312564 kJ/mol
# Density = 2.055821 g / cm^3
# Si number density = 20.605109 Si / 1000 Ang^3
#
#
#
# Elastic Constant Matrix: (Units=GPa)
#
#
# Indices 1 2 3 4 5 6 
#
# 1 111.7850 23.9159 57.4156 0.0000 0.0000 0.0000
# 2 23.9159 114.3920 36.6683 0.0000 0.0000 0.0000
# 3 57.4156 36.6683 119.5961 0.0000 0.0000 0.0000
# 4 0.0000 0.0000 0.0000 24.9477 0.0000 0.0000
# 5 0.0000 0.0000 0.0000 0.0000 12.4387 0.0000
# 6 0.0000 0.0000 0.0000 0.0000 0.0000 -12.2223
#
#
#
# Elastic Compliance Matrix: (Units=1/GPa)
#
#
# Indices 1 2 3 4 5 6 
#
# 1 0.011928 -0.000730 -0.005503 0.000000 0.000000 0.000000
# 2 -0.000730 0.009739 -0.002636 0.000000 0.000000 0.000000
# 3 -0.005503 -0.002636 0.011811 0.000000 0.000000 0.000000
# 4 0.000000 0.000000 0.000000 0.040084 0.000000 0.000000
# 5 0.000000 0.000000 0.000000 0.000000 0.080394 0.000000
# 6 0.000000 0.000000 0.000000 0.000000 0.000000 -0.081818
#
#
# Mechanical properties :
#
#
# Convention : Reuss Voigt Hill
#
# Bulk Modulus (GPa) = 63.52323 64.64142 64.08233
# Shear Modulus (GPa) = 52.56346 20.21772 36.39059
#
# Velocity S-wave (km/s) = 5.05621 3.13581 4.20705
# Velocity P-wave (km/s) = 8.06119 6.67463 7.40046
#
# Compressibility (1/GPa) = 0.01574227
#
# Stress axis : x y z
#
# Youngs Moduli (GPa) = 83.83473 102.67632 84.66462
#
# Poissons Ratio (x) = 0.07495 0.46588
# Poissons Ratio (y) = 0.06119 0.22315
# Poissons Ratio (z) = 0.46132 0.27062
#
# Static dielectric constant tensor:
#      x y z
#    x 3.671300 0.000000 0.000000 
#    y 0.000000 3.892740 0.000000 
#    z 0.000000 0.000000 3.828080 
# 
# 
# High freq. dielectric constant tensor:
#      x y z
#    x 1.806140 0.000000 0.000000 
#    y 0.000000 1.812290 0.000000 
#    z 0.000000 0.000000 1.802350 
# 
# From -- ./inp_files/27021.got.cif
#   From: 2010.03.12/outbox.cif.g09.slc.cpg/sg50_14_cif.got.tgz:27021.got - 2010.04.16 13:23:21.
