data_PCOD8205035
_publ_section_title
;
Structure prediction by ZEFSAII (Michael W. Deem and Ramdas Pophale) SiO2 
 PCOD8205035
Probable space group: P B A N
;
_chemical_formula_sum "Si O2"
_cell_formula_units_Z 60
_cell_length_a 14.003432
_cell_length_b 23.416795
_cell_length_c 11.812938
_cell_angle_alpha 90.000000
_cell_angle_beta 90.000000
_cell_angle_gamma 90.000000
_cell_volume 3873.645429
_symmetry_space_group_name_H-M "P B A N"
_symmetry_group_IT_number 50
_space_group.IT_coordinate_system_code '2'
_symmetry_cell_setting 'orthorhombic'
loop_
_space_group_symop_operation_xyz
x,y,z
1/2-x,1/2-y,z
x,1/2-y,-z
1/2-x,y,-z
-x,-y,-z
1/2+x,1/2+y,-z
-x,1/2+y,z
1/2+x,-y,z
loop_
_atom_site_type_symbol
_atom_site_label
_atom_site_fract_x
_atom_site_fract_y
_atom_site_fract_z
Si Si1 0.250000 0.250000 0.264705
Si Si2 0.348683 0.304941 0.936713
Si Si3 0.536312 0.935724 0.389338
Si Si4 0.423768 0.491361 0.162754
Si Si5 0.196127 0.140781 0.382478
Si Si6 0.431774 0.425599 0.932522
Si Si7 0.224449 0.039046 0.760643
Si Si8 0.150761 0.519854 0.456871
O O1 0.326228 0.214781 0.190773
O O2 0.196675 0.206195 0.346469
O O3 0.424733 0.356585 0.934114
O O4 0.394636 0.250000 0.000000
O O5 0.250000 0.323235 0.000000
O O6 0.518922 0.962692 0.266146
O O7 0.582571 0.872996 0.389940
O O8 0.434120 0.933312 0.452233
O O9 0.617915 0.972253 0.454077
O O10 0.471552 0.552499 0.130422
O O11 0.313613 0.499981 0.198932
O O12 0.432086 0.447097 0.060266
O O13 0.250000 0.130522 0.500000
O O14 0.240638 0.100261 0.285470
O O15 0.340187 0.451294 0.869967
O O16 0.163520 0.006810 0.666426
O O17 0.250000 0.547683 0.500000
#
# Coordination Sequence:
#
# PCOD8205035 Si02
#       8
#     4   8   8   8   8   8   8   8
#     4  10  20  30  48  68  98 132 172 190 244 290
#     4   9  19  31  46  69  90 134 171 198 232 299
#     4  10  20  30  48  71  98 135 168 203 243 308
#     4  10  21  29  47  73  96 135 163 201 247 300
#     4  11  19  32  46  71 101 134 163 206 246 285
#     4  11  20  33  47  68 104 134 162 200 250 292
#     4  11  18  32  48  69 101 136 157 197 244 298
#     4  11  18  32  49  69  98 136 166 192 245 309
#
# _framework density 15.489286
#
# number of rings (size 3 to 8) (size 9 to 14) (size 15 to 20)
#    0.000    1.733    6.667    1.400    5.600    0.000 
#    0.000    0.000    0.000    0.000    0.000    0.000 
#    0.000   24.533    0.000    0.000    0.000    0.000 
#
# Total GULP energy -743681.273213 kJ/mol
# GULP energy per Si atom -12394.687887 kJ/mol
# Density = 1.545403 g / cm^3
# Si number density = 15.489286 Si / 1000 Ang^3
#
#
#
# Elastic Constant Matrix: (Units=GPa)
#
#
# Indices 1 2 3 4 5 6 
#
# 1 94.5362 50.6103 36.9851 0.0000 0.0000 0.0000
# 2 50.6103 104.8512 32.3680 0.0000 0.0000 0.0000
# 3 36.9851 32.3680 81.1091 0.0000 0.0000 0.0000
# 4 0.0000 0.0000 0.0000 16.5861 0.0000 0.0000
# 5 0.0000 0.0000 0.0000 0.0000 15.9087 0.0000
# 6 0.0000 0.0000 0.0000 0.0000 0.0000 28.3785
#
#
#
# Elastic Compliance Matrix: (Units=1/GPa)
#
#
# Indices 1 2 3 4 5 6 
#
# 1 0.015701 -0.006123 -0.004716 0.000000 0.000000 0.000000
# 2 -0.006123 0.013265 -0.002502 0.000000 0.000000 0.000000
# 3 -0.004716 -0.002502 0.015478 0.000000 0.000000 0.000000
# 4 0.000000 0.000000 0.000000 0.060291 0.000000 0.000000
# 5 0.000000 0.000000 0.000000 0.000000 0.062859 0.000000
# 6 0.000000 0.000000 0.000000 0.000000 0.000000 0.035238
#
#
# Mechanical properties :
#
#
# Convention : Reuss Voigt Hill
#
# Bulk Modulus (GPa) = 56.29769 57.82480 57.06124
# Shear Modulus (GPa) = 21.23740 22.87688 22.05714
#
# Velocity S-wave (km/s) = 3.70686 3.84728 3.77772
# Velocity P-wave (km/s) = 7.39907 7.55967 7.47980
#
# Compressibility (1/GPa) = 0.01776272
#
# Stress axis : x y z
#
# Youngs Moduli (GPa) = 63.69091 75.38660 64.60820
#
# Poissons Ratio (x) = 0.46157 0.30470
# Poissons Ratio (y) = 0.38996 0.16163
# Poissons Ratio (z) = 0.30037 0.18860
#
# Static dielectric constant tensor:
#      x y z
#    x 2.935350 0.000000 0.000000 
#    y 0.000000 2.791870 0.000000 
#    z 0.000000 0.000000 3.170250 
# 
# 
# High freq. dielectric constant tensor:
#      x y z
#    x 1.575260 0.000000 0.000000 
#    y 0.000000 1.558990 0.000000 
#    z 0.000000 0.000000 1.619030 
# 
# From -- ./inp_files/21450.got.cif
#   From: 2010.03.12/outbox.cif.g09.slc.cpg/sg50_11_cif.got.tgz:21450.got - 2010.04.16 13:23:21.
