data_PCOD8205484
_publ_section_title
;
Structure prediction by ZEFSAII (Michael W. Deem and Ramdas Pophale) SiO2 
 PCOD8205484
Probable space group: P B A N
;
_chemical_formula_sum "Si O2"
_cell_formula_units_Z 58
_cell_length_a 19.477688
_cell_length_b 15.685842
_cell_length_c 9.330795
_cell_angle_alpha 90.000000
_cell_angle_beta 90.000000
_cell_angle_gamma 90.000000
_cell_volume 2850.781219
_symmetry_space_group_name_H-M "P B A N"
_symmetry_group_IT_number 50
_space_group.IT_coordinate_system_code '2'
_symmetry_cell_setting 'orthorhombic'
loop_
_space_group_symop_operation_xyz
x,y,z
1/2-x,1/2-y,z
x,1/2-y,-z
1/2-x,y,-z
-x,-y,-z
1/2+x,1/2+y,-z
-x,1/2+y,z
1/2+x,-y,z
loop_
_atom_site_type_symbol
_atom_site_label
_atom_site_fract_x
_atom_site_fract_y
_atom_site_fract_z
Si Si1 0.929351 0.846348 0.756089
Si Si2 0.309991 0.915363 0.402850
Si Si3 0.925410 0.534909 0.511830
Si Si4 0.681364 0.431854 0.069236
Si Si5 0.750000 0.250000 0.500000
Si Si6 0.827478 0.624560 0.005598
Si Si7 0.435111 0.156063 0.225707
Si Si8 0.963431 0.149595 0.011522
O O1 0.911136 0.905928 0.623512
O O2 0.859681 0.844537 0.846269
O O3 0.949440 0.749927 0.707842
O O4 0.992947 0.883693 0.851145
O O5 0.250000 0.957668 0.500000
O O6 0.307095 0.942883 0.238359
O O7 0.301068 0.811535 0.407831
O O8 0.378512 0.950323 0.478153
O O9 0.914922 0.590283 0.652832
O O10 0.000000 0.500000 0.500000
O O11 0.615552 0.375632 0.028020
O O12 0.750000 0.389910 0.000000
O O13 0.668719 0.522743 0.999079
O O14 0.750000 0.658382 0.000000
O O15 0.869711 0.666494 0.877023
O O16 0.500285 0.117191 0.135819
O O17 0.970049 0.250000 0.000000
#
# Coordination Sequence:
#
# PCOD8205484 Si02
#       8
#     8   8   8   8   2   8   8   8
#     4  10  23  40  64  93 130 167 212 260 329 384
#     4  10  24  47  65  93 133 172 219 268 333 391
#     4  12  25  40  66  95 130 173 220 273 324 397
#     4  11  23  38  65  97 124 164 222 269 320 388
#     4   8  24  48  74  84 138 180 216 268 336 396
#     4  10  22  38  65  93 123 164 208 263 320 388
#     4  10  22  43  62  93 130 166 213 266 321 392
#     4   9  21  41  62  90 129 167 208 274 324 386
#
# _framework density 20.345299000000001
#
# number of rings (size 3 to 8) (size 9 to 14) (size 15 to 20)
#    0.414    1.379    1.379    2.483    5.793    3.586 
#    7.448    0.000    0.000    2.483    0.000    0.000 
#    0.000    0.000    0.000    0.000    0.000    0.000 
#
# Total GULP energy -718896.879737 kJ/mol
# GULP energy per Si atom -12394.773789 kJ/mol
# Density = 2.029899 g / cm^3
# Si number density = 20.345299 Si / 1000 Ang^3
#
#
#
# Elastic Constant Matrix: (Units=GPa)
#
#
# Indices 1 2 3 4 5 6 
#
# 1 157.6249 30.0192 54.0025 0.0000 0.0000 0.0000
# 2 30.0192 80.8767 36.2025 0.0000 0.0000 0.0000
# 3 54.0025 36.2025 116.2304 0.0000 0.0000 0.0000
# 4 0.0000 0.0000 0.0000 18.7428 0.0000 0.0000
# 5 0.0000 0.0000 0.0000 0.0000 20.0884 0.0000
# 6 0.0000 0.0000 0.0000 0.0000 0.0000 32.8860
#
#
#
# Elastic Compliance Matrix: (Units=1/GPa)
#
#
# Indices 1 2 3 4 5 6 
#
# 1 0.007690 -0.001458 -0.003119 0.000000 0.000000 0.000000
# 2 -0.001458 0.014644 -0.003884 0.000000 0.000000 0.000000
# 3 -0.003119 -0.003884 0.011262 0.000000 0.000000 0.000000
# 4 0.000000 0.000000 0.000000 0.053354 0.000000 0.000000
# 5 0.000000 0.000000 0.000000 0.000000 0.049780 0.000000
# 6 0.000000 0.000000 0.000000 0.000000 0.000000 0.030408
#
#
# Mechanical properties :
#
#
# Convention : Reuss Voigt Hill
#
# Bulk Modulus (GPa) = 59.96942 66.13115 63.05029
# Shear Modulus (GPa) = 26.36865 29.97729 28.17297
#
# Velocity S-wave (km/s) = 3.60398 3.84269 3.72525
# Velocity P-wave (km/s) = 6.84530 7.22933 7.03993
#
# Compressibility (1/GPa) = 0.01667516
#
# Stress axis : x y z
#
# Youngs Moduli (GPa) = 130.03142 68.28617 88.79156
#
# Poissons Ratio (x) = 0.09959 0.27693
# Poissons Ratio (y) = 0.18964 0.34484
# Poissons Ratio (z) = 0.40555 0.26520
#
# Static dielectric constant tensor:
#      x y z
#    x 3.815640 0.000000 0.000000 
#    y 0.000000 3.743160 0.000000 
#    z 0.000000 0.000000 3.636090 
# 
# 
# High freq. dielectric constant tensor:
#      x y z
#    x 1.798450 0.000000 0.000000 
#    y 0.000000 1.796680 0.000000 
#    z 0.000000 0.000000 1.791730 
# 
# From -- ./inp_files/14472.got.cif
#   From: 2010.03.12/outbox.cif.g09.slc.cpg/sg50_8_cif.got.tgz:14472.got - 2010.04.16 13:23:21.
