data_PCOD8205820
_publ_section_title
;
Structure prediction by ZEFSAII (Michael W. Deem and Ramdas Pophale) SiO2 
 PCOD8205820
Probable space group: P B A N
;
_chemical_formula_sum "Si O2"
_cell_formula_units_Z 40
_cell_length_a 15.061366
_cell_length_b 14.734447
_cell_length_c 7.019829
_cell_angle_alpha 90.000000
_cell_angle_beta 90.000000
_cell_angle_gamma 90.000000
_cell_volume 1557.846763
_symmetry_space_group_name_H-M "P B A N"
_symmetry_group_IT_number 50
_space_group.IT_coordinate_system_code '2'
_symmetry_cell_setting 'orthorhombic'
loop_
_space_group_symop_operation_xyz
x,y,z
1/2-x,1/2-y,z
x,1/2-y,-z
1/2-x,y,-z
-x,-y,-z
1/2+x,1/2+y,-z
-x,1/2+y,z
1/2+x,-y,z
loop_
_atom_site_type_symbol
_atom_site_label
_atom_site_fract_x
_atom_site_fract_y
_atom_site_fract_z
Si Si1 0.117181 0.512698 0.346074
Si Si2 0.467888 0.880850 0.837149
Si Si3 0.691411 0.997566 0.242236
Si Si4 0.331701 0.301429 0.194656
Si Si5 0.982945 0.184632 0.262060
O O1 0.153289 0.477364 0.546690
O O2 0.206726 0.533066 0.224689
O O3 0.070273 0.610599 0.386234
O O4 0.047259 0.440651 0.257098
O O5 0.375897 0.934311 0.860028
O O6 0.443397 0.786701 0.725992
O O7 0.494677 0.857072 0.051114
O O8 0.694840 0.902497 0.134714
O O9 0.250000 0.250000 0.298361
O O10 0.416235 0.302569 0.335871
O O11 0.356373 0.250000 0.000000
#
# Coordination Sequence:
#
# PCOD8205820 Si02
#       5
#     8   8   8   8   8
#     4  11  25  47  67 103 145 182 242 284 358 430
#     4  11  23  44  70 101 138 184 235 296 351 422
#     4  11  26  44  71  99 142 193 226 297 355 421
#     4  11  23  41  70 103 138 178 238 289 357 416
#     4  11  24  42  69 104 138 183 236 292 353 418
#
# _framework density 25.676466999999999
#
# number of rings (size 3 to 8) (size 9 to 14) (size 15 to 20)
#    0.000    1.000    4.000    2.400    2.800    2.400 
#    0.000   10.000    0.000    0.000    0.000    0.000 
#    0.000    0.000    0.000    0.000    0.000    0.000 
#
# Total GULP energy -495589.006021 kJ/mol
# GULP energy per Si atom -12389.725151 kJ/mol
# Density = 2.561803 g / cm^3
# Si number density = 25.676467 Si / 1000 Ang^3
#
#
#
# Elastic Constant Matrix: (Units=GPa)
#
#
# Indices 1 2 3 4 5 6 
#
# 1 211.4383 97.4119 28.6308 0.0000 0.0000 0.0000
# 2 97.4119 212.7649 30.4565 0.0000 0.0000 0.0000
# 3 28.6308 30.4565 27.9315 0.0000 0.0000 0.0000
# 4 0.0000 0.0000 0.0000 35.6748 0.0000 0.0000
# 5 0.0000 0.0000 0.0000 0.0000 20.8198 0.0000
# 6 0.0000 0.0000 0.0000 0.0000 0.0000 48.7866
#
#
#
# Elastic Compliance Matrix: (Units=1/GPa)
#
#
# Indices 1 2 3 4 5 6 
#
# 1 0.006342 -0.002338 -0.003951 0.000000 0.000000 0.000000
# 2 -0.002338 0.006431 -0.004616 0.000000 0.000000 0.000000
# 3 -0.003951 -0.004616 0.044885 0.000000 0.000000 0.000000
# 4 0.000000 0.000000 0.000000 0.028031 0.000000 0.000000
# 5 0.000000 0.000000 0.000000 0.000000 0.048031 0.000000
# 6 0.000000 0.000000 0.000000 0.000000 0.000000 0.020497
#
#
# Mechanical properties :
#
#
# Convention : Reuss Voigt Hill
#
# Bulk Modulus (GPa) = 27.89574 85.01481 56.45528
# Shear Modulus (GPa) = 26.59894 40.76527 33.68210
#
# Velocity S-wave (km/s) = 3.22207 3.98886 3.62579
# Velocity P-wave (km/s) = 4.97295 7.37540 6.28994
#
# Compressibility (1/GPa) = 0.03584777
#
# Stress axis : x y z
#
# Youngs Moduli (GPa) = 157.68868 155.49302 22.27895
#
# Poissons Ratio (x) = 0.36352 0.08803
# Poissons Ratio (y) = 0.36865 0.10284
# Poissons Ratio (z) = 0.62306 0.71778
#
# Static dielectric constant tensor:
#      x y z
#    x 5.469290 0.000000 0.000000 
#    y 0.000000 5.043960 0.000000 
#    z 0.000000 0.000000 4.395050 
# 
# 
# High freq. dielectric constant tensor:
#      x y z
#    x 2.041840 0.000000 0.000000 
#    y 0.000000 2.038560 0.000000 
#    z 0.000000 0.000000 2.016940 
# 
# From -- ./inp_files/12565.got.cif
#   From: 2010.03.12/outbox.cif.g09.slc.cpg/sg50_7_cif.got.tgz:12565.got - 2010.04.16 13:23:21.
