data_PCOD8205264
_publ_section_title
;
Structure prediction by ZEFSAII (Michael W. Deem and Ramdas Pophale) SiO2 
 PCOD8205264
Probable space group: P B A N
;
_chemical_formula_sum "Si O2"
_cell_formula_units_Z 48
_cell_length_a 27.897964
_cell_length_b 9.314993
_cell_length_c 9.390760
_cell_angle_alpha 90.000000
_cell_angle_beta 90.000000
_cell_angle_gamma 90.000000
_cell_volume 2440.370597
_symmetry_space_group_name_H-M "P B A N"
_symmetry_group_IT_number 50
_space_group.IT_coordinate_system_code '2'
_symmetry_cell_setting 'orthorhombic'
loop_
_space_group_symop_operation_xyz
x,y,z
1/2-x,1/2-y,z
x,1/2-y,-z
1/2-x,y,-z
-x,-y,-z
1/2+x,1/2+y,-z
-x,1/2+y,z
1/2+x,-y,z
loop_
_atom_site_type_symbol
_atom_site_label
_atom_site_fract_x
_atom_site_fract_y
_atom_site_fract_z
Si Si1 0.101288 0.786532 0.334069
Si Si2 0.206502 0.831509 0.350462
Si Si3 0.884223 0.757946 0.158498
Si Si4 0.548215 0.994513 0.169533
Si Si5 0.204006 0.172163 0.349940
Si Si6 0.061593 0.537080 0.148933
O O1 0.098308 0.750000 0.500000
O O2 0.155648 0.802186 0.276055
O O3 0.073599 0.676005 0.237069
O O4 0.074300 0.935523 0.305430
O O5 0.250000 0.750000 0.264932
O O6 0.204309 0.750000 0.500000
O O7 0.214945 0.002414 0.367761
O O8 0.933945 0.669410 0.165490
O O9 0.843794 0.695889 0.260823
O O10 0.899435 0.919090 0.197999
O O11 0.862547 0.750000 0.000000
O O12 0.491804 0.009271 0.191905
O O13 0.563775 0.068583 0.020031
O O14 0.250000 0.250000 0.276204
O O15 0.195766 0.250000 0.500000
#
# Coordination Sequence:
#
# PCOD8205264 Si02
#       6
#     8   8   8   8   8   8
#     4  11  23  36  60  92 122 154 191 251 303 341
#     4  10  21  38  60  86 123 154 196 239 293 360
#     4  10  22  38  60  89 120 153 197 252 293 339
#     4  10  20  43  59  88 115 161 209 236 290 355
#     4  11  23  38  65  90 115 158 200 240 296 362
#     4  10  22  37  67  82 118 165 201 241 285 359
#
# _framework density 19.669143999999999
#
# number of rings (size 3 to 8) (size 9 to 14) (size 15 to 20)
#    0.000    1.667    1.667    3.500    7.000    3.667 
#    0.000    1.667    0.000    2.000    0.000    0.000 
#    0.000    0.000    0.000    0.000    0.000    0.000 
#
# Total GULP energy -594932.534593 kJ/mol
# GULP energy per Si atom -12394.427804 kJ/mol
# Density = 1.962438 g / cm^3
# Si number density = 19.669144 Si / 1000 Ang^3
#
#
#
# Elastic Constant Matrix: (Units=GPa)
#
#
# Indices 1 2 3 4 5 6 
#
# 1 122.5708 38.7568 41.9910 0.0000 0.0000 0.0000
# 2 38.7568 110.1381 32.0095 0.0000 0.0000 0.0000
# 3 41.9910 32.0095 54.0848 0.0000 0.0000 0.0000
# 4 0.0000 0.0000 0.0000 24.1690 0.0000 0.0000
# 5 0.0000 0.0000 0.0000 0.0000 26.7338 0.0000
# 6 0.0000 0.0000 0.0000 0.0000 0.0000 29.8741
#
#
#
# Elastic Compliance Matrix: (Units=1/GPa)
#
#
# Indices 1 2 3 4 5 6 
#
# 1 0.011383 -0.001736 -0.007811 0.000000 0.000000 0.000000
# 2 -0.001736 0.011230 -0.005299 0.000000 0.000000 0.000000
# 3 -0.007811 -0.005299 0.027690 0.000000 0.000000 0.000000
# 4 0.000000 0.000000 0.000000 0.041375 0.000000 0.000000
# 5 0.000000 0.000000 0.000000 0.000000 0.037406 0.000000
# 6 0.000000 0.000000 0.000000 0.000000 0.000000 0.033474
#
#
# Mechanical properties :
#
#
# Convention : Reuss Voigt Hill
#
# Bulk Modulus (GPa) = 48.51368 56.92316 52.71842
# Shear Modulus (GPa) = 25.11054 27.75780 26.43417
#
# Velocity S-wave (km/s) = 3.57690 3.76072 3.66996
# Velocity P-wave (km/s) = 6.46354 6.91813 6.69469
#
# Compressibility (1/GPa) = 0.02061274
#
# Stress axis : x y z
#
# Youngs Moduli (GPa) = 87.84907 89.04457 36.11448
#
# Poissons Ratio (x) = 0.15455 0.28207
# Poissons Ratio (y) = 0.15248 0.19137
# Poissons Ratio (z) = 0.68615 0.47185
#
# Static dielectric constant tensor:
#      x y z
#    x 4.233800 0.000000 0.000000 
#    y 0.000000 3.714520 0.000000 
#    z 0.000000 0.000000 3.392260 
# 
# 
# High freq. dielectric constant tensor:
#      x y z
#    x 1.783200 0.000000 0.000000 
#    y 0.000000 1.781630 0.000000 
#    z 0.000000 0.000000 1.736270 
# 
# From -- ./inp_files/10114.got.cif
#   From: 2010.03.12/outbox.cif.g09.slc.cpg/sg50_6_cif.got.tgz:10114.got - 2010.04.16 13:23:21.
