data_PCOD8205384
_publ_section_title
;
Structure prediction by ZEFSAII (Michael W. Deem and Ramdas Pophale) SiO2 
 PCOD8205384
Probable space group: P B A N
;
_chemical_formula_sum "Si O2"
_cell_formula_units_Z 38
_cell_length_a 5.074085
_cell_length_b 13.003835
_cell_length_c 26.592073
_cell_angle_alpha 90.000000
_cell_angle_beta 90.000000
_cell_angle_gamma 90.000000
_cell_volume 1754.613162
_symmetry_space_group_name_H-M "P B A N"
_symmetry_group_IT_number 50
_space_group.IT_coordinate_system_code '2'
_symmetry_cell_setting 'orthorhombic'
loop_
_space_group_symop_operation_xyz
x,y,z
1/2-x,1/2-y,z
x,1/2-y,-z
1/2-x,y,-z
-x,-y,-z
1/2+x,1/2+y,-z
-x,1/2+y,z
1/2+x,-y,z
loop_
_atom_site_type_symbol
_atom_site_label
_atom_site_fract_x
_atom_site_fract_y
_atom_site_fract_z
Si Si1 0.250000 0.570347 0.000000
Si Si2 0.250000 0.250000 0.749129
Si Si3 0.745029 0.070299 0.891479
Si Si4 0.750000 0.750000 0.500000
Si Si5 0.084307 0.436397 0.680059
Si Si6 0.250000 0.750000 0.184616
Si Si7 0.592693 0.567620 0.563421
O O1 0.237022 0.629863 0.053688
O O2 0.500000 0.500000 0.000000
O O3 0.154964 0.341581 0.714315
O O4 0.497698 0.282519 0.782790
O O5 0.678433 0.152458 0.849116
O O6 0.532812 0.979377 0.885568
O O7 0.567961 0.676311 0.534546
O O8 0.288040 0.528137 0.692303
O O9 0.099424 0.403829 0.622035
O O10 0.359497 0.491029 0.547980
#
# Coordination Sequence:
#
# PCOD8205384 Si02
#       7
#     4   4   8   2   8   4   8
#     4   8  16  33  58  81 106 148 192 225 272 339
#     4  12  25  40  58  88 114 148 201 236 286 354
#     4  10  21  39  59  83 117 151 187 235 284 337
#     4  12  22  38  64  88 128 162 178 238 300 330
#     4  10  22  42  64  84 114 154 196 244 286 331
#     4  12  26  37  58  90 118 149 190 236 292 354
#     4  10  23  40  60  90 119 152 199 236 281 348
#
# _framework density 21.657194
#
# number of rings (size 3 to 8) (size 9 to 14) (size 15 to 20)
#    0.000    1.684    0.000    3.789    0.000    7.158 
#    0.000    6.316    0.000    8.842    0.000    0.000 
#    0.000    0.000    0.000    0.000    0.000    0.000 
#
# Total GULP energy -471066.275222 kJ/mol
# GULP energy per Si atom -12396.480927 kJ/mol
# Density = 2.160790 g / cm^3
# Si number density = 21.657194 Si / 1000 Ang^3
#
#
#
# Elastic Constant Matrix: (Units=GPa)
#
#
# Indices 1 2 3 4 5 6 
#
# 1 114.5902 10.8369 31.2788 0.0000 0.0000 0.0000
# 2 10.8369 93.9116 64.8209 0.0000 0.0000 0.0000
# 3 31.2788 64.8209 112.9895 0.0000 0.0000 0.0000
# 4 0.0000 0.0000 0.0000 -12.0966 0.0000 0.0000
# 5 0.0000 0.0000 0.0000 0.0000 26.1008 0.0000
# 6 0.0000 0.0000 0.0000 0.0000 0.0000 16.2118
#
#
#
# Elastic Compliance Matrix: (Units=1/GPa)
#
#
# Indices 1 2 3 4 5 6 
#
# 1 0.009520 0.001193 -0.003320 0.000000 0.000000 0.000000
# 2 0.001193 0.017779 -0.010530 0.000000 0.000000 0.000000
# 3 -0.003320 -0.010530 0.015810 0.000000 0.000000 0.000000
# 4 0.000000 0.000000 0.000000 -0.082668 0.000000 0.000000
# 5 0.000000 0.000000 0.000000 0.000000 0.038313 0.000000
# 6 0.000000 0.000000 0.000000 0.000000 0.000000 0.061683
#
#
# Mechanical properties :
#
#
# Convention : Reuss Voigt Hill
#
# Bulk Modulus (GPa) = 56.19321 59.48495 57.83908
# Shear Modulus (GPa) = 54.53629 20.34685 37.44157
#
# Velocity S-wave (km/s) = 5.02357 3.06845 4.16243
# Velocity P-wave (km/s) = 7.72343 6.33088 7.06156
#
# Compressibility (1/GPa) = 0.01779575
#
# Stress axis : x y z
#
# Youngs Moduli (GPa) = 105.04068 56.24758 63.25062
#
# Poissons Ratio (x) = -0.06710 0.20998
# Poissons Ratio (y) = -0.12530 0.66600
# Poissons Ratio (z) = 0.34871 0.59226
#
# Static dielectric constant tensor:
#      x y z
#    x 4.098070 0.000000 0.000000 
#    y 0.000000 3.562920 0.000000 
#    z 0.000000 0.000000 4.539000 
# 
# 
# High freq. dielectric constant tensor:
#      x y z
#    x 1.863940 0.000000 0.000000 
#    y 0.000000 1.825280 0.000000 
#    z 0.000000 0.000000 1.880400 
# 
# From -- ./inp_files/31436.got.cif
#   From: 2010.03.12/outbox.cif.g09.slc.cpg/sg50_16_cif.got.tgz:31436.got - 2010.04.16 13:23:21.
