data_PCOD8205610
_publ_section_title
;
Structure prediction by ZEFSAII (Michael W. Deem and Ramdas Pophale) SiO2 
 PCOD8205610
Probable space group: P B A N
;
_chemical_formula_sum "Si O2"
_cell_formula_units_Z 56
_cell_length_a 13.331629
_cell_length_b 12.594842
_cell_length_c 15.098591
_cell_angle_alpha 90.000000
_cell_angle_beta 90.000000
_cell_angle_gamma 90.000000
_cell_volume 2535.200804
_symmetry_space_group_name_H-M "P B A N"
_symmetry_group_IT_number 50
_space_group.IT_coordinate_system_code '2'
_symmetry_cell_setting 'orthorhombic'
loop_
_space_group_symop_operation_xyz
x,y,z
1/2-x,1/2-y,z
x,1/2-y,-z
1/2-x,y,-z
-x,-y,-z
1/2+x,1/2+y,-z
-x,1/2+y,z
1/2+x,-y,z
loop_
_atom_site_type_symbol
_atom_site_label
_atom_site_fract_x
_atom_site_fract_y
_atom_site_fract_z
Si Si1 0.441221 0.849779 0.551937
Si Si2 0.001882 0.354043 0.245712
Si Si3 0.995104 0.309610 0.905980
Si Si4 0.865661 0.532658 0.182516
Si Si5 0.786487 0.637343 0.694875
Si Si6 0.144842 0.055572 0.524278
Si Si7 0.720548 0.362713 0.099793
O O1 0.395191 0.750000 0.500000
O O2 0.456793 0.826772 0.656302
O O3 0.547397 0.874209 0.503312
O O4 0.364666 0.945636 0.529877
O O5 0.965889 0.271784 0.172015
O O6 0.961290 0.469665 0.219611
O O7 0.122616 0.345065 0.236413
O O8 0.898449 0.386567 0.902777
O O9 0.094090 0.380587 0.888177
O O10 0.008302 0.250000 0.000000
O O11 0.814807 0.591559 0.264528
O O12 0.779157 0.459461 0.143170
O O13 0.750000 0.750000 0.652736
O O14 0.840844 0.550560 0.630352
O O15 0.250000 0.112642 0.500000
O O16 0.750000 0.250000 0.146683
O O17 0.750000 0.352852 0.000000
#
# Coordination Sequence:
#
# PCOD8205610 Si02
#       7
#     8   8   8   8   8   8   8
#     4  10  24  42  66 100 136 174 233 288 353 420
#     4  11  24  44  68 100 140 187 229 304 357 433
#     4  12  25  45  72 103 143 185 247 293 371 443
#     4  12  25  43  72  97 141 192 233 302 370 425
#     4  11  24  43  65 103 141 178 240 293 362 432
#     4  10  23  41  65  95 127 177 229 278 348 424
#     4  11  22  45  69  98 132 176 242 291 356 440
#
# _framework density 22.088979999999999
#
# number of rings (size 3 to 8) (size 9 to 14) (size 15 to 20)
#    0.000    1.000    4.286    1.714    4.000    8.286 
#    0.000    0.714    0.000    0.000    0.000    0.000 
#    0.000    0.000    0.000    0.000    0.000    0.000 
#
# Total GULP energy -693741.159179 kJ/mol
# GULP energy per Si atom -12388.234985 kJ/mol
# Density = 2.203870 g / cm^3
# Si number density = 22.088980 Si / 1000 Ang^3
#
#
#
# Elastic Constant Matrix: (Units=GPa)
#
#
# Indices 1 2 3 4 5 6 
#
# 1 103.4042 27.5224 23.9649 0.0000 0.0000 0.0000
# 2 27.5224 106.9799 59.3210 0.0000 0.0000 0.0000
# 3 23.9649 59.3210 108.8353 0.0000 0.0000 0.0000
# 4 0.0000 0.0000 0.0000 45.0703 0.0000 0.0000
# 5 0.0000 0.0000 0.0000 0.0000 36.6790 0.0000
# 6 0.0000 0.0000 0.0000 0.0000 0.0000 33.5670
#
#
#
# Elastic Compliance Matrix: (Units=1/GPa)
#
#
# Indices 1 2 3 4 5 6 
#
# 1 0.010490 -0.002032 -0.001202 0.000000 0.000000 0.000000
# 2 -0.002032 0.013790 -0.007069 0.000000 0.000000 0.000000
# 3 -0.001202 -0.007069 0.013306 0.000000 0.000000 0.000000
# 4 0.000000 0.000000 0.000000 0.022188 0.000000 0.000000
# 5 0.000000 0.000000 0.000000 0.000000 0.027264 0.000000
# 6 0.000000 0.000000 0.000000 0.000000 0.000000 0.029791
#
#
# Mechanical properties :
#
#
# Convention : Reuss Voigt Hill
#
# Bulk Modulus (GPa) = 58.89400 60.09290 59.49345
# Shear Modulus (GPa) = 34.94183 36.95733 35.94958
#
# Velocity S-wave (km/s) = 3.98158 4.09481 4.03859
# Velocity P-wave (km/s) = 6.91790 7.04419 6.98133
#
# Compressibility (1/GPa) = 0.01697966
#
# Stress axis : x y z
#
# Youngs Moduli (GPa) = 95.32611 72.51588 75.15503
#
# Poissons Ratio (x) = 0.14736 0.09036
# Poissons Ratio (y) = 0.19372 0.53126
# Poissons Ratio (z) = 0.11461 0.51260
#
# Static dielectric constant tensor:
#      x y z
#    x 4.162000 0.000000 0.000000 
#    y 0.000000 5.761110 0.000000 
#    z 0.000000 0.000000 4.008980 
# 
# 
# High freq. dielectric constant tensor:
#      x y z
#    x 1.885450 0.000000 0.000000 
#    y 0.000000 1.860760 0.000000 
#    z 0.000000 0.000000 1.861640 
# 
# From -- ./inp_files/26503.got.cif
#   From: 2010.03.12/outbox.cif.g09.slc.cpg/sg50_14_cif.got.tgz:26503.got - 2010.04.16 13:23:21.
