data_PCOD8205641
_publ_section_title
;
Structure prediction by ZEFSAII (Michael W. Deem and Ramdas Pophale) SiO2 
 PCOD8205641
Probable space group: P B A N
;
_chemical_formula_sum "Si O2"
_cell_formula_units_Z 46
_cell_length_a 10.475675
_cell_length_b 9.317396
_cell_length_c 21.783196
_cell_angle_alpha 90.000000
_cell_angle_beta 90.000000
_cell_angle_gamma 90.000000
_cell_volume 2126.170898
_symmetry_space_group_name_H-M "P B A N"
_symmetry_group_IT_number 50
_space_group.IT_coordinate_system_code '2'
_symmetry_cell_setting 'orthorhombic'
loop_
_space_group_symop_operation_xyz
x,y,z
1/2-x,1/2-y,z
x,1/2-y,-z
1/2-x,y,-z
-x,-y,-z
1/2+x,1/2+y,-z
-x,1/2+y,z
1/2+x,-y,z
loop_
_atom_site_type_symbol
_atom_site_label
_atom_site_fract_x
_atom_site_fract_y
_atom_site_fract_z
Si Si1 0.250000 0.750000 0.608012
Si Si2 0.999593 0.365768 0.543855
Si Si3 0.601616 0.393200 0.707550
Si Si4 0.887921 0.689122 0.331597
Si Si5 0.623760 0.170783 0.155273
Si Si6 0.369523 0.339130 0.117029
Si Si7 0.250000 0.250000 0.000000
O O1 0.141363 0.815855 0.564836
O O2 0.289657 0.875796 0.655683
O O3 0.064224 0.250000 0.500000
O O4 0.000000 0.500000 0.500000
O O5 0.089591 0.386568 0.602540
O O6 0.584480 0.564308 0.718579
O O7 0.475927 0.325603 0.678157
O O8 0.630473 0.315514 0.771328
O O9 0.750000 0.750000 0.323854
O O10 0.750000 0.250000 0.128496
O O11 0.499285 0.252188 0.130103
O O12 0.621027 0.002753 0.138753
O O13 0.250000 0.250000 0.148091
O O14 0.342339 0.346065 0.043531
#
# Coordination Sequence:
#
# PCOD8205641 Si02
#       7
#     4   8   8   8   8   8   2
#     4  10  23  44  68  92 134 173 212 282 352 418
#     4  11  24  44  66  93 123 169 226 285 344 411
#     4  11  25  44  68  97 143 171 224 281 355 416
#     4  11  27  44  67  98 130 180 225 280 360 428
#     4  12  24  43  74 112 139 192 241 298 352 423
#     4  10  24  47  71 105 153 189 244 286 352 412
#     4   8  24  52  68 100 156 200 232 300 342 412
#
# _framework density 21.635138000000001
#
# number of rings (size 3 to 8) (size 9 to 14) (size 15 to 20)
#    0.522    0.696    0.870    4.435    7.304    5.217 
#    0.000    0.000    0.000    0.000    0.000    0.000 
#    0.000    0.000    0.000    0.000    0.000    0.000 
#
# Total GULP energy -570040.369574 kJ/mol
# GULP energy per Si atom -12392.181947 kJ/mol
# Density = 2.158590 g / cm^3
# Si number density = 21.635138 Si / 1000 Ang^3
#
#
#
# Elastic Constant Matrix: (Units=GPa)
#
#
# Indices 1 2 3 4 5 6 
#
# 1 116.0054 65.2948 36.3927 0.0000 0.0000 0.0000
# 2 65.2948 165.3719 35.7694 0.0000 0.0000 0.0000
# 3 36.3927 35.7694 105.8888 0.0000 0.0000 0.0000
# 4 0.0000 0.0000 0.0000 30.5398 0.0000 0.0000
# 5 0.0000 0.0000 0.0000 0.0000 10.1303 0.0000
# 6 0.0000 0.0000 0.0000 0.0000 0.0000 37.3411
#
#
#
# Elastic Compliance Matrix: (Units=1/GPa)
#
#
# Indices 1 2 3 4 5 6 
#
# 1 0.011741 -0.004060 -0.002664 0.000000 0.000000 0.000000
# 2 -0.004060 0.007927 -0.001283 0.000000 0.000000 0.000000
# 3 -0.002664 -0.001283 0.010793 0.000000 0.000000 0.000000
# 4 0.000000 0.000000 0.000000 0.032744 0.000000 0.000000
# 5 0.000000 0.000000 0.000000 0.000000 0.098714 0.000000
# 6 0.000000 0.000000 0.000000 0.000000 0.000000 0.026780
#
#
# Mechanical properties :
#
#
# Convention : Reuss Voigt Hill
#
# Bulk Modulus (GPa) = 69.21011 73.57554 71.39282
# Shear Modulus (GPa) = 23.86322 32.25619 28.05971
#
# Velocity S-wave (km/s) = 3.32472 3.86543 3.60523
# Velocity P-wave (km/s) = 6.84087 7.34869 7.09932
#
# Compressibility (1/GPa) = 0.01444876
#
# Stress axis : x y z
#
# Youngs Moduli (GPa) = 85.17189 126.14689 92.65530
#
# Poissons Ratio (x) = 0.51210 0.24682
# Poissons Ratio (y) = 0.34576 0.11884
# Poissons Ratio (z) = 0.22689 0.16180
#
# Static dielectric constant tensor:
#      x y z
#    x 4.146820 0.000000 0.000000 
#    y 0.000000 3.931410 0.000000 
#    z 0.000000 0.000000 3.970220 
# 
# 
# High freq. dielectric constant tensor:
#      x y z
#    x 1.851540 0.000000 0.000000 
#    y 0.000000 1.861230 0.000000 
#    z 0.000000 0.000000 1.848250 
# 
# From -- ./inp_files/31669.got.cif
#   From: 2010.03.12/outbox.cif.g09.slc.cpg/sg50_16_cif.got.tgz:31669.got - 2010.04.16 13:23:21.
