data_PCOD8205686
_publ_section_title
;
Structure prediction by ZEFSAII (Michael W. Deem and Ramdas Pophale) SiO2 
 PCOD8205686
Probable space group: P B A N
;
_chemical_formula_sum "Si O2"
_cell_formula_units_Z 32
_cell_length_a 5.496370
_cell_length_b 18.036749
_cell_length_c 13.646190
_cell_angle_alpha 90.000000
_cell_angle_beta 90.000000
_cell_angle_gamma 90.000000
_cell_volume 1352.837509
_symmetry_space_group_name_H-M "P B A N"
_symmetry_group_IT_number 50
_space_group.IT_coordinate_system_code '2'
_symmetry_cell_setting 'orthorhombic'
loop_
_space_group_symop_operation_xyz
x,y,z
1/2-x,1/2-y,z
x,1/2-y,-z
1/2-x,y,-z
-x,-y,-z
1/2+x,1/2+y,-z
-x,1/2+y,z
1/2+x,-y,z
loop_
_atom_site_type_symbol
_atom_site_label
_atom_site_fract_x
_atom_site_fract_y
_atom_site_fract_z
Si Si1 0.907083 0.819906 0.344046
Si Si2 0.750000 0.250000 0.500000
Si Si3 0.268074 0.470579 0.388538
Si Si4 0.890132 0.173173 0.862383
Si Si5 0.250000 0.250000 0.000000
Si Si6 0.250000 0.951540 0.000000
O O1 0.750000 0.750000 0.312457
O O2 0.719262 0.881895 0.381178
O O3 0.089509 0.803353 0.432535
O O4 0.045284 0.848976 0.248327
O O5 0.250000 0.499254 0.500000
O O6 0.513715 0.502220 0.337667
O O7 0.750000 0.250000 0.861151
O O8 0.114343 0.190210 0.932773
O O9 0.742125 0.102771 0.904944
O O10 0.500000 0.000000 0.000000
#
# Coordination Sequence:
#
# PCOD8205686 Si02
#       6
#     8   2   8   8   2   4
#     4  12  27  44  74 109 149 198 260 323 378 452
#     4  12  26  44  68 112 152 192 264 332 386 426
#     4  10  24  44  70  97 142 199 245 299 374 443
#     4  12  25  46  79 108 146 204 252 305 389 473
#     4  12  20  48  80 102 144 190 250 314 366 472
#     4  12  28  48  79 117 160 196 250 332 400 460
#
# _framework density 23.653988999999999
#
# number of rings (size 3 to 8) (size 9 to 14) (size 15 to 20)
#    0.000    0.500    5.000    2.625    8.750    2.000 
#    0.000    0.000    0.000    0.000    0.000    0.000 
#    0.000    0.000    0.000    0.000    0.000    0.000 
#
# Total GULP energy -396681.507166 kJ/mol
# GULP energy per Si atom -12396.297099 kJ/mol
# Density = 2.360015 g / cm^3
# Si number density = 23.653989 Si / 1000 Ang^3
#
#
#
# Elastic Constant Matrix: (Units=GPa)
#
#
# Indices 1 2 3 4 5 6 
#
# 1 143.4935 43.5091 28.2089 0.0000 0.0000 0.0000
# 2 43.5091 106.8183 8.1866 0.0000 0.0000 0.0000
# 3 28.2089 8.1866 128.3770 0.0000 0.0000 0.0000
# 4 0.0000 0.0000 0.0000 -20.5219 0.0000 0.0000
# 5 0.0000 0.0000 0.0000 0.0000 109.5339 0.0000
# 6 0.0000 0.0000 0.0000 0.0000 0.0000 52.2513
#
#
#
# Elastic Compliance Matrix: (Units=1/GPa)
#
#
# Indices 1 2 3 4 5 6 
#
# 1 0.008269 -0.003245 -0.001610 0.000000 0.000000 0.000000
# 2 -0.003245 0.010681 0.000032 0.000000 0.000000 0.000000
# 3 -0.001610 0.000032 0.008141 0.000000 0.000000 0.000000
# 4 0.000000 0.000000 0.000000 -0.048728 0.000000 0.000000
# 5 0.000000 0.000000 0.000000 0.000000 0.009130 0.000000
# 6 0.000000 0.000000 0.000000 0.000000 0.000000 0.019138
#
#
# Mechanical properties :
#
#
# Convention : Reuss Voigt Hill
#
# Bulk Modulus (GPa) = 57.32171 59.83310 58.57741
# Shear Modulus (GPa) = 226.32197 48.17161 137.24679
#
# Velocity S-wave (km/s) = 9.79224 4.51767 7.62553
# Velocity P-wave (km/s) = 12.33437 7.25000 10.11680
#
# Compressibility (1/GPa) = 0.01744540
#
# Stress axis : x y z
#
# Youngs Moduli (GPa) = 120.92813 93.62473 122.83004
#
# Poissons Ratio (x) = 0.30380 0.19777
# Poissons Ratio (y) = 0.39240 -0.00392
# Poissons Ratio (z) = 0.19471 -0.00299
#
# Static dielectric constant tensor:
#      x y z
#    x 4.412180 0.000000 0.000000 
#    y 0.000000 4.229710 0.000000 
#    z 0.000000 0.000000 4.164120 
# 
# 
# High freq. dielectric constant tensor:
#      x y z
#    x 1.943640 0.000000 0.000000 
#    y 0.000000 1.946750 0.000000 
#    z 0.000000 0.000000 1.928280 
# 
# From -- ./inp_files/23694.got.cif
#   From: 2010.03.12/outbox.cif.g09.slc.cpg/sg50_12_cif.got.tgz:23694.got - 2010.04.16 13:23:21.
