data_PCOD8205682
_publ_section_title
;
Structure prediction by ZEFSAII (Michael W. Deem and Ramdas Pophale) SiO2 
 PCOD8205682
Probable space group: P B A N
;
_chemical_formula_sum "Si O2"
_cell_formula_units_Z 48
_cell_length_a 18.200110
_cell_length_b 9.395493
_cell_length_c 13.297957
_cell_angle_alpha 90.000000
_cell_angle_beta 90.000000
_cell_angle_gamma 90.000000
_cell_volume 2273.937430
_symmetry_space_group_name_H-M "P B A N"
_symmetry_group_IT_number 50
_space_group.IT_coordinate_system_code '2'
_symmetry_cell_setting 'orthorhombic'
loop_
_space_group_symop_operation_xyz
x,y,z
1/2-x,1/2-y,z
x,1/2-y,-z
1/2-x,y,-z
-x,-y,-z
1/2+x,1/2+y,-z
-x,1/2+y,z
1/2+x,-y,z
loop_
_atom_site_type_symbol
_atom_site_label
_atom_site_fract_x
_atom_site_fract_y
_atom_site_fract_z
Si Si1 0.760234 0.910001 0.181926
Si Si2 0.747749 0.026184 0.611388
Si Si3 0.959800 0.268566 0.196563
Si Si4 0.344569 0.603768 0.056070
Si Si5 0.417873 0.472711 0.872202
Si Si6 0.375092 0.756442 0.389948
O O1 0.750000 0.750000 0.141530
O O2 0.731719 0.919530 0.297073
O O3 0.725146 0.018265 0.100034
O O4 0.844295 0.954477 0.190564
O O5 0.750000 0.952542 0.500000
O O6 0.666801 0.094162 0.630818
O O7 0.811217 0.141624 0.615144
O O8 0.890698 0.350502 0.151768
O O9 0.965380 0.105860 0.163510
O O10 0.944187 0.272358 0.315951
O O11 0.034589 0.333670 0.152752
O O12 0.319934 0.750000 0.000000
O O13 0.395225 0.497855 0.988911
O O14 0.411696 0.750000 0.500000
#
# Coordination Sequence:
#
# PCOD8205682 Si02
#       6
#     8   8   8   8   8   8
#     4  12  25  42  67  99 135 167 220 289 340 388
#     4   9  18  36  66  99 126 164 219 279 337 397
#     4  11  22  42  65  92 131 175 222 268 336 405
#     4  10  24  44  68  93 122 177 225 275 333 404
#     4  11  26  41  64  93 131 176 220 269 332 409
#     4   9  17  34  67  97 122 165 223 277 327 400
#
# _framework density 21.108761999999999
#
# number of rings (size 3 to 8) (size 9 to 14) (size 15 to 20)
#    0.000    1.667    3.333    2.000    2.333    6.333 
#    0.000    0.833    3.667    0.000    0.000    0.000 
#    0.000    0.000    0.000    0.000    0.000    0.000 
#
# Total GULP energy -594806.438727 kJ/mol
# GULP energy per Si atom -12391.800807 kJ/mol
# Density = 2.106072 g / cm^3
# Si number density = 21.108762 Si / 1000 Ang^3
#
#
#
# Elastic Constant Matrix: (Units=GPa)
#
#
# Indices 1 2 3 4 5 6 
#
# 1 85.7059 49.0277 43.4147 0.0000 0.0000 0.0000
# 2 49.0277 94.8123 62.3108 0.0000 0.0000 0.0000
# 3 43.4147 62.3108 144.9902 0.0000 0.0000 0.0000
# 4 0.0000 0.0000 0.0000 21.8419 0.0000 0.0000
# 5 0.0000 0.0000 0.0000 0.0000 14.5401 0.0000
# 6 0.0000 0.0000 0.0000 0.0000 0.0000 27.2539
#
#
#
# Elastic Compliance Matrix: (Units=1/GPa)
#
#
# Indices 1 2 3 4 5 6 
#
# 1 0.016906 -0.007547 -0.001819 0.000000 0.000000 0.000000
# 2 -0.007547 0.018067 -0.005505 0.000000 0.000000 0.000000
# 3 -0.001819 -0.005505 0.009807 0.000000 0.000000 0.000000
# 4 0.000000 0.000000 0.000000 0.045784 0.000000 0.000000
# 5 0.000000 0.000000 0.000000 0.000000 0.068775 0.000000
# 6 0.000000 0.000000 0.000000 0.000000 0.000000 0.036692
#
#
# Mechanical properties :
#
#
# Convention : Reuss Voigt Hill
#
# Bulk Modulus (GPa) = 66.49013 70.55719 68.52366
# Shear Modulus (GPa) = 21.66502 24.11087 22.88794
#
# Velocity S-wave (km/s) = 3.20715 3.38334 3.29642
# Velocity P-wave (km/s) = 6.72916 6.98289 6.85720
#
# Compressibility (1/GPa) = 0.01503983
#
# Stress axis : x y z
#
# Youngs Moduli (GPa) = 59.14924 55.34806 101.96340
#
# Poissons Ratio (x) = 0.41771 0.18547
# Poissons Ratio (y) = 0.44639 0.56130
# Poissons Ratio (z) = 0.10759 0.30468
#
# Static dielectric constant tensor:
#      x y z
#    x 3.491760 0.000000 0.000000 
#    y 0.000000 3.861730 0.000000 
#    z 0.000000 0.000000 4.321070 
# 
# 
# High freq. dielectric constant tensor:
#      x y z
#    x 1.806050 0.000000 0.000000 
#    y 0.000000 1.808810 0.000000 
#    z 0.000000 0.000000 1.842970 
# 
# From -- ./inp_files/26872.got.cif
#   From: 2010.03.12/outbox.cif.g09.slc.cpg/sg50_14_cif.got.tgz:26872.got - 2010.04.16 13:23:21.
