data_PCOD8205950
_publ_section_title
;
Structure prediction by ZEFSAII (Michael W. Deem and Ramdas Pophale) SiO2 
 PCOD8205950
Probable space group: P M M A
;
_chemical_formula_sum "Si O2"
_cell_formula_units_Z 40
_cell_length_a 26.277476
_cell_length_b 9.120615
_cell_length_c 9.573329
_cell_angle_alpha 90.000000
_cell_angle_beta 90.000000
_cell_angle_gamma 90.000000
_cell_volume 2294.408569
_symmetry_space_group_name_H-M "P M M A"
_symmetry_group_IT_number 51
_symmetry_cell_setting 'orthorhombic'
loop_
_space_group_symop_operation_xyz
x,y,z
1/2-x,-y,z
1/2+x,-y,-z
-x,y,-z
-x,-y,-z
1/2+x,y,-z
1/2-x,y,z
x,-y,z
loop_
_atom_site_type_symbol
_atom_site_label
_atom_site_fract_x
_atom_site_fract_y
_atom_site_fract_z
Si Si1 0.642203 0.161513 0.086301
Si Si2 0.545541 0.671923 0.092178
Si Si3 0.450950 0.672493 0.588062
Si Si4 0.850301 0.833230 0.418769
Si Si5 0.250000 0.170748 0.882494
Si Si6 0.250000 0.674514 0.594165
O O1 0.599502 0.272350 0.031575
O O2 0.649304 0.171741 0.252116
O O3 0.698786 0.197111 0.024748
O O4 0.624244 0.000000 0.041225
O O5 0.546061 0.500000 0.075303
O O6 0.538354 0.720507 0.252309
O O7 0.500000 0.740252 0.000000
O O8 0.500000 0.719984 0.500000
O O9 0.440263 0.500000 0.577512
O O10 0.401860 0.755865 0.526040
O O11 0.800864 0.744913 0.475308
O O12 0.848419 0.000000 0.474495
O O13 0.250000 0.286804 0.757334
O O14 0.250000 0.000000 0.826443
O O15 0.250000 0.500000 0.572672
#
# Coordination Sequence:
#
# PCOD8205950 Si02
#       6
#     8   8   8   8   4   4
#     4   8  14  24  38  56  79 106 134 166 204 245
#     4   9  17  28  41  59  84 111 137 168 206 245
#     4   9  17  29  44  62  84 110 141 176 210 245
#     4   9  16  26  39  57  83 111 138 171 211 251
#     4   8  14  24  36  54  81 108 133 166 210 250
#     4  10  16  22  36  58  83 110 139 170 208 252
#
# _framework density 17.433685000000001
#
# number of rings (size 3 to 8) (size 9 to 14) (size 15 to 20)
#    0.000    3.200    0.000    2.700    0.000    5.600 
#    0.000    0.000    0.000    0.000    0.000    1.400 
#    0.000    9.600    0.000    0.000    0.000    0.000 
#
# Total GULP energy -495645.891074 kJ/mol
# GULP energy per Si atom -12391.147277 kJ/mol
# Density = 1.739401 g / cm^3
# Si number density = 17.433685 Si / 1000 Ang^3
#
#
#
# Elastic Constant Matrix: (Units=GPa)
#
#
# Indices 1 2 3 4 5 6 
#
# 1 200.7749 65.4087 37.4069 0.0000 0.0000 0.0000
# 2 65.4087 72.5921 18.4366 0.0000 0.0000 0.0000
# 3 37.4069 18.4366 22.1987 0.0000 0.0000 0.0000
# 4 0.0000 0.0000 0.0000 8.0256 0.0000 0.0000
# 5 0.0000 0.0000 0.0000 0.0000 20.4187 0.0000
# 6 0.0000 0.0000 0.0000 0.0000 0.0000 37.1640
#
#
#
# Elastic Compliance Matrix: (Units=1/GPa)
#
#
# Indices 1 2 3 4 5 6 
#
# 1 0.008536 -0.005118 -0.010134 0.000000 0.000000 0.000000
# 2 -0.005118 0.020526 -0.008424 0.000000 0.000000 0.000000
# 3 -0.010134 -0.008424 0.069120 0.000000 0.000000 0.000000
# 4 0.000000 0.000000 0.000000 0.124602 0.000000 0.000000
# 5 0.000000 0.000000 0.000000 0.000000 0.048975 0.000000
# 6 0.000000 0.000000 0.000000 0.000000 0.000000 0.026908
#
#
# Mechanical properties :
#
#
# Convention : Reuss Voigt Hill
#
# Bulk Modulus (GPa) = 19.67267 59.78558 39.72912
# Shear Modulus (GPa) = 13.77559 24.74256 19.25908
#
# Velocity S-wave (km/s) = 2.81405 3.77137 3.32732
# Velocity P-wave (km/s) = 4.67625 7.30287 6.13185
#
# Compressibility (1/GPa) = 0.05083194
#
# Stress axis : x y z
#
# Youngs Moduli (GPa) = 117.15198 48.71812 14.46757
#
# Poissons Ratio (x) = 0.24932 0.14661
# Poissons Ratio (y) = 0.59953 0.12188
# Poissons Ratio (z) = 1.18717 0.41040
#
# Static dielectric constant tensor:
#      x y z
#    x 3.881990 0.000000 0.000000 
#    y 0.000000 3.215010 0.000000 
#    z 0.000000 0.000000 2.627410 
# 
# 
# High freq. dielectric constant tensor:
#      x y z
#    x 1.702790 0.000000 0.000000 
#    y 0.000000 1.672150 0.000000 
#    z 0.000000 0.000000 1.585910 
# 
# From -- ./inp_files/12223.got.cif
#   From: 2010.03.12/outbox.cif.g09.slc.cpg/sg51_7_cif.got.tgz:12223.got - 2010.04.16 13:43:02.
