data_PCOD8205019
_publ_section_title
;
Structure prediction by ZEFSAII (Michael W. Deem and Ramdas Pophale) SiO2 
 PCOD8205019
Probable space group: P B A N
;
_chemical_formula_sum "Si O2"
_cell_formula_units_Z 48
_cell_length_a 16.451980
_cell_length_b 12.968042
_cell_length_c 10.922495
_cell_angle_alpha 90.000000
_cell_angle_beta 90.000000
_cell_angle_gamma 90.000000
_cell_volume 2330.313955
_symmetry_space_group_name_H-M "P B A N"
_symmetry_group_IT_number 50
_space_group.IT_coordinate_system_code '2'
_symmetry_cell_setting 'orthorhombic'
loop_
_space_group_symop_operation_xyz
x,y,z
1/2-x,1/2-y,z
x,1/2-y,-z
1/2-x,y,-z
-x,-y,-z
1/2+x,1/2+y,-z
-x,1/2+y,z
1/2+x,-y,z
loop_
_atom_site_type_symbol
_atom_site_label
_atom_site_fract_x
_atom_site_fract_y
_atom_site_fract_z
Si Si1 0.490203 0.382265 0.850017
Si Si2 0.609822 0.021086 0.319678
Si Si3 0.765091 0.370654 0.777534
Si Si4 0.977985 0.669928 0.266069
Si Si5 0.093622 0.928739 0.931223
Si Si6 0.880329 0.353341 0.558468
O O1 0.523696 0.434564 0.726650
O O2 0.451814 0.275122 0.802847
O O3 0.421888 0.446865 0.925507
O O4 0.569280 0.374679 0.940332
O O5 0.602471 0.896640 0.302453
O O6 0.683055 0.064066 0.236521
O O7 0.616049 0.054048 0.460769
O O8 0.750000 0.250000 0.786417
O O9 0.812324 0.405053 0.901180
O O10 0.821011 0.397041 0.661624
O O11 0.034039 0.612350 0.170969
O O12 0.032268 0.683049 0.388513
O O13 0.841252 0.250000 0.500000
#
# Coordination Sequence:
#
# PCOD8205019 Si02
#       6
#     8   8   8   8   8   8
#     4  10  19  38  57  79 112 145 191 241 290 357
#     4  11  21  33  54  84 114 147 194 241 299 354
#     4  11  21  35  56  83 115 149 187 246 305 356
#     4  10  20  34  56  82 108 151 193 243 287 350
#     4   9  21  36  57  82 109 148 189 235 298 359
#     4  11  19  35  56  78 114 154 197 243 297 350
#
# _framework density 20.598084
#
# number of rings (size 3 to 8) (size 9 to 14) (size 15 to 20)
#    0.000    1.667    3.333    2.500    0.000    0.667 
#    0.000    3.333    0.000    0.000    0.000    7.000 
#    0.000    0.000    0.000    0.000    0.000    0.000 
#
# Total GULP energy -594827.250490 kJ/mol
# GULP energy per Si atom -12392.234385 kJ/mol
# Density = 2.055120 g / cm^3
# Si number density = 20.598084 Si / 1000 Ang^3
#
#
#
# Elastic Constant Matrix: (Units=GPa)
#
#
# Indices 1 2 3 4 5 6 
#
# 1 68.9621 42.0078 19.0735 0.0000 0.0000 0.0000
# 2 42.0078 134.2876 38.2934 0.0000 0.0000 0.0000
# 3 19.0735 38.2934 78.6649 0.0000 0.0000 0.0000
# 4 0.0000 0.0000 0.0000 34.5168 0.0000 0.0000
# 5 0.0000 0.0000 0.0000 0.0000 17.0467 0.0000
# 6 0.0000 0.0000 0.0000 0.0000 0.0000 30.2856
#
#
#
# Elastic Compliance Matrix: (Units=1/GPa)
#
#
# Indices 1 2 3 4 5 6 
#
# 1 0.018156 -0.005137 -0.001901 0.000000 0.000000 0.000000
# 2 -0.005137 0.010101 -0.003671 0.000000 0.000000 0.000000
# 3 -0.001901 -0.003671 0.014960 0.000000 0.000000 0.000000
# 4 0.000000 0.000000 0.000000 0.028971 0.000000 0.000000
# 5 0.000000 0.000000 0.000000 0.000000 0.058662 0.000000
# 6 0.000000 0.000000 0.000000 0.000000 0.000000 0.033019
#
#
# Mechanical properties :
#
#
# Convention : Reuss Voigt Hill
#
# Bulk Modulus (GPa) = 45.87802 53.40712 49.64257
# Shear Modulus (GPa) = 25.96656 28.53915 27.25286
#
# Velocity S-wave (km/s) = 3.55439 3.72630 3.64136
# Velocity P-wave (km/s) = 6.25829 6.67070 6.46778
#
# Compressibility (1/GPa) = 0.02179693
#
# Stress axis : x y z
#
# Youngs Moduli (GPa) = 55.07826 99.00334 66.84344
#
# Poissons Ratio (x) = 0.50861 0.12710
# Poissons Ratio (y) = 0.28296 0.24540
# Poissons Ratio (z) = 0.10473 0.36347
#
# Static dielectric constant tensor:
#      x y z
#    x 3.684090 0.000000 0.000000 
#    y 0.000000 4.059020 0.000000 
#    z 0.000000 0.000000 4.078770 
# 
# 
# High freq. dielectric constant tensor:
#      x y z
#    x 1.768990 0.000000 0.000000 
#    y 0.000000 1.791910 0.000000 
#    z 0.000000 0.000000 1.823530 
# 
# From -- ./inp_files/21781.got.cif
#   From: 2010.03.12/outbox.cif.g09.slc.cpg/sg50_11_cif.got.tgz:21781.got - 2010.04.16 13:23:21.
