data_PCOD8205993
_publ_section_title
;
Structure prediction by ZEFSAII (Michael W. Deem and Ramdas Pophale) SiO2 
 PCOD8205993
Probable space group: P M M A
;
_chemical_formula_sum "Si O2"
_cell_formula_units_Z 56
_cell_length_a 21.583778
_cell_length_b 8.656658
_cell_length_c 14.973151
_cell_angle_alpha 90.000000
_cell_angle_beta 90.000000
_cell_angle_gamma 90.000000
_cell_volume 2797.634209
_symmetry_space_group_name_H-M "P M M A"
_symmetry_group_IT_number 51
_symmetry_cell_setting 'orthorhombic'
loop_
_space_group_symop_operation_xyz
x,y,z
1/2-x,-y,z
1/2+x,-y,-z
-x,y,-z
-x,-y,-z
1/2+x,y,-z
1/2-x,y,z
x,-y,z
loop_
_atom_site_type_symbol
_atom_site_label
_atom_site_fract_x
_atom_site_fract_y
_atom_site_fract_z
Si Si1 0.629276 0.316555 0.859148
Si Si2 0.177198 0.321760 0.762382
Si Si3 0.079985 0.179205 0.636187
Si Si4 0.124528 0.679816 0.463667
Si Si5 0.957783 0.681319 0.706379
Si Si6 0.250000 0.317828 0.234739
Si Si7 0.319253 0.683509 0.960407
Si Si8 0.750000 0.820082 0.574051
O O1 0.632538 0.500000 0.854802
O O2 0.568764 0.264527 0.803352
O O3 0.689413 0.245268 0.810882
O O4 0.631795 0.260518 0.963062
O O5 0.250000 0.301269 0.745892
O O6 0.157547 0.500000 0.749513
O O7 0.141364 0.217208 0.692077
O O8 0.159428 0.261706 0.862175
O O9 0.078392 0.273974 0.543640
O O10 0.020109 0.223789 0.693416
O O11 0.078691 0.000000 0.612911
O O12 0.140279 0.500000 0.468581
O O13 0.092614 0.722079 0.369634
O O14 0.187876 0.775315 0.479530
O O15 0.973211 0.500000 0.704343
O O16 0.250000 0.500000 0.221721
O O17 0.250000 0.282073 0.338092
O O18 0.250000 0.746351 0.982486
O O19 0.315664 0.500000 0.958892
O O20 0.750000 0.000000 0.595977
#
# Coordination Sequence:
#
# PCOD8205993 Si02
#       8
#     8   8   8   8   8   4   8   4
#     4   9  15  27  54  89 119 146 184 234 285 333
#     4   9  19  37  61  87 112 143 187 241 292 340
#     4  12  26  41  58  80 112 153 193 238 289 342
#     4  11  23  41  64  86 112 149 193 239 284 335
#     4  10  21  38  60  85 113 151 194 233 278 339
#     4  10  16  30  54  83 118 155 190 229 278 332
#     4   8  13  25  52  89 119 140 177 238 295 334
#     4  12  24  36  54  87 126 155 184 229 280 336
#
# _framework density 20.016912000000001
#
# number of rings (size 3 to 8) (size 9 to 14) (size 15 to 20)
#    0.000    2.000    2.143    3.643    1.000    3.143 
#    0.000    0.714    0.000    6.000    0.000    0.000 
#    0.000    0.000    0.000    0.000    0.000    0.000 
#
# Total GULP energy -694236.416818 kJ/mol
# GULP energy per Si atom -12397.078872 kJ/mol
# Density = 1.997135 g / cm^3
# Si number density = 20.016912 Si / 1000 Ang^3
#
#
#
# Elastic Constant Matrix: (Units=GPa)
#
#
# Indices 1 2 3 4 5 6 
#
# 1 71.4418 25.5798 16.5668 0.0000 0.0000 0.0000
# 2 25.5798 38.5153 21.7634 0.0000 0.0000 0.0000
# 3 16.5668 21.7634 90.7527 0.0000 0.0000 0.0000
# 4 0.0000 0.0000 0.0000 1.1792 0.0000 0.0000
# 5 0.0000 0.0000 0.0000 0.0000 25.5656 0.0000
# 6 0.0000 0.0000 0.0000 0.0000 0.0000 8.1821
#
#
#
# Elastic Compliance Matrix: (Units=1/GPa)
#
#
# Indices 1 2 3 4 5 6 
#
# 1 0.018384 -0.011930 -0.000495 0.000000 0.000000 0.000000
# 2 -0.011930 0.037775 -0.006881 0.000000 0.000000 0.000000
# 3 -0.000495 -0.006881 0.012759 0.000000 0.000000 0.000000
# 4 0.000000 0.000000 0.000000 0.848011 0.000000 0.000000
# 5 0.000000 0.000000 0.000000 0.000000 0.039115 0.000000
# 6 0.000000 0.000000 0.000000 0.000000 0.000000 0.122219
#
#
# Mechanical properties :
#
#
# Convention : Reuss Voigt Hill
#
# Bulk Modulus (GPa) = 32.99624 36.50330 34.74977
# Shear Modulus (GPa) = 4.43665 16.10537 10.27101
#
# Velocity S-wave (km/s) = 1.49039 2.83960 2.26766
# Velocity P-wave (km/s) = 4.41380 5.38767 4.92487
#
# Compressibility (1/GPa) = 0.03030649
#
# Stress axis : x y z
#
# Youngs Moduli (GPa) = 54.39622 26.47253 78.37311
#
# Poissons Ratio (x) = 0.31581 0.03880
# Poissons Ratio (y) = 0.64893 0.53929
# Poissons Ratio (z) = 0.02693 0.18216
#
# Static dielectric constant tensor:
#      x y z
#    x 3.623140 0.000000 0.000000 
#    y 0.000000 3.186590 0.000000 
#    z 0.000000 0.000000 3.926220 
# 
# 
# High freq. dielectric constant tensor:
#      x y z
#    x 1.771550 0.000000 0.000000 
#    y 0.000000 1.737300 0.000000 
#    z 0.000000 0.000000 1.791270 
# 
# From -- ./inp_files/25860.got.cif
#   From: 2010.03.12/outbox.cif.g09.slc.cpg/sg51_13_cif.got.tgz:25860.got - 2010.04.16 13:43:02.
