data_PCOD8205924
_publ_section_title
;
Structure prediction by ZEFSAII (Michael W. Deem and Ramdas Pophale) SiO2 
 PCOD8205924
Probable space group: P M M A
;
_chemical_formula_sum "Si O2"
_cell_formula_units_Z 56
_cell_length_a 26.363405
_cell_length_b 26.157615
_cell_length_c 5.330566
_cell_angle_alpha 90.000000
_cell_angle_beta 90.000000
_cell_angle_gamma 90.000000
_cell_volume 3675.978560
_symmetry_space_group_name_H-M "P M M A"
_symmetry_group_IT_number 51
_symmetry_cell_setting 'orthorhombic'
loop_
_space_group_symop_operation_xyz
x,y,z
1/2-x,-y,z
1/2+x,-y,-z
-x,y,-z
-x,-y,-z
1/2+x,y,-z
1/2-x,y,z
x,-y,z
loop_
_atom_site_type_symbol
_atom_site_label
_atom_site_fract_x
_atom_site_fract_y
_atom_site_fract_z
Si Si1 0.053811 0.264588 0.750000
Si Si2 0.531092 0.383593 0.250000
Si Si3 0.058873 0.897671 0.250000
Si Si4 0.692760 0.439177 0.750000
Si Si5 0.863469 0.439228 0.250000
Si Si6 0.058782 0.221887 0.250000
Si Si7 0.053484 0.059884 0.750000
O O1 0.046096 0.324647 0.750000
O O2 0.083903 0.247307 0.498876
O O3 0.000801 0.234315 0.750000
O O4 0.083903 0.247307 0.001124
O O5 0.500000 0.397074 0.500000
O O6 0.580050 0.418610 0.250000
O O7 0.500000 0.397074 0.000000
O O8 0.069326 0.837890 0.250000
O O9 0.083857 0.923174 0.499185
O O10 0.999154 0.909392 0.250000
O O11 0.083857 0.923174 0.000815
O O12 0.750000 0.417828 0.750000
O O13 0.693156 0.500000 0.750000
O O14 0.664983 0.418823 0.499267
O O15 0.664983 0.418823 0.000733
O O16 0.865441 0.500000 0.250000
O O17 0.042320 0.000000 0.750000
#
# Coordination Sequence:
#
# PCOD8205924 Si02
#       7
#     8   8   8   8   8   8   8
#     4  10  16  27  37  51  64  93 125 161 193 223
#     4  12  21  33  45  60  87 121 146 165 200 241
#     4  10  16  22  31  44  54  75 103 148 185 221
#     4   9  17  33  54  72  89 107 130 170 215 243
#     4  10  21  33  48  71  91 111 143 170 195 248
#     4  10  16  25  38  48  62  79 127 167 192 222
#     4  10  16  22  28  39  59  78  96 123 183 255
#
# _framework density 15.234038
#
# number of rings (size 3 to 8) (size 9 to 14) (size 15 to 20)
#    0.000    1.857    2.857    7.714    0.000    2.286 
#    0.000    0.000    0.000    0.000    0.000    0.000 
#    0.000    0.000    0.000    0.000    0.000    0.000 
#
# Total GULP energy -693998.144365 kJ/mol
# GULP energy per Si atom -12392.824007 kJ/mol
# Density = 1.519936 g / cm^3
# Si number density = 15.234038 Si / 1000 Ang^3
#
#
#
# Elastic Constant Matrix: (Units=GPa)
#
#
# Indices 1 2 3 4 5 6 
#
# 1 43.9176 26.0589 39.2642 0.0000 0.0000 0.0000
# 2 26.0589 29.7771 31.5991 0.0000 0.0000 0.0000
# 3 39.2642 31.5991 195.9710 0.0000 0.0000 0.0000
# 4 0.0000 0.0000 0.0000 12.3757 0.0000 0.0000
# 5 0.0000 0.0000 0.0000 0.0000 14.8614 0.0000
# 6 0.0000 0.0000 0.0000 0.0000 0.0000 -0.2988
#
#
#
# Elastic Compliance Matrix: (Units=1/GPa)
#
#
# Indices 1 2 3 4 5 6 
#
# 1 0.049303 -0.039407 -0.003524 0.000000 0.000000 0.000000
# 2 -0.039407 0.072013 -0.003716 0.000000 0.000000 0.000000
# 3 -0.003524 -0.003716 0.006408 0.000000 0.000000 0.000000
# 4 0.000000 0.000000 0.000000 0.080804 0.000000 0.000000
# 5 0.000000 0.000000 0.000000 0.000000 0.067288 0.000000
# 6 0.000000 0.000000 0.000000 0.000000 0.000000 -3.346569
#
#
# Mechanical properties :
#
#
# Convention : Reuss Voigt Hill
#
# Bulk Modulus (GPa) = 29.04489 51.50111 40.27300
# Shear Modulus (GPa) = -1.68578 16.90389 7.60905
#
# Velocity S-wave (km/s) = -1.05309 3.33470 2.23732
# Velocity P-wave (km/s) = 4.19863 6.97904 5.75914
#
# Compressibility (1/GPa) = 0.03442946
#
# Stress axis : x y z
#
# Youngs Moduli (GPa) = 20.28274 13.88647 156.05306
#
# Poissons Ratio (x) = 0.54722 0.54994
# Poissons Ratio (y) = 0.79928 0.57992
# Poissons Ratio (z) = 0.07148 0.05160
#
# Static dielectric constant tensor:
#      x y z
#    x 2.215520 0.000000 0.000000 
#    y 0.000000 2.830470 0.000000 
#    z 0.000000 0.000000 5.986600 
# 
# 
# High freq. dielectric constant tensor:
#      x y z
#    x 1.486090 0.000000 0.000000 
#    y 0.000000 1.577010 0.000000 
#    z 0.000000 0.000000 1.630880 
# 
# From -- ./inp_files/2666.got.cif
#   From: 2010.03.12/outbox.cif.g09.slc.cpg/sg51_2_cif.got.tgz:2666.got - 2010.04.16 13:43:02.
