data_PCOD8205214
_publ_section_title
;
Structure prediction by ZEFSAII (Michael W. Deem and Ramdas Pophale) SiO2 
 PCOD8205214
Probable space group: P B A N
;
_chemical_formula_sum "Si O2"
_cell_formula_units_Z 24
_cell_length_a 24.712915
_cell_length_b 7.757103
_cell_length_c 5.220431
_cell_angle_alpha 90.000000
_cell_angle_beta 90.000000
_cell_angle_gamma 90.000000
_cell_volume 1000.759896
_symmetry_space_group_name_H-M "P B A N"
_symmetry_group_IT_number 50
_space_group.IT_coordinate_system_code '2'
_symmetry_cell_setting 'orthorhombic'
loop_
_space_group_symop_operation_xyz
x,y,z
1/2-x,1/2-y,z
x,1/2-y,-z
1/2-x,y,-z
-x,-y,-z
1/2+x,1/2+y,-z
-x,1/2+y,z
1/2+x,-y,z
loop_
_atom_site_type_symbol
_atom_site_label
_atom_site_fract_x
_atom_site_fract_y
_atom_site_fract_z
Si Si1 0.976123 0.750000 0.000000
Si Si2 0.773520 0.943062 0.249455
Si Si3 0.547509 0.250000 0.500000
Si Si4 0.398145 0.422781 0.663492
O O1 0.936877 0.590700 0.915984
O O2 0.011865 0.788932 0.750539
O O3 0.750000 0.750000 0.250987
O O4 0.750000 0.039612 0.500000
O O5 0.837845 0.947479 0.236352
O O6 0.750000 0.040320 0.000000
O O7 0.584951 0.419268 0.522002
O O8 0.403817 0.250000 0.500000
#
# Coordination Sequence:
#
# PCOD8205214 Si02
#       4
#     4   8   4   8
#     4  12  26  48  69 102 147 192 232 292 352 426
#     4  10  20  38  66  99 126 170 233 279 341 424
#     4  12  30  44  67 110 143 180 250 286 344 436
#     4  12  26  45  76 100 143 191 232 297 361 416
#
# _framework density 23.981774999999999
#
# number of rings (size 3 to 8) (size 9 to 14) (size 15 to 20)
#    0.000    0.667    5.000    4.000    4.667    0.000 
#    0.000    0.833    0.000    4.000    0.000    0.000 
#    0.000    0.000    0.000    0.000    0.000    0.000 
#
# Total GULP energy -297411.702543 kJ/mol
# GULP energy per Si atom -12392.154273 kJ/mol
# Density = 2.392719 g / cm^3
# Si number density = 23.981775 Si / 1000 Ang^3
#
#
#
# Elastic Constant Matrix: (Units=GPa)
#
#
# Indices 1 2 3 4 5 6 
#
# 1 202.6533 62.8220 84.1828 0.0000 0.0000 0.0000
# 2 62.8220 113.8504 42.4724 0.0000 0.0000 0.0000
# 3 84.1828 42.4724 212.3128 0.0000 0.0000 0.0000
# 4 0.0000 0.0000 0.0000 19.0097 0.0000 0.0000
# 5 0.0000 0.0000 0.0000 0.0000 -72.3141 0.0000
# 6 0.0000 0.0000 0.0000 0.0000 0.0000 1.0763
#
#
#
# Elastic Compliance Matrix: (Units=1/GPa)
#
#
# Indices 1 2 3 4 5 6 
#
# 1 0.006702 -0.002925 -0.002072 0.000000 0.000000 0.000000
# 2 -0.002925 0.010768 -0.000994 0.000000 0.000000 0.000000
# 3 -0.002072 -0.000994 0.005731 0.000000 0.000000 0.000000
# 4 0.000000 0.000000 0.000000 0.052605 0.000000 0.000000
# 5 0.000000 0.000000 0.000000 0.000000 -0.013829 0.000000
# 6 0.000000 0.000000 0.000000 0.000000 0.000000 0.929088
#
#
# Mechanical properties :
#
#
# Convention : Reuss Voigt Hill
#
# Bulk Modulus (GPa) = 89.14482 100.86345 95.00413
# Shear Modulus (GPa) = 4.96629 12.17700 8.57164
#
# Velocity S-wave (km/s) = 1.44061 2.25580 1.89262
# Velocity P-wave (km/s) = 6.32612 6.99532 6.66912
#
# Compressibility (1/GPa) = 0.01121770
#
# Stress axis : x y z
#
# Youngs Moduli (GPa) = 149.20593 92.86352 174.50150
#
# Poissons Ratio (x) = 0.27164 0.36161
# Poissons Ratio (y) = 0.43645 0.17352
# Poissons Ratio (z) = 0.30919 0.09234
#
# Static dielectric constant tensor:
#      x y z
#    x 4.596210 0.000000 0.000000 
#    y 0.000000 3.609850 0.000000 
#    z 0.000000 0.000000 -52.970130 
# 
# 
# High freq. dielectric constant tensor:
#      x y z
#    x 1.968430 0.000000 0.000000 
#    y 0.000000 1.909400 0.000000 
#    z 0.000000 0.000000 1.972150 
# 
# From -- ./inp_files/852.got.cif
#   From: 2010.03.12/outbox.cif.g09.slc.cpg/sg50_1_cif.got.tgz:852.got - 2010.04.16 13:23:21.
