data_PCOD8205329
_publ_section_title
;
Structure prediction by ZEFSAII (Michael W. Deem and Ramdas Pophale) SiO2 
 PCOD8205329
Probable space group: P B A N
;
_chemical_formula_sum "Si O2"
_cell_formula_units_Z 64
_cell_length_a 18.691589
_cell_length_b 8.947045
_cell_length_c 20.311980
_cell_angle_alpha 90.000000
_cell_angle_beta 90.000000
_cell_angle_gamma 90.000000
_cell_volume 3396.863574
_symmetry_space_group_name_H-M "P B A N"
_symmetry_group_IT_number 50
_space_group.IT_coordinate_system_code '2'
_symmetry_cell_setting 'orthorhombic'
loop_
_space_group_symop_operation_xyz
x,y,z
1/2-x,1/2-y,z
x,1/2-y,-z
1/2-x,y,-z
-x,-y,-z
1/2+x,1/2+y,-z
-x,1/2+y,z
1/2+x,-y,z
loop_
_atom_site_type_symbol
_atom_site_label
_atom_site_fract_x
_atom_site_fract_y
_atom_site_fract_z
Si Si1 0.572806 0.923595 0.735289
Si Si2 0.573677 0.926581 0.882848
Si Si3 0.332907 0.424524 0.386150
Si Si4 0.832907 0.924524 0.386150
Si Si5 0.671071 0.572093 1.000000
Si Si6 0.578040 0.427345 0.500000
Si Si7 0.926323 0.926581 0.882848
Si Si8 0.427194 0.076405 0.735289
O O1 0.594675 0.977358 0.808684
O O2 0.638277 0.961273 0.686859
O O3 0.555533 0.750000 0.735444
O O4 0.500000 0.000000 0.710321
O O5 0.632874 0.985858 0.933723
O O6 0.565052 0.750000 0.887582
O O7 0.500000 1.000000 0.904846
O O8 0.250000 0.471028 0.389609
O O9 0.342669 0.250000 0.403583
O O10 0.378008 0.522803 0.436342
O O11 0.361723 0.461273 0.313141
O O12 0.878008 0.022803 0.436342
O O13 0.673473 0.750000 0.000000
O O14 0.750000 0.502889 0.000000
O O15 0.632874 0.514142 0.933723
O O16 0.569122 0.250000 0.500000
O O17 0.500000 0.500000 0.500000
O O18 0.905325 0.977358 0.808684
#
# Coordination Sequence:
#
# PCOD8205329 Si02
#       8
#     8   8   8   8   8   8   8   8
#     4   9  18  32  51  75 101 132 170 210 251 297
#     4   9  17  30  49  72  98 130 169 210 250 295
#     4  10  21  37  56  79 108 139 170 208 256 307
#     4  10  21  37  56  79 108 139 170 208 256 307
#     4   9  17  28  45  71 100 129 164 208 254 299
#     4  12  25  40  59  81 105 135 173 214 255 302
#     4   9  17  30  49  72  98 130 169 210 250 295
#     4   9  18  32  51  75 101 132 170 210 251 297
#
# _framework density 18.840910000000001
#
# number of rings (size 3 to 8) (size 9 to 14) (size 15 to 20)
#    0.000    2.375    0.000    2.625    0.000    6.000 
#    0.000    5.000    0.000    1.500    0.000    7.000 
#    0.000    0.000    0.000    0.000    0.000    0.000 
#
# Total GULP energy -793574.647064 kJ/mol
# GULP energy per Si atom -12399.603860 kJ/mol
# Density = 1.879803 g / cm^3
# Si number density = 18.840910 Si / 1000 Ang^3
#
#
#
# Elastic Constant Matrix: (Units=GPa)
#
#
# Indices 1 2 3 4 5 6 
#
# 1 175.0693 50.0611 94.4790 0.0000 0.0000 0.0000
# 2 50.0611 50.5575 40.8821 0.0000 0.0000 0.0000
# 3 94.4790 40.8821 131.4082 0.0000 0.0000 0.0000
# 4 0.0000 0.0000 0.0000 14.7473 0.0000 0.0000
# 5 0.0000 0.0000 0.0000 0.0000 27.6197 0.0000
# 6 0.0000 0.0000 0.0000 0.0000 0.0000 27.0610
#
#
#
# Elastic Compliance Matrix: (Units=1/GPa)
#
#
# Indices 1 2 3 4 5 6 
#
# 1 0.010433 -0.005698 -0.005728 0.000000 0.000000 0.000000
# 2 -0.005698 0.029540 -0.005093 0.000000 0.000000 0.000000
# 3 -0.005728 -0.005093 0.013313 0.000000 0.000000 0.000000
# 4 0.000000 0.000000 0.000000 0.067809 0.000000 0.000000
# 5 0.000000 0.000000 0.000000 0.000000 0.036206 0.000000
# 6 0.000000 0.000000 0.000000 0.000000 0.000000 0.036954
#
#
# Mechanical properties :
#
#
# Convention : Reuss Voigt Hill
#
# Bulk Modulus (GPa) = 49.39126 80.87549 65.13337
# Shear Modulus (GPa) = 21.36363 25.32646 23.34504
#
# Velocity S-wave (km/s) = 3.37099 3.67035 3.52385
# Velocity P-wave (km/s) = 6.43609 7.80901 7.15555
#
# Compressibility (1/GPa) = 0.02024650
#
# Stress axis : x y z
#
# Youngs Moduli (GPa) = 95.85236 33.85184 75.11618
#
# Poissons Ratio (x) = 0.19290 0.43027
# Poissons Ratio (y) = 0.54621 0.38259
# Poissons Ratio (z) = 0.54904 0.17242
#
# Static dielectric constant tensor:
#      x y z
#    x 3.614480 0.000000 0.000000 
#    y 0.000000 3.250390 0.000000 
#    z 0.000000 0.000000 3.834920 
# 
# 
# High freq. dielectric constant tensor:
#      x y z
#    x 1.731710 0.000000 0.000000 
#    y 0.000000 1.707640 0.000000 
#    z 0.000000 0.000000 1.749160 
# 
# From -- ./inp_files/31120.got.cif
#   From: 2010.03.12/outbox.cif.g09.slc.cpg/sg50_16_cif.got.tgz:31120.got - 2010.04.16 13:23:21.
