data_PCOD8205595
_publ_section_title
;
Structure prediction by ZEFSAII (Michael W. Deem and Ramdas Pophale) SiO2 
 PCOD8205595
Probable space group: P B A N
;
_chemical_formula_sum "Si O2"
_cell_formula_units_Z 36
_cell_length_a 12.070667
_cell_length_b 18.097436
_cell_length_c 7.793618
_cell_angle_alpha 90.000000
_cell_angle_beta 90.000000
_cell_angle_gamma 90.000000
_cell_volume 1702.501227
_symmetry_space_group_name_H-M "P B A N"
_symmetry_group_IT_number 50
_space_group.IT_coordinate_system_code '2'
_symmetry_cell_setting 'orthorhombic'
loop_
_space_group_symop_operation_xyz
x,y,z
1/2-x,1/2-y,z
x,1/2-y,-z
1/2-x,y,-z
-x,-y,-z
1/2+x,1/2+y,-z
-x,1/2+y,z
1/2+x,-y,z
loop_
_atom_site_type_symbol
_atom_site_label
_atom_site_fract_x
_atom_site_fract_y
_atom_site_fract_z
Si Si1 0.006371 0.473339 0.753206
Si Si2 0.123547 0.593070 0.550070
Si Si3 0.031668 0.750000 0.500000
Si Si4 0.627058 0.918353 0.940128
Si Si5 0.876824 0.768202 0.196502
O O1 0.092177 0.542058 0.715305
O O2 0.967948 0.430605 0.587494
O O3 0.896915 0.504286 0.848332
O O4 0.059116 0.413229 0.881531
O O5 0.250000 0.575385 0.500000
O O6 0.108379 0.681746 0.564572
O O7 0.954339 0.728290 0.337075
O O8 0.600029 0.856165 0.797224
O O9 0.750000 0.907861 0.000000
O O10 0.750000 0.750000 0.241091
O O11 0.907155 0.750000 0.000000
#
# Coordination Sequence:
#
# PCOD8205595 Si02
#       5
#     8   8   4   8   8
#     4  10  23  40  64  92 126 160 212 264 319 384
#     4  11  23  42  62  90 125 170 213 263 314 379
#     4  12  24  42  64  92 130 174 214 264 318 386
#     4  11  20  39  65  92 123 164 203 261 322 380
#     4  11  22  39  62  96 131 163 209 261 329 383
#
# _framework density 21.145358999999999
#
# number of rings (size 3 to 8) (size 9 to 14) (size 15 to 20)
#    0.000    1.111    4.444    3.333    0.000    0.000 
#    0.000    0.000    0.000    1.333    0.000    0.000 
#    0.000    0.000    0.000    0.000    0.000    0.000 
#
# Total GULP energy -446088.764445 kJ/mol
# GULP energy per Si atom -12391.354568 kJ/mol
# Density = 2.109723 g / cm^3
# Si number density = 21.145359 Si / 1000 Ang^3
#
#
#
# Elastic Constant Matrix: (Units=GPa)
#
#
# Indices 1 2 3 4 5 6 
#
# 1 60.5886 25.5798 7.5449 0.0000 0.0000 0.0000
# 2 25.5798 70.6971 3.4853 0.0000 0.0000 0.0000
# 3 7.5449 3.4853 70.6774 0.0000 0.0000 0.0000
# 4 0.0000 0.0000 0.0000 45.1983 0.0000 0.0000
# 5 0.0000 0.0000 0.0000 0.0000 20.7449 0.0000
# 6 0.0000 0.0000 0.0000 0.0000 0.0000 124.0717
#
#
#
# Elastic Compliance Matrix: (Units=1/GPa)
#
#
# Indices 1 2 3 4 5 6 
#
# 1 0.019695 -0.007040 -0.001755 0.000000 0.000000 0.000000
# 2 -0.007040 0.016696 -0.000072 0.000000 0.000000 0.000000
# 3 -0.001755 -0.000072 0.014340 0.000000 0.000000 0.000000
# 4 0.000000 0.000000 0.000000 0.022125 0.000000 0.000000
# 5 0.000000 0.000000 0.000000 0.000000 0.048205 0.000000
# 6 0.000000 0.000000 0.000000 0.000000 0.000000 0.008060
#
#
# Mechanical properties :
#
#
# Convention : Reuss Voigt Hill
#
# Bulk Modulus (GPa) = 30.30587 30.57590 30.44089
# Shear Modulus (GPa) = 31.67511 49.02651 40.35081
#
# Velocity S-wave (km/s) = 3.87456 4.82035 4.37310
# Velocity P-wave (km/s) = 5.86341 6.74332 6.31870
#
# Compressibility (1/GPa) = 0.03299691
#
# Stress axis : x y z
#
# Youngs Moduli (GPa) = 50.77319 59.89631 69.73639
#
# Poissons Ratio (x) = 0.42165 0.12241
# Poissons Ratio (y) = 0.35743 0.00501
# Poissons Ratio (z) = 0.08913 0.00430
#
# Static dielectric constant tensor:
#      x y z
#    x 3.563510 0.000000 0.000000 
#    y 0.000000 4.212390 0.000000 
#    z 0.000000 0.000000 3.972350 
# 
# 
# High freq. dielectric constant tensor:
#      x y z
#    x 1.815530 0.000000 0.000000 
#    y 0.000000 1.836260 0.000000 
#    z 0.000000 0.000000 1.830990 
# 
# From -- ./inp_files/11237.got.cif
#   From: 2010.03.12/outbox.cif.g09.slc.cpg/sg50_6_cif.got.tgz:11237.got - 2010.04.16 13:23:21.
