data_PCOD8205193
_publ_section_title
;
Structure prediction by ZEFSAII (Michael W. Deem and Ramdas Pophale) SiO2 
 PCOD8205193
Probable space group: P B A N
;
_chemical_formula_sum "Si O2"
_cell_formula_units_Z 38
_cell_length_a 13.275828
_cell_length_b 8.541040
_cell_length_c 15.395085
_cell_angle_alpha 90.000000
_cell_angle_beta 90.000000
_cell_angle_gamma 90.000000
_cell_volume 1745.639112
_symmetry_space_group_name_H-M "P B A N"
_symmetry_group_IT_number 50
_space_group.IT_coordinate_system_code '2'
_symmetry_cell_setting 'orthorhombic'
loop_
_space_group_symop_operation_xyz
x,y,z
1/2-x,1/2-y,z
x,1/2-y,-z
1/2-x,y,-z
-x,-y,-z
1/2+x,1/2+y,-z
-x,1/2+y,z
1/2+x,-y,z
loop_
_atom_site_type_symbol
_atom_site_label
_atom_site_fract_x
_atom_site_fract_y
_atom_site_fract_z
Si Si1 0.263449 0.569674 0.726728
Si Si2 0.465365 0.069591 0.229299
Si Si3 0.622892 0.883727 0.149977
Si Si4 0.100106 0.996739 0.391888
Si Si5 0.250000 0.250000 0.000000
Si Si6 0.006390 0.250000 0.500000
O O1 0.250000 0.750000 0.749625
O O2 0.382371 0.544026 0.729612
O O3 0.215135 0.459511 0.799236
O O4 0.218905 0.520497 0.631416
O O5 0.415789 0.232577 0.203089
O O6 0.549154 0.071171 0.304418
O O7 0.524581 0.997405 0.144978
O O8 0.671798 0.851788 0.056495
O O9 0.068796 0.884765 0.469649
O O10 0.074821 0.175670 0.421940
#
# Coordination Sequence:
#
# PCOD8205193 Si02
#       6
#     8   8   8   8   2   4
#     4  11  21  40  66  96 126 180 238 278 328 422
#     4  11  21  42  67  95 124 189 232 273 331 426
#     4  11  24  42  70  99 139 175 228 286 350 419
#     4  10  21  37  62  88 135 172 228 277 334 398
#     4  12  24  48  66 108 146 166 218 304 360 424
#     4  10  20  38  56  96 134 176 216 295 349 378
#
# _framework density 21.768533000000001
#
# number of rings (size 3 to 8) (size 9 to 14) (size 15 to 20)
#    0.000    1.263    2.105    6.316    0.000    0.842 
#    0.000   11.579    0.000    0.000    0.000    0.000 
#    0.000    0.000    0.000    0.000    0.000    0.000 
#
# Total GULP energy -470875.640111 kJ/mol
# GULP energy per Si atom -12391.464213 kJ/mol
# Density = 2.171899 g / cm^3
# Si number density = 21.768533 Si / 1000 Ang^3
#
#
#
# Elastic Constant Matrix: (Units=GPa)
#
#
# Indices 1 2 3 4 5 6 
#
# 1 107.0903 12.8376 30.9415 0.0000 0.0000 0.0000
# 2 12.8376 85.8674 23.9384 0.0000 0.0000 0.0000
# 3 30.9415 23.9384 95.5600 0.0000 0.0000 0.0000
# 4 0.0000 0.0000 0.0000 28.5128 0.0000 0.0000
# 5 0.0000 0.0000 0.0000 0.0000 0.1103 0.0000
# 6 0.0000 0.0000 0.0000 0.0000 0.0000 37.4112
#
#
#
# Elastic Compliance Matrix: (Units=1/GPa)
#
#
# Indices 1 2 3 4 5 6 
#
# 1 0.010336 -0.000658 -0.003182 0.000000 0.000000 0.000000
# 2 -0.000658 0.012562 -0.002934 0.000000 0.000000 0.000000
# 3 -0.003182 -0.002934 0.012230 0.000000 0.000000 0.000000
# 4 0.000000 0.000000 0.000000 0.035072 0.000000 0.000000
# 5 0.000000 0.000000 0.000000 0.000000 9.069968 0.000000
# 6 0.000000 0.000000 0.000000 0.000000 0.000000 0.026730
#
#
# Mechanical properties :
#
#
# Convention : Reuss Voigt Hill
#
# Bulk Modulus (GPa) = 46.33841 47.10585 46.72213
# Shear Modulus (GPa) = 0.54421 27.92685 14.23553
#
# Velocity S-wave (km/s) = 0.50054 3.58565 2.56002
# Velocity P-wave (km/s) = 4.65480 6.23128 5.49982
#
# Compressibility (1/GPa) = 0.02158037
#
# Stress axis : x y z
#
# Youngs Moduli (GPa) = 96.74779 79.60412 81.76739
#
# Poissons Ratio (x) = 0.05240 0.26017
# Poissons Ratio (y) = 0.06368 0.23989
# Poissons Ratio (z) = 0.30784 0.23354
#
# Static dielectric constant tensor:
#      x y z
#    x 4.562150 0.000000 0.000000 
#    y 0.000000 4.100220 0.000000 
#    z 0.000000 0.000000 3.784680 
# 
# 
# High freq. dielectric constant tensor:
#      x y z
#    x 1.870920 0.000000 0.000000 
#    y 0.000000 1.865760 0.000000 
#    z 0.000000 0.000000 1.829120 
# 
# From -- ./inp_files/29086.got.cif
#   From: 2010.03.12/outbox.cif.g09.slc.cpg/sg50_15_cif.got.tgz:29086.got - 2010.04.16 13:23:21.
