data_PCOD8205403
_publ_section_title
;
Structure prediction by ZEFSAII (Michael W. Deem and Ramdas Pophale) SiO2 
 PCOD8205403
Probable space group: P B A N
;
_chemical_formula_sum "Si O2"
_cell_formula_units_Z 40
_cell_length_a 8.804707
_cell_length_b 25.037324
_cell_length_c 8.157073
_cell_angle_alpha 90.000000
_cell_angle_beta 90.000000
_cell_angle_gamma 90.000000
_cell_volume 1798.196577
_symmetry_space_group_name_H-M "P B A N"
_symmetry_group_IT_number 50
_space_group.IT_coordinate_system_code '2'
_symmetry_cell_setting 'orthorhombic'
loop_
_space_group_symop_operation_xyz
x,y,z
1/2-x,1/2-y,z
x,1/2-y,-z
1/2-x,y,-z
-x,-y,-z
1/2+x,1/2+y,-z
-x,1/2+y,z
1/2+x,-y,z
loop_
_atom_site_type_symbol
_atom_site_label
_atom_site_fract_x
_atom_site_fract_y
_atom_site_fract_z
Si Si1 0.468289 0.969755 0.668149
Si Si2 0.949679 0.856784 0.835969
Si Si3 0.391232 0.134374 0.212777
Si Si4 0.569827 0.752346 0.683969
Si Si5 0.665423 0.050166 0.826942
O O1 0.537925 0.910530 0.670970
O O2 0.288317 0.964878 0.689537
O O3 0.500000 0.000000 0.500000
O O4 0.540554 0.002902 0.821082
O O5 0.788458 0.865835 0.745211
O O6 0.997183 0.795167 0.799331
O O7 0.083554 0.894882 0.770896
O O8 0.925530 0.874507 0.022692
O O9 0.476695 0.190060 0.247967
O O10 0.750000 0.750000 0.687927
O O11 0.505193 0.750000 0.500000
O O12 0.750000 0.055723 0.000000
#
# Coordination Sequence:
#
# PCOD8205403 Si02
#       5
#     8   8   8   8   8
#     4  12  27  44  66  97 137 176 224 287 352 415
#     4  10  21  39  70  99 131 175 229 285 335 407
#     4  10  21  40  67  98 134 176 228 280 339 405
#     4   9  19  37  64 100 135 172 223 280 337 405
#     4  12  25  45  68  98 133 178 234 284 343 420
#
# _framework density 22.244509000000001
#
# number of rings (size 3 to 8) (size 9 to 14) (size 15 to 20)
#    0.000    1.400    2.000    3.000    5.600    2.400 
#    3.600    1.000    0.000    1.200    0.000    0.000 
#    0.000    0.000    0.000    0.000    0.000    0.000 
#
# Total GULP energy -495869.164431 kJ/mol
# GULP energy per Si atom -12396.729111 kJ/mol
# Density = 2.219388 g / cm^3
# Si number density = 22.244509 Si / 1000 Ang^3
#
#
#
# Elastic Constant Matrix: (Units=GPa)
#
#
# Indices 1 2 3 4 5 6 
#
# 1 104.8288 69.0616 28.9732 0.0000 0.0000 0.0000
# 2 69.0616 194.9371 41.3245 0.0000 0.0000 0.0000
# 3 28.9732 41.3245 78.0685 0.0000 0.0000 0.0000
# 4 0.0000 0.0000 0.0000 42.1797 0.0000 0.0000
# 5 0.0000 0.0000 0.0000 0.0000 25.0103 0.0000
# 6 0.0000 0.0000 0.0000 0.0000 0.0000 39.2924
#
#
#
# Elastic Compliance Matrix: (Units=1/GPa)
#
#
# Indices 1 2 3 4 5 6 
#
# 1 0.012920 -0.004011 -0.002672 0.000000 0.000000 0.000000
# 2 -0.004011 0.007023 -0.002229 0.000000 0.000000 0.000000
# 3 -0.002672 -0.002229 0.014981 0.000000 0.000000 0.000000
# 4 0.000000 0.000000 0.000000 0.023708 0.000000 0.000000
# 5 0.000000 0.000000 0.000000 0.000000 0.039984 0.000000
# 6 0.000000 0.000000 0.000000 0.000000 0.000000 0.025450
#
#
# Mechanical properties :
#
#
# Convention : Reuss Voigt Hill
#
# Bulk Modulus (GPa) = 58.47790 72.95036 65.71413
# Shear Modulus (GPa) = 33.87752 37.19482 35.53617
#
# Velocity S-wave (km/s) = 3.90675 4.09356 4.00124
# Velocity P-wave (km/s) = 6.83345 7.43027 7.13810
#
# Compressibility (1/GPa) = 0.01710048
#
# Stress axis : x y z
#
# Youngs Moduli (GPa) = 77.39789 142.38119 66.75182
#
# Poissons Ratio (x) = 0.57108 0.17835
# Poissons Ratio (y) = 0.31044 0.14880
# Poissons Ratio (z) = 0.20680 0.31739
#
# Static dielectric constant tensor:
#      x y z
#    x 4.028980 0.000000 0.000000 
#    y 0.000000 4.340700 0.000000 
#    z 0.000000 0.000000 3.823190 
# 
# 
# High freq. dielectric constant tensor:
#      x y z
#    x 1.854000 0.000000 0.000000 
#    y 0.000000 1.892100 0.000000 
#    z 0.000000 0.000000 1.867510 
# 
# From -- ./inp_files/9527.got.cif
#   From: 2010.03.12/outbox.cif.g09.slc.cpg/sg50_5_cif.got.tgz:9527.got - 2010.04.16 13:23:21.
