data_PCOD8205539
_publ_section_title
;
Structure prediction by ZEFSAII (Michael W. Deem and Ramdas Pophale) SiO2 
 PCOD8205539
Probable space group: P B A N
;
_chemical_formula_sum "Si O2"
_cell_formula_units_Z 26
_cell_length_a 14.779311
_cell_length_b 9.669918
_cell_length_c 7.037387
_cell_angle_alpha 90.000000
_cell_angle_beta 90.000000
_cell_angle_gamma 90.000000
_cell_volume 1005.746231
_symmetry_space_group_name_H-M "P B A N"
_symmetry_group_IT_number 50
_space_group.IT_coordinate_system_code '2'
_symmetry_cell_setting 'orthorhombic'
loop_
_space_group_symop_operation_xyz
x,y,z
1/2-x,1/2-y,z
x,1/2-y,-z
1/2-x,y,-z
-x,-y,-z
1/2+x,1/2+y,-z
-x,1/2+y,z
1/2+x,-y,z
loop_
_atom_site_type_symbol
_atom_site_label
_atom_site_fract_x
_atom_site_fract_y
_atom_site_fract_z
Si Si1 0.750000 0.250000 0.000000
Si Si2 0.283749 0.954099 0.693316
Si Si3 0.598629 0.924096 0.804540
Si Si4 0.054942 0.124731 0.240300
O O1 0.688807 0.343598 0.858929
O O2 0.250000 0.879636 0.500000
O O3 0.204674 0.054992 0.768940
O O4 0.371125 0.043630 0.632353
O O5 0.557343 0.786744 0.702719
O O6 0.544350 0.059372 0.729678
O O7 0.587578 0.901641 0.027145
#
# Coordination Sequence:
#
# PCOD8205539 Si02
#       4
#     2   8   8   8
#     4  12  26  48  70 102 140 178 232 296 332 434
#     4  12  26  44  72 101 138 185 229 286 351 409
#     4  10  22  41  70 102 141 188 231 281 344 408
#     4  10  22  41  70 102 141 188 231 281 344 408
#
# _framework density 25.851448999999999
#
# number of rings (size 3 to 8) (size 9 to 14) (size 15 to 20)
#    0.000    1.231    3.077    1.385    4.308    6.154 
#    0.000    0.000    0.000    0.000    0.000    0.000 
#    0.000    0.000    0.000    0.000    0.000    0.000 
#
# Total GULP energy -322343.123755 kJ/mol
# GULP energy per Si atom -12397.812452 kJ/mol
# Density = 2.579261 g / cm^3
# Si number density = 25.851449 Si / 1000 Ang^3
#
#
#
# Elastic Constant Matrix: (Units=GPa)
#
#
# Indices 1 2 3 4 5 6 
#
# 1 88.6764 20.7647 -14.8629 0.0000 0.0000 0.0000
# 2 20.7647 156.3063 7.5579 0.0000 0.0000 0.0000
# 3 -14.8629 7.5579 72.8734 0.0000 0.0000 0.0000
# 4 0.0000 0.0000 0.0000 21.8591 0.0000 0.0000
# 5 0.0000 0.0000 0.0000 0.0000 27.6657 0.0000
# 6 0.0000 0.0000 0.0000 0.0000 0.0000 27.1814
#
#
#
# Elastic Compliance Matrix: (Units=1/GPa)
#
#
# Indices 1 2 3 4 5 6 
#
# 1 0.012129 -0.001740 0.002654 0.000000 0.000000 0.000000
# 2 -0.001740 0.006679 -0.001048 0.000000 0.000000 0.000000
# 3 0.002654 -0.001048 0.014372 0.000000 0.000000 0.000000
# 4 0.000000 0.000000 0.000000 0.045748 0.000000 0.000000
# 5 0.000000 0.000000 0.000000 0.000000 0.036146 0.000000
# 6 0.000000 0.000000 0.000000 0.000000 0.000000 0.036790
#
#
# Mechanical properties :
#
#
# Convention : Reuss Voigt Hill
#
# Bulk Modulus (GPa) = 30.38120 38.30840 34.34480
# Shear Modulus (GPa) = 30.65566 35.63433 33.14500
#
# Velocity S-wave (km/s) = 3.44734 3.71674 3.58457
# Velocity P-wave (km/s) = 5.25578 5.76799 5.51784
#
# Compressibility (1/GPa) = 0.03291509
#
# Stress axis : x y z
#
# Youngs Moduli (GPa) = 82.44577 149.71286 69.57772
#
# Poissons Ratio (x) = 0.26045 -0.18468
# Poissons Ratio (y) = 0.14343 0.07289
# Poissons Ratio (z) = -0.21883 0.15683
#
# Static dielectric constant tensor:
#      x y z
#    x 4.312520 0.000000 0.000000 
#    y 0.000000 4.970350 0.000000 
#    z 0.000000 0.000000 4.684460 
# 
# 
# High freq. dielectric constant tensor:
#      x y z
#    x 2.015630 0.000000 0.000000 
#    y 0.000000 2.030840 0.000000 
#    z 0.000000 0.000000 2.045580 
# 
# From -- ./inp_files/13674.got.cif
#   From: 2010.03.12/outbox.cif.g09.slc.cpg/sg50_7_cif.got.tgz:13674.got - 2010.04.16 13:23:21.
