data_PCOD8205263
_publ_section_title
;
Structure prediction by ZEFSAII (Michael W. Deem and Ramdas Pophale) SiO2 
 PCOD8205263
Probable space group: P B A N
;
_chemical_formula_sum "Si O2"
_cell_formula_units_Z 56
_cell_length_a 14.532323
_cell_length_b 15.300184
_cell_length_c 11.496829
_cell_angle_alpha 90.000000
_cell_angle_beta 90.000000
_cell_angle_gamma 90.000000
_cell_volume 2556.287919
_symmetry_space_group_name_H-M "P B A N"
_symmetry_group_IT_number 50
_space_group.IT_coordinate_system_code '2'
_symmetry_cell_setting 'orthorhombic'
loop_
_space_group_symop_operation_xyz
x,y,z
1/2-x,1/2-y,z
x,1/2-y,-z
1/2-x,y,-z
-x,-y,-z
1/2+x,1/2+y,-z
-x,1/2+y,z
1/2+x,-y,z
loop_
_atom_site_type_symbol
_atom_site_label
_atom_site_fract_x
_atom_site_fract_y
_atom_site_fract_z
Si Si1 0.928094 0.442369 0.371970
Si Si2 0.667677 0.315937 0.802975
Si Si3 0.851222 0.771131 0.322749
Si Si4 0.499603 0.955452 0.165512
Si Si5 0.592029 0.616610 0.516565
Si Si6 0.978883 0.736831 0.135550
Si Si7 0.847123 0.043443 0.989684
O O1 0.854451 0.381041 0.305623
O O2 0.001239 0.490760 0.285351
O O3 0.874814 0.521775 0.437197
O O4 0.987211 0.387483 0.465659
O O5 0.750000 0.250000 0.770042
O O6 0.581833 0.255744 0.829537
O O7 0.687028 0.369059 0.921937
O O8 0.750000 0.750000 0.278478
O O9 0.842004 0.852755 0.410923
O O10 0.903387 0.689839 0.383701
O O11 0.910400 0.799239 0.209243
O O12 0.543995 0.860445 0.177295
O O13 0.570970 0.003281 0.082539
O O14 0.395044 0.944203 0.115992
O O15 0.959859 0.750000 0.000000
O O16 0.750000 0.989290 0.000000
#
# Coordination Sequence:
#
# PCOD8205263 Si02
#       7
#     8   8   8   8   8   8   8
#     4  10  21  40  69  99 128 176 219 280 347 391
#     4  11  23  39  66 100 136 177 227 278 338 408
#     4  11  24  44  67  97 129 174 223 274 334 404
#     4  10  21  39  59  91 134 168 222 272 329 397
#     4  10  20  42  72  93 129 169 223 280 335 397
#     4  12  23  42  64  96 136 176 219 275 332 405
#     4  10  21  39  60  91 128 179 223 272 331 398
#
# _framework density 21.906766999999999
#
# number of rings (size 3 to 8) (size 9 to 14) (size 15 to 20)
#    0.000    1.429    4.286    1.714    0.000    0.286 
#    5.143    4.286    0.000    0.857    0.000    0.000 
#    0.000    0.000    0.000    0.000    0.000    0.000 
#
# Total GULP energy -693880.809856 kJ/mol
# GULP energy per Si atom -12390.728747 kJ/mol
# Density = 2.185691 g / cm^3
# Si number density = 21.906767 Si / 1000 Ang^3
#
#
#
# Elastic Constant Matrix: (Units=GPa)
#
#
# Indices 1 2 3 4 5 6 
#
# 1 117.2022 19.8802 62.9962 0.0000 0.0000 0.0000
# 2 19.8802 82.5602 43.8624 0.0000 0.0000 0.0000
# 3 62.9962 43.8624 120.3767 0.0000 0.0000 0.0000
# 4 0.0000 0.0000 0.0000 77.2862 0.0000 0.0000
# 5 0.0000 0.0000 0.0000 0.0000 15.2562 0.0000
# 6 0.0000 0.0000 0.0000 0.0000 0.0000 63.3332
#
#
#
# Elastic Compliance Matrix: (Units=1/GPa)
#
#
# Indices 1 2 3 4 5 6 
#
# 1 0.011892 0.000549 -0.006423 0.000000 0.000000 0.000000
# 2 0.000549 0.015045 -0.005770 0.000000 0.000000 0.000000
# 3 -0.006423 -0.005770 0.013771 0.000000 0.000000 0.000000
# 4 0.000000 0.000000 0.000000 0.012939 0.000000 0.000000
# 5 0.000000 0.000000 0.000000 0.000000 0.065547 0.000000
# 6 0.000000 0.000000 0.000000 0.000000 0.000000 0.015790
#
#
# Mechanical properties :
#
#
# Convention : Reuss Voigt Hill
#
# Bulk Modulus (GPa) = 57.40338 63.73519 60.56929
# Shear Modulus (GPa) = 30.47335 44.06845 37.27090
#
# Velocity S-wave (km/s) = 3.73372 4.48999 4.12921
# Velocity P-wave (km/s) = 6.69686 7.48579 7.10229
#
# Compressibility (1/GPa) = 0.01742058
#
# Stress axis : x y z
#
# Youngs Moduli (GPa) = 84.09271 66.46556 72.61640
#
# Poissons Ratio (x) = -0.03649 0.46643
# Poissons Ratio (y) = -0.04617 0.41896
# Poissons Ratio (z) = 0.54015 0.38347
#
# Static dielectric constant tensor:
#      x y z
#    x 3.925470 0.000000 0.000000 
#    y 0.000000 4.073830 0.000000 
#    z 0.000000 0.000000 3.932810 
# 
# 
# High freq. dielectric constant tensor:
#      x y z
#    x 1.843930 0.000000 0.000000 
#    y 0.000000 1.859330 0.000000 
#    z 0.000000 0.000000 1.868880 
# 
# From -- ./inp_files/21137.got.cif
#   From: 2010.03.12/outbox.cif.g09.slc.cpg/sg50_11_cif.got.tgz:21137.got - 2010.04.16 13:23:21.
