data_PCOD8205135
_publ_section_title
;
Structure prediction by ZEFSAII (Michael W. Deem and Ramdas Pophale) SiO2 
 PCOD8205135
Probable space group: P B A N
;
_chemical_formula_sum "Si O2"
_cell_formula_units_Z 36
_cell_length_a 14.104793
_cell_length_b 9.118910
_cell_length_c 13.945796
_cell_angle_alpha 90.000000
_cell_angle_beta 90.000000
_cell_angle_gamma 90.000000
_cell_volume 1793.712994
_symmetry_space_group_name_H-M "P B A N"
_symmetry_group_IT_number 50
_space_group.IT_coordinate_system_code '2'
_symmetry_cell_setting 'orthorhombic'
loop_
_space_group_symop_operation_xyz
x,y,z
1/2-x,1/2-y,z
x,1/2-y,-z
1/2-x,y,-z
-x,-y,-z
1/2+x,1/2+y,-z
-x,1/2+y,z
1/2+x,-y,z
loop_
_atom_site_type_symbol
_atom_site_label
_atom_site_fract_x
_atom_site_fract_y
_atom_site_fract_z
Si Si1 0.929203 0.979775 0.797301
Si Si2 0.498734 0.750000 0.500000
Si Si3 0.222458 0.412545 0.229715
Si Si4 0.062246 0.183182 0.895380
Si Si5 0.068739 0.500107 0.372426
O O1 0.816381 0.007025 0.792851
O O2 0.951819 0.810708 0.817794
O O3 0.971410 0.077321 0.884660
O O4 0.977537 0.018164 0.696504
O O5 0.432870 0.654217 0.571086
O O6 0.567073 0.862004 0.556095
O O7 0.250000 0.250000 0.265661
O O8 0.158753 0.403356 0.132725
O O9 0.165645 0.496577 0.312658
O O10 0.071983 0.250000 0.000000
#
# Coordination Sequence:
#
# PCOD8205135 Si02
#       5
#     8   4   8   8   8
#     4  10  20  37  59  81 113 152 183 228 287 335
#     4  10  20  36  60  82 110 148 188 240 286 334
#     4   9  19  35  58  81 110 151 189 227 280 342
#     4  10  20  36  59  86 113 147 190 230 272 331
#     4  10  20  38  57  81 113 147 189 234 286 341
#
# _framework density 20.0701
#
# number of rings (size 3 to 8) (size 9 to 14) (size 15 to 20)
#    0.000    2.222    0.000    4.667    0.000    4.000 
#    0.000   21.667    0.000    5.333    0.000    0.000 
#    0.000    0.000    0.000    0.000    0.000    0.000 
#
# Total GULP energy -446396.320273 kJ/mol
# GULP energy per Si atom -12399.897785 kJ/mol
# Density = 2.002442 g / cm^3
# Si number density = 20.070100 Si / 1000 Ang^3
#
#
#
# Elastic Constant Matrix: (Units=GPa)
#
#
# Indices 1 2 3 4 5 6 
#
# 1 174.9632 54.1604 61.4375 0.0000 0.0000 0.0000
# 2 54.1604 73.2510 30.7475 0.0000 0.0000 0.0000
# 3 61.4375 30.7475 105.5803 0.0000 0.0000 0.0000
# 4 0.0000 0.0000 0.0000 41.7079 0.0000 0.0000
# 5 0.0000 0.0000 0.0000 0.0000 13.2320 0.0000
# 6 0.0000 0.0000 0.0000 0.0000 0.0000 30.9945
#
#
#
# Elastic Compliance Matrix: (Units=1/GPa)
#
#
# Indices 1 2 3 4 5 6 
#
# 1 0.008421 -0.004750 -0.003517 0.000000 0.000000 0.000000
# 2 -0.004750 0.018232 -0.002546 0.000000 0.000000 0.000000
# 3 -0.003517 -0.002546 0.012259 0.000000 0.000000 0.000000
# 4 0.000000 0.000000 0.000000 0.023976 0.000000 0.000000
# 5 0.000000 0.000000 0.000000 0.000000 0.075575 0.000000
# 6 0.000000 0.000000 0.000000 0.000000 0.000000 0.032264
#
#
# Mechanical properties :
#
#
# Convention : Reuss Voigt Hill
#
# Bulk Modulus (GPa) = 57.84527 71.83173 64.83850
# Shear Modulus (GPa) = 25.23796 31.01679 28.12738
#
# Velocity S-wave (km/s) = 3.54996 3.93545 3.74766
# Velocity P-wave (km/s) = 6.75923 7.51788 7.14862
#
# Compressibility (1/GPa) = 0.01728750
#
# Stress axis : x y z
#
# Youngs Moduli (GPa) = 118.75429 54.84775 81.57116
#
# Poissons Ratio (x) = 0.26052 0.28687
# Poissons Ratio (y) = 0.56408 0.20765
# Poissons Ratio (z) = 0.41763 0.13962
#
# Static dielectric constant tensor:
#      x y z
#    x 3.638290 0.000000 0.000000 
#    y 0.000000 3.709370 0.000000 
#    z 0.000000 0.000000 3.593910 
# 
# 
# High freq. dielectric constant tensor:
#      x y z
#    x 1.771670 0.000000 0.000000 
#    y 0.000000 1.781630 0.000000 
#    z 0.000000 0.000000 1.782790 
# 
# From -- ./inp_files/24578.got.cif
#   From: 2010.03.12/outbox.cif.g09.slc.cpg/sg50_13_cif.got.tgz:24578.got - 2010.04.16 13:23:21.
