data_PCOD8205719
_publ_section_title
;
Structure prediction by ZEFSAII (Michael W. Deem and Ramdas Pophale) SiO2 
 PCOD8205719
Probable space group: P B A N
;
_chemical_formula_sum "Si O2"
_cell_formula_units_Z 34
_cell_length_a 5.073592
_cell_length_b 19.076131
_cell_length_c 14.040827
_cell_angle_alpha 90.000000
_cell_angle_beta 90.000000
_cell_angle_gamma 90.000000
_cell_volume 1358.934500
_symmetry_space_group_name_H-M "P B A N"
_symmetry_group_IT_number 50
_space_group.IT_coordinate_system_code '2'
_symmetry_cell_setting 'orthorhombic'
loop_
_space_group_symop_operation_xyz
x,y,z
1/2-x,1/2-y,z
x,1/2-y,-z
1/2-x,y,-z
-x,-y,-z
1/2+x,1/2+y,-z
-x,1/2+y,z
1/2+x,-y,z
loop_
_atom_site_type_symbol
_atom_site_label
_atom_site_fract_x
_atom_site_fract_y
_atom_site_fract_z
Si Si1 0.250000 0.250000 0.710229
Si Si2 0.420708 0.350348 0.856338
Si Si3 0.012504 0.837287 0.436222
Si Si4 0.638355 0.047885 0.289379
Si Si5 0.750000 0.547418 0.000000
Si Si6 0.250000 0.750000 0.000000
O O1 0.210890 0.314447 0.783470
O O2 0.012767 0.225917 0.641463
O O3 0.629978 0.396909 0.797814
O O4 0.228383 0.403309 0.909035
O O5 0.568229 0.297786 0.930350
O O6 0.750000 0.845885 0.500000
O O7 0.085454 0.911077 0.387862
O O8 0.250000 0.811847 0.500000
O O9 0.927100 0.014672 0.284259
O O10 0.500000 0.500000 0.000000
#
# Coordination Sequence:
#
# PCOD8205719 Si02
#       6
#     4   8   8   8   4   2
#     4  10  25  45  70 102 150 194 244 305 371 444
#     4  11  25  45  71 109 148 195 247 304 373 436
#     4  11  25  45  72 107 143 188 243 303 369 438
#     4  11  25  46  73 104 144 189 240 300 365 438
#     4  12  25  45  74 107 149 196 250 306 364 444
#     4  12  26  46  80 114 156 198 256 316 372 450
#
# _framework density 25.019601000000002
#
# number of rings (size 3 to 8) (size 9 to 14) (size 15 to 20)
#    0.000    0.941    0.000    5.294    0.000   14.118 
#    0.000    0.000    0.000    0.000    0.000    0.000 
#    0.000    0.000    0.000    0.000    0.000    0.000 
#
# Total GULP energy -421221.713923 kJ/mol
# GULP energy per Si atom -12388.873939 kJ/mol
# Density = 2.496266 g / cm^3
# Si number density = 25.019601 Si / 1000 Ang^3
#
#
#
# Elastic Constant Matrix: (Units=GPa)
#
#
# Indices 1 2 3 4 5 6 
#
# 1 116.2860 50.0045 58.0029 0.0000 0.0000 0.0000
# 2 50.0045 152.6459 86.2413 0.0000 0.0000 0.0000
# 3 58.0029 86.2413 177.8141 0.0000 0.0000 0.0000
# 4 0.0000 0.0000 0.0000 25.3579 0.0000 0.0000
# 5 0.0000 0.0000 0.0000 0.0000 27.0364 0.0000
# 6 0.0000 0.0000 0.0000 0.0000 0.0000 11.2939
#
#
#
# Elastic Compliance Matrix: (Units=1/GPa)
#
#
# Indices 1 2 3 4 5 6 
#
# 1 0.010747 -0.002121 -0.002477 0.000000 0.000000 0.000000
# 2 -0.002121 0.009442 -0.003888 0.000000 0.000000 0.000000
# 3 -0.002477 -0.003888 0.008317 0.000000 0.000000 0.000000
# 4 0.000000 0.000000 0.000000 0.039435 0.000000 0.000000
# 5 0.000000 0.000000 0.000000 0.000000 0.036987 0.000000
# 6 0.000000 0.000000 0.000000 0.000000 0.000000 0.088543
#
#
# Mechanical properties :
#
#
# Convention : Reuss Voigt Hill
#
# Bulk Modulus (GPa) = 86.69052 92.80482 89.74767
# Shear Modulus (GPa) = 23.33293 29.57080 26.45186
#
# Velocity S-wave (km/s) = 3.05714 3.44161 3.25506
# Velocity P-wave (km/s) = 6.86919 7.27780 7.07644
#
# Compressibility (1/GPa) = 0.01153529
#
# Stress axis : x y z
#
# Youngs Moduli (GPa) = 93.04839 105.90466 120.22993
#
# Poissons Ratio (x) = 0.22464 0.29780
# Poissons Ratio (y) = 0.19737 0.46742
# Poissons Ratio (z) = 0.23047 0.41173
#
# Static dielectric constant tensor:
#      x y z
#    x 4.296710 0.000000 0.000000 
#    y 0.000000 5.301010 0.000000 
#    z 0.000000 0.000000 5.301090 
# 
# 
# High freq. dielectric constant tensor:
#      x y z
#    x 1.977480 0.000000 0.000000 
#    y 0.000000 2.022690 0.000000 
#    z 0.000000 0.000000 2.027860 
# 
# From -- ./inp_files/23737.got.cif
#   From: 2010.03.12/outbox.cif.g09.slc.cpg/sg50_12_cif.got.tgz:23737.got - 2010.04.16 13:23:21.
