data_PCOD8205695
_publ_section_title
;
Structure prediction by ZEFSAII (Michael W. Deem and Ramdas Pophale) SiO2 
 PCOD8205695
Probable space group: P B A N
;
_chemical_formula_sum "Si O2"
_cell_formula_units_Z 26
_cell_length_a 26.899154
_cell_length_b 5.591651
_cell_length_c 7.542987
_cell_angle_alpha 90.000000
_cell_angle_beta 90.000000
_cell_angle_gamma 90.000000
_cell_volume 1134.545814
_symmetry_space_group_name_H-M "P B A N"
_symmetry_group_IT_number 50
_space_group.IT_coordinate_system_code '2'
_symmetry_cell_setting 'orthorhombic'
loop_
_space_group_symop_operation_xyz
x,y,z
1/2-x,1/2-y,z
x,1/2-y,-z
1/2-x,y,-z
-x,-y,-z
1/2+x,1/2+y,-z
-x,1/2+y,z
1/2+x,-y,z
loop_
_atom_site_type_symbol
_atom_site_label
_atom_site_fract_x
_atom_site_fract_y
_atom_site_fract_z
Si Si1 0.605813 0.644064 0.694969
Si Si2 0.029970 0.250000 0.000000
Si Si3 0.353580 0.750000 0.500000
Si Si4 0.298106 0.099674 0.267601
Si Si5 0.750000 0.250000 0.000000
O O1 0.595381 0.750000 0.500000
O O2 0.561715 0.725858 0.821299
O O3 0.611995 0.355982 0.660450
O O4 0.656655 0.730114 0.790407
O O5 0.000000 0.500000 0.000000
O O6 0.317013 0.537694 0.558129
O O7 0.250000 0.250000 0.319435
O O8 0.286471 0.914803 0.112709
#
# Coordination Sequence:
#
# PCOD8205695 Si02
#       5
#     8   4   4   8   2
#     4  10  26  48  76 109 150 193 250 312 381 460
#     4  12  32  53  83 114 147 196 259 328 404 470
#     4  10  24  45  72 102 152 196 250 304 377 464
#     4  11  25  41  66 107 146 203 242 298 371 451
#     4  12  26  36  60 102 152 202 248 300 348 448
#
# _framework density 22.916657000000001
#
# number of rings (size 3 to 8) (size 9 to 14) (size 15 to 20)
#    0.000    1.231    0.000    2.308   17.231   16.000 
#    0.000    0.000    0.000    0.000    0.000    0.000 
#    0.000    0.000    0.000    0.000    0.000    0.000 
#
# Total GULP energy -322177.272722 kJ/mol
# GULP energy per Si atom -12391.433566 kJ/mol
# Density = 2.286450 g / cm^3
# Si number density = 22.916657 Si / 1000 Ang^3
#
#
#
# Elastic Constant Matrix: (Units=GPa)
#
#
# Indices 1 2 3 4 5 6 
#
# 1 158.6385 85.6137 71.9238 0.0000 0.0000 0.0000
# 2 85.6137 170.2763 54.3216 0.0000 0.0000 0.0000
# 3 71.9238 54.3216 128.1629 0.0000 0.0000 0.0000
# 4 0.0000 0.0000 0.0000 22.3459 0.0000 0.0000
# 5 0.0000 0.0000 0.0000 0.0000 40.0728 0.0000
# 6 0.0000 0.0000 0.0000 0.0000 0.0000 28.5327
#
#
#
# Elastic Compliance Matrix: (Units=1/GPa)
#
#
# Indices 1 2 3 4 5 6 
#
# 1 0.010242 -0.003834 -0.004123 0.000000 0.000000 0.000000
# 2 -0.003834 0.008227 -0.001335 0.000000 0.000000 0.000000
# 3 -0.004123 -0.001335 0.010682 0.000000 0.000000 0.000000
# 4 0.000000 0.000000 0.000000 0.044751 0.000000 0.000000
# 5 0.000000 0.000000 0.000000 0.000000 0.024955 0.000000
# 6 0.000000 0.000000 0.000000 0.000000 0.000000 0.035047
#
#
# Mechanical properties :
#
#
# Convention : Reuss Voigt Hill
#
# Bulk Modulus (GPa) = 94.63701 97.86622 96.25161
# Shear Modulus (GPa) = 32.04926 34.53819 33.29373
#
# Velocity S-wave (km/s) = 3.74373 3.88638 3.81572
# Velocity P-wave (km/s) = 7.75069 7.93326 7.84250
#
# Compressibility (1/GPa) = 0.01056669
#
# Stress axis : x y z
#
# Youngs Moduli (GPa) = 97.63617 121.55625 93.61613
#
# Poissons Ratio (x) = 0.46611 0.38594
# Poissons Ratio (y) = 0.37438 0.12498
# Poissons Ratio (z) = 0.40251 0.16227
#
# Static dielectric constant tensor:
#      x y z
#    x 4.570700 0.000000 0.000000 
#    y 0.000000 4.988930 0.000000 
#    z 0.000000 0.000000 4.266570 
# 
# 
# High freq. dielectric constant tensor:
#      x y z
#    x 1.890240 0.000000 0.000000 
#    y 0.000000 1.929770 0.000000 
#    z 0.000000 0.000000 1.908470 
# 
# From -- ./inp_files/7693.got.cif
#   From: 2010.03.12/outbox.cif.g09.slc.cpg/sg50_4_cif.got.tgz:7693.got - 2010.04.16 13:23:21.
