data_PCOD8205334
_publ_section_title
;
Structure prediction by ZEFSAII (Michael W. Deem and Ramdas Pophale) SiO2 
 PCOD8205334
Probable space group: P B A N
;
_chemical_formula_sum "Si O2"
_cell_formula_units_Z 64
_cell_length_a 20.661949
_cell_length_b 8.988546
_cell_length_c 17.231687
_cell_angle_alpha 90.000000
_cell_angle_beta 90.000000
_cell_angle_gamma 90.000000
_cell_volume 3200.284057
_symmetry_space_group_name_H-M "P B A N"
_symmetry_group_IT_number 50
_space_group.IT_coordinate_system_code '2'
_symmetry_cell_setting 'orthorhombic'
loop_
_space_group_symop_operation_xyz
x,y,z
1/2-x,1/2-y,z
x,1/2-y,-z
1/2-x,y,-z
-x,-y,-z
1/2+x,1/2+y,-z
-x,1/2+y,z
1/2+x,-y,z
loop_
_atom_site_type_symbol
_atom_site_label
_atom_site_fract_x
_atom_site_fract_y
_atom_site_fract_z
Si Si1 0.676256 0.075895 0.654774
Si Si2 0.880118 0.925241 0.089588
Si Si3 0.826713 0.584017 0.500000
Si Si4 0.063290 0.925682 0.229367
Si Si5 0.119882 0.074759 0.089588
Si Si6 0.176256 0.924105 0.345226
Si Si7 0.063290 0.574318 0.229367
Si Si8 0.250000 0.584575 0.091211
O O1 0.750000 0.025784 0.675920
O O2 0.674182 0.250000 0.638775
O O3 0.627849 0.029962 0.723582
O O4 0.649310 0.998671 0.577165
O O5 0.879268 0.750000 0.103821
O O6 0.933268 0.004412 0.142990
O O7 0.811986 0.992472 0.117555
O O8 0.895095 0.963567 0.000000
O O9 0.855508 0.750000 0.500000
O O10 0.750000 0.585245 0.500000
O O11 0.850690 0.501329 0.422835
O O12 0.127849 0.970038 0.276418
O O13 0.054088 0.750000 0.223900
O O14 0.066732 0.995588 0.142990
O O15 0.000000 0.000000 0.269254
O O16 0.188014 0.007528 0.117555
O O17 0.250000 0.750000 0.130543
O O18 0.250000 0.604837 0.000000
#
# Coordination Sequence:
#
# PCOD8205334 Si02
#       8
#     8   8   8   8   8   8   8   8
#     4   9  19  37  61  87 115 150 190 233 283 342
#     4  10  21  37  57  82 113 150 194 244 297 349
#     4   9  17  31  56  91 122 147 181 229 282 337
#     4  11  24  40  59  83 116 155 196 243 295 351
#     4  10  21  37  57  82 113 150 194 244 297 349
#     4   9  19  37  61  87 115 150 190 233 283 342
#     4  11  24  40  59  83 116 155 196 243 295 351
#     4   9  17  31  53  81 111 142 181 232 287 343
#
# _framework density 19.998222999999999
#
# number of rings (size 3 to 8) (size 9 to 14) (size 15 to 20)
#    0.000    2.250    0.000    2.250    1.750    7.000 
#    0.000    0.625    0.000    0.000    0.000    0.000 
#    0.000    0.000    0.000    0.000    0.000    0.000 
#
# Total GULP energy -793558.401591 kJ/mol
# GULP energy per Si atom -12399.350025 kJ/mol
# Density = 1.995271 g / cm^3
# Si number density = 19.998223 Si / 1000 Ang^3
#
#
#
# Elastic Constant Matrix: (Units=GPa)
#
#
# Indices 1 2 3 4 5 6 
#
# 1 106.2389 50.6232 54.6605 0.0000 0.0000 0.0000
# 2 50.6232 101.4872 60.1134 0.0000 0.0000 0.0000
# 3 54.6605 60.1134 108.9458 0.0000 0.0000 0.0000
# 4 0.0000 0.0000 0.0000 26.7598 0.0000 0.0000
# 5 0.0000 0.0000 0.0000 0.0000 12.5440 0.0000
# 6 0.0000 0.0000 0.0000 0.0000 0.0000 33.6831
#
#
#
# Elastic Compliance Matrix: (Units=1/GPa)
#
#
# Indices 1 2 3 4 5 6 
#
# 1 0.013758 -0.004121 -0.004629 0.000000 0.000000 0.000000
# 2 -0.004121 0.015872 -0.006690 0.000000 0.000000 0.000000
# 3 -0.004629 -0.006690 0.015193 0.000000 0.000000 0.000000
# 4 0.000000 0.000000 0.000000 0.037370 0.000000 0.000000
# 5 0.000000 0.000000 0.000000 0.000000 0.079720 0.000000
# 6 0.000000 0.000000 0.000000 0.000000 0.000000 0.029688
#
#
# Mechanical properties :
#
#
# Convention : Reuss Voigt Hill
#
# Bulk Modulus (GPa) = 71.72195 71.94068 71.83132
# Shear Modulus (GPa) = 22.01411 24.68235 23.34823
#
# Velocity S-wave (km/s) = 3.32144 3.51697 3.42060
# Velocity P-wave (km/s) = 7.11697 7.24870 7.18314
#
# Compressibility (1/GPa) = 0.01394273
#
# Stress axis : x y z
#
# Youngs Moduli (GPa) = 72.68532 63.00537 65.82113
#
# Poissons Ratio (x) = 0.25963 0.30468
# Poissons Ratio (y) = 0.29952 0.44035
# Poissons Ratio (z) = 0.33645 0.42151
#
# Static dielectric constant tensor:
#      x y z
#    x 3.670930 0.000000 0.000000 
#    y 0.000000 3.698430 0.000000 
#    z 0.000000 0.000000 3.598720 
# 
# 
# High freq. dielectric constant tensor:
#      x y z
#    x 1.766750 0.000000 0.000000 
#    y 0.000000 1.787020 0.000000 
#    z 0.000000 0.000000 1.772210 
# 
# From -- ./inp_files/29880.got.cif
#   From: 2010.03.12/outbox.cif.g09.slc.cpg/sg50_15_cif.got.tgz:29880.got - 2010.04.16 13:23:21.
