data_PCOD8205644
_publ_section_title
;
Structure prediction by ZEFSAII (Michael W. Deem and Ramdas Pophale) SiO2 
 PCOD8205644
Probable space group: P B A N
;
_chemical_formula_sum "Si O2"
_cell_formula_units_Z 48
_cell_length_a 14.212560
_cell_length_b 16.461716
_cell_length_c 9.954747
_cell_angle_alpha 90.000000
_cell_angle_beta 90.000000
_cell_angle_gamma 90.000000
_cell_volume 2329.043730
_symmetry_space_group_name_H-M "P B A N"
_symmetry_group_IT_number 50
_space_group.IT_coordinate_system_code '2'
_symmetry_cell_setting 'orthorhombic'
loop_
_space_group_symop_operation_xyz
x,y,z
1/2-x,1/2-y,z
x,1/2-y,-z
1/2-x,y,-z
-x,-y,-z
1/2+x,1/2+y,-z
-x,1/2+y,z
1/2+x,-y,z
loop_
_atom_site_type_symbol
_atom_site_label
_atom_site_fract_x
_atom_site_fract_y
_atom_site_fract_z
Si Si1 0.686882 0.672959 0.268485
Si Si2 0.516079 0.206969 0.361590
Si Si3 0.250000 0.412005 0.000000
Si Si4 0.572990 0.031433 0.394726
Si Si5 0.084759 0.524048 0.900616
Si Si6 0.250000 0.445078 0.500000
Si Si7 0.356046 0.786349 0.867497
O O1 0.750000 0.750000 0.304637
O O2 0.577259 0.694576 0.273754
O O3 0.708755 0.643469 0.118514
O O4 0.702315 0.606949 0.383513
O O5 0.490018 0.250000 0.500000
O O6 0.571544 0.127352 0.404307
O O7 0.589159 0.251238 0.261155
O O8 0.170679 0.467862 0.938452
O O9 0.545668 0.999720 0.246199
O O10 0.500000 0.000000 0.500000
O O11 0.676515 0.003005 0.429065
O O12 0.126778 0.616166 0.887275
O O13 0.000000 0.500000 0.000000
O O14 0.250000 0.750000 0.856867
O O15 0.403782 0.750000 0.000000
#
# Coordination Sequence:
#
# PCOD8205644 Si02
#       7
#     8   8   4   8   8   4   8
#     4  12  26  44  67  99 138 185 230 285 352 413
#     4  11  25  44  68 102 139 176 233 286 344 416
#     4  12  23  44  67 100 136 180 236 290 343 416
#     4  11  24  43  69 102 135 183 231 281 351 416
#     4  11  25  43  70 102 139 182 237 293 350 423
#     4  12  23  46  71  96 144 178 224 292 345 418
#     4  10  23  45  69 100 142 187 228 284 358 423
#
# _framework density 20.609317000000001
#
# number of rings (size 3 to 8) (size 9 to 14) (size 15 to 20)
#    0.000    0.833    3.333    4.500    0.000    7.000 
#    0.000    0.000    0.000    0.000    0.000    0.000 
#    0.000    0.000    0.000    0.000    0.000    0.000 
#
# Total GULP energy -594803.995376 kJ/mol
# GULP energy per Si atom -12391.749904 kJ/mol
# Density = 2.056241 g / cm^3
# Si number density = 20.609317 Si / 1000 Ang^3
#
#
#
# Elastic Constant Matrix: (Units=GPa)
#
#
# Indices 1 2 3 4 5 6 
#
# 1 127.9647 57.6602 73.8157 0.0000 0.0000 0.0000
# 2 57.6602 85.6463 46.1934 0.0000 0.0000 0.0000
# 3 73.8157 46.1934 188.9845 0.0000 0.0000 0.0000
# 4 0.0000 0.0000 0.0000 83.7606 0.0000 0.0000
# 5 0.0000 0.0000 0.0000 0.0000 12.7537 0.0000
# 6 0.0000 0.0000 0.0000 0.0000 0.0000 35.9443
#
#
#
# Elastic Compliance Matrix: (Units=1/GPa)
#
#
# Indices 1 2 3 4 5 6 
#
# 1 0.012817 -0.006829 -0.003337 0.000000 0.000000 0.000000
# 2 -0.006829 0.017087 -0.001509 0.000000 0.000000 0.000000
# 3 -0.003337 -0.001509 0.006964 0.000000 0.000000 0.000000
# 4 0.000000 0.000000 0.000000 0.011939 0.000000 0.000000
# 5 0.000000 0.000000 0.000000 0.000000 0.078409 0.000000
# 6 0.000000 0.000000 0.000000 0.000000 0.000000 0.027821
#
#
# Mechanical properties :
#
#
# Convention : Reuss Voigt Hill
#
# Bulk Modulus (GPa) = 73.97792 84.21489 79.09641
# Shear Modulus (GPa) = 27.33854 41.48680 34.41267
#
# Velocity S-wave (km/s) = 3.64608 4.49153 4.09071
# Velocity P-wave (km/s) = 7.32793 8.23709 7.79578
#
# Compressibility (1/GPa) = 0.01351755
#
# Stress axis : x y z
#
# Youngs Moduli (GPa) = 78.02430 58.52256 143.60123
#
# Poissons Ratio (x) = 0.39964 0.47918
# Poissons Ratio (y) = 0.53281 0.21675
# Poissons Ratio (z) = 0.26036 0.08833
#
# Static dielectric constant tensor:
#      x y z
#    x 3.784690 0.000000 0.000000 
#    y 0.000000 3.662790 0.000000 
#    z 0.000000 0.000000 4.183720 
# 
# 
# High freq. dielectric constant tensor:
#      x y z
#    x 1.817290 0.000000 0.000000 
#    y 0.000000 1.803680 0.000000 
#    z 0.000000 0.000000 1.835350 
# 
# From -- ./inp_files/13007.got.cif
#   From: 2010.03.12/outbox.cif.g09.slc.cpg/sg50_7_cif.got.tgz:13007.got - 2010.04.16 13:23:21.
