data_PCOD8205373
_publ_section_title
;
Structure prediction by ZEFSAII (Michael W. Deem and Ramdas Pophale) SiO2 
 PCOD8205373
Probable space group: P B A N
;
_chemical_formula_sum "Si O2"
_cell_formula_units_Z 36
_cell_length_a 10.863145
_cell_length_b 21.664380
_cell_length_c 7.564372
_cell_angle_alpha 90.000000
_cell_angle_beta 90.000000
_cell_angle_gamma 90.000000
_cell_volume 1780.224279
_symmetry_space_group_name_H-M "P B A N"
_symmetry_group_IT_number 50
_space_group.IT_coordinate_system_code '2'
_symmetry_cell_setting 'orthorhombic'
loop_
_space_group_symop_operation_xyz
x,y,z
1/2-x,1/2-y,z
x,1/2-y,-z
1/2-x,y,-z
-x,-y,-z
1/2+x,1/2+y,-z
-x,1/2+y,z
1/2+x,-y,z
loop_
_atom_site_type_symbol
_atom_site_label
_atom_site_fract_x
_atom_site_fract_y
_atom_site_fract_z
Si Si1 0.129073 0.622092 0.787843
Si Si2 0.965302 0.820318 0.494217
Si Si3 0.587175 0.120467 0.818952
Si Si4 0.750000 0.590558 0.500000
Si Si5 0.062584 0.487824 0.686847
O O1 0.076229 0.668785 0.642252
O O2 0.273628 0.619847 0.751010
O O3 0.081455 0.552414 0.780454
O O4 0.088442 0.646408 0.981089
O O5 0.920877 0.750000 0.500000
O O6 0.006449 0.835704 0.693620
O O7 0.856545 0.864783 0.424553
O O8 0.529247 0.051993 0.808677
O O9 0.807119 0.547759 0.344639
O O10 0.000000 0.500000 0.500000
#
# Coordination Sequence:
#
# PCOD8205373 Si02
#       5
#     8   8   8   4   8
#     4  11  22  38  61  90 125 153 199 253 303 365
#     4  11  24  42  62  84 121 166 209 248 292 354
#     4  10  23  38  59  92 118 159 200 246 310 358
#     4  10  21  38  64  90 119 160 200 246 302 364
#     4  11  19  36  63  90 124 157 189 245 311 363
#
# _framework density 20.222169999999998
#
# number of rings (size 3 to 8) (size 9 to 14) (size 15 to 20)
#    0.000    1.333    4.444    3.000    0.000    2.667 
#    0.000    5.556    0.000    5.333    0.000    0.000 
#    0.000    0.000    0.000    0.000    0.000    0.000 
#
# Total GULP energy -446351.448865 kJ/mol
# GULP energy per Si atom -12398.651357 kJ/mol
# Density = 2.017614 g / cm^3
# Si number density = 20.222170 Si / 1000 Ang^3
#
#
#
# Elastic Constant Matrix: (Units=GPa)
#
#
# Indices 1 2 3 4 5 6 
#
# 1 94.4780 17.1182 29.2818 0.0000 0.0000 0.0000
# 2 17.1182 84.9424 19.6515 0.0000 0.0000 0.0000
# 3 29.2818 19.6515 77.3371 0.0000 0.0000 0.0000
# 4 0.0000 0.0000 0.0000 14.9896 0.0000 0.0000
# 5 0.0000 0.0000 0.0000 0.0000 26.3970 0.0000
# 6 0.0000 0.0000 0.0000 0.0000 0.0000 17.7072
#
#
#
# Elastic Compliance Matrix: (Units=1/GPa)
#
#
# Indices 1 2 3 4 5 6 
#
# 1 0.012163 -0.001472 -0.004231 0.000000 0.000000 0.000000
# 2 -0.001472 0.012686 -0.002666 0.000000 0.000000 0.000000
# 3 -0.004231 -0.002666 0.015210 0.000000 0.000000 0.000000
# 4 0.000000 0.000000 0.000000 0.066713 0.000000 0.000000
# 5 0.000000 0.000000 0.000000 0.000000 0.037883 0.000000
# 6 0.000000 0.000000 0.000000 0.000000 0.000000 0.056474
#
#
# Mechanical properties :
#
#
# Convention : Reuss Voigt Hill
#
# Bulk Modulus (GPa) = 42.88191 43.20672 43.04432
# Shear Modulus (GPa) = 22.15908 24.53247 23.34577
#
# Velocity S-wave (km/s) = 3.31385 3.48680 3.40143
# Velocity P-wave (km/s) = 5.99112 6.13374 6.06285
#
# Compressibility (1/GPa) = 0.02331986
#
# Stress axis : x y z
#
# Youngs Moduli (GPa) = 82.21971 78.82581 65.74696
#
# Poissons Ratio (x) = 0.11605 0.27817
# Poissons Ratio (y) = 0.12105 0.17529
# Poissons Ratio (z) = 0.34787 0.21016
#
# Static dielectric constant tensor:
#      x y z
#    x 4.578560 0.000000 0.000000 
#    y 0.000000 4.395350 0.000000 
#    z 0.000000 0.000000 2.444530 
# 
# 
# High freq. dielectric constant tensor:
#      x y z
#    x 1.799560 0.000000 0.000000 
#    y 0.000000 1.783280 0.000000 
#    z 0.000000 0.000000 1.777520 
# 
# From -- ./inp_files/11241.got.cif
#   From: 2010.03.12/outbox.cif.g09.slc.cpg/sg50_6_cif.got.tgz:11241.got - 2010.04.16 13:23:21.
