data_PCOD8205760
_publ_section_title
;
Structure prediction by ZEFSAII (Michael W. Deem and Ramdas Pophale) SiO2 
 PCOD8205760
Probable space group: P B A N
;
_chemical_formula_sum "Si O2"
_cell_formula_units_Z 54
_cell_length_a 11.217712
_cell_length_b 21.584729
_cell_length_c 10.401322
_cell_angle_alpha 90.000000
_cell_angle_beta 90.000000
_cell_angle_gamma 90.000000
_cell_volume 2518.485342
_symmetry_space_group_name_H-M "P B A N"
_symmetry_group_IT_number 50
_space_group.IT_coordinate_system_code '2'
_symmetry_cell_setting 'orthorhombic'
loop_
_space_group_symop_operation_xyz
x,y,z
1/2-x,1/2-y,z
x,1/2-y,-z
1/2-x,y,-z
-x,-y,-z
1/2+x,1/2+y,-z
-x,1/2+y,z
1/2+x,-y,z
loop_
_atom_site_type_symbol
_atom_site_label
_atom_site_fract_x
_atom_site_fract_y
_atom_site_fract_z
Si Si1 0.362312 0.068761 0.217352
Si Si2 0.250000 0.750000 0.500000
Si Si3 0.325975 0.849117 0.309820
Si Si4 0.750000 0.001731 0.000000
Si Si5 0.217527 0.182562 0.147855
Si Si6 0.038353 0.684374 0.066974
Si Si7 0.384099 0.598923 0.166055
Si Si8 0.376539 0.526081 0.570395
O O1 0.288826 0.132477 0.232006
O O2 0.501425 0.077137 0.243211
O O3 0.324184 0.022685 0.328484
O O4 0.344333 0.041467 0.073785
O O5 0.333435 0.794322 0.413900
O O6 0.359725 0.819919 0.172248
O O7 0.189813 0.867917 0.278830
O O8 0.405398 0.907890 0.358646
O O9 0.812571 0.041165 0.889896
O O10 0.250000 0.250000 0.205753
O O11 0.077781 0.167308 0.150930
O O12 0.250000 0.179472 0.000000
O O13 0.022315 0.750000 0.000000
O O14 0.070322 0.638763 0.953009
O O15 0.250000 0.539246 0.500000
O O16 0.500000 0.500000 0.500000
#
# Coordination Sequence:
#
# PCOD8205760 Si02
#       8
#     8   2   8   4   8   8   8   8
#     4  12  24  40  73  98 139 184 222 292 362 418
#     4  12  28  48  66  92 138 188 246 286 350 412
#     4  12  26  46  70  99 137 185 237 296 350 424
#     4  12  22  38  62 106 140 170 222 280 366 434
#     4  11  21  41  62 101 142 178 215 268 350 439
#     4  12  22  40  70 102 140 177 223 284 361 436
#     4  12  22  41  64 106 138 168 224 289 362 432
#     4  12  28  51  74 100 141 193 257 304 351 420
#
# _framework density 21.441457
#
# number of rings (size 3 to 8) (size 9 to 14) (size 15 to 20)
#    0.000    0.148    7.407    2.222    2.074    0.593 
#    0.000    0.000    0.000    0.444    0.000    0.000 
#    0.000    0.000    0.000    0.000    0.000    0.000 
#
# Total GULP energy -669171.629974 kJ/mol
# GULP energy per Si atom -12392.067222 kJ/mol
# Density = 2.139266 g / cm^3
# Si number density = 21.441457 Si / 1000 Ang^3
#
#
#
# Elastic Constant Matrix: (Units=GPa)
#
#
# Indices 1 2 3 4 5 6 
#
# 1 103.3008 32.9780 3.6210 0.0000 0.0000 0.0000
# 2 32.9780 139.6146 40.8917 0.0000 0.0000 0.0000
# 3 3.6210 40.8917 58.4337 0.0000 0.0000 0.0000
# 4 0.0000 0.0000 0.0000 11.4308 0.0000 0.0000
# 5 0.0000 0.0000 0.0000 0.0000 36.5143 0.0000
# 6 0.0000 0.0000 0.0000 0.0000 0.0000 23.5807
#
#
#
# Elastic Compliance Matrix: (Units=1/GPa)
#
#
# Indices 1 2 3 4 5 6 
#
# 1 0.010557 -0.002895 0.001372 0.000000 0.000000 0.000000
# 2 -0.002895 0.009803 -0.006681 0.000000 0.000000 0.000000
# 3 0.001372 -0.006681 0.021704 0.000000 0.000000 0.000000
# 4 0.000000 0.000000 0.000000 0.087483 0.000000 0.000000
# 5 0.000000 0.000000 0.000000 0.000000 0.027387 0.000000
# 6 0.000000 0.000000 0.000000 0.000000 0.000000 0.042408
#
#
# Mechanical properties :
#
#
# Convention : Reuss Voigt Hill
#
# Bulk Modulus (GPa) = 38.97862 50.70339 44.84100
# Shear Modulus (GPa) = 22.29146 29.22904 25.76025
#
# Velocity S-wave (km/s) = 3.22785 3.69616 3.46991
# Velocity P-wave (km/s) = 5.66662 6.47412 6.08378
#
# Compressibility (1/GPa) = 0.02565509
#
# Stress axis : x y z
#
# Youngs Moduli (GPa) = 94.72646 102.00697 46.07523
#
# Poissons Ratio (x) = 0.29535 -0.06322
# Poissons Ratio (y) = 0.27427 0.30782
# Poissons Ratio (z) = -0.12997 0.68149
#
# Static dielectric constant tensor:
#      x y z
#    x 4.665960 0.000000 0.000000 
#    y 0.000000 3.943240 0.000000 
#    z 0.000000 0.000000 3.804130 
# 
# 
# High freq. dielectric constant tensor:
#      x y z
#    x 1.844150 0.000000 0.000000 
#    y 0.000000 1.857880 0.000000 
#    z 0.000000 0.000000 1.829650 
# 
# From -- ./inp_files/20410.got.cif
#   From: 2010.03.12/outbox.cif.g09.slc.cpg/sg50_11_cif.got.tgz:20410.got - 2010.04.16 13:23:21.
