data_PCOD8205870
_publ_section_title
;
Structure prediction by ZEFSAII (Michael W. Deem and Ramdas Pophale) SiO2 
 PCOD8205870
Probable space group: P B A N
;
_chemical_formula_sum "Si O2"
_cell_formula_units_Z 32
_cell_length_a 9.772011
_cell_length_b 9.437699
_cell_length_c 14.215498
_cell_angle_alpha 90.000000
_cell_angle_beta 90.000000
_cell_angle_gamma 90.000000
_cell_volume 1311.028546
_symmetry_space_group_name_H-M "P B A N"
_symmetry_group_IT_number 50
_space_group.IT_coordinate_system_code '2'
_symmetry_cell_setting 'orthorhombic'
loop_
_space_group_symop_operation_xyz
x,y,z
1/2-x,1/2-y,z
x,1/2-y,-z
1/2-x,y,-z
-x,-y,-z
1/2+x,1/2+y,-z
-x,1/2+y,z
1/2+x,-y,z
loop_
_atom_site_type_symbol
_atom_site_label
_atom_site_fract_x
_atom_site_fract_y
_atom_site_fract_z
Si Si1 0.518767 0.750000 0.000000
Si Si2 0.750000 0.543559 0.000000
Si Si3 0.584052 0.659167 0.595516
Si Si4 0.827170 0.122773 0.158828
Si Si5 0.372207 0.054324 0.337360
O O1 0.439749 0.815297 0.087981
O O2 0.619187 0.628015 0.037958
O O3 0.711494 0.448766 0.908815
O O4 0.601773 0.750000 0.500000
O O5 0.457319 0.550045 0.592694
O O6 0.563328 0.786750 0.671705
O O7 0.719019 0.567455 0.620789
O O8 0.750000 0.250000 0.213470
O O9 0.884229 0.012599 0.234332
#
# Coordination Sequence:
#
# PCOD8205870 Si02
#       5
#     4   4   8   8   8
#     4  11  25  42  70  98 143 203 254 318 374 457
#     4  11  25  42  70  96 147 207 246 320 382 448
#     4  11  27  55  78 116 159 200 259 321 407 472
#     4  12  26  45  69 108 150 197 265 312 384 449
#     4  11  28  45  82 114 153 204 259 328 377 483
#
# _framework density 24.408317
#
# number of rings (size 3 to 8) (size 9 to 14) (size 15 to 20)
#    0.000    0.750    2.500    3.000   10.500    2.000 
#    0.000    2.500    0.000    0.000    0.000    0.000 
#    0.000    0.000    0.000    0.000    0.000    0.000 
#
# Total GULP energy -396437.012087 kJ/mol
# GULP energy per Si atom -12388.656628 kJ/mol
# Density = 2.435276 g / cm^3
# Si number density = 24.408317 Si / 1000 Ang^3
#
#
#
# Elastic Constant Matrix: (Units=GPa)
#
#
# Indices 1 2 3 4 5 6 
#
# 1 124.2934 90.3539 55.8303 0.0000 0.0000 0.0000
# 2 90.3539 167.9006 53.8306 0.0000 0.0000 0.0000
# 3 55.8303 53.8306 127.7882 0.0000 0.0000 0.0000
# 4 0.0000 0.0000 0.0000 49.7535 0.0000 0.0000
# 5 0.0000 0.0000 0.0000 0.0000 29.0433 0.0000
# 6 0.0000 0.0000 0.0000 0.0000 0.0000 26.3369
#
#
#
# Elastic Compliance Matrix: (Units=1/GPa)
#
#
# Indices 1 2 3 4 5 6 
#
# 1 0.014463 -0.006656 -0.003515 0.000000 0.000000 0.000000
# 2 -0.006656 0.009949 -0.001283 0.000000 0.000000 0.000000
# 3 -0.003515 -0.001283 0.009902 0.000000 0.000000 0.000000
# 4 0.000000 0.000000 0.000000 0.020099 0.000000 0.000000
# 5 0.000000 0.000000 0.000000 0.000000 0.034431 0.000000
# 6 0.000000 0.000000 0.000000 0.000000 0.000000 0.037970
#
#
# Mechanical properties :
#
#
# Convention : Reuss Voigt Hill
#
# Bulk Modulus (GPa) = 87.67696 91.11243 89.39469
# Shear Modulus (GPa) = 32.56825 35.69122 34.12973
#
# Velocity S-wave (km/s) = 3.65678 3.82809 3.74342
# Velocity P-wave (km/s) = 7.33678 7.54643 7.44234
#
# Compressibility (1/GPa) = 0.01140551
#
# Stress axis : x y z
#
# Youngs Moduli (GPa) = 69.14228 100.51070 100.99395
#
# Poissons Ratio (x) = 0.66901 0.35499
# Poissons Ratio (y) = 0.46022 0.12958
# Poissons Ratio (z) = 0.24303 0.12896
#
# Static dielectric constant tensor:
#      x y z
#    x 4.310540 0.000000 0.000000 
#    y 0.000000 5.500450 0.000000 
#    z 0.000000 0.000000 4.226010 
# 
# 
# High freq. dielectric constant tensor:
#      x y z
#    x 1.961780 0.000000 0.000000 
#    y 0.000000 2.006510 0.000000 
#    z 0.000000 0.000000 1.958680 
# 
# From -- ./inp_files/25616.got.cif
#   From: 2010.03.12/outbox.cif.g09.slc.cpg/sg50_13_cif.got.tgz:25616.got - 2010.04.16 13:23:21.
