data_PCOD8205946
_publ_section_title
;
Structure prediction by ZEFSAII (Michael W. Deem and Ramdas Pophale) SiO2 
 PCOD8205946
Probable space group: P M M A
;
_chemical_formula_sum "Si O2"
_cell_formula_units_Z 44
_cell_length_a 8.936897
_cell_length_b 17.598047
_cell_length_c 20.592622
_cell_angle_alpha 90.000000
_cell_angle_beta 90.000000
_cell_angle_gamma 90.000000
_cell_volume 3238.641477
_symmetry_space_group_name_H-M "P M M A"
_symmetry_group_IT_number 51
_symmetry_cell_setting 'orthorhombic'
loop_
_space_group_symop_operation_xyz
x,y,z
1/2-x,-y,z
1/2+x,-y,-z
-x,y,-z
-x,-y,-z
1/2+x,y,-z
1/2-x,y,z
x,-y,z
loop_
_atom_site_type_symbol
_atom_site_label
_atom_site_fract_x
_atom_site_fract_y
_atom_site_fract_z
Si Si1 0.071729 0.000000 0.072087
Si Si2 0.581494 0.590452 0.307671
Si Si3 0.076338 0.854760 0.930805
Si Si4 0.581273 0.409371 0.564260
Si Si5 0.423600 0.313104 0.930373
Si Si6 0.921847 0.410196 0.822270
O O1 0.009376 0.076739 0.107657
O O2 0.250000 0.000000 0.071019
O O3 0.000000 0.000000 0.000000
O O4 0.750000 0.622037 0.305034
O O5 0.580567 0.500000 0.309658
O O6 0.502452 0.622757 0.372244
O O7 0.493625 0.619937 0.244607
O O8 0.250000 0.876523 0.938338
O O9 0.056463 0.771470 0.898727
O O10 0.000000 0.847384 0.000000
O O11 0.500000 0.377944 0.500000
O O12 0.750000 0.378447 0.564725
O O13 0.579281 0.500000 0.564500
O O14 0.250000 0.332234 0.939715
O O15 0.494880 0.373712 0.882667
O O16 0.500000 0.320635 0.000000
O O17 0.750000 0.385229 0.822716
O O18 0.940635 0.500000 0.828546
#
# Coordination Sequence:
#
# PCOD8205946 Si02
#       6
#     4   8   8   8   8   8
#     4  10  16  22  36  56  76  96 114 132 161 204
#     4   9  16  26  39  53  69  89 114 145 180 218
#     4   9  16  26  39  55  74  93 113 138 171 211
#     4   9  15  22  33  50  71  92 113 138 171 211
#     4  10  20  32  45  58  72  92 118 152 192 229
#     4  10  20  32  44  56  70  91 120 155 194 232
#
# _framework density 13.585943
#
# number of rings (size 3 to 8) (size 9 to 14) (size 15 to 20)
#    0.000    2.545    0.000    4.636    0.000    8.000 
#    0.000    0.000    0.000    0.000    0.000    0.000 
#    0.000    0.000    0.000    0.000    0.000    0.000 
#
# Total GULP energy -545310.844409 kJ/mol
# GULP energy per Si atom -12393.428282 kJ/mol
# Density = 1.355502 g / cm^3
# Si number density = 13.585943 Si / 1000 Ang^3
#
#
#
# Elastic Constant Matrix: (Units=GPa)
#
#
# Indices 1 2 3 4 5 6 
#
# 1 136.8606 30.4618 52.7906 0.0000 0.0000 0.0000
# 2 30.4618 26.5721 24.1895 0.0000 0.0000 0.0000
# 3 52.7906 24.1895 88.2832 0.0000 0.0000 0.0000
# 4 0.0000 0.0000 0.0000 -0.0640 0.0000 0.0000
# 5 0.0000 0.0000 0.0000 0.0000 24.7499 0.0000
# 6 0.0000 0.0000 0.0000 0.0000 0.0000 15.1134
#
#
#
# Elastic Compliance Matrix: (Units=1/GPa)
#
#
# Indices 1 2 3 4 5 6 
#
# 1 0.010815 -0.008675 -0.004090 0.000000 0.000000 0.000000
# 2 -0.008675 0.057098 -0.010457 0.000000 0.000000 0.000000
# 3 -0.004090 -0.010457 0.016638 0.000000 0.000000 0.000000
# 4 0.000000 0.000000 0.000000-15.629995 0.000000 0.000000
# 5 0.000000 0.000000 0.000000 0.000000 0.040404 0.000000
# 6 0.000000 0.000000 0.000000 0.000000 0.000000 0.066167
#
#
# Mechanical properties :
#
#
# Convention : Reuss Voigt Hill
#
# Bulk Modulus (GPa) = 26.24235 51.84441 39.04338
# Shear Modulus (GPa) = -0.32510 17.57812 8.62651
#
# Velocity S-wave (km/s) = -0.48971 3.60091 2.52257
# Velocity P-wave (km/s) = 4.36325 7.45197 6.10614
#
# Compressibility (1/GPa) = 0.03810635
#
# Stress axis : x y z
#
# Youngs Moduli (GPa) = 92.46213 17.51376 60.10200
#
# Poissons Ratio (x) = 0.15193 0.24583
# Poissons Ratio (y) = 0.80210 0.62851
# Poissons Ratio (z) = 0.37820 0.18315
#
# Static dielectric constant tensor:
#      x y z
#    x 2.963270 0.000000 0.000000 
#    y 0.000000 2.916650 0.000000 
#    z 0.000000 0.000000 2.545350 
# 
# 
# High freq. dielectric constant tensor:
#      x y z
#    x 1.544550 0.000000 0.000000 
#    y 0.000000 1.474720 0.000000 
#    z 0.000000 0.000000 1.485990 
# 
# From -- ./inp_files/27854.got.cif
#   From: 2010.03.12/outbox.cif.g09.slc.cpg/sg51_14_cif.got.tgz:27854.got - 2010.04.16 13:43:02.
