data_PCOD8205379
_publ_section_title
;
Structure prediction by ZEFSAII (Michael W. Deem and Ramdas Pophale) SiO2 
 PCOD8205379
Probable space group: P B A N
;
_chemical_formula_sum "Si O2"
_cell_formula_units_Z 58
_cell_length_a 27.761114
_cell_length_b 17.431166
_cell_length_c 5.334306
_cell_angle_alpha 90.000000
_cell_angle_beta 90.000000
_cell_angle_gamma 90.000000
_cell_volume 2581.316476
_symmetry_space_group_name_H-M "P B A N"
_symmetry_group_IT_number 50
_space_group.IT_coordinate_system_code '2'
_symmetry_cell_setting 'orthorhombic'
loop_
_space_group_symop_operation_xyz
x,y,z
1/2-x,1/2-y,z
x,1/2-y,-z
1/2-x,y,-z
-x,-y,-z
1/2+x,1/2+y,-z
-x,1/2+y,z
1/2+x,-y,z
loop_
_atom_site_type_symbol
_atom_site_label
_atom_site_fract_x
_atom_site_fract_y
_atom_site_fract_z
Si Si1 0.121824 0.939395 0.359264
Si Si2 0.665154 0.335084 0.014775
Si Si3 0.250000 0.250000 0.500000
Si Si4 0.683528 0.874875 0.713203
Si Si5 0.875255 0.601588 0.202374
Si Si6 0.430008 0.671549 0.649577
Si Si7 0.208206 0.537381 0.313556
Si Si8 0.534058 0.701864 0.755893
O O1 0.072216 0.903398 0.466461
O O2 0.154570 0.972169 0.579976
O O3 0.115393 0.009521 0.164443
O O4 0.151510 0.866359 0.256825
O O5 0.615278 0.332569 0.166803
O O6 0.705953 0.394493 0.111082
O O7 0.687880 0.250000 0.000000
O O8 0.281697 0.198177 0.310666
O O9 0.657936 0.880512 0.441617
O O10 0.716648 0.950091 0.783595
O O11 0.646655 0.863192 0.945771
O O12 0.927674 0.634307 0.260547
O O13 0.427125 0.750000 0.500000
O O14 0.480585 0.666704 0.795609
O O15 0.250000 0.562327 0.500000
O O16 0.536620 0.750000 0.500000
O O17 0.547413 0.750000 0.000000
#
# Coordination Sequence:
#
# PCOD8205379 Si02
#       8
#     8   8   2   8   8   8   8   8
#     4  10  22  40  66  94 129 179 222 280 352 402
#     4  11  20  38  68  94 127 179 226 286 343 420
#     4  12  28  46  76 110 128 200 252 294 328 438
#     4  11  25  45  71 101 140 181 234 289 346 408
#     4  11  25  46  68  99 146 180 220 291 354 414
#     4  10  21  38  67  95 131 173 233 283 335 420
#     4  10  22  43  62  94 137 178 220 286 356 410
#     4  11  25  43  67 100 137 186 227 284 355 411
#
# _framework density 22.469154
#
# number of rings (size 3 to 8) (size 9 to 14) (size 15 to 20)
#    0.000    1.379    3.448    1.241    4.828    2.207 
#    0.000    2.759    0.000    0.000    0.000    0.000 
#    0.000    0.000    0.000    0.000    0.000    0.000 
#
# Total GULP energy -718728.817632 kJ/mol
# GULP energy per Si atom -12391.876166 kJ/mol
# Density = 2.241801 g / cm^3
# Si number density = 22.469154 Si / 1000 Ang^3
#
#
#
# Elastic Constant Matrix: (Units=GPa)
#
#
# Indices 1 2 3 4 5 6 
#
# 1 80.4543 48.8521 16.0736 0.0000 0.0000 0.0000
# 2 48.8521 163.7165 31.2031 0.0000 0.0000 0.0000
# 3 16.0736 31.2031 98.0586 0.0000 0.0000 0.0000
# 4 0.0000 0.0000 0.0000 29.8589 0.0000 0.0000
# 5 0.0000 0.0000 0.0000 0.0000 48.9177 0.0000
# 6 0.0000 0.0000 0.0000 0.0000 0.0000 19.0887
#
#
#
# Elastic Compliance Matrix: (Units=1/GPa)
#
#
# Indices 1 2 3 4 5 6 
#
# 1 0.015295 -0.004350 -0.001123 0.000000 0.000000 0.000000
# 2 -0.004350 0.007740 -0.001750 0.000000 0.000000 0.000000
# 3 -0.001123 -0.001750 0.010939 0.000000 0.000000 0.000000
# 4 0.000000 0.000000 0.000000 0.033491 0.000000 0.000000
# 5 0.000000 0.000000 0.000000 0.000000 0.020442 0.000000
# 6 0.000000 0.000000 0.000000 0.000000 0.000000 0.052387
#
#
# Mechanical properties :
#
#
# Convention : Reuss Voigt Hill
#
# Bulk Modulus (GPa) = 51.20804 59.38745 55.29775
# Shear Modulus (GPa) = 31.00801 35.97977 33.49389
#
# Velocity S-wave (km/s) = 3.71890 4.00596 3.86510
# Velocity P-wave (km/s) = 6.42496 6.91990 6.67702
#
# Compressibility (1/GPa) = 0.01952818
#
# Stress axis : x y z
#
# Youngs Moduli (GPa) = 65.38059 129.20551 91.41732
#
# Poissons Ratio (x) = 0.56204 0.10266
# Poissons Ratio (y) = 0.28440 0.15996
# Poissons Ratio (z) = 0.07342 0.22608
#
# Static dielectric constant tensor:
#      x y z
#    x 4.099160 0.000000 0.000000 
#    y 0.000000 4.459340 0.000000 
#    z 0.000000 0.000000 4.016150 
# 
# 
# High freq. dielectric constant tensor:
#      x y z
#    x 1.874420 0.000000 0.000000 
#    y 0.000000 1.898280 0.000000 
#    z 0.000000 0.000000 1.884130 
# 
# From -- ./inp_files/4671.got.cif
#   From: 2010.03.12/outbox.cif.g09.slc.cpg/sg50_3_cif.got.tgz:4671.got - 2010.04.16 13:23:21.
