data_PCOD8205854
_publ_section_title
;
Structure prediction by ZEFSAII (Michael W. Deem and Ramdas Pophale) SiO2 
 PCOD8205854
Probable space group: P B A N
;
_chemical_formula_sum "Si O2"
_cell_formula_units_Z 32
_cell_length_a 14.272074
_cell_length_b 12.565497
_cell_length_c 7.239043
_cell_angle_alpha 90.000000
_cell_angle_beta 90.000000
_cell_angle_gamma 90.000000
_cell_volume 1298.218866
_symmetry_space_group_name_H-M "P B A N"
_symmetry_group_IT_number 50
_space_group.IT_coordinate_system_code '2'
_symmetry_cell_setting 'orthorhombic'
loop_
_space_group_symop_operation_xyz
x,y,z
1/2-x,1/2-y,z
x,1/2-y,-z
1/2-x,y,-z
-x,-y,-z
1/2+x,1/2+y,-z
-x,1/2+y,z
1/2+x,-y,z
loop_
_atom_site_type_symbol
_atom_site_label
_atom_site_fract_x
_atom_site_fract_y
_atom_site_fract_z
Si Si1 0.140812 0.751702 0.282218
Si Si2 0.611853 0.750000 0.500000
Si Si3 0.750000 0.574855 0.500000
Si Si4 0.527699 0.839989 0.138503
Si Si5 0.835011 0.029076 0.855057
O O1 0.250000 0.750000 0.238227
O O2 0.120168 0.750000 0.500000
O O3 0.086997 0.656174 0.167112
O O4 0.107548 0.862096 0.184937
O O5 0.672264 0.653389 0.413383
O O6 0.549561 0.798949 0.341945
O O7 0.711261 0.500169 0.659737
O O8 0.581624 0.948084 0.086583
O O9 0.562828 0.750000 0.000000
O O10 0.750000 0.033990 0.000000
#
# Coordination Sequence:
#
# PCOD8205854 Si02
#       5
#     8   4   4   8   8
#     4  11  26  49  70 101 147 193 244 303 360 430
#     4   9  18  38  63  98 138 180 237 300 360 409
#     4   9  18  38  67  96 138 186 233 296 359 434
#     4  11  24  43  70 106 143 188 242 303 356 439
#     4  11  25  45  74 106 143 192 242 300 371 432
#
# _framework density 24.649156999999999
#
# number of rings (size 3 to 8) (size 9 to 14) (size 15 to 20)
#    0.000    1.500    1.250    3.000    3.500    4.500 
#    4.500    0.000    0.000    0.000    0.000    0.000 
#    0.000    0.000    0.000    0.000    0.000    0.000 
#
# Total GULP energy -396475.035617 kJ/mol
# GULP energy per Si atom -12389.844863 kJ/mol
# Density = 2.459305 g / cm^3
# Si number density = 24.649157 Si / 1000 Ang^3
#
#
#
# Elastic Constant Matrix: (Units=GPa)
#
#
# Indices 1 2 3 4 5 6 
#
# 1 133.2009 51.0596 32.4887 0.0000 0.0000 0.0000
# 2 51.0596 106.3333 27.6000 0.0000 0.0000 0.0000
# 3 32.4887 27.6000 74.1256 0.0000 0.0000 0.0000
# 4 0.0000 0.0000 0.0000 40.1825 0.0000 0.0000
# 5 0.0000 0.0000 0.0000 0.0000 24.1228 0.0000
# 6 0.0000 0.0000 0.0000 0.0000 0.0000 54.4511
#
#
#
# Elastic Compliance Matrix: (Units=1/GPa)
#
#
# Indices 1 2 3 4 5 6 
#
# 1 0.009694 -0.003932 -0.002785 0.000000 0.000000 0.000000
# 2 -0.003932 0.012005 -0.002747 0.000000 0.000000 0.000000
# 3 -0.002785 -0.002747 0.015734 0.000000 0.000000 0.000000
# 4 0.000000 0.000000 0.000000 0.024886 0.000000 0.000000
# 5 0.000000 0.000000 0.000000 0.000000 0.041455 0.000000
# 6 0.000000 0.000000 0.000000 0.000000 0.000000 0.018365
#
#
# Mechanical properties :
#
#
# Convention : Reuss Voigt Hill
#
# Bulk Modulus (GPa) = 54.03585 59.55071 56.79328
# Shear Modulus (GPa) = 33.95927 37.25203 35.60565
#
# Velocity S-wave (km/s) = 3.71577 3.89175 3.80478
# Velocity P-wave (km/s) = 6.35444 6.66379 6.51095
#
# Compressibility (1/GPa) = 0.01850623
#
# Stress axis : x y z
#
# Youngs Moduli (GPa) = 103.15716 83.29543 63.55717
#
# Poissons Ratio (x) = 0.32752 0.17699
# Poissons Ratio (y) = 0.40562 0.17457
# Poissons Ratio (z) = 0.28726 0.22879
#
# Static dielectric constant tensor:
#      x y z
#    x 4.906540 0.000000 0.000000 
#    y 0.000000 5.819210 0.000000 
#    z 0.000000 0.000000 4.469800 
# 
# 
# High freq. dielectric constant tensor:
#      x y z
#    x 1.997950 0.000000 0.000000 
#    y 0.000000 1.976890 0.000000 
#    z 0.000000 0.000000 2.001420 
# 
# From -- ./inp_files/12227.got.cif
#   From: 2010.03.12/outbox.cif.g09.slc.cpg/sg50_7_cif.got.tgz:12227.got - 2010.04.16 13:23:21.
