data_PCOD8205599
_publ_section_title
;
Structure prediction by ZEFSAII (Michael W. Deem and Ramdas Pophale) SiO2 
 PCOD8205599
Probable space group: P B A N
;
_chemical_formula_sum "Si O2"
_cell_formula_units_Z 40
_cell_length_a 8.507749
_cell_length_b 24.156027
_cell_length_c 8.235338
_cell_angle_alpha 90.000000
_cell_angle_beta 90.000000
_cell_angle_gamma 90.000000
_cell_volume 1692.472432
_symmetry_space_group_name_H-M "P B A N"
_symmetry_group_IT_number 50
_space_group.IT_coordinate_system_code '2'
_symmetry_cell_setting 'orthorhombic'
loop_
_space_group_symop_operation_xyz
x,y,z
1/2-x,1/2-y,z
x,1/2-y,-z
1/2-x,y,-z
-x,-y,-z
1/2+x,1/2+y,-z
-x,1/2+y,z
1/2+x,-y,z
loop_
_atom_site_type_symbol
_atom_site_label
_atom_site_fract_x
_atom_site_fract_y
_atom_site_fract_z
Si Si1 0.750022 0.975219 0.808826
Si Si2 0.583430 0.719417 0.799881
Si Si3 0.928019 0.074593 0.694264
Si Si4 0.909035 0.183896 0.901915
Si Si5 0.593890 0.611792 0.605423
O O1 0.579037 0.957830 0.755217
O O2 0.880811 0.929177 0.758584
O O3 0.782586 0.033096 0.716190
O O4 0.750000 0.984684 0.000000
O O5 0.750000 0.750000 0.790690
O O6 0.444590 0.765305 0.777831
O O7 0.564232 0.674616 0.658345
O O8 0.556992 0.687287 0.971962
O O9 0.900759 0.127289 0.806698
O O10 0.947004 0.092274 0.505687
O O11 0.750000 0.193546 0.000000
O O12 0.750000 0.609488 0.500000
#
# Coordination Sequence:
#
# PCOD8205599 Si02
#       5
#     8   8   8   8   8
#     4  11  22  40  64  95 132 175 224 275 331 401
#     4  11  22  41  70  97 127 173 221 275 332 401
#     4  11  24  42  65  95 135 176 222 277 336 398
#     4  11  24  43  66  98 135 172 219 278 335 401
#     4  10  23  40  64  99 135 170 222 281 338 401
#
# _framework density 23.634062
#
# number of rings (size 3 to 8) (size 9 to 14) (size 15 to 20)
#    0.000    1.200    0.000    7.800    0.000    6.000 
#    0.000    3.000    0.000    9.600    0.000    0.000 
#    0.000    0.000    0.000    0.000    0.000    0.000 
#
# Total GULP energy -495898.886501 kJ/mol
# GULP energy per Si atom -12397.472163 kJ/mol
# Density = 2.358027 g / cm^3
# Si number density = 23.634062 Si / 1000 Ang^3
#
#
#
# Elastic Constant Matrix: (Units=GPa)
#
#
# Indices 1 2 3 4 5 6 
#
# 1 62.6476 39.8921 32.2389 0.0000 0.0000 0.0000
# 2 39.8921 165.0151 48.6177 0.0000 0.0000 0.0000
# 3 32.2389 48.6177 98.9803 0.0000 0.0000 0.0000
# 4 0.0000 0.0000 0.0000 20.7250 0.0000 0.0000
# 5 0.0000 0.0000 0.0000 0.0000 16.8213 0.0000
# 6 0.0000 0.0000 0.0000 0.0000 0.0000 37.5139
#
#
#
# Elastic Compliance Matrix: (Units=1/GPa)
#
#
# Indices 1 2 3 4 5 6 
#
# 1 0.020813 -0.003548 -0.005036 0.000000 0.000000 0.000000
# 2 -0.003548 0.007690 -0.002622 0.000000 0.000000 0.000000
# 3 -0.005036 -0.002622 0.013031 0.000000 0.000000 0.000000
# 4 0.000000 0.000000 0.000000 0.048251 0.000000 0.000000
# 5 0.000000 0.000000 0.000000 0.000000 0.059448 0.000000
# 6 0.000000 0.000000 0.000000 0.000000 0.000000 0.026657
#
#
# Mechanical properties :
#
#
# Convention : Reuss Voigt Hill
#
# Bulk Modulus (GPa) = 52.29395 63.12670 57.71033
# Shear Modulus (GPa) = 24.42880 28.73835 26.58358
#
# Velocity S-wave (km/s) = 3.21849 3.49086 3.35744
# Velocity P-wave (km/s) = 5.99885 6.55867 6.28500
#
# Compressibility (1/GPa) = 0.01912267
#
# Stress axis : x y z
#
# Youngs Moduli (GPa) = 48.04656 130.03676 76.73868
#
# Poissons Ratio (x) = 0.46133 0.38649
# Poissons Ratio (y) = 0.17045 0.20119
# Poissons Ratio (z) = 0.24199 0.34093
#
# Static dielectric constant tensor:
#      x y z
#    x 4.285600 0.000000 0.000000 
#    y 0.000000 4.670370 0.000000 
#    z 0.000000 0.000000 4.440840 
# 
# 
# High freq. dielectric constant tensor:
#      x y z
#    x 1.931970 0.000000 0.000000 
#    y 0.000000 1.956360 0.000000 
#    z 0.000000 0.000000 1.927410 
# 
# From -- ./inp_files/9529.got.cif
#   From: 2010.03.12/outbox.cif.g09.slc.cpg/sg50_5_cif.got.tgz:9529.got - 2010.04.16 13:23:21.
