data_PCOD8205454
_publ_section_title
;
Structure prediction by ZEFSAII (Michael W. Deem and Ramdas Pophale) SiO2 
 PCOD8205454
Probable space group: P B A N
;
_chemical_formula_sum "Si O2"
_cell_formula_units_Z 54
_cell_length_a 29.066757
_cell_length_b 14.210564
_cell_length_c 5.304296
_cell_angle_alpha 90.000000
_cell_angle_beta 90.000000
_cell_angle_gamma 90.000000
_cell_volume 2190.966041
_symmetry_space_group_name_H-M "P B A N"
_symmetry_group_IT_number 50
_space_group.IT_coordinate_system_code '2'
_symmetry_cell_setting 'orthorhombic'
loop_
_space_group_symop_operation_xyz
x,y,z
1/2-x,1/2-y,z
x,1/2-y,-z
1/2-x,y,-z
-x,-y,-z
1/2+x,1/2+y,-z
-x,1/2+y,z
1/2+x,-y,z
loop_
_atom_site_type_symbol
_atom_site_label
_atom_site_fract_x
_atom_site_fract_y
_atom_site_fract_z
Si Si1 0.318429 0.386352 0.301177
Si Si2 0.869990 0.110678 0.202159
Si Si3 0.872646 0.605816 0.779396
Si Si4 0.792538 0.411633 0.178575
Si Si5 0.750000 0.750000 0.500000
Si Si6 0.975715 0.611760 0.747350
Si Si7 0.192311 0.750000 0.500000
Si Si8 0.026480 0.612534 0.241982
O O1 0.344844 0.349241 0.549887
O O2 0.300547 0.493802 0.340083
O O3 0.275967 0.315697 0.296381
O O4 0.349463 0.374489 0.050524
O O5 0.840340 0.170149 0.392447
O O6 0.921724 0.151258 0.199987
O O7 0.873753 0.003843 0.289494
O O8 0.842327 0.115153 0.939247
O O9 0.923609 0.649289 0.764701
O O10 0.776021 0.315633 0.319493
O O11 0.750000 0.437094 0.000000
O O12 0.975449 0.499515 0.748843
O O13 0.002537 0.650721 0.499300
O O14 0.999868 0.651186 0.998111
#
# Coordination Sequence:
#
# PCOD8205454 Si02
#       8
#     8   8   8   8   2   8   4   8
#     4  11  26  47  75 105 148 182 238 301 365 443
#     4  10  23  38  63 100 144 192 242 289 356 416
#     4  10  21  43  71 107 143 188 235 299 359 433
#     4  11  27  47  71 103 143 193 246 300 361 436
#     4  12  32  50  80 114 140 192 240 306 388 440
#     4   9  17  32  62  97 135 182 233 289 351 408
#     4  12  24  45  70  97 146 197 238 302 352 429
#     4   9  18  31  58  97 138 179 239 290 335 418
#
# _framework density 24.646664999999999
#
# number of rings (size 3 to 8) (size 9 to 14) (size 15 to 20)
#    0.000    1.778    1.481    1.333    6.222    7.111 
#    0.000    1.481    0.000    5.333    0.000    0.000 
#    0.000    0.000    0.000    0.000    0.000    0.000 
#
# Total GULP energy -669176.086049 kJ/mol
# GULP energy per Si atom -12392.149742 kJ/mol
# Density = 2.459057 g / cm^3
# Si number density = 24.646665 Si / 1000 Ang^3
#
#
#
# Elastic Constant Matrix: (Units=GPa)
#
#
# Indices 1 2 3 4 5 6 
#
# 1 164.5064 30.7833 66.5985 0.0000 0.0000 0.0000
# 2 30.7833 59.8151 16.4739 0.0000 0.0000 0.0000
# 3 66.5985 16.4739 164.7594 0.0000 0.0000 0.0000
# 4 0.0000 0.0000 0.0000 -1.5885 0.0000 0.0000
# 5 0.0000 0.0000 0.0000 0.0000 41.6417 0.0000
# 6 0.0000 0.0000 0.0000 0.0000 0.0000 23.4562
#
#
#
# Elastic Compliance Matrix: (Units=1/GPa)
#
#
# Indices 1 2 3 4 5 6 
#
# 1 0.007838 -0.003251 -0.002843 0.000000 0.000000 0.000000
# 2 -0.003251 0.018540 -0.000540 0.000000 0.000000 0.000000
# 3 -0.002843 -0.000540 0.007273 0.000000 0.000000 0.000000
# 4 0.000000 0.000000 0.000000 -0.629517 0.000000 0.000000
# 5 0.000000 0.000000 0.000000 0.000000 0.024014 0.000000
# 6 0.000000 0.000000 0.000000 0.000000 0.000000 0.042633
#
#
# Mechanical properties :
#
#
# Convention : Reuss Voigt Hill
#
# Bulk Modulus (GPa) = 49.06016 68.53249 58.79633
# Shear Modulus (GPa) = -9.82014 31.05022 10.61504
#
# Velocity S-wave (km/s) = -1.99825 3.55324 2.07756
# Velocity P-wave (km/s) = 3.82421 6.68583 5.44633
#
# Compressibility (1/GPa) = 0.02038314
#
# Stress axis : x y z
#
# Youngs Moduli (GPa) = 127.58098 53.93797 137.50000
#
# Poissons Ratio (x) = 0.17534 0.39095
# Poissons Ratio (y) = 0.41473 0.07421
# Poissons Ratio (z) = 0.36275 0.02911
#
# Static dielectric constant tensor:
#      x y z
#    x 4.685380 0.000000 0.000000 
#    y 0.000000 4.900420 0.000000 
#    z 0.000000 0.000000 4.371020 
# 
# 
# High freq. dielectric constant tensor:
#      x y z
#    x 1.995170 0.000000 0.000000 
#    y 0.000000 1.977860 0.000000 
#    z 0.000000 0.000000 1.976740 
# 
# From -- ./inp_files/7221.got.cif
#   From: 2010.03.12/outbox.cif.g09.slc.cpg/sg50_4_cif.got.tgz:7221.got - 2010.04.16 13:23:21.
