data_PCOD8205834
_publ_section_title
;
Structure prediction by ZEFSAII (Michael W. Deem and Ramdas Pophale) SiO2 
 PCOD8205834
Probable space group: P B A N
;
_chemical_formula_sum "Si O2"
_cell_formula_units_Z 50
_cell_length_a 17.402912
_cell_length_b 14.633944
_cell_length_c 9.199528
_cell_angle_alpha 90.000000
_cell_angle_beta 90.000000
_cell_angle_gamma 90.000000
_cell_volume 2342.873599
_symmetry_space_group_name_H-M "P B A N"
_symmetry_group_IT_number 50
_space_group.IT_coordinate_system_code '2'
_symmetry_cell_setting 'orthorhombic'
loop_
_space_group_symop_operation_xyz
x,y,z
1/2-x,1/2-y,z
x,1/2-y,-z
1/2-x,y,-z
-x,-y,-z
1/2+x,1/2+y,-z
-x,1/2+y,z
1/2+x,-y,z
loop_
_atom_site_type_symbol
_atom_site_label
_atom_site_fract_x
_atom_site_fract_y
_atom_site_fract_z
Si Si1 0.832579 0.496091 0.445591
Si Si2 0.498878 0.708050 0.343377
Si Si3 0.842849 0.531496 0.997379
Si Si4 0.250000 0.750000 0.000000
Si Si5 0.141925 0.633615 0.806241
Si Si6 0.433757 0.488316 0.708423
Si Si7 0.923801 0.881290 0.761771
O O1 0.750000 0.528118 0.500000
O O2 0.823276 0.409026 0.340798
O O3 0.887667 0.464395 0.577176
O O4 0.867878 0.583116 0.364285
O O5 0.476249 0.750000 0.500000
O O6 0.426407 0.702161 0.235245
O O7 0.531657 0.605599 0.356096
O O8 0.559146 0.775426 0.267240
O O9 0.872094 0.532839 0.833525
O O10 0.750000 0.528932 0.000000
O O11 0.882628 0.447420 0.084750
O O12 0.878112 0.617913 0.084292
O O13 0.204473 0.811151 0.109648
O O14 0.498988 0.556916 0.764201
#
# Coordination Sequence:
#
# PCOD8205834 Si02
#       7
#     8   8   8   2   8   8   8
#     4  11  23  44  71 101 136 189 231 288 359 423
#     4  12  25  43  70 106 139 181 246 297 346 423
#     4  11  24  46  70 102 141 189 233 296 367 424
#     4  12  28  44  62 112 140 178 232 292 372 444
#     4  11  26  44  69 100 144 179 230 297 360 429
#     4  12  23  44  72 100 139 183 242 292 348 428
#     4  11  24  43  70 104 138 188 238 289 357 423
#
# _framework density 21.341315000000002
#
# number of rings (size 3 to 8) (size 9 to 14) (size 15 to 20)
#    0.000    0.640    5.600    3.840    2.240    1.920 
#    0.000    4.800    0.000    0.000    0.000    0.000 
#    0.000    0.000    0.000    0.000    0.000    0.000 
#
# Total GULP energy -619971.621556 kJ/mol
# GULP energy per Si atom -12399.432431 kJ/mol
# Density = 2.129274 g / cm^3
# Si number density = 21.341315 Si / 1000 Ang^3
#
#
#
# Elastic Constant Matrix: (Units=GPa)
#
#
# Indices 1 2 3 4 5 6 
#
# 1 121.1311 19.9362 50.3115 0.0000 0.0000 0.0000
# 2 19.9362 66.1695 23.1260 0.0000 0.0000 0.0000
# 3 50.3115 23.1260 140.7030 0.0000 0.0000 0.0000
# 4 0.0000 0.0000 0.0000 25.5928 0.0000 0.0000
# 5 0.0000 0.0000 0.0000 0.0000 50.4599 0.0000
# 6 0.0000 0.0000 0.0000 0.0000 0.0000 22.5746
#
#
#
# Elastic Compliance Matrix: (Units=1/GPa)
#
#
# Indices 1 2 3 4 5 6 
#
# 1 0.009905 -0.001853 -0.003237 0.000000 0.000000 0.000000
# 2 -0.001853 0.016380 -0.002030 0.000000 0.000000 0.000000
# 3 -0.003237 -0.002030 0.008598 0.000000 0.000000 0.000000
# 4 0.000000 0.000000 0.000000 0.039074 0.000000 0.000000
# 5 0.000000 0.000000 0.000000 0.000000 0.019818 0.000000
# 6 0.000000 0.000000 0.000000 0.000000 0.000000 0.044298
#
#
# Mechanical properties :
#
#
# Convention : Reuss Voigt Hill
#
# Bulk Modulus (GPa) = 48.44021 57.19455 52.81738
# Shear Modulus (GPa) = 31.40830 35.36745 33.38788
#
# Velocity S-wave (km/s) = 3.84045 4.07532 3.95963
# Velocity P-wave (km/s) = 6.51249 7.00018 6.76073
#
# Compressibility (1/GPa) = 0.02064401
#
# Stress axis : x y z
#
# Youngs Moduli (GPa) = 100.95866 61.04875 116.30177
#
# Poissons Ratio (x) = 0.11312 0.37650
# Poissons Ratio (y) = 0.18706 0.23606
# Poissons Ratio (z) = 0.32683 0.12391
#
# Static dielectric constant tensor:
#      x y z
#    x 3.960540 0.000000 0.000000 
#    y 0.000000 3.805740 0.000000 
#    z 0.000000 0.000000 4.106310 
# 
# 
# High freq. dielectric constant tensor:
#      x y z
#    x 1.839690 0.000000 0.000000 
#    y 0.000000 1.823680 0.000000 
#    z 0.000000 0.000000 1.858060 
# 
# From -- ./inp_files/14271.got.cif
#   From: 2010.03.12/outbox.cif.g09.slc.cpg/sg50_8_cif.got.tgz:14271.got - 2010.04.16 13:23:21.
