data_PCOD8205339
_publ_section_title
;
Structure prediction by ZEFSAII (Michael W. Deem and Ramdas Pophale) SiO2 
 PCOD8205339
Probable space group: P B A N
;
_chemical_formula_sum "Si O2"
_cell_formula_units_Z 44
_cell_length_a 13.321608
_cell_length_b 8.756655
_cell_length_c 19.032014
_cell_angle_alpha 90.000000
_cell_angle_beta 90.000000
_cell_angle_gamma 90.000000
_cell_volume 2220.136301
_symmetry_space_group_name_H-M "P B A N"
_symmetry_group_IT_number 50
_space_group.IT_coordinate_system_code '2'
_symmetry_cell_setting 'orthorhombic'
loop_
_space_group_symop_operation_xyz
x,y,z
1/2-x,1/2-y,z
x,1/2-y,-z
1/2-x,y,-z
-x,-y,-z
1/2+x,1/2+y,-z
-x,1/2+y,z
1/2+x,-y,z
loop_
_atom_site_type_symbol
_atom_site_label
_atom_site_fract_x
_atom_site_fract_y
_atom_site_fract_z
Si Si1 0.236049 0.929568 0.919962
Si Si2 0.505417 0.750000 0.500000
Si Si3 0.735427 0.576741 0.305402
Si Si4 0.347834 0.991733 0.448849
Si Si5 0.614251 0.941659 0.189983
Si Si6 0.407264 0.412053 0.821988
O O1 0.250000 0.750000 0.911925
O O2 0.319071 0.008041 0.874048
O O3 0.130140 0.993397 0.890413
O O4 0.250000 0.981552 0.000000
O O5 0.427670 0.647341 0.545235
O O6 0.582797 0.855868 0.544449
O O7 0.750000 0.750000 0.330496
O O8 0.704113 0.478318 0.372728
O O9 0.839386 0.530662 0.267629
O O10 0.652714 0.543596 0.247198
O O11 0.250000 0.985889 0.500000
O O12 0.596134 0.767924 0.168981
O O13 0.519608 0.046553 0.192276
#
# Coordination Sequence:
#
# PCOD8205339 Si02
#       6
#     8   4   8   8   8   8
#     4  10  21  38  59  84 114 150 195 244 294 349
#     4  10  24  38  60  90 116 156 206 246 302 370
#     4   9  20  37  59  85 114 152 192 239 296 348
#     4  11  22  41  61  86 122 157 199 252 303 359
#     4  10  21  38  59  86 117 152 193 236 295 356
#     4  10  21  37  58  85 117 151 193 240 289 357
#
# _framework density 19.818603
#
# number of rings (size 3 to 8) (size 9 to 14) (size 15 to 20)
#    0.000    2.000    0.000    4.364    0.000    8.000 
#    0.000    9.091    0.000    0.000    0.000    0.000 
#    0.000    0.000    0.000    0.000    0.000    0.000 
#
# Total GULP energy -545086.872430 kJ/mol
# GULP energy per Si atom -12388.338010 kJ/mol
# Density = 1.977349 g / cm^3
# Si number density = 19.818603 Si / 1000 Ang^3
#
#
#
# Elastic Constant Matrix: (Units=GPa)
#
#
# Indices 1 2 3 4 5 6 
#
# 1 129.9179 52.0523 42.6327 0.0000 0.0000 0.0000
# 2 52.0523 89.5587 61.6390 0.0000 0.0000 0.0000
# 3 42.6327 61.6390 131.0675 0.0000 0.0000 0.0000
# 4 0.0000 0.0000 0.0000 27.0341 0.0000 0.0000
# 5 0.0000 0.0000 0.0000 0.0000 16.7967 0.0000
# 6 0.0000 0.0000 0.0000 0.0000 0.0000 44.1502
#
#
#
# Elastic Compliance Matrix: (Units=1/GPa)
#
#
# Indices 1 2 3 4 5 6 
#
# 1 0.010087 -0.005329 -0.000775 0.000000 0.000000 0.000000
# 2 -0.005329 0.019325 -0.007355 0.000000 0.000000 0.000000
# 3 -0.000775 -0.007355 0.011341 0.000000 0.000000 0.000000
# 4 0.000000 0.000000 0.000000 0.036990 0.000000 0.000000
# 5 0.000000 0.000000 0.000000 0.000000 0.059535 0.000000
# 6 0.000000 0.000000 0.000000 0.000000 0.000000 0.022650
#
#
# Mechanical properties :
#
#
# Convention : Reuss Voigt Hill
#
# Bulk Modulus (GPa) = 72.28157 73.68802 72.98480
# Shear Modulus (GPa) = 26.11548 30.54422 28.32985
#
# Velocity S-wave (km/s) = 3.63399 3.93006 3.78492
# Velocity P-wave (km/s) = 7.35925 7.60630 7.48379
#
# Compressibility (1/GPa) = 0.01383478
#
# Stress axis : x y z
#
# Youngs Moduli (GPa) = 99.14180 51.74552 88.17927
#
# Poissons Ratio (x) = 0.27577 0.06830
# Poissons Ratio (y) = 0.52835 0.64855
# Poissons Ratio (z) = 0.07680 0.38059
#
# Static dielectric constant tensor:
#      x y z
#    x 3.938710 0.000000 0.000000 
#    y 0.000000 3.354840 0.000000 
#    z 0.000000 0.000000 3.574440 
# 
# 
# High freq. dielectric constant tensor:
#      x y z
#    x 1.789300 0.000000 0.000000 
#    y 0.000000 1.778610 0.000000 
#    z 0.000000 0.000000 1.768130 
# 
# From -- ./inp_files/29406.got.cif
#   From: 2010.03.12/outbox.cif.g09.slc.cpg/sg50_15_cif.got.tgz:29406.got - 2010.04.16 13:23:21.
