data_PCOD8205624
_publ_section_title
;
Structure prediction by ZEFSAII (Michael W. Deem and Ramdas Pophale) SiO2 
 PCOD8205624
Probable space group: P B A N
;
_chemical_formula_sum "Si O2"
_cell_formula_units_Z 32
_cell_length_a 28.876713
_cell_length_b 8.795918
_cell_length_c 4.712625
_cell_angle_alpha 90.000000
_cell_angle_beta 90.000000
_cell_angle_gamma 90.000000
_cell_volume 1196.993553
_symmetry_space_group_name_H-M "P B A N"
_symmetry_group_IT_number 50
_space_group.IT_coordinate_system_code '2'
_symmetry_cell_setting 'orthorhombic'
loop_
_space_group_symop_operation_xyz
x,y,z
1/2-x,1/2-y,z
x,1/2-y,-z
1/2-x,y,-z
-x,-y,-z
1/2+x,1/2+y,-z
-x,1/2+y,z
1/2+x,-y,z
loop_
_atom_site_type_symbol
_atom_site_label
_atom_site_fract_x
_atom_site_fract_y
_atom_site_fract_z
Si Si1 0.197173 0.574082 0.952012
Si Si2 0.069077 0.411155 0.859480
Si Si3 0.653528 0.575908 0.463581
Si Si4 0.469798 0.642387 0.747219
O O1 0.159862 0.473696 0.134462
O O2 0.187247 0.750000 0.000000
O O3 0.250000 0.528008 0.000000
O O4 0.189237 0.533905 0.624819
O O5 0.068913 0.527992 0.126536
O O6 0.082500 0.250000 0.000000
O O7 0.103262 0.453438 0.603529
O O8 0.020637 0.431357 0.680534
O O9 0.668314 0.750000 0.500000
O O10 0.448904 0.750000 0.500000
O O11 0.486712 0.750000 0.000000
#
# Coordination Sequence:
#
# PCOD8205624 Si02
#       4
#     8   8   8   8
#     4  11  26  49  75 104 142 186 231 288 362 439
#     4  10  23  43  68 102 148 191 239 302 367 422
#     4  12  25  43  72 108 145 183 233 296 359 428
#     4  10  23  42  68  99 138 194 250 298 354 426
#
# _framework density 26.733644000000002
#
# number of rings (size 3 to 8) (size 9 to 14) (size 15 to 20)
#    0.000    1.250    0.000    4.500    0.000   21.000 
#    0.000    2.500    0.000    3.000    0.000    0.000 
#    0.000    0.000    0.000    0.000    0.000    0.000 
#
# Total GULP energy -396793.587930 kJ/mol
# GULP energy per Si atom -12399.799623 kJ/mol
# Density = 2.667280 g / cm^3
# Si number density = 26.733644 Si / 1000 Ang^3
#
#
#
# Elastic Constant Matrix: (Units=GPa)
#
#
# Indices 1 2 3 4 5 6 
#
# 1 97.1431 33.4830 18.9309 0.0000 0.0000 0.0000
# 2 33.4830 129.9400 30.2619 0.0000 0.0000 0.0000
# 3 18.9309 30.2619 117.6829 0.0000 0.0000 0.0000
# 4 0.0000 0.0000 0.0000 48.6223 0.0000 0.0000
# 5 0.0000 0.0000 0.0000 0.0000 157.7818 0.0000
# 6 0.0000 0.0000 0.0000 0.0000 0.0000 39.8157
#
#
#
# Elastic Compliance Matrix: (Units=1/GPa)
#
#
# Indices 1 2 3 4 5 6 
#
# 1 0.011442 -0.002680 -0.001151 0.000000 0.000000 0.000000
# 2 -0.002680 0.008814 -0.001835 0.000000 0.000000 0.000000
# 3 -0.001151 -0.001835 0.009155 0.000000 0.000000 0.000000
# 4 0.000000 0.000000 0.000000 0.020567 0.000000 0.000000
# 5 0.000000 0.000000 0.000000 0.000000 0.006338 0.000000
# 6 0.000000 0.000000 0.000000 0.000000 0.000000 0.025116
#
#
# Mechanical properties :
#
#
# Convention : Reuss Voigt Hill
#
# Bulk Modulus (GPa) = 55.31968 56.67975 55.99971
# Shear Modulus (GPa) = 50.61201 66.71664 58.66432
#
# Velocity S-wave (km/s) = 4.35581 5.00102 4.68952
# Velocity P-wave (km/s) = 6.78493 7.38882 7.09330
#
# Compressibility (1/GPa) = 0.01807675
#
# Stress axis : x y z
#
# Youngs Moduli (GPa) = 87.39490 113.45646 109.23493
#
# Poissons Ratio (x) = 0.30410 0.12577
# Poissons Ratio (y) = 0.23425 0.20048
# Poissons Ratio (z) = 0.10063 0.20823
#
# Static dielectric constant tensor:
#      x y z
#    x 4.583260 0.000000 0.000000 
#    y 0.000000 5.014770 0.000000 
#    z 0.000000 0.000000 5.145550 
# 
# 
# High freq. dielectric constant tensor:
#      x y z
#    x 2.066400 0.000000 0.000000 
#    y 0.000000 2.080680 0.000000 
#    z 0.000000 0.000000 2.100950 
# 
# From -- ./inp_files/6986.got.cif
#   From: 2010.03.12/outbox.cif.g09.slc.cpg/sg50_4_cif.got.tgz:6986.got - 2010.04.16 13:23:21.
