data_PCOD8205631
_publ_section_title
;
Structure prediction by ZEFSAII (Michael W. Deem and Ramdas Pophale) SiO2 
 PCOD8205631
Probable space group: P B A N
;
_chemical_formula_sum "Si O2"
_cell_formula_units_Z 58
_cell_length_a 27.758410
_cell_length_b 11.689402
_cell_length_c 8.155450
_cell_angle_alpha 90.000000
_cell_angle_beta 90.000000
_cell_angle_gamma 90.000000
_cell_volume 2646.274001
_symmetry_space_group_name_H-M "P B A N"
_symmetry_group_IT_number 50
_space_group.IT_coordinate_system_code '2'
_symmetry_cell_setting 'orthorhombic'
loop_
_space_group_symop_operation_xyz
x,y,z
1/2-x,1/2-y,z
x,1/2-y,-z
1/2-x,y,-z
-x,-y,-z
1/2+x,1/2+y,-z
-x,1/2+y,z
1/2+x,-y,z
loop_
_atom_site_type_symbol
_atom_site_label
_atom_site_fract_x
_atom_site_fract_y
_atom_site_fract_z
Si Si1 0.390845 0.224027 0.813750
Si Si2 0.250000 0.750000 0.500000
Si Si3 0.043143 0.398933 0.309711
Si Si4 0.936380 0.168195 0.776673
Si Si5 0.104474 0.484428 0.589987
Si Si6 0.205055 0.311023 0.322221
Si Si7 0.683787 0.443604 0.342338
Si Si8 0.092991 0.902842 0.863990
O O1 0.432984 0.274390 0.700434
O O2 0.386933 0.092710 0.753392
O O3 0.341881 0.292329 0.785853
O O4 0.405980 0.250000 0.000000
O O5 0.284623 0.667123 0.607347
O O6 0.056188 0.446575 0.490253
O O7 0.067140 0.478156 0.170541
O O8 0.987737 0.387080 0.263466
O O9 0.934977 0.304772 0.758938
O O10 0.901157 0.115714 0.642096
O O11 0.913899 0.128021 0.948179
O O12 0.151382 0.490545 0.478464
O O13 0.250000 0.250000 0.234598
O O14 0.197864 0.250000 0.500000
O O15 0.218243 0.447255 0.309601
O O16 0.649451 0.406369 0.190155
#
# Coordination Sequence:
#
# PCOD8205631 Si02
#       8
#     8   2   8   8   8   8   8   8
#     4  12  24  40  67  96 136 174 215 280 343 401
#     4  12  24  40  74 110 120 176 248 284 344 412
#     4  11  23  41  63  96 133 178 231 272 323 397
#     4  11  24  39  66  95 133 185 223 270 327 404
#     4  11  23  42  64  98 134 178 221 282 337 389
#     4  11  21  42  70  97 128 168 214 275 345 407
#     4  11  23  43  69  97 134 173 225 288 335 411
#     4  10  23  43  63  93 141 174 222 276 340 396
#
# _framework density 21.917608999999999
#
# number of rings (size 3 to 8) (size 9 to 14) (size 15 to 20)
#    0.000    0.966    4.138    3.724    3.862    1.931 
#    4.966    0.000    0.000    6.621    0.000    0.000 
#    0.000    0.000    0.000    0.000    0.000    0.000 
#
# Total GULP energy -718594.672877 kJ/mol
# GULP energy per Si atom -12389.563325 kJ/mol
# Density = 2.186772 g / cm^3
# Si number density = 21.917609 Si / 1000 Ang^3
#
#
#
# Elastic Constant Matrix: (Units=GPa)
#
#
# Indices 1 2 3 4 5 6 
#
# 1 92.7831 45.6334 28.1932 0.0000 0.0000 0.0000
# 2 45.6334 118.3308 19.6961 0.0000 0.0000 0.0000
# 3 28.1932 19.6961 67.8727 0.0000 0.0000 0.0000
# 4 0.0000 0.0000 0.0000 34.2312 0.0000 0.0000
# 5 0.0000 0.0000 0.0000 0.0000 164.9249 0.0000
# 6 0.0000 0.0000 0.0000 0.0000 0.0000 41.2242
#
#
#
# Elastic Compliance Matrix: (Units=1/GPa)
#
#
# Indices 1 2 3 4 5 6 
#
# 1 0.014574 -0.004847 -0.004647 0.000000 0.000000 0.000000
# 2 -0.004847 0.010492 -0.001031 0.000000 0.000000 0.000000
# 3 -0.004647 -0.001031 0.016963 0.000000 0.000000 0.000000
# 4 0.000000 0.000000 0.000000 0.029213 0.000000 0.000000
# 5 0.000000 0.000000 0.000000 0.000000 0.006063 0.000000
# 6 0.000000 0.000000 0.000000 0.000000 0.000000 0.024258
#
#
# Mechanical properties :
#
#
# Convention : Reuss Voigt Hill
#
# Bulk Modulus (GPa) = 47.66909 51.78134 49.72521
# Shear Modulus (GPa) = 38.57857 60.44032 49.50944
#
# Velocity S-wave (km/s) = 4.19998 5.25700 4.75793
# Velocity P-wave (km/s) = 6.73173 7.77977 7.27465
#
# Compressibility (1/GPa) = 0.02097795
#
# Stress axis : x y z
#
# Youngs Moduli (GPa) = 68.61692 95.31391 58.95144
#
# Poissons Ratio (x) = 0.46196 0.27396
# Poissons Ratio (y) = 0.33257 0.06080
# Poissons Ratio (z) = 0.31888 0.09830
#
# Static dielectric constant tensor:
#      x y z
#    x 4.006370 0.000000 0.000000 
#    y 0.000000 4.195300 0.000000 
#    z 0.000000 0.000000 3.771840 
# 
# 
# High freq. dielectric constant tensor:
#      x y z
#    x 1.853050 0.000000 0.000000 
#    y 0.000000 1.885840 0.000000 
#    z 0.000000 0.000000 1.845270 
# 
# From -- ./inp_files/16550.got.cif
#   From: 2010.03.12/outbox.cif.g09.slc.cpg/sg50_9_cif.got.tgz:16550.got - 2010.04.16 13:23:21.
