data_PCOD8205558
_publ_section_title
;
Structure prediction by ZEFSAII (Michael W. Deem and Ramdas Pophale) SiO2 
 PCOD8205558
Probable space group: P B A N
;
_chemical_formula_sum "Si O2"
_cell_formula_units_Z 34
_cell_length_a 10.339200
_cell_length_b 8.845262
_cell_length_c 18.342056
_cell_angle_alpha 90.000000
_cell_angle_beta 90.000000
_cell_angle_gamma 90.000000
_cell_volume 1677.434816
_symmetry_space_group_name_H-M "P B A N"
_symmetry_group_IT_number 50
_space_group.IT_coordinate_system_code '2'
_symmetry_cell_setting 'orthorhombic'
loop_
_space_group_symop_operation_xyz
x,y,z
1/2-x,1/2-y,z
x,1/2-y,-z
1/2-x,y,-z
-x,-y,-z
1/2+x,1/2+y,-z
-x,1/2+y,z
1/2+x,-y,z
loop_
_atom_site_type_symbol
_atom_site_label
_atom_site_fract_x
_atom_site_fract_y
_atom_site_fract_z
Si Si1 0.619195 0.683544 0.419046
Si Si2 0.627191 0.834616 0.859296
Si Si3 0.750000 0.750000 0.000000
Si Si4 0.122745 0.662368 0.197750
Si Si5 0.872705 0.152708 0.367442
O O1 0.750000 0.750000 0.382734
O O2 0.608908 0.750000 0.500000
O O3 0.620773 0.500631 0.415495
O O4 0.497576 0.742901 0.375191
O O5 0.750000 0.750000 0.821605
O O6 0.648712 0.836934 0.947099
O O7 0.499844 0.758166 0.827101
O O8 0.618618 0.008524 0.844197
O O9 0.250000 0.750000 0.173128
O O10 0.132506 0.617074 0.282407
O O11 0.750000 0.250000 0.394381
#
# Coordination Sequence:
#
# PCOD8205558 Si02
#       5
#     8   8   2   8   8
#     4  11  24  42  63  93 128 171 216 262 316 379
#     4  10  22  43  63  91 130 164 214 257 314 382
#     4   8  24  44  64  92 128 172 210 252 320 376
#     4  11  23  40  66  98 127 168 212 267 317 372
#     4  11  24  41  65  96 129 167 215 265 322 376
#
# _framework density 20.269043
#
# number of rings (size 3 to 8) (size 9 to 14) (size 15 to 20)
#    0.706    0.706    0.000    4.941    0.000   10.824 
#    0.000    0.000    0.000    0.000    0.000    0.000 
#    0.000    0.000    0.000    0.000    0.000    0.000 
#
# Total GULP energy -421339.415750 kJ/mol
# GULP energy per Si atom -12392.335757 kJ/mol
# Density = 2.022291 g / cm^3
# Si number density = 20.269043 Si / 1000 Ang^3
#
#
#
# Elastic Constant Matrix: (Units=GPa)
#
#
# Indices 1 2 3 4 5 6 
#
# 1 170.7254 68.1734 23.6567 0.0000 0.0000 0.0000
# 2 68.1734 183.9207 53.6584 0.0000 0.0000 0.0000
# 3 23.6567 53.6584 77.0961 0.0000 0.0000 0.0000
# 4 0.0000 0.0000 0.0000 36.0242 0.0000 0.0000
# 5 0.0000 0.0000 0.0000 0.0000 36.2534 0.0000
# 6 0.0000 0.0000 0.0000 0.0000 0.0000 16.5872
#
#
#
# Elastic Compliance Matrix: (Units=1/GPa)
#
#
# Indices 1 2 3 4 5 6 
#
# 1 0.006886 -0.002429 -0.000422 0.000000 0.000000 0.000000
# 2 -0.002429 0.007679 -0.004599 0.000000 0.000000 0.000000
# 3 -0.000422 -0.004599 0.016302 0.000000 0.000000 0.000000
# 4 0.000000 0.000000 0.000000 0.027759 0.000000 0.000000
# 5 0.000000 0.000000 0.000000 0.000000 0.027584 0.000000
# 6 0.000000 0.000000 0.000000 0.000000 0.000000 0.060288
#
#
# Mechanical properties :
#
#
# Convention : Reuss Voigt Hill
#
# Bulk Modulus (GPa) = 62.63629 80.30213 71.46921
# Shear Modulus (GPa) = 29.99028 36.85652 33.42340
#
# Velocity S-wave (km/s) = 3.85074 4.26886 4.06518
# Velocity P-wave (km/s) = 7.12324 8.00010 7.57437
#
# Compressibility (1/GPa) = 0.01596518
#
# Stress axis : x y z
#
# Youngs Moduli (GPa) = 145.22472 130.21814 61.34378
#
# Poissons Ratio (x) = 0.31632 0.02590
# Poissons Ratio (y) = 0.35278 0.28215
# Poissons Ratio (z) = 0.06132 0.59893
#
# Static dielectric constant tensor:
#      x y z
#    x 4.056280 0.000000 0.000000 
#    y 0.000000 3.708420 0.000000 
#    z 0.000000 0.000000 3.578150 
# 
# 
# High freq. dielectric constant tensor:
#      x y z
#    x 1.813240 0.000000 0.000000 
#    y 0.000000 1.801320 0.000000 
#    z 0.000000 0.000000 1.785600 
# 
# From -- ./inp_files/30526.got.cif
#   From: 2010.03.12/outbox.cif.g09.slc.cpg/sg50_16_cif.got.tgz:30526.got - 2010.04.16 13:23:21.
