data_PCOD8205083
_publ_section_title
;
Structure prediction by ZEFSAII (Michael W. Deem and Ramdas Pophale) SiO2 
 PCOD8205083
Probable space group: P B A N
;
_chemical_formula_sum "Si O2"
_cell_formula_units_Z 32
_cell_length_a 31.938041
_cell_length_b 8.556858
_cell_length_c 5.210757
_cell_angle_alpha 90.000000
_cell_angle_beta 90.000000
_cell_angle_gamma 90.000000
_cell_volume 1424.044037
_symmetry_space_group_name_H-M "P B A N"
_symmetry_group_IT_number 50
_space_group.IT_coordinate_system_code '2'
_symmetry_cell_setting 'orthorhombic'
loop_
_space_group_symop_operation_xyz
x,y,z
1/2-x,1/2-y,z
x,1/2-y,-z
1/2-x,y,-z
-x,-y,-z
1/2+x,1/2+y,-z
-x,1/2+y,z
1/2+x,-y,z
loop_
_atom_site_type_symbol
_atom_site_label
_atom_site_fract_x
_atom_site_fract_y
_atom_site_fract_z
Si Si1 0.067772 0.573096 0.469836
Si Si2 0.297474 0.063392 0.995181
Si Si3 0.343479 0.433796 0.511436
Si Si4 0.013898 0.145934 0.244960
O O1 0.083279 0.750000 0.500000
O O2 0.108396 0.469628 0.423869
O O3 0.045487 0.501300 0.726161
O O4 0.033315 0.572441 0.236593
O O5 0.324163 0.997161 0.752676
O O6 0.298499 0.250000 0.000000
O O7 0.250000 0.001690 0.000000
O O8 0.317727 0.994474 0.252647
O O9 0.338165 0.250000 0.500000
O O10 0.017857 0.250000 0.500000
O O11 0.025193 0.250000 0.000000
#
# Coordination Sequence:
#
# PCOD8205083 Si02
#       4
#     8   8   8   8
#     4  10  23  39  60  88 120 155 197 246 298 352
#     4   9  18  34  57  84 111 144 190 240 288 342
#     4  10  20  34  57  85 114 148 188 239 293 349
#     4  10  23  42  62  83 115 160 205 246 290 346
#
# _framework density 22.471214
#
# number of rings (size 3 to 8) (size 9 to 14) (size 15 to 20)
#    0.000    2.250    0.000    1.500    0.000   22.000 
#    0.000    0.000    0.000    4.500    0.000    0.000 
#    0.000    0.000    0.000    0.000    0.000    0.000 
#
# Total GULP energy -396485.897505 kJ/mol
# GULP energy per Si atom -12390.184297 kJ/mol
# Density = 2.242007 g / cm^3
# Si number density = 22.471214 Si / 1000 Ang^3
#
#
#
# Elastic Constant Matrix: (Units=GPa)
#
#
# Indices 1 2 3 4 5 6 
#
# 1 157.6100 6.8107 60.3777 0.0000 0.0000 0.0000
# 2 6.8107 41.7815 46.4091 0.0000 0.0000 0.0000
# 3 60.3777 46.4091 167.0254 0.0000 0.0000 0.0000
# 4 0.0000 0.0000 0.0000 28.2708 0.0000 0.0000
# 5 0.0000 0.0000 0.0000 0.0000 0.9273 0.0000
# 6 0.0000 0.0000 0.0000 0.0000 0.0000 6.3360
#
#
#
# Elastic Compliance Matrix: (Units=1/GPa)
#
#
# Indices 1 2 3 4 5 6 
#
# 1 0.007556 0.002607 -0.003456 0.000000 0.000000 0.000000
# 2 0.002607 0.035518 -0.010811 0.000000 0.000000 0.000000
# 3 -0.003456 -0.010811 0.010240 0.000000 0.000000 0.000000
# 4 0.000000 0.000000 0.000000 0.035372 0.000000 0.000000
# 5 0.000000 0.000000 0.000000 0.000000 1.078414 0.000000
# 6 0.000000 0.000000 0.000000 0.000000 0.000000 0.157829
#
#
# Mechanical properties :
#
#
# Convention : Reuss Voigt Hill
#
# Bulk Modulus (GPa) = 33.34031 65.95686 49.64858
# Shear Modulus (GPa) = 3.68121 23.96143 13.82132
#
# Velocity S-wave (km/s) = 1.28131 3.26899 2.48275
# Velocity P-wave (km/s) = 4.13015 6.60786 5.51008
#
# Compressibility (1/GPa) = 0.02999373
#
# Stress axis : x y z
#
# Youngs Moduli (GPa) = 132.34605 28.15505 97.65397
#
# Poissons Ratio (x) = -0.07339 0.33746
# Poissons Ratio (y) = -0.34499 1.05575
# Poissons Ratio (z) = 0.45735 0.30439
#
# Static dielectric constant tensor:
#      x y z
#    x 4.069980 0.000000 0.000000 
#    y 0.000000 3.921980 0.000000 
#    z 0.000000 0.000000 4.272610 
# 
# 
# High freq. dielectric constant tensor:
#      x y z
#    x 1.886050 0.000000 0.000000 
#    y 0.000000 1.860610 0.000000 
#    z 0.000000 0.000000 1.884750 
# 
# From -- ./inp_files/1222.got.cif
#   From: 2010.03.12/outbox.cif.g09.slc.cpg/sg50_1_cif.got.tgz:1222.got - 2010.04.16 13:23:21.
