data_PCOD8205931
_publ_section_title
;
Structure prediction by ZEFSAII (Michael W. Deem and Ramdas Pophale) SiO2 
 PCOD8205931
Probable space group: P M M A
;
_chemical_formula_sum "Si O2"
_cell_formula_units_Z 52
_cell_length_a 8.863357
_cell_length_b 26.631612
_cell_length_c 13.727198
_cell_angle_alpha 90.000000
_cell_angle_beta 90.000000
_cell_angle_gamma 90.000000
_cell_volume 3240.243105
_symmetry_space_group_name_H-M "P M M A"
_symmetry_group_IT_number 51
_symmetry_cell_setting 'orthorhombic'
loop_
_space_group_symop_operation_xyz
x,y,z
1/2-x,-y,z
1/2+x,-y,-z
-x,y,-z
-x,-y,-z
1/2+x,y,-z
1/2-x,y,z
x,-y,z
loop_
_atom_site_type_symbol
_atom_site_label
_atom_site_fract_x
_atom_site_fract_y
_atom_site_fract_z
Si Si1 0.425984 0.893015 0.103137
Si Si2 0.427829 0.848425 0.603922
Si Si3 0.571041 0.500000 0.891609
Si Si4 0.925190 0.292435 0.105613
Si Si5 0.924366 0.943770 0.276565
Si Si6 0.927782 0.204922 0.779683
Si Si7 0.076072 0.403756 0.896194
O O1 0.250000 0.899222 0.090345
O O2 0.482213 0.934933 0.178414
O O3 0.469994 0.837875 0.142035
O O4 0.500000 0.902683 0.000000
O O5 0.500000 0.838894 0.500000
O O6 0.250000 0.841367 0.596805
O O7 0.473059 0.904411 0.640007
O O8 0.494082 0.807158 0.677209
O O9 0.750000 0.500000 0.893036
O O10 0.509646 0.550913 0.838306
O O11 0.500000 0.500000 0.000000
O O12 0.750000 0.277570 0.094785
O O13 0.941577 0.348640 0.151468
O O14 0.007874 0.257190 0.182357
O O15 0.000000 0.286973 0.000000
O O16 0.750000 0.936061 0.249875
O O17 0.957246 0.000000 0.315229
O O18 0.750000 0.208884 0.763294
O O19 0.250000 0.418919 0.907886
O O20 0.000000 0.398526 0.000000
#
# Coordination Sequence:
#
# PCOD8205931 Si02
#       7
#     8   8   4   8   8   8   8
#     4  10  20  32  47  67  90 119 151 181 216 258
#     4  10  20  35  54  73  93 115 142 176 217 267
#     4  10  16  22  34  50  72 106 149 192 229 262
#     4  10  19  29  43  64  90 121 155 190 228 268
#     4   9  19  35  52  70  92 117 145 178 215 256
#     4  10  20  33  49  68  90 116 148 185 224 266
#     4   9  16  25  36  52  77 110 149 189 226 263
#
# _framework density 16.048179000000001
#
# number of rings (size 3 to 8) (size 9 to 14) (size 15 to 20)
#    0.000    2.308    0.000    4.385    0.000    6.462 
#    0.000    0.000    0.000    0.000    0.000    0.000 
#    0.000    0.000    0.000    0.692    0.000    9.154 
#
# Total GULP energy -644641.186045 kJ/mol
# GULP energy per Si atom -12396.945885 kJ/mol
# Density = 1.601165 g / cm^3
# Si number density = 16.048179 Si / 1000 Ang^3
#
#
#
# Elastic Constant Matrix: (Units=GPa)
#
#
# Indices 1 2 3 4 5 6 
#
# 1 92.9918 45.2732 36.9095 0.0000 0.0000 0.0000
# 2 45.2732 111.2862 37.7877 0.0000 0.0000 0.0000
# 3 36.9095 37.7877 84.6919 0.0000 0.0000 0.0000
# 4 0.0000 0.0000 0.0000 14.1988 0.0000 0.0000
# 5 0.0000 0.0000 0.0000 0.0000 22.6278 0.0000
# 6 0.0000 0.0000 0.0000 0.0000 0.0000 26.7490
#
#
#
# Elastic Compliance Matrix: (Units=1/GPa)
#
#
# Indices 1 2 3 4 5 6 
#
# 1 0.014680 -0.004478 -0.004400 0.000000 0.000000 0.000000
# 2 -0.004478 0.011956 -0.003383 0.000000 0.000000 0.000000
# 3 -0.004400 -0.003383 0.015234 0.000000 0.000000 0.000000
# 4 0.000000 0.000000 0.000000 0.070428 0.000000 0.000000
# 5 0.000000 0.000000 0.000000 0.000000 0.044193 0.000000
# 6 0.000000 0.000000 0.000000 0.000000 0.000000 0.037385
#
#
# Mechanical properties :
#
#
# Convention : Reuss Voigt Hill
#
# Bulk Modulus (GPa) = 57.64000 58.76785 58.20392
# Shear Modulus (GPa) = 22.30331 23.98177 23.14254
#
# Velocity S-wave (km/s) = 3.73201 3.86989 3.80157
# Velocity P-wave (km/s) = 7.38684 7.52776 7.45763
#
# Compressibility (1/GPa) = 0.01734906
#
# Stress axis : x y z
#
# Youngs Moduli (GPa) = 68.11933 83.63734 65.64121
#
# Poissons Ratio (x) = 0.37455 0.28880
# Poissons Ratio (y) = 0.30505 0.22207
# Poissons Ratio (z) = 0.29970 0.28295
#
# Static dielectric constant tensor:
#      x y z
#    x 3.187040 0.000000 0.000000 
#    y 0.000000 3.690920 0.000000 
#    z 0.000000 0.000000 2.670410 
# 
# 
# High freq. dielectric constant tensor:
#      x y z
#    x 1.637570 0.000000 0.000000 
#    y 0.000000 1.624560 0.000000 
#    z 0.000000 0.000000 1.564680 
# 
# From -- ./inp_files/14606.got.cif
#   From: 2010.03.12/outbox.cif.g09.slc.cpg/sg51_8_cif.got.tgz:14606.got - 2010.04.16 13:43:02.
