data_PCOD8205212
_publ_section_title
;
Structure prediction by ZEFSAII (Michael W. Deem and Ramdas Pophale) SiO2 
 PCOD8205212
Probable space group: P B A N
;
_chemical_formula_sum "Si O2"
_cell_formula_units_Z 56
_cell_length_a 18.090135
_cell_length_b 11.685672
_cell_length_c 13.156305
_cell_angle_alpha 90.000000
_cell_angle_beta 90.000000
_cell_angle_gamma 90.000000
_cell_volume 2781.182148
_symmetry_space_group_name_H-M "P B A N"
_symmetry_group_IT_number 50
_space_group.IT_coordinate_system_code '2'
_symmetry_cell_setting 'orthorhombic'
loop_
_space_group_symop_operation_xyz
x,y,z
1/2-x,1/2-y,z
x,1/2-y,-z
1/2-x,y,-z
-x,-y,-z
1/2+x,1/2+y,-z
-x,1/2+y,z
1/2+x,-y,z
loop_
_atom_site_type_symbol
_atom_site_label
_atom_site_fract_x
_atom_site_fract_y
_atom_site_fract_z
Si Si1 0.060863 0.547520 0.378506
Si Si2 0.105489 0.968178 0.404114
Si Si3 0.819048 0.189780 0.106896
Si Si4 0.068247 0.726977 0.736234
Si Si5 0.809201 0.838978 0.703003
Si Si6 0.283180 0.426346 0.894806
Si Si7 0.911095 0.648847 0.770324
O O1 0.114925 0.559410 0.476561
O O2 0.044494 0.674495 0.340341
O O3 0.103644 0.461922 0.301483
O O4 0.980419 0.498230 0.398080
O O5 0.165957 0.063923 0.375888
O O6 0.118593 0.862565 0.326812
O O7 0.750000 0.250000 0.162418
O O8 0.890241 0.208111 0.174449
O O9 0.797693 0.059393 0.091561
O O10 0.834337 0.250000 0.000000
O O11 0.998474 0.663364 0.788851
O O12 0.750000 0.750000 0.654409
O O13 0.774011 0.895296 0.804574
O O14 0.883642 0.768042 0.723045
O O15 0.363519 0.369907 0.873085
O O16 0.250000 0.376994 0.000000
#
# Coordination Sequence:
#
# PCOD8205212 Si02
#       7
#     8   8   8   8   8   8   8
#     4  10  20  38  64  93 128 168 213 265 319 386
#     4  10  21  36  63  96 126 170 216 258 325 383
#     4  11  22  40  65  92 120 168 213 253 328 394
#     4  11  21  40  66  93 130 165 209 282 319 380
#     4  10  22  40  63  91 129 171 210 266 319 380
#     4  11  22  42  67  89 125 174 215 260 325 394
#     4  10  22  40  63  95 129 164 216 267 322 382
#
# _framework density 20.135324000000001
#
# number of rings (size 3 to 8) (size 9 to 14) (size 15 to 20)
#    0.000    1.571    4.286    1.286    0.000    3.143 
#    2.571    5.714    0.000    0.857    0.000    0.000 
#    0.000    0.000    0.000    0.000    0.000    0.000 
#
# Total GULP energy -693978.674796 kJ/mol
# GULP energy per Si atom -12392.476336 kJ/mol
# Density = 2.008949 g / cm^3
# Si number density = 20.135324 Si / 1000 Ang^3
#
#
#
# Elastic Constant Matrix: (Units=GPa)
#
#
# Indices 1 2 3 4 5 6 
#
# 1 67.7114 18.8431 46.3820 0.0000 0.0000 0.0000
# 2 18.8431 103.0440 28.8915 0.0000 0.0000 0.0000
# 3 46.3820 28.8915 95.2188 0.0000 0.0000 0.0000
# 4 0.0000 0.0000 0.0000 21.4361 0.0000 0.0000
# 5 0.0000 0.0000 0.0000 0.0000 29.6489 0.0000
# 6 0.0000 0.0000 0.0000 0.0000 0.0000 39.2737
#
#
#
# Elastic Compliance Matrix: (Units=1/GPa)
#
#
# Indices 1 2 3 4 5 6 
#
# 1 0.022283 -0.001127 -0.010512 0.000000 0.000000 0.000000
# 2 -0.001127 0.010664 -0.002687 0.000000 0.000000 0.000000
# 3 -0.010512 -0.002687 0.016438 0.000000 0.000000 0.000000
# 4 0.000000 0.000000 0.000000 0.046650 0.000000 0.000000
# 5 0.000000 0.000000 0.000000 0.000000 0.033728 0.000000
# 6 0.000000 0.000000 0.000000 0.000000 0.000000 0.025462
#
#
# Mechanical properties :
#
#
# Convention : Reuss Voigt Hill
#
# Bulk Modulus (GPa) = 48.23297 50.46747 49.35022
# Shear Modulus (GPa) = 26.20695 29.52890 27.86793
#
# Velocity S-wave (km/s) = 3.61160 3.83367 3.72429
# Velocity P-wave (km/s) = 6.43413 6.68690 6.56173
#
# Compressibility (1/GPa) = 0.02073271
#
# Stress axis : x y z
#
# Youngs Moduli (GPa) = 44.87698 93.77340 60.83501
#
# Poissons Ratio (x) = 0.10572 0.63951
# Poissons Ratio (y) = 0.05059 0.16344
# Poissons Ratio (z) = 0.47176 0.25193
#
# Static dielectric constant tensor:
#      x y z
#    x 3.575710 0.000000 0.000000 
#    y 0.000000 3.861420 0.000000 
#    z 0.000000 0.000000 3.669040 
# 
# 
# High freq. dielectric constant tensor:
#      x y z
#    x 1.778440 0.000000 0.000000 
#    y 0.000000 1.805150 0.000000 
#    z 0.000000 0.000000 1.770480 
# 
# From -- ./inp_files/22405.got.cif
#   From: 2010.03.12/outbox.cif.g09.slc.cpg/sg50_12_cif.got.tgz:22405.got - 2010.04.16 13:23:21.
