data_PCOD8205553
_publ_section_title
;
Structure prediction by ZEFSAII (Michael W. Deem and Ramdas Pophale) SiO2 
 PCOD8205553
Probable space group: P B A N
;
_chemical_formula_sum "Si O2"
_cell_formula_units_Z 34
_cell_length_a 9.749568
_cell_length_b 20.576404
_cell_length_c 7.437692
_cell_angle_alpha 90.000000
_cell_angle_beta 90.000000
_cell_angle_gamma 90.000000
_cell_volume 1492.083202
_symmetry_space_group_name_H-M "P B A N"
_symmetry_group_IT_number 50
_space_group.IT_coordinate_system_code '2'
_symmetry_cell_setting 'orthorhombic'
loop_
_space_group_symop_operation_xyz
x,y,z
1/2-x,1/2-y,z
x,1/2-y,-z
1/2-x,y,-z
-x,-y,-z
1/2+x,1/2+y,-z
-x,1/2+y,z
1/2+x,-y,z
loop_
_atom_site_type_symbol
_atom_site_label
_atom_site_fract_x
_atom_site_fract_y
_atom_site_fract_z
Si Si1 0.499544 0.080329 0.269316
Si Si2 0.055694 0.358915 0.882716
Si Si3 0.250000 0.250000 0.000000
Si Si4 0.275218 0.017822 0.797990
Si Si5 0.094723 0.823628 0.546071
O O1 0.372126 0.030461 0.295042
O O2 0.492855 0.133123 0.425888
O O3 0.639313 0.039401 0.295432
O O4 0.494575 0.118080 0.078554
O O5 0.140961 0.415736 0.790043
O O6 0.927021 0.340131 0.756858
O O7 0.153210 0.296032 0.881359
O O8 0.250000 0.994419 0.000000
O O9 0.058347 0.750000 0.500000
O O10 0.250000 0.840184 0.500000
#
# Coordination Sequence:
#
# PCOD8205553 Si02
#       5
#     8   8   2   8   8
#     4  11  24  47  72 106 144 188 236 302 371 430
#     4  11  23  44  71 105 139 183 241 299 362 430
#     4  12  20  44  78 106 140 194 252 304 378 432
#     4  10  22  42  71 107 138 183 235 295 364 427
#     4  11  28  47  67 103 142 189 247 296 361 441
#
# _framework density 22.786933000000001
#
# number of rings (size 3 to 8) (size 9 to 14) (size 15 to 20)
#    0.000    1.176    3.529    4.235    6.588    1.882 
#    0.000    2.353    0.000    0.000    0.000    0.000 
#    0.000    0.000    0.000    0.000    0.000    0.000 
#
# Total GULP energy -421636.758672 kJ/mol
# GULP energy per Si atom -12401.081137 kJ/mol
# Density = 2.273507 g / cm^3
# Si number density = 22.786933 Si / 1000 Ang^3
#
#
#
# Elastic Constant Matrix: (Units=GPa)
#
#
# Indices 1 2 3 4 5 6 
#
# 1 119.7756 47.8766 46.7586 0.0000 0.0000 0.0000
# 2 47.8766 123.4777 37.7321 0.0000 0.0000 0.0000
# 3 46.7586 37.7321 89.4727 0.0000 0.0000 0.0000
# 4 0.0000 0.0000 0.0000 18.2195 0.0000 0.0000
# 5 0.0000 0.0000 0.0000 0.0000 29.0703 0.0000
# 6 0.0000 0.0000 0.0000 0.0000 0.0000 21.9813
#
#
#
# Elastic Compliance Matrix: (Units=1/GPa)
#
#
# Indices 1 2 3 4 5 6 
#
# 1 0.011368 -0.002976 -0.004686 0.000000 0.000000 0.000000
# 2 -0.002976 0.010076 -0.002694 0.000000 0.000000 0.000000
# 3 -0.004686 -0.002694 0.014762 0.000000 0.000000 0.000000
# 4 0.000000 0.000000 0.000000 0.054886 0.000000 0.000000
# 5 0.000000 0.000000 0.000000 0.000000 0.034399 0.000000
# 6 0.000000 0.000000 0.000000 0.000000 0.000000 0.045493
#
#
# Mechanical properties :
#
#
# Convention : Reuss Voigt Hill
#
# Bulk Modulus (GPa) = 64.54209 66.38451 65.46330
# Shear Modulus (GPa) = 25.39885 27.21147 26.30516
#
# Velocity S-wave (km/s) = 3.34222 3.45943 3.40133
# Velocity P-wave (km/s) = 6.57872 6.71958 6.64952
#
# Compressibility (1/GPa) = 0.01549377
#
# Stress axis : x y z
#
# Youngs Moduli (GPa) = 87.96850 99.24932 67.74376
#
# Poissons Ratio (x) = 0.29534 0.31744
# Poissons Ratio (y) = 0.26177 0.18250
# Poissons Ratio (z) = 0.41221 0.26737
#
# Static dielectric constant tensor:
#      x y z
#    x 4.179160 0.000000 0.000000 
#    y 0.000000 4.290700 0.000000 
#    z 0.000000 0.000000 3.926740 
# 
# 
# High freq. dielectric constant tensor:
#      x y z
#    x 1.900990 0.000000 0.000000 
#    y 0.000000 1.915400 0.000000 
#    z 0.000000 0.000000 1.885650 
# 
# From -- ./inp_files/9208.got.cif
#   From: 2010.03.12/outbox.cif.g09.slc.cpg/sg50_5_cif.got.tgz:9208.got - 2010.04.16 13:23:21.
