data_PCOD8205694
_publ_section_title
;
Structure prediction by ZEFSAII (Michael W. Deem and Ramdas Pophale) SiO2 
 PCOD8205694
Probable space group: P B A N
;
_chemical_formula_sum "Si O2"
_cell_formula_units_Z 32
_cell_length_a 11.056718
_cell_length_b 8.934970
_cell_length_c 13.991180
_cell_angle_alpha 90.000000
_cell_angle_beta 90.000000
_cell_angle_gamma 90.000000
_cell_volume 1382.208870
_symmetry_space_group_name_H-M "P B A N"
_symmetry_group_IT_number 50
_space_group.IT_coordinate_system_code '2'
_symmetry_cell_setting 'orthorhombic'
loop_
_space_group_symop_operation_xyz
x,y,z
1/2-x,1/2-y,z
x,1/2-y,-z
1/2-x,y,-z
-x,-y,-z
1/2+x,1/2+y,-z
-x,1/2+y,z
1/2+x,-y,z
loop_
_atom_site_type_symbol
_atom_site_label
_atom_site_fract_x
_atom_site_fract_y
_atom_site_fract_z
Si Si1 0.619270 0.919349 0.035947
Si Si2 0.586904 0.493403 0.410749
Si Si3 0.105872 0.483059 0.742507
Si Si4 0.250000 0.750000 0.340128
Si Si5 0.250000 0.250000 0.629182
O O1 0.602761 0.937380 0.148272
O O2 0.613152 0.750000 0.000000
O O3 0.750000 0.986564 0.000000
O O4 0.500000 0.000000 0.000000
O O5 0.500000 0.500000 0.500000
O O6 0.523322 0.518346 0.307257
O O7 0.654422 0.333483 0.408874
O O8 0.679403 0.627656 0.433639
O O9 0.190134 0.627538 0.729076
O O10 0.153417 0.334800 0.692998
#
# Coordination Sequence:
#
# PCOD8205694 Si02
#       5
#     8   8   8   4   4
#     4  11  28  48  76 113 154 201 262 321 393 467
#     4  11  26  46  73 110 147 203 254 313 389 469
#     4  11  25  44  75 104 149 196 248 317 383 465
#     4  10  26  45  75 106 154 190 261 310 387 464
#     4  10  24  45  71  98 150 188 241 310 381 440
#
# _framework density 23.151349
#
# number of rings (size 3 to 8) (size 9 to 14) (size 15 to 20)
#    0.000    1.250    0.000    3.000   14.000   10.500 
#    0.000    3.750    0.000    0.000    0.000    0.000 
#    0.000    0.000    0.000    0.000    0.000    0.000 
#
# Total GULP energy -396644.810454 kJ/mol
# GULP energy per Si atom -12395.150327 kJ/mol
# Density = 2.309866 g / cm^3
# Si number density = 23.151349 Si / 1000 Ang^3
#
#
#
# Elastic Constant Matrix: (Units=GPa)
#
#
# Indices 1 2 3 4 5 6 
#
# 1 165.5437 52.8619 78.4849 0.0000 0.0000 0.0000
# 2 52.8619 133.6570 59.6999 0.0000 0.0000 0.0000
# 3 78.4849 59.6999 191.2737 0.0000 0.0000 0.0000
# 4 0.0000 0.0000 0.0000 -80.3734 0.0000 0.0000
# 5 0.0000 0.0000 0.0000 0.0000 39.5314 0.0000
# 6 0.0000 0.0000 0.0000 0.0000 0.0000 36.2197
#
#
#
# Elastic Compliance Matrix: (Units=1/GPa)
#
#
# Indices 1 2 3 4 5 6 
#
# 1 0.007915 -0.001952 -0.002638 0.000000 0.000000 0.000000
# 2 -0.001952 0.009175 -0.002063 0.000000 0.000000 0.000000
# 3 -0.002638 -0.002063 0.006955 0.000000 0.000000 0.000000
# 4 0.000000 0.000000 0.000000 -0.012442 0.000000 0.000000
# 5 0.000000 0.000000 0.000000 0.000000 0.025296 0.000000
# 6 0.000000 0.000000 0.000000 0.000000 0.000000 0.027609
#
#
# Mechanical properties :
#
#
# Convention : Reuss Voigt Hill
#
# Bulk Modulus (GPa) = 93.12439 96.95199 95.03819
# Shear Modulus (GPa) = 61.42942 19.03739 40.23340
#
# Velocity S-wave (km/s) = 5.15669 2.87069 4.17327
# Velocity P-wave (km/s) = 8.70441 7.27710 8.02256
#
# Compressibility (1/GPa) = 0.01073833
#
# Stress axis : x y z
#
# Youngs Moduli (GPa) = 126.34406 108.98938 143.78951
#
# Poissons Ratio (x) = 0.21273 0.37939
# Poissons Ratio (y) = 0.24661 0.29662
# Poissons Ratio (z) = 0.33336 0.22483
#
# Static dielectric constant tensor:
#      x y z
#    x 4.809670 0.000000 0.000000 
#    y 0.000000 4.466960 0.000000 
#    z 0.000000 0.000000 4.478940 
# 
# 
# High freq. dielectric constant tensor:
#      x y z
#    x 1.938350 0.000000 0.000000 
#    y 0.000000 1.931770 0.000000 
#    z 0.000000 0.000000 1.913560 
# 
# From -- ./inp_files/25686.got.cif
#   From: 2010.03.12/outbox.cif.g09.slc.cpg/sg50_13_cif.got.tgz:25686.got - 2010.04.16 13:23:21.
