data_PCOD8205735
_publ_section_title
;
Structure prediction by ZEFSAII (Michael W. Deem and Ramdas Pophale) SiO2 
 PCOD8205735
Probable space group: P B A N
;
_chemical_formula_sum "Si O2"
_cell_formula_units_Z 64
_cell_length_a 10.003245
_cell_length_b 22.544909
_cell_length_c 16.488131
_cell_angle_alpha 90.000000
_cell_angle_beta 90.000000
_cell_angle_gamma 90.000000
_cell_volume 3718.440372
_symmetry_space_group_name_H-M "P B A N"
_symmetry_group_IT_number 50
_space_group.IT_coordinate_system_code '2'
_symmetry_cell_setting 'orthorhombic'
loop_
_space_group_symop_operation_xyz
x,y,z
1/2-x,1/2-y,z
x,1/2-y,-z
1/2-x,y,-z
-x,-y,-z
1/2+x,1/2+y,-z
-x,1/2+y,z
1/2+x,-y,z
loop_
_atom_site_type_symbol
_atom_site_label
_atom_site_fract_x
_atom_site_fract_y
_atom_site_fract_z
Si Si1 0.735937 0.561902 0.593021
Si Si2 0.592859 0.680764 0.824195
Si Si3 0.739778 0.423455 0.594007
Si Si4 0.395926 0.320060 0.000582
Si Si5 0.498228 0.871152 0.336074
Si Si6 0.398853 0.251023 0.405147
Si Si7 0.411875 0.317426 0.825715
Si Si8 0.977547 0.869163 0.335772
O O1 0.750000 0.582265 0.500000
O O2 0.766558 0.492957 0.602555
O O3 0.588232 0.576831 0.625183
O O4 0.838146 0.599344 0.646041
O O5 0.524540 0.636669 0.759822
O O6 0.554106 0.748930 0.804486
O O7 0.752483 0.673539 0.822904
O O8 0.534191 0.662262 0.913818
O O9 0.750000 0.403880 0.500000
O O10 0.595006 0.409532 0.629899
O O11 0.845373 0.388389 0.648788
O O12 0.468838 0.336518 0.915326
O O13 0.376205 0.250000 0.000000
O O14 0.250000 0.350317 0.000000
O O15 0.524834 0.809752 0.380488
O O16 0.250000 0.250000 0.364809
O O17 0.383331 0.250000 0.500000
O O18 0.484444 0.194925 0.377348
O O19 0.485767 0.359852 0.761291
#
# Coordination Sequence:
#
# PCOD8205735 Si02
#       8
#     8   8   8   8   8   8   8   8
#     4  11  22  39  59  74  95 137 190 231 260 302
#     4   9  15  28  49  80 109 134 167 209 258 316
#     4  11  26  41  51  72 105 143 186 227 262 302
#     4   7  12  22  44  75 110 134 157 204 259 306
#     4  12  21  35  56  79 105 138 173 220 269 314
#     4  11  20  31  51  78 104 133 170 213 268 320
#     4   9  15  28  49  80 109 134 167 209 258 316
#     4  12  21  35  56  79 105 138 173 220 269 314
#
# _framework density 17.211517000000001
#
# number of rings (size 3 to 8) (size 9 to 14) (size 15 to 20)
#    0.000    1.750    3.750    4.500    0.000    2.500 
#    0.000    1.250    0.000    0.750    0.000    7.875 
#    0.000    0.000    0.000    0.000    0.000    0.000 
#
# Total GULP energy -793280.643994 kJ/mol
# GULP energy per Si atom -12395.010062 kJ/mol
# Density = 1.717234 g / cm^3
# Si number density = 17.211517 Si / 1000 Ang^3
#
#
#
# Elastic Constant Matrix: (Units=GPa)
#
#
# Indices 1 2 3 4 5 6 
#
# 1 37.0615 10.2252 13.6987 0.0000 0.0000 0.0000
# 2 10.2252 56.4319 31.2260 0.0000 0.0000 0.0000
# 3 13.6987 31.2260 146.6884 0.0000 0.0000 0.0000
# 4 0.0000 0.0000 0.0000 22.4136 0.0000 0.0000
# 5 0.0000 0.0000 0.0000 0.0000 16.8138 0.0000
# 6 0.0000 0.0000 0.0000 0.0000 0.0000 19.2610
#
#
#
# Elastic Compliance Matrix: (Units=1/GPa)
#
#
# Indices 1 2 3 4 5 6 
#
# 1 0.028811 -0.004230 -0.001790 0.000000 0.000000 0.000000
# 2 -0.004230 0.020707 -0.004013 0.000000 0.000000 0.000000
# 3 -0.001790 -0.004013 0.007839 0.000000 0.000000 0.000000
# 4 0.000000 0.000000 0.000000 0.044616 0.000000 0.000000
# 5 0.000000 0.000000 0.000000 0.000000 0.059475 0.000000
# 6 0.000000 0.000000 0.000000 0.000000 0.000000 0.051918
#
#
# Mechanical properties :
#
#
# Convention : Reuss Voigt Hill
#
# Bulk Modulus (GPa) = 26.81620 38.94241 32.87930
# Shear Modulus (GPa) = 20.33658 24.03314 22.18486
#
# Velocity S-wave (km/s) = 3.44112 3.74082 3.59410
# Velocity P-wave (km/s) = 5.60381 6.42909 6.03058
#
# Compressibility (1/GPa) = 0.03729090
#
# Stress axis : x y z
#
# Youngs Moduli (GPa) = 34.70910 48.29168 127.57360
#
# Poissons Ratio (x) = 0.20427 0.22837
# Poissons Ratio (y) = 0.14682 0.51196
# Poissons Ratio (z) = 0.06213 0.19380
#
# Static dielectric constant tensor:
#      x y z
#    x 2.932020 0.000000 0.000000 
#    y 0.000000 3.110570 0.000000 
#    z 0.000000 0.000000 3.682580 
# 
# 
# High freq. dielectric constant tensor:
#      x y z
#    x 1.627850 0.000000 0.000000 
#    y 0.000000 1.640110 0.000000 
#    z 0.000000 0.000000 1.681250 
# 
# From -- ./inp_files/29006.got.cif
#   From: 2010.03.12/outbox.cif.g09.slc.cpg/sg50_15_cif.got.tgz:29006.got - 2010.04.16 13:23:21.
