data_PCOD8205841
_publ_section_title
;
Structure prediction by ZEFSAII (Michael W. Deem and Ramdas Pophale) SiO2 
 PCOD8205841
Probable space group: P B A N
;
_chemical_formula_sum "Si O2"
_cell_formula_units_Z 24
_cell_length_a 17.209803
_cell_length_b 7.966642
_cell_length_c 7.310045
_cell_angle_alpha 90.000000
_cell_angle_beta 90.000000
_cell_angle_gamma 90.000000
_cell_volume 1002.238891
_symmetry_space_group_name_H-M "P B A N"
_symmetry_group_IT_number 50
_space_group.IT_coordinate_system_code '2'
_symmetry_cell_setting 'orthorhombic'
loop_
_space_group_symop_operation_xyz
x,y,z
1/2-x,1/2-y,z
x,1/2-y,-z
1/2-x,y,-z
-x,-y,-z
1/2+x,1/2+y,-z
-x,1/2+y,z
1/2+x,-y,z
loop_
_atom_site_type_symbol
_atom_site_label
_atom_site_fract_x
_atom_site_fract_y
_atom_site_fract_z
Si Si1 0.085929 0.056885 0.958820
Si Si2 0.345924 0.429051 0.589076
Si Si3 0.701903 0.079964 0.251202
O O1 0.091543 0.023495 0.742754
O O2 0.100040 0.250000 0.000000
O O3 0.151719 0.951909 0.068897
O O4 0.000000 0.000000 0.000000
O O5 0.364098 0.250000 0.500000
O O6 0.262573 0.430077 0.696939
O O7 0.352826 0.574813 0.432554
O O8 0.750000 0.250000 0.227665
#
# Coordination Sequence:
#
# PCOD8205841 Si02
#       3
#     8   8   8
#     4  12  29  49  73 111 161 210 254 314 397 470
#     4  11  23  46  76 108 147 197 260 321 383 450
#     4  11  25  46  79 115 145 193 263 326 382 455
#
# _framework density 23.946387000000001
#
# number of rings (size 3 to 8) (size 9 to 14) (size 15 to 20)
#    0.000    0.667    3.333    5.000    4.667    5.333 
#    0.000    0.000    0.000    0.000    0.000    0.000 
#    0.000    0.000    0.000    0.000    0.000    0.000 
#
# Total GULP energy -297411.529479 kJ/mol
# GULP energy per Si atom -12392.147062 kJ/mol
# Density = 2.389188 g / cm^3
# Si number density = 23.946387 Si / 1000 Ang^3
#
#
#
# Elastic Constant Matrix: (Units=GPa)
#
#
# Indices 1 2 3 4 5 6 
#
# 1 97.9403 65.8018 72.4434 0.0000 0.0000 0.0000
# 2 65.8018 145.0920 81.5561 0.0000 0.0000 0.0000
# 3 72.4434 81.5561 213.0328 0.0000 0.0000 0.0000
# 4 0.0000 0.0000 0.0000 29.5191 0.0000 0.0000
# 5 0.0000 0.0000 0.0000 0.0000 41.1055 0.0000
# 6 0.0000 0.0000 0.0000 0.0000 0.0000 26.7928
#
#
#
# Elastic Compliance Matrix: (Units=1/GPa)
#
#
# Indices 1 2 3 4 5 6 
#
# 1 0.016507 -0.005519 -0.003501 0.000000 0.000000 0.000000
# 2 -0.005519 0.010627 -0.002192 0.000000 0.000000 0.000000
# 3 -0.003501 -0.002192 0.006724 0.000000 0.000000 0.000000
# 4 0.000000 0.000000 0.000000 0.033876 0.000000 0.000000
# 5 0.000000 0.000000 0.000000 0.000000 0.024328 0.000000
# 6 0.000000 0.000000 0.000000 0.000000 0.000000 0.037323
#
#
# Mechanical properties :
#
#
# Convention : Reuss Voigt Hill
#
# Bulk Modulus (GPa) = 87.44459 99.51863 93.48161
# Shear Modulus (GPa) = 32.12964 35.23440 33.68202
#
# Velocity S-wave (km/s) = 3.66694 3.84003 3.75448
# Velocity P-wave (km/s) = 7.38408 7.83009 7.61035
#
# Compressibility (1/GPa) = 0.01143581
#
# Stress axis : x y z
#
# Youngs Moduli (GPa) = 60.57874 94.10059 148.72927
#
# Poissons Ratio (x) = 0.51931 0.52067
# Poissons Ratio (y) = 0.33431 0.32597
# Poissons Ratio (z) = 0.21207 0.20624
#
# Static dielectric constant tensor:
#      x y z
#    x 3.581670 0.000000 0.000000 
#    y 0.000000 3.532420 0.000000 
#    z 0.000000 0.000000 5.256250 
# 
# 
# High freq. dielectric constant tensor:
#      x y z
#    x 1.920420 0.000000 0.000000 
#    y 0.000000 1.948160 0.000000 
#    z 0.000000 0.000000 1.980950 
# 
# From -- ./inp_files/13654.got.cif
#   From: 2010.03.12/outbox.cif.g09.slc.cpg/sg50_7_cif.got.tgz:13654.got - 2010.04.16 13:23:21.
