data_PCOD8205534
_publ_section_title
;
Structure prediction by ZEFSAII (Michael W. Deem and Ramdas Pophale) SiO2 
 PCOD8205534
Probable space group: P B A N
;
_chemical_formula_sum "Si O2"
_cell_formula_units_Z 34
_cell_length_a 15.544536
_cell_length_b 9.877664
_cell_length_c 10.455424
_cell_angle_alpha 90.000000
_cell_angle_beta 90.000000
_cell_angle_gamma 90.000000
_cell_volume 1605.364524
_symmetry_space_group_name_H-M "P B A N"
_symmetry_group_IT_number 50
_space_group.IT_coordinate_system_code '2'
_symmetry_cell_setting 'orthorhombic'
loop_
_space_group_symop_operation_xyz
x,y,z
1/2-x,1/2-y,z
x,1/2-y,-z
1/2-x,y,-z
-x,-y,-z
1/2+x,1/2+y,-z
-x,1/2+y,z
1/2+x,-y,z
loop_
_atom_site_type_symbol
_atom_site_label
_atom_site_fract_x
_atom_site_fract_y
_atom_site_fract_z
Si Si1 0.750000 0.250000 0.000000
Si Si2 0.377328 0.541322 0.906703
Si Si3 0.844029 0.788005 0.257954
Si Si4 0.002391 0.871134 0.413312
Si Si5 0.559288 0.976684 0.182344
O O1 0.694877 0.157294 0.902035
O O2 0.338228 0.398711 0.856914
O O3 0.460479 0.577243 0.820979
O O4 0.410045 0.542839 0.051996
O O5 0.750000 0.750000 0.311165
O O6 0.881544 0.650224 0.204301
O O7 0.904284 0.838436 0.372672
O O8 0.041066 0.750000 0.500000
O O9 0.063311 0.905949 0.291401
O O10 0.000000 0.000000 0.500000
#
# Coordination Sequence:
#
# PCOD8205534 Si02
#       5
#     2   8   8   8   8
#     4  12  24  36  58 100 144 168 216 290 344 434
#     4  10  24  37  63  98 135 173 220 281 360 427
#     4  11  23  42  69  96 130 179 234 285 348 423
#     4  11  23  43  67  97 129 180 234 287 345 411
#     4  10  22  41  67  93 131 179 223 281 348 432
#
# _framework density 21.178991
#
# number of rings (size 3 to 8) (size 9 to 14) (size 15 to 20)
#    0.000    1.412    2.353    2.118    9.882    1.412 
#    0.000    0.000    0.000    1.412    0.000    0.000 
#    0.000    0.000    0.000    0.000    0.000    0.000 
#
# Total GULP energy -421473.547841 kJ/mol
# GULP energy per Si atom -12396.280819 kJ/mol
# Density = 2.113079 g / cm^3
# Si number density = 21.178991 Si / 1000 Ang^3
#
#
#
# Elastic Constant Matrix: (Units=GPa)
#
#
# Indices 1 2 3 4 5 6 
#
# 1 77.0117 28.0884 -6.6665 0.0000 0.0000 0.0000
# 2 28.0884 125.3124 30.8377 0.0000 0.0000 0.0000
# 3 -6.6665 30.8377 87.5075 0.0000 0.0000 0.0000
# 4 0.0000 0.0000 0.0000 27.4113 0.0000 0.0000
# 5 0.0000 0.0000 0.0000 0.0000 21.3170 0.0000
# 6 0.0000 0.0000 0.0000 0.0000 0.0000 48.8250
#
#
#
# Elastic Compliance Matrix: (Units=1/GPa)
#
#
# Indices 1 2 3 4 5 6 
#
# 1 0.014618 -0.003888 0.002484 0.000000 0.000000 0.000000
# 2 -0.003888 0.009772 -0.003740 0.000000 0.000000 0.000000
# 3 0.002484 -0.003740 0.012935 0.000000 0.000000 0.000000
# 4 0.000000 0.000000 0.000000 0.036481 0.000000 0.000000
# 5 0.000000 0.000000 0.000000 0.000000 0.046911 0.000000
# 6 0.000000 0.000000 0.000000 0.000000 0.000000 0.020481
#
#
# Mechanical properties :
#
#
# Convention : Reuss Voigt Hill
#
# Bulk Modulus (GPa) = 36.98662 43.81676 40.40169
# Shear Modulus (GPa) = 31.15301 35.34879 33.25090
#
# Velocity S-wave (km/s) = 3.83944 4.08983 3.96661
# Velocity P-wave (km/s) = 6.09564 6.56018 6.33217
#
# Compressibility (1/GPa) = 0.02703681
#
# Stress axis : x y z
#
# Youngs Moduli (GPa) = 68.40863 102.33519 77.31132
#
# Poissons Ratio (x) = 0.39786 -0.19202
# Poissons Ratio (y) = 0.26596 0.28913
# Poissons Ratio (z) = -0.16991 0.38271
#
# Static dielectric constant tensor:
#      x y z
#    x 5.924600 0.000000 0.000000 
#    y 0.000000 3.388090 0.000000 
#    z 0.000000 0.000000 3.866140 
# 
# 
# High freq. dielectric constant tensor:
#      x y z
#    x 1.819040 0.000000 0.000000 
#    y 0.000000 1.842300 0.000000 
#    z 0.000000 0.000000 1.826340 
# 
# From -- ./inp_files/20790.got.cif
#   From: 2010.03.12/outbox.cif.g09.slc.cpg/sg50_11_cif.got.tgz:20790.got - 2010.04.16 13:23:21.
