data_PCOD8205081
_publ_section_title
;
Structure prediction by ZEFSAII (Michael W. Deem and Ramdas Pophale) SiO2 
 PCOD8205081
Probable space group: P B A N
;
_chemical_formula_sum "Si O2"
_cell_formula_units_Z 40
_cell_length_a 12.362438
_cell_length_b 19.436888
_cell_length_c 9.513631
_cell_angle_alpha 90.000000
_cell_angle_beta 90.000000
_cell_angle_gamma 90.000000
_cell_volume 2286.004923
_symmetry_space_group_name_H-M "P B A N"
_symmetry_group_IT_number 50
_space_group.IT_coordinate_system_code '2'
_symmetry_cell_setting 'orthorhombic'
loop_
_space_group_symop_operation_xyz
x,y,z
1/2-x,1/2-y,z
x,1/2-y,-z
1/2-x,y,-z
-x,-y,-z
1/2+x,1/2+y,-z
-x,1/2+y,z
1/2+x,-y,z
loop_
_atom_site_type_symbol
_atom_site_label
_atom_site_fract_x
_atom_site_fract_y
_atom_site_fract_z
Si Si1 0.250000 0.540157 0.000000
Si Si2 0.315094 0.180066 0.372908
Si Si3 0.487759 0.750000 0.500000
Si Si4 0.068827 0.640643 0.963317
Si Si5 0.837658 0.908453 0.102577
Si Si6 0.876033 0.266392 0.783607
O O1 0.162353 0.587046 0.919325
O O2 0.188005 0.490520 0.112367
O O3 0.250000 0.250000 0.328198
O O4 0.250000 0.144694 0.500000
O O5 0.436664 0.193538 0.426223
O O6 0.323017 0.124568 0.252971
O O7 0.412873 0.781709 0.376252
O O8 0.096417 0.667894 0.120022
O O9 0.061149 0.701242 0.848944
O O10 0.954947 0.602130 0.964858
O O11 0.750000 0.872322 0.000000
O O12 0.750000 0.250000 0.789664
#
# Coordination Sequence:
#
# PCOD8205081 Si02
#       6
#     4   8   4   8   8   8
#     4  10  22  39  59  80 118 158 188 244 278 340
#     4   9  20  36  55  84 120 144 181 240 296 339
#     4  10  20  34  56  86 116 146 176 238 298 340
#     4  11  20  39  59  87 115 143 202 239 290 331
#     4  10  23  34  61  86 110 154 195 231 289 348
#     4  11  21  35  62  86 113 150 187 250 289 339
#
# _framework density 17.497775000000001
#
# number of rings (size 3 to 8) (size 9 to 14) (size 15 to 20)
#    0.600    1.400    4.000    1.500    5.600    0.400 
#    0.000    0.000    4.400    2.400    0.000    0.000 
#    0.000    0.000    0.000    0.000    0.000    0.000 
#
# Total GULP energy -495722.686632 kJ/mol
# GULP energy per Si atom -12393.067166 kJ/mol
# Density = 1.745795 g / cm^3
# Si number density = 17.497775 Si / 1000 Ang^3
#
#
#
# Elastic Constant Matrix: (Units=GPa)
#
#
# Indices 1 2 3 4 5 6 
#
# 1 122.9458 38.6693 32.8473 0.0000 0.0000 0.0000
# 2 38.6693 87.1448 39.7923 0.0000 0.0000 0.0000
# 3 32.8473 39.7923 108.4094 0.0000 0.0000 0.0000
# 4 0.0000 0.0000 0.0000 8.0728 0.0000 0.0000
# 5 0.0000 0.0000 0.0000 0.0000 28.6902 0.0000
# 6 0.0000 0.0000 0.0000 0.0000 0.0000 16.1803
#
#
#
# Elastic Compliance Matrix: (Units=1/GPa)
#
#
# Indices 1 2 3 4 5 6 
#
# 1 0.009687 -0.003554 -0.001631 0.000000 0.000000 0.000000
# 2 -0.003554 0.015090 -0.004462 0.000000 0.000000 0.000000
# 3 -0.001631 -0.004462 0.011356 0.000000 0.000000 0.000000
# 4 0.000000 0.000000 0.000000 0.123873 0.000000 0.000000
# 5 0.000000 0.000000 0.000000 0.000000 0.034855 0.000000
# 6 0.000000 0.000000 0.000000 0.000000 0.000000 0.061804
#
#
# Mechanical properties :
#
#
# Convention : Reuss Voigt Hill
#
# Bulk Modulus (GPa) = 59.38286 60.12420 59.75353
# Shear Modulus (GPa) = 17.75753 24.40138 21.07946
#
# Velocity S-wave (km/s) = 3.18912 3.73841 3.47464
# Velocity P-wave (km/s) = 6.89722 7.28491 7.09372
#
# Compressibility (1/GPa) = 0.01683988
#
# Stress axis : x y z
#
# Youngs Moduli (GPa) = 103.22993 66.27096 88.05815
#
# Poissons Ratio (x) = 0.23552 0.14359
# Poissons Ratio (y) = 0.36687 0.39291
# Poissons Ratio (z) = 0.16833 0.29569
#
# Static dielectric constant tensor:
#      x y z
#    x 3.430040 0.000000 0.000000 
#    y 0.000000 3.063370 0.000000 
#    z 0.000000 0.000000 3.173180 
# 
# 
# High freq. dielectric constant tensor:
#      x y z
#    x 1.698720 0.000000 0.000000 
#    y 0.000000 1.651360 0.000000 
#    z 0.000000 0.000000 1.662770 
# 
# From -- ./inp_files/11363.got.cif
#   From: 2010.03.12/outbox.cif.g09.slc.cpg/sg50_6_cif.got.tgz:11363.got - 2010.04.16 13:23:21.
