data_PCOD8205996
_publ_section_title
;
Structure prediction by ZEFSAII (Michael W. Deem and Ramdas Pophale) SiO2 
 PCOD8205996
Probable space group: P M M A
;
_chemical_formula_sum "Si O2"
_cell_formula_units_Z 48
_cell_length_a 14.220045
_cell_length_b 17.006566
_cell_length_c 10.120406
_cell_angle_alpha 90.000000
_cell_angle_beta 90.000000
_cell_angle_gamma 90.000000
_cell_volume 2447.459619
_symmetry_space_group_name_H-M "P M M A"
_symmetry_group_IT_number 51
_symmetry_cell_setting 'orthorhombic'
loop_
_space_group_symop_operation_xyz
x,y,z
1/2-x,-y,z
1/2+x,-y,-z
-x,y,-z
-x,-y,-z
1/2+x,y,-z
1/2-x,y,z
x,-y,z
loop_
_atom_site_type_symbol
_atom_site_label
_atom_site_fract_x
_atom_site_fract_y
_atom_site_fract_z
Si Si1 0.073257 0.173106 0.617492
Si Si2 0.750000 0.908430 0.490668
Si Si3 0.443846 0.173532 0.138139
Si Si4 0.540329 0.651925 0.858293
Si Si5 0.750000 0.905917 0.790903
Si Si6 0.387346 0.500000 0.496631
Si Si7 0.078601 0.347560 0.611266
Si Si8 0.851673 0.500000 0.807492
O O1 0.158361 0.114495 0.592105
O O2 0.121917 0.260342 0.626462
O O3 0.000000 0.167614 0.500000
O O4 0.018516 0.146617 0.749974
O O5 0.750000 0.873462 0.639861
O O6 0.750000 0.000000 0.507305
O O7 0.413755 0.263426 0.176316
O O8 0.346134 0.124575 0.138238
O O9 0.500000 0.163889 0.000000
O O10 0.462743 0.626991 0.751856
O O11 0.609633 0.579709 0.867645
O O12 0.500000 0.666153 0.000000
O O13 0.750000 0.000000 0.800182
O O14 0.500000 0.500000 0.500000
O O15 0.351235 0.580716 0.568456
O O16 0.349858 0.500000 0.349953
O O17 0.000000 0.340662 0.500000
O O18 0.750000 0.500000 0.866885
#
# Coordination Sequence:
#
# PCOD8205996 Si02
#       8
#     8   4   8   8   4   4   8   4
#     4  10  20  38  61  91 120 160 207 247 303 367
#     4  11  24  39  63  96 126 161 202 259 312 362
#     4  10  23  42  65  92 125 165 203 252 310 369
#     4  10  20  37  59  85 112 161 199 239 295 353
#     4  11  24  41  65  96 124 157 202 255 314 370
#     4  10  16  32  51  78 114 146 188 241 281 338
#     4   9  16  32  58  80 112 146 199 237 291 346
#     4  12  23  32  52  92 117 146 203 250 288 346
#
# _framework density 19.612172000000001
#
# number of rings (size 3 to 8) (size 9 to 14) (size 15 to 20)
#    0.000    1.833    5.000    0.250    1.167    2.000 
#    1.500    0.833    1.833    1.000    0.000    0.000 
#    0.000    0.000    0.000    0.000    0.000    0.000 
#
# Total GULP energy -594630.398962 kJ/mol
# GULP energy per Si atom -12388.133312 kJ/mol
# Density = 1.956753 g / cm^3
# Si number density = 19.612172 Si / 1000 Ang^3
#
#
#
# Elastic Constant Matrix: (Units=GPa)
#
#
# Indices 1 2 3 4 5 6 
#
# 1 99.2311 44.8014 29.1104 0.0000 0.0000 0.0000
# 2 44.8014 94.8712 16.1078 0.0000 0.0000 0.0000
# 3 29.1104 16.1078 97.7302 0.0000 0.0000 0.0000
# 4 0.0000 0.0000 0.0000 26.0429 0.0000 0.0000
# 5 0.0000 0.0000 0.0000 0.0000 19.7147 0.0000
# 6 0.0000 0.0000 0.0000 0.0000 0.0000 36.7286
#
#
#
# Elastic Compliance Matrix: (Units=1/GPa)
#
#
# Indices 1 2 3 4 5 6 
#
# 1 0.013660 -0.005926 -0.003092 0.000000 0.000000 0.000000
# 2 -0.005926 0.013415 -0.000446 0.000000 0.000000 0.000000
# 3 -0.003092 -0.000446 0.011227 0.000000 0.000000 0.000000
# 4 0.000000 0.000000 0.000000 0.038398 0.000000 0.000000
# 5 0.000000 0.000000 0.000000 0.000000 0.050724 0.000000
# 6 0.000000 0.000000 0.000000 0.000000 0.000000 0.027227
#
#
# Mechanical properties :
#
#
# Convention : Reuss Voigt Hill
#
# Bulk Modulus (GPa) = 51.61603 52.43018 52.02311
# Shear Modulus (GPa) = 27.77233 29.95144 28.86188
#
# Velocity S-wave (km/s) = 3.76716 3.91216 3.84035
# Velocity P-wave (km/s) = 6.73034 6.87010 6.80058
#
# Compressibility (1/GPa) = 0.01937383
#
# Stress axis : x y z
#
# Youngs Moduli (GPa) = 73.20664 74.54543 89.07268
#
# Poissons Ratio (x) = 0.44173 0.27543
# Poissons Ratio (y) = 0.43380 0.03972
# Poissons Ratio (z) = 0.22637 0.03324
#
# Static dielectric constant tensor:
#      x y z
#    x 2.819300 0.000000 0.000000 
#    y 0.000000 3.934740 0.000000 
#    z 0.000000 0.000000 3.672290 
# 
# 
# High freq. dielectric constant tensor:
#      x y z
#    x 1.730900 0.000000 0.000000 
#    y 0.000000 1.779790 0.000000 
#    z 0.000000 0.000000 1.767860 
# 
# From -- ./inp_files/8401.got.cif
#   From: 2010.03.12/outbox.cif.g09.slc.cpg/sg51_5_cif.got.tgz:8401.got - 2010.04.16 13:43:02.
