data_PCOD8205476
_publ_section_title
;
Structure prediction by ZEFSAII (Michael W. Deem and Ramdas Pophale) SiO2 
 PCOD8205476
Probable space group: P B A N
;
_chemical_formula_sum "Si O2"
_cell_formula_units_Z 30
_cell_length_a 5.521210
_cell_length_b 29.365253
_cell_length_c 8.441784
_cell_angle_alpha 90.000000
_cell_angle_beta 90.000000
_cell_angle_gamma 90.000000
_cell_volume 1368.681032
_symmetry_space_group_name_H-M "P B A N"
_symmetry_group_IT_number 50
_space_group.IT_coordinate_system_code '2'
_symmetry_cell_setting 'orthorhombic'
loop_
_space_group_symop_operation_xyz
x,y,z
1/2-x,1/2-y,z
x,1/2-y,-z
1/2-x,y,-z
-x,-y,-z
1/2+x,1/2+y,-z
-x,1/2+y,z
1/2+x,-y,z
loop_
_atom_site_type_symbol
_atom_site_label
_atom_site_fract_x
_atom_site_fract_y
_atom_site_fract_z
Si Si1 0.250000 0.250000 0.000000
Si Si2 0.582616 0.207115 0.747202
Si Si3 0.860347 0.123171 0.673784
Si Si4 0.750000 0.832268 0.500000
Si Si5 0.729776 0.477554 0.688449
O O1 0.409320 0.216013 0.895165
O O2 0.750000 0.250000 0.719550
O O3 0.739033 0.161673 0.784774
O O4 0.443021 0.200729 0.581864
O O5 0.750000 0.123854 0.500000
O O6 0.820192 0.073715 0.750409
O O7 0.141987 0.135755 0.641301
O O8 0.750000 0.480354 0.500000
O O9 0.493464 0.505615 0.752873
#
# Coordination Sequence:
#
# PCOD8205476 Si02
#       5
#     2   8   8   4   8
#     4  12  26  42  60  78 116 158 202 252 304 364
#     4  11  24  40  58  86 117 155 201 247 303 366
#     4   9  20  33  53  83 119 155 199 239 299 360
#     4  10  22  37  60  86 120 158 192 248 303 364
#     4   9  18  29  50  80 121 161 197 244 300 357
#
# _framework density 21.918914000000001
#
# number of rings (size 3 to 8) (size 9 to 14) (size 15 to 20)
#    0.000    2.133    0.000    2.000   13.067   12.800 
#    0.000    0.000    0.000    0.000    0.000    1.867 
#    0.000    0.000    0.000    0.000    0.000    0.000 
#
# Total GULP energy -371763.328729 kJ/mol
# GULP energy per Si atom -12392.110958 kJ/mol
# Density = 2.186903 g / cm^3
# Si number density = 21.918914 Si / 1000 Ang^3
#
#
#
# Elastic Constant Matrix: (Units=GPa)
#
#
# Indices 1 2 3 4 5 6 
#
# 1 168.9302 96.4840 27.8080 0.0000 0.0000 0.0000
# 2 96.4840 209.9251 37.9871 0.0000 0.0000 0.0000
# 3 27.8080 37.9871 32.1744 0.0000 0.0000 0.0000
# 4 0.0000 0.0000 0.0000 -10.3743 0.0000 0.0000
# 5 0.0000 0.0000 0.0000 0.0000 21.2379 0.0000
# 6 0.0000 0.0000 0.0000 0.0000 0.0000 17.0359
#
#
#
# Elastic Compliance Matrix: (Units=1/GPa)
#
#
# Indices 1 2 3 4 5 6 
#
# 1 0.008309 -0.003204 -0.003399 0.000000 0.000000 0.000000
# 2 -0.003204 0.007293 -0.005842 0.000000 0.000000 0.000000
# 3 -0.003399 -0.005842 0.040915 0.000000 0.000000 0.000000
# 4 0.000000 0.000000 0.000000 -0.096392 0.000000 0.000000
# 5 0.000000 0.000000 0.000000 0.000000 0.047086 0.000000
# 6 0.000000 0.000000 0.000000 0.000000 0.000000 0.058700
#
#
# Mechanical properties :
#
#
# Convention : Reuss Voigt Hill
#
# Bulk Modulus (GPa) = 31.61680 81.73200 56.67440
# Shear Modulus (GPa) = 49.33784 22.16327 35.75055
#
# Velocity S-wave (km/s) = 4.74954 3.18330 4.04299
# Velocity P-wave (km/s) = 6.67332 7.13306 6.90702
#
# Compressibility (1/GPa) = 0.03162875
#
# Stress axis : x y z
#
# Youngs Moduli (GPa) = 120.35211 137.11313 24.44083
#
# Poissons Ratio (x) = 0.43929 0.08307
# Poissons Ratio (y) = 0.38559 0.14278
# Poissons Ratio (z) = 0.40903 0.80098
#
# Static dielectric constant tensor:
#      x y z
#    x 6.196090 0.000000 0.000000 
#    y 0.000000 4.415100 0.000000 
#    z 0.000000 0.000000 3.314410 
# 
# 
# High freq. dielectric constant tensor:
#      x y z
#    x 1.885060 0.000000 0.000000 
#    y 0.000000 1.869600 0.000000 
#    z 0.000000 0.000000 1.789700 
# 
# From -- ./inp_files/7924.got.cif
#   From: 2010.03.12/outbox.cif.g09.slc.cpg/sg50_4_cif.got.tgz:7924.got - 2010.04.16 13:23:21.
