data_PCOD8205737
_publ_section_title
;
Structure prediction by ZEFSAII (Michael W. Deem and Ramdas Pophale) SiO2 
 PCOD8205737
Probable space group: P B A N
;
_chemical_formula_sum "Si O2"
_cell_formula_units_Z 40
_cell_length_a 8.163740
_cell_length_b 20.378029
_cell_length_c 10.988991
_cell_angle_alpha 90.000000
_cell_angle_beta 90.000000
_cell_angle_gamma 90.000000
_cell_volume 1828.138768
_symmetry_space_group_name_H-M "P B A N"
_symmetry_group_IT_number 50
_space_group.IT_coordinate_system_code '2'
_symmetry_cell_setting 'orthorhombic'
loop_
_space_group_symop_operation_xyz
x,y,z
1/2-x,1/2-y,z
x,1/2-y,-z
1/2-x,y,-z
-x,-y,-z
1/2+x,1/2+y,-z
-x,1/2+y,z
1/2+x,-y,z
loop_
_atom_site_type_symbol
_atom_site_label
_atom_site_fract_x
_atom_site_fract_y
_atom_site_fract_z
Si Si1 0.190957 0.432496 0.358933
Si Si2 0.250000 0.646871 0.500000
Si Si3 0.298883 0.680162 0.860952
Si Si4 0.643269 0.806696 0.255679
Si Si5 0.494336 0.250000 0.500000
Si Si6 0.682153 0.432495 0.706249
O O1 0.250000 0.434325 0.500000
O O2 0.250210 0.370428 0.282989
O O3 0.256688 0.493499 0.277640
O O4 0.995524 0.433277 0.355646
O O5 0.397458 0.690442 0.448829
O O6 0.190820 0.601682 0.388625
O O7 0.250000 0.750000 0.796275
O O8 0.491270 0.672250 0.829893
O O9 0.196269 0.614870 0.823083
O O10 0.250000 0.687094 0.000000
O O11 0.750000 0.750000 0.186777
O O12 0.606816 0.775738 0.387110
#
# Coordination Sequence:
#
# PCOD8205737 Si02
#       6
#     8   4   8   8   4   8
#     4  12  25  41  65 103 146 180 218 287 353 420
#     4  11  20  34  62  92 135 174 212 270 337 402
#     4  11  25  48  71  96 134 183 234 286 337 402
#     4  12  23  41  67 104 137 177 227 283 346 415
#     4  11  21  34  62 102 136 170 214 280 342 412
#     4  12  24  42  64  99 137 182 228 270 347 414
#
# _framework density 21.880175999999999
#
# number of rings (size 3 to 8) (size 9 to 14) (size 15 to 20)
#    0.000    0.400    3.000    8.100    0.000    0.000 
#    0.000   11.000    0.000    0.000    0.000    0.000 
#    0.000    0.000    0.000    0.000    0.000    0.000 
#
# Total GULP energy -495621.688025 kJ/mol
# GULP energy per Si atom -12390.542201 kJ/mol
# Density = 2.183038 g / cm^3
# Si number density = 21.880176 Si / 1000 Ang^3
#
#
#
# Elastic Constant Matrix: (Units=GPa)
#
#
# Indices 1 2 3 4 5 6 
#
# 1 99.7143 48.8593 27.6759 0.0000 0.0000 0.0000
# 2 48.8593 191.0257 30.8593 0.0000 0.0000 0.0000
# 3 27.6759 30.8593 74.6077 0.0000 0.0000 0.0000
# 4 0.0000 0.0000 0.0000 23.9835 0.0000 0.0000
# 5 0.0000 0.0000 0.0000 0.0000 17.4684 0.0000
# 6 0.0000 0.0000 0.0000 0.0000 0.0000 56.4007
#
#
#
# Elastic Compliance Matrix: (Units=1/GPa)
#
#
# Indices 1 2 3 4 5 6 
#
# 1 0.012255 -0.002572 -0.003482 0.000000 0.000000 0.000000
# 2 -0.002572 0.006150 -0.001589 0.000000 0.000000 0.000000
# 3 -0.003482 -0.001589 0.015353 0.000000 0.000000 0.000000
# 4 0.000000 0.000000 0.000000 0.041695 0.000000 0.000000
# 5 0.000000 0.000000 0.000000 0.000000 0.057246 0.000000
# 6 0.000000 0.000000 0.000000 0.000000 0.000000 0.017730
#
#
# Mechanical properties :
#
#
# Convention : Reuss Voigt Hill
#
# Bulk Modulus (GPa) = 54.14205 64.45964 59.30085
# Shear Modulus (GPa) = 29.09109 36.76739 32.92924
#
# Velocity S-wave (km/s) = 3.65027 4.10371 3.88362
# Velocity P-wave (km/s) = 6.52415 7.20959 6.87542
#
# Compressibility (1/GPa) = 0.01846993
#
# Stress axis : x y z
#
# Youngs Moduli (GPa) = 81.59612 162.61385 65.13528
#
# Poissons Ratio (x) = 0.41825 0.22682
# Poissons Ratio (y) = 0.20987 0.10353
# Poissons Ratio (z) = 0.28415 0.25847
#
# Static dielectric constant tensor:
#      x y z
#    x 4.232810 0.000000 0.000000 
#    y 0.000000 4.677130 0.000000 
#    z 0.000000 0.000000 3.546120 
# 
# 
# High freq. dielectric constant tensor:
#      x y z
#    x 1.868500 0.000000 0.000000 
#    y 0.000000 1.892590 0.000000 
#    z 0.000000 0.000000 1.815080 
# 
# From -- ./inp_files/19000.got.cif
#   From: 2010.03.12/outbox.cif.g09.slc.cpg/sg50_10_cif.got.tgz:19000.got - 2010.04.16 13:23:21.
