data_PCOD8205072
_publ_section_title
;
Structure prediction by ZEFSAII (Michael W. Deem and Ramdas Pophale) SiO2 
 PCOD8205072
Probable space group: P B A N
;
_chemical_formula_sum "Si O2"
_cell_formula_units_Z 58
_cell_length_a 11.300247
_cell_length_b 8.860342
_cell_length_c 29.319244
_cell_angle_alpha 90.000000
_cell_angle_beta 90.000000
_cell_angle_gamma 90.000000
_cell_volume 2935.561543
_symmetry_space_group_name_H-M "P B A N"
_symmetry_group_IT_number 50
_space_group.IT_coordinate_system_code '2'
_symmetry_cell_setting 'orthorhombic'
loop_
_space_group_symop_operation_xyz
x,y,z
1/2-x,1/2-y,z
x,1/2-y,-z
1/2-x,y,-z
-x,-y,-z
1/2+x,1/2+y,-z
-x,1/2+y,z
1/2+x,-y,z
loop_
_atom_site_type_symbol
_atom_site_label
_atom_site_fract_x
_atom_site_fract_y
_atom_site_fract_z
Si Si1 0.250000 0.750000 0.500000
Si Si2 0.886391 0.724697 0.950239
Si Si3 0.879125 0.230674 0.840192
Si Si4 0.876921 0.678925 0.296073
Si Si5 0.491323 0.522831 0.892658
Si Si6 0.375526 0.669250 0.265017
Si Si7 0.947050 0.069660 0.545748
Si Si8 0.379334 0.287939 0.402591
O O1 0.173433 0.848519 0.466037
O O2 0.750000 0.750000 0.956111
O O3 0.904807 0.555925 0.929708
O O4 0.932019 0.850708 0.916289
O O5 0.947223 0.750000 0.000000
O O6 0.750000 0.250000 0.859014
O O7 0.934354 0.397297 0.847876
O O8 0.880481 0.166831 0.789232
O O9 0.930385 0.110409 0.874241
O O10 0.750000 0.750000 0.277534
O O11 0.874309 0.499731 0.285869
O O12 0.886938 0.724372 0.348628
O O13 0.000601 0.746728 0.277072
O O14 0.250000 0.750000 0.280746
O O15 0.037335 0.179946 0.569243
O O16 0.915667 0.955134 0.585147
O O17 0.000000 0.000000 0.500000
O O18 0.250000 0.250000 0.420796
#
# Coordination Sequence:
#
# PCOD8205072 Si02
#       8
#     2   8   8   8   8   8   8   8
#     4  12  24  40  64  92 120 156 202 242 296 348
#     4  10  20  34  53  78 111 151 192 236 289 347
#     4  10  21  37  58  85 114 149 192 243 299 355
#     4  11  24  44  65  94 126 164 208 255 310 377
#     4  10  20  35  55  81 113 147 192 241 291 349
#     4  11  23  42  66  92 125 163 206 258 316 377
#     4  12  23  43  65  92 123 160 200 246 297 352
#     4  11  25  43  64  91 124 160 201 246 297 356
#
# _framework density 19.757719999999999
#
# number of rings (size 3 to 8) (size 9 to 14) (size 15 to 20)
#    0.000    1.241    1.379    4.552    0.000    2.759 
#    2.483    3.448    0.000    6.621    0.000    0.000 
#    0.000    0.000    0.000    0.000    0.000    0.000 
#
# Total GULP energy -718523.273311 kJ/mol
# GULP energy per Si atom -12388.332298 kJ/mol
# Density = 1.971275 g / cm^3
# Si number density = 19.757720 Si / 1000 Ang^3
#
#
#
# Elastic Constant Matrix: (Units=GPa)
#
#
# Indices 1 2 3 4 5 6 
#
# 1 144.7724 54.4991 31.2436 0.0000 0.0000 0.0000
# 2 54.4991 122.1130 30.4084 0.0000 0.0000 0.0000
# 3 31.2436 30.4084 77.9504 0.0000 0.0000 0.0000
# 4 0.0000 0.0000 0.0000 120.4457 0.0000 0.0000
# 5 0.0000 0.0000 0.0000 0.0000 -13.1901 0.0000
# 6 0.0000 0.0000 0.0000 0.0000 0.0000 39.9660
#
#
#
# Elastic Compliance Matrix: (Units=1/GPa)
#
#
# Indices 1 2 3 4 5 6 
#
# 1 0.008620 -0.003308 -0.002164 0.000000 0.000000 0.000000
# 2 -0.003308 0.010340 -0.002708 0.000000 0.000000 0.000000
# 3 -0.002164 -0.002708 0.014752 0.000000 0.000000 0.000000
# 4 0.000000 0.000000 0.000000 0.008302 0.000000 0.000000
# 5 0.000000 0.000000 0.000000 0.000000 -0.075814 0.000000
# 6 0.000000 0.000000 0.000000 0.000000 0.000000 0.025021
#
#
# Mechanical properties :
#
#
# Convention : Reuss Voigt Hill
#
# Bulk Modulus (GPa) = 57.63103 64.12644 60.87874
# Shear Modulus (GPa) = 374.09387 44.68997 209.39192
#
# Velocity S-wave (km/s) = 13.77504 4.76110 10.30582
# Velocity P-wave (km/s) = 16.79983 7.92155 13.13365
#
# Compressibility (1/GPa) = 0.01735176
#
# Stress axis : x y z
#
# Youngs Moduli (GPa) = 116.01182 96.71402 67.78528
#
# Poissons Ratio (x) = 0.31993 0.14672
# Poissons Ratio (y) = 0.38377 0.18354
# Poissons Ratio (z) = 0.25111 0.26187
#
# Static dielectric constant tensor:
#      x y z
#    x 4.033200 0.000000 0.000000 
#    y 0.000000 3.972910 0.000000 
#    z 0.000000 0.000000 3.984880 
# 
# 
# High freq. dielectric constant tensor:
#      x y z
#    x 1.786520 0.000000 0.000000 
#    y 0.000000 1.785170 0.000000 
#    z 0.000000 0.000000 1.777160 
# 
# From -- ./inp_files/32192.got.cif
#   From: 2010.03.12/outbox.cif.g09.slc.cpg/sg50_17_cif.got.tgz:32192.got - 2010.04.16 13:23:21.
