data_PCOD8205082
_publ_section_title
;
Structure prediction by ZEFSAII (Michael W. Deem and Ramdas Pophale) SiO2 
 PCOD8205082
Probable space group: P B A N
;
_chemical_formula_sum "Si O2"
_cell_formula_units_Z 58
_cell_length_a 12.069494
_cell_length_b 8.624945
_cell_length_c 28.634120
_cell_angle_alpha 90.000000
_cell_angle_beta 90.000000
_cell_angle_gamma 90.000000
_cell_volume 2980.775296
_symmetry_space_group_name_H-M "P B A N"
_symmetry_group_IT_number 50
_space_group.IT_coordinate_system_code '2'
_symmetry_cell_setting 'orthorhombic'
loop_
_space_group_symop_operation_xyz
x,y,z
1/2-x,1/2-y,z
x,1/2-y,-z
1/2-x,y,-z
-x,-y,-z
1/2+x,1/2+y,-z
-x,1/2+y,z
1/2+x,-y,z
loop_
_atom_site_type_symbol
_atom_site_label
_atom_site_fract_x
_atom_site_fract_y
_atom_site_fract_z
Si Si1 0.867509 0.327020 0.581484
Si Si2 0.250000 0.750000 0.000000
Si Si3 0.875529 0.727807 0.905926
Si Si4 0.057125 0.377827 0.467172
Si Si5 0.995182 0.467218 0.256258
Si Si6 0.374401 0.781272 0.310059
Si Si7 0.556491 0.067751 0.954334
Si Si8 0.126826 0.281939 0.797878
O O1 0.750000 0.250000 0.567450
O O2 0.867097 0.510628 0.565728
O O3 0.886443 0.328889 0.636439
O O4 0.964888 0.221438 0.560389
O O5 0.327859 0.649287 0.966455
O O6 0.750000 0.750000 0.924699
O O7 0.911537 0.550107 0.912870
O O8 0.883664 0.788725 0.853360
O O9 0.962954 0.818912 0.936378
O O10 0.122419 0.250000 0.500000
O O11 0.000000 0.500000 0.500000
O O12 0.942467 0.375223 0.299849
O O13 0.903545 0.556387 0.226212
O O14 0.085973 0.580281 0.277497
O O15 0.048867 0.353705 0.219362
O O16 0.250000 0.750000 0.295474
O O17 0.500000 0.000000 0.000000
O O18 0.250000 0.250000 0.781133
#
# Coordination Sequence:
#
# PCOD8205082 Si02
#       8
#     8   2   8   8   8   8   8   8
#     4  10  20  36  56  81 113 147 189 238 288 339
#     4  12  24  40  64  88 116 152 194 242 292 356
#     4  11  24  40  62  86 117 153 192 240 288 346
#     4   9  19  35  54  78 109 146 189 233 282 341
#     4  10  20  36  58  82 115 147 184 229 281 335
#     4  10  20  34  57  84 111 147 186 230 283 336
#     4  12  23  42  62  87 117 151 195 237 295 348
#     4  10  21  38  58  83 114 148 187 229 277 338
#
# _framework density 19.458024000000002
#
# number of rings (size 3 to 8) (size 9 to 14) (size 15 to 20)
#    0.000    1.655    1.379    3.310    0.000    3.034 
#    0.000    4.828    3.034   11.586    0.000    0.000 
#    0.000    0.000    0.000    0.000    0.000    0.000 
#
# Total GULP energy -718850.688826 kJ/mol
# GULP energy per Si atom -12393.977394 kJ/mol
# Density = 1.941374 g / cm^3
# Si number density = 19.458024 Si / 1000 Ang^3
#
#
#
# Elastic Constant Matrix: (Units=GPa)
#
#
# Indices 1 2 3 4 5 6 
#
# 1 125.5596 53.1203 41.1899 0.0000 0.0000 0.0000
# 2 53.1203 127.8772 42.8029 0.0000 0.0000 0.0000
# 3 41.1899 42.8029 77.1263 0.0000 0.0000 0.0000
# 4 0.0000 0.0000 0.0000 20.3562 0.0000 0.0000
# 5 0.0000 0.0000 0.0000 0.0000 25.2404 0.0000
# 6 0.0000 0.0000 0.0000 0.0000 0.0000 27.6426
#
#
#
# Elastic Compliance Matrix: (Units=1/GPa)
#
#
# Indices 1 2 3 4 5 6 
#
# 1 0.010552 -0.003067 -0.003934 0.000000 0.000000 0.000000
# 2 -0.003067 0.010495 -0.004187 0.000000 0.000000 0.000000
# 3 -0.003934 -0.004187 0.017390 0.000000 0.000000 0.000000
# 4 0.000000 0.000000 0.000000 0.049125 0.000000 0.000000
# 5 0.000000 0.000000 0.000000 0.000000 0.039619 0.000000
# 6 0.000000 0.000000 0.000000 0.000000 0.000000 0.036176
#
#
# Mechanical properties :
#
#
# Convention : Reuss Voigt Hill
#
# Bulk Modulus (GPa) = 62.25328 67.19883 64.72605
# Shear Modulus (GPa) = 26.16616 27.54449 26.85533
#
# Velocity S-wave (km/s) = 3.67106 3.76651 3.71909
# Velocity P-wave (km/s) = 7.07333 7.31613 7.19575
#
# Compressibility (1/GPa) = 0.01606341
#
# Stress axis : x y z
#
# Youngs Moduli (GPa) = 94.76711 95.28043 57.50424
#
# Poissons Ratio (x) = 0.29220 0.22619
# Poissons Ratio (y) = 0.29063 0.24076
# Poissons Ratio (z) = 0.37277 0.39892
#
# Static dielectric constant tensor:
#      x y z
#    x 3.846150 0.000000 0.000000 
#    y 0.000000 4.825630 0.000000 
#    z 0.000000 0.000000 3.609660 
# 
# 
# High freq. dielectric constant tensor:
#      x y z
#    x 1.760140 0.000000 0.000000 
#    y 0.000000 1.773100 0.000000 
#    z 0.000000 0.000000 1.763720 
# 
# From -- ./inp_files/32140.got.cif
#   From: 2010.03.12/outbox.cif.g09.slc.cpg/sg50_17_cif.got.tgz:32140.got - 2010.04.16 13:23:21.
