data_PCOD8205116
_publ_section_title
;
Structure prediction by ZEFSAII (Michael W. Deem and Ramdas Pophale) SiO2 
 PCOD8205116
Probable space group: P B A N
;
_chemical_formula_sum "Si O2"
_cell_formula_units_Z 64
_cell_length_a 14.952003
_cell_length_b 9.059184
_cell_length_c 22.872262
_cell_angle_alpha 90.000000
_cell_angle_beta 90.000000
_cell_angle_gamma 90.000000
_cell_volume 3098.115277
_symmetry_space_group_name_H-M "P B A N"
_symmetry_group_IT_number 50
_space_group.IT_coordinate_system_code '2'
_symmetry_cell_setting 'orthorhombic'
loop_
_space_group_symop_operation_xyz
x,y,z
1/2-x,1/2-y,z
x,1/2-y,-z
1/2-x,y,-z
-x,-y,-z
1/2+x,1/2+y,-z
-x,1/2+y,z
1/2+x,-y,z
loop_
_atom_site_type_symbol
_atom_site_label
_atom_site_fract_x
_atom_site_fract_y
_atom_site_fract_z
Si Si1 0.429413 0.941289 0.774198
Si Si2 0.191376 0.467557 0.117310
Si Si3 0.111348 0.895133 0.777052
Si Si4 0.956223 0.385526 0.958386
Si Si5 0.104198 0.580670 0.354377
Si Si6 0.077526 0.583373 0.642164
Si Si7 0.875872 0.643562 0.124864
Si Si8 0.739970 0.425675 0.565505
O O1 0.421563 0.770250 0.793427
O O2 0.392421 0.957700 0.708165
O O3 0.532201 0.986257 0.781949
O O4 0.375448 0.055558 0.814166
O O5 0.189848 0.563796 0.177249
O O6 0.135762 0.554245 0.068233
O O7 0.145643 0.313559 0.134350
O O8 0.291769 0.438103 0.092226
O O9 0.146191 0.910166 0.710843
O O10 0.029389 0.358433 0.907936
O O11 0.932236 0.250000 0.000000
O O12 0.000000 0.500000 0.000000
O O13 0.071553 0.743466 0.370291
O O14 0.179656 0.511857 0.395657
O O15 0.021331 0.475648 0.366155
O O16 0.147476 0.518227 0.594821
O O17 0.750000 0.250000 0.566454
O O18 0.750000 0.488440 0.500000
#
# Coordination Sequence:
#
# PCOD8205116 Si02
#       8
#     8   8   8   8   8   8   8   8
#     4  10  20  35  61  89 125 161 201 256 312 370
#     4  11  25  44  66  97 124 162 205 252 310 365
#     4  10  20  35  61  89 125 160 202 254 314 369
#     4  12  26  48  72  90 124 168 204 251 301 360
#     4   9  19  35  56  85 118 158 202 253 305 366
#     4   9  19  35  56  85 118 158 203 252 307 364
#     4  11  25  44  66  95 127 160 205 254 308 365
#     4   9  18  34  57  83 117 162 209 252 306 373
#
# _framework density 20.657722
#
# number of rings (size 3 to 8) (size 9 to 14) (size 15 to 20)
#    0.000    1.875    2.500    0.750    3.500    2.500 
#    0.000    1.250    0.000    0.750    0.000    0.000 
#    0.000    0.000    0.000    0.000    0.000    0.000 
#
# Total GULP energy -793125.584240 kJ/mol
# GULP energy per Si atom -12392.587254 kJ/mol
# Density = 2.061070 g / cm^3
# Si number density = 20.657722 Si / 1000 Ang^3
#
#
#
# Elastic Constant Matrix: (Units=GPa)
#
#
# Indices 1 2 3 4 5 6 
#
# 1 70.9062 10.7217 35.1978 0.0000 0.0000 0.0000
# 2 10.7217 75.0998 31.2897 0.0000 0.0000 0.0000
# 3 35.1978 31.2897 112.0458 0.0000 0.0000 0.0000
# 4 0.0000 0.0000 0.0000 23.7302 0.0000 0.0000
# 5 0.0000 0.0000 0.0000 0.0000 30.5906 0.0000
# 6 0.0000 0.0000 0.0000 0.0000 0.0000 27.8630
#
#
#
# Elastic Compliance Matrix: (Units=1/GPa)
#
#
# Indices 1 2 3 4 5 6 
#
# 1 0.016712 -0.000225 -0.005187 0.000000 0.000000 0.000000
# 2 -0.000225 0.015072 -0.004138 0.000000 0.000000 0.000000
# 3 -0.005187 -0.004138 0.011710 0.000000 0.000000 0.000000
# 4 0.000000 0.000000 0.000000 0.042140 0.000000 0.000000
# 5 0.000000 0.000000 0.000000 0.000000 0.032690 0.000000
# 6 0.000000 0.000000 0.000000 0.000000 0.000000 0.035890
#
#
# Mechanical properties :
#
#
# Convention : Reuss Voigt Hill
#
# Bulk Modulus (GPa) = 40.99439 45.82999 43.41219
# Shear Modulus (GPa) = 27.55647 28.49294 28.02470
#
# Velocity S-wave (km/s) = 3.65630 3.71791 3.68723
# Velocity P-wave (km/s) = 6.14104 6.37683 6.26005
#
# Compressibility (1/GPa) = 0.02439358
#
# Stress axis : x y z
#
# Youngs Moduli (GPa) = 59.83725 66.34857 85.39675
#
# Poissons Ratio (x) = 0.01491 0.44296
# Poissons Ratio (y) = 0.01345 0.35340
# Poissons Ratio (z) = 0.31038 0.27457
#
# Static dielectric constant tensor:
#      x y z
#    x 4.772510 0.000000 0.000000 
#    y 0.000000 3.680730 0.000000 
#    z 0.000000 0.000000 3.903750 
# 
# 
# High freq. dielectric constant tensor:
#      x y z
#    x 1.808030 0.000000 0.000000 
#    y 0.000000 1.800740 0.000000 
#    z 0.000000 0.000000 1.805850 
# 
# From -- ./inp_files/31794.got.cif
#   From: 2010.03.12/outbox.cif.g09.slc.cpg/sg50_16_cif.got.tgz:31794.got - 2010.04.16 13:23:21.
