data_PCOD8205530
_publ_section_title
;
Structure prediction by ZEFSAII (Michael W. Deem and Ramdas Pophale) SiO2 
 PCOD8205530
Probable space group: P B A N
;
_chemical_formula_sum "Si O2"
_cell_formula_units_Z 24
_cell_length_a 13.380353
_cell_length_b 5.141606
_cell_length_c 14.770957
_cell_angle_alpha 90.000000
_cell_angle_beta 90.000000
_cell_angle_gamma 90.000000
_cell_volume 1016.190192
_symmetry_space_group_name_H-M "P B A N"
_symmetry_group_IT_number 50
_space_group.IT_coordinate_system_code '2'
_symmetry_cell_setting 'orthorhombic'
loop_
_space_group_symop_operation_xyz
x,y,z
1/2-x,1/2-y,z
x,1/2-y,-z
1/2-x,y,-z
-x,-y,-z
1/2+x,1/2+y,-z
-x,1/2+y,z
1/2+x,-y,z
loop_
_atom_site_type_symbol
_atom_site_label
_atom_site_fract_x
_atom_site_fract_y
_atom_site_fract_z
Si Si1 0.250000 0.250000 0.775956
Si Si2 0.250000 0.750000 0.341646
Si Si3 0.957848 0.431409 0.400338
Si Si4 0.938733 0.756541 0.104907
O O1 0.279613 0.501213 0.717268
O O2 0.157073 0.324235 0.837912
O O3 0.156523 0.837175 0.404232
O O4 0.000000 0.500000 0.500000
O O5 0.974239 0.708707 0.349751
O O6 0.023462 0.544897 0.128822
O O7 0.908219 0.750000 0.000000
#
# Coordination Sequence:
#
# PCOD8205530 Si02
#       4
#     4   4   8   8
#     4  12  25  40  64  97 138 172 212 278 336 389
#     4  12  26  41  65 102 132 168 218 272 341 398
#     4  10  23  44  68  92 123 165 211 265 323 395
#     4  10  22  41  65  93 130 180 229 267 316 389
#
# _framework density 23.617628
#
# number of rings (size 3 to 8) (size 9 to 14) (size 15 to 20)
#    0.000    1.333    0.000    4.500    0.000   10.667 
#    0.000   13.333    0.000    0.000    0.000    0.000 
#    0.000    0.000    0.000    0.000    0.000    0.000 
#
# Total GULP energy -297468.388302 kJ/mol
# GULP energy per Si atom -12394.516179 kJ/mol
# Density = 2.356387 g / cm^3
# Si number density = 23.617628 Si / 1000 Ang^3
#
#
#
# Elastic Constant Matrix: (Units=GPa)
#
#
# Indices 1 2 3 4 5 6 
#
# 1 170.7842 56.7214 58.9406 0.0000 0.0000 0.0000
# 2 56.7214 207.3945 34.8418 0.0000 0.0000 0.0000
# 3 58.9406 34.8418 61.4710 0.0000 0.0000 0.0000
# 4 0.0000 0.0000 0.0000 21.1028 0.0000 0.0000
# 5 0.0000 0.0000 0.0000 0.0000 -11.1369 0.0000
# 6 0.0000 0.0000 0.0000 0.0000 0.0000 43.4551
#
#
#
# Elastic Compliance Matrix: (Units=1/GPa)
#
#
# Indices 1 2 3 4 5 6 
#
# 1 0.008979 -0.001116 -0.007977 0.000000 0.000000 0.000000
# 2 -0.001116 0.005468 -0.002030 0.000000 0.000000 0.000000
# 3 -0.007977 -0.002030 0.025067 0.000000 0.000000 0.000000
# 4 0.000000 0.000000 0.000000 0.047387 0.000000 0.000000
# 5 0.000000 0.000000 0.000000 0.000000 -0.089792 0.000000
# 6 0.000000 0.000000 0.000000 0.000000 0.000000 0.023012
#
#
# Mechanical properties :
#
#
# Convention : Reuss Voigt Hill
#
# Bulk Modulus (GPa) = 57.90602 82.29527 70.10064
# Shear Modulus (GPa) = 103.90341 29.96059 66.93200
#
# Velocity S-wave (km/s) = 6.63999 3.56556 5.32929
# Velocity P-wave (km/s) = 9.13003 7.20218 8.22280
#
# Compressibility (1/GPa) = 0.01726936
#
# Stress axis : x y z
#
# Youngs Moduli (GPa) = 111.37328 182.88949 39.89352
#
# Poissons Ratio (x) = 0.20402 0.31823
# Poissons Ratio (y) = 0.12424 0.08096
# Poissons Ratio (z) = 0.88841 0.37118
#
# Static dielectric constant tensor:
#      x y z
#    x 4.114410 0.000000 0.000000 
#    y 0.000000 -6.618800 0.000000 
#    z 0.000000 0.000000 3.075720 
# 
# 
# High freq. dielectric constant tensor:
#      x y z
#    x 1.934780 0.000000 0.000000 
#    y 0.000000 1.972800 0.000000 
#    z 0.000000 0.000000 1.922540 
# 
# From -- ./inp_files/23502.got.cif
#   From: 2010.03.12/outbox.cif.g09.slc.cpg/sg50_12_cif.got.tgz:23502.got - 2010.04.16 13:23:21.
