data_PCOD8205692
_publ_section_title
;
Structure prediction by ZEFSAII (Michael W. Deem and Ramdas Pophale) SiO2 
 PCOD8205692
Probable space group: P B A N
;
_chemical_formula_sum "Si O2"
_cell_formula_units_Z 58
_cell_length_a 8.680538
_cell_length_b 23.716238
_cell_length_c 11.314697
_cell_angle_alpha 90.000000
_cell_angle_beta 90.000000
_cell_angle_gamma 90.000000
_cell_volume 2329.353336
_symmetry_space_group_name_H-M "P B A N"
_symmetry_group_IT_number 50
_space_group.IT_coordinate_system_code '2'
_symmetry_cell_setting 'orthorhombic'
loop_
_space_group_symop_operation_xyz
x,y,z
1/2-x,1/2-y,z
x,1/2-y,-z
1/2-x,y,-z
-x,-y,-z
1/2+x,1/2+y,-z
-x,1/2+y,z
1/2+x,-y,z
loop_
_atom_site_type_symbol
_atom_site_label
_atom_site_fract_x
_atom_site_fract_y
_atom_site_fract_z
Si Si1 0.428326 0.071225 0.521449
Si Si2 0.271652 0.457192 0.128916
Si Si3 0.250000 0.250000 0.500000
Si Si4 0.597504 0.229145 0.208653
Si Si5 0.673447 0.371208 0.625295
Si Si6 0.597501 0.677981 0.682097
Si Si7 0.085769 0.544800 0.269502
Si Si8 0.670930 0.834014 0.883833
O O1 0.250000 0.057752 0.500000
O O2 0.515386 0.093396 0.404678
O O3 0.441991 0.114869 0.637925
O O4 0.520929 0.023165 0.598078
O O5 0.189568 0.493136 0.228925
O O6 0.448611 0.443981 0.171100
O O7 0.168148 0.401297 0.112260
O O8 0.250000 0.487450 0.000000
O O9 0.366697 0.290235 0.436102
O O10 0.750000 0.250000 0.141856
O O11 0.626155 0.188268 0.320062
O O12 0.538402 0.290129 0.252117
O O13 0.496188 0.194521 0.115553
O O14 0.750000 0.358509 0.500000
O O15 0.789222 0.404328 0.713614
O O16 0.747034 0.684084 0.763794
O O17 0.750000 0.808810 0.000000
#
# Coordination Sequence:
#
# PCOD8205692 Si02
#       8
#     8   8   2   8   8   8   8   8
#     4  11  22  42  72 107 152 200 244 298 375 453
#     4  11  26  50  81 106 137 189 254 320 381 451
#     4  12  20  36  72 100 136 196 254 282 352 436
#     4  12  25  42  74 111 149 191 248 308 370 430
#     4  10  24  45  69 107 159 193 238 309 373 450
#     4  12  22  42  72 105 144 200 252 296 357 463
#     4  11  25  46  76 105 146 185 248 308 379 452
#     4  11  26  50  77 101 147 200 251 308 379 448
#
# _framework density 24.899615000000001
#
# number of rings (size 3 to 8) (size 9 to 14) (size 15 to 20)
#    0.000    0.828    3.448    3.724    1.931    2.483 
#    0.000   10.345    4.552    0.000    0.000    0.000 
#    0.000    0.000    0.000    0.000    0.000    0.000 
#
# Total GULP energy -718664.944299 kJ/mol
# GULP energy per Si atom -12390.774902 kJ/mol
# Density = 2.484294 g / cm^3
# Si number density = 24.899615 Si / 1000 Ang^3
#
#
#
# Elastic Constant Matrix: (Units=GPa)
#
#
# Indices 1 2 3 4 5 6 
#
# 1 166.5100 36.8936 41.9021 0.0000 0.0000 0.0000
# 2 36.8936 57.4350 14.1674 0.0000 0.0000 0.0000
# 3 41.9021 14.1674 99.4676 0.0000 0.0000 0.0000
# 4 0.0000 0.0000 0.0000 29.4815 0.0000 0.0000
# 5 0.0000 0.0000 0.0000 0.0000 34.0438 0.0000
# 6 0.0000 0.0000 0.0000 0.0000 0.0000 36.7730
#
#
#
# Elastic Compliance Matrix: (Units=1/GPa)
#
#
# Indices 1 2 3 4 5 6 
#
# 1 0.007599 -0.004240 -0.002597 0.000000 0.000000 0.000000
# 2 -0.004240 0.020411 -0.001121 0.000000 0.000000 0.000000
# 3 -0.002597 -0.001121 0.011307 0.000000 0.000000 0.000000
# 4 0.000000 0.000000 0.000000 0.033920 0.000000 0.000000
# 5 0.000000 0.000000 0.000000 0.000000 0.029374 0.000000
# 6 0.000000 0.000000 0.000000 0.000000 0.000000 0.027194
#
#
# Mechanical properties :
#
#
# Convention : Reuss Voigt Hill
#
# Bulk Modulus (GPa) = 42.73425 56.59320 49.66373
# Shear Modulus (GPa) = 32.56867 35.42296 33.99581
#
# Velocity S-wave (km/s) = 3.62055 3.77587 3.69903
# Velocity P-wave (km/s) = 5.88878 6.46432 6.18325
#
# Compressibility (1/GPa) = 0.02340044
#
# Stress axis : x y z
#
# Youngs Moduli (GPa) = 131.60033 48.99237 88.43892
#
# Poissons Ratio (x) = 0.20775 0.22968
# Poissons Ratio (y) = 0.55805 0.09913
# Poissons Ratio (z) = 0.34178 0.05491
#
# Static dielectric constant tensor:
#      x y z
#    x 4.149200 0.000000 0.000000 
#    y 0.000000 4.924440 0.000000 
#    z 0.000000 0.000000 4.696630 
# 
# 
# High freq. dielectric constant tensor:
#      x y z
#    x 2.005410 0.000000 0.000000 
#    y 0.000000 2.001980 0.000000 
#    z 0.000000 0.000000 1.987430 
# 
# From -- ./inp_files/19395.got.cif
#   From: 2010.03.12/outbox.cif.g09.slc.cpg/sg50_10_cif.got.tgz:19395.got - 2010.04.16 13:23:21.
