data_PCOD8205654
_publ_section_title
;
Structure prediction by ZEFSAII (Michael W. Deem and Ramdas Pophale) SiO2 
 PCOD8205654
Probable space group: P B A N
;
_chemical_formula_sum "Si O2"
_cell_formula_units_Z 44
_cell_length_a 13.023190
_cell_length_b 8.998361
_cell_length_c 19.004482
_cell_angle_alpha 90.000000
_cell_angle_beta 90.000000
_cell_angle_gamma 90.000000
_cell_volume 2227.085169
_symmetry_space_group_name_H-M "P B A N"
_symmetry_group_IT_number 50
_space_group.IT_coordinate_system_code '2'
_symmetry_cell_setting 'orthorhombic'
loop_
_space_group_symop_operation_xyz
x,y,z
1/2-x,1/2-y,z
x,1/2-y,-z
1/2-x,y,-z
-x,-y,-z
1/2+x,1/2+y,-z
-x,1/2+y,z
1/2+x,-y,z
loop_
_atom_site_type_symbol
_atom_site_label
_atom_site_fract_x
_atom_site_fract_y
_atom_site_fract_z
Si Si1 0.280552 0.588255 0.196315
Si Si2 0.628715 0.009888 0.691704
Si Si3 0.850889 0.995921 0.948955
Si Si4 0.002992 0.750000 0.000000
Si Si5 0.276193 0.578525 0.421655
Si Si6 0.932889 0.159612 0.679254
O O1 0.250000 0.750000 0.167063
O O2 0.181592 0.512810 0.232070
O O3 0.312306 0.486860 0.130979
O O4 0.368344 0.600439 0.254737
O O5 0.709723 0.976272 0.629931
O O6 0.572149 0.163706 0.674143
O O7 0.550823 0.874664 0.691851
O O8 0.920102 0.144796 0.955827
O O9 0.750000 0.992808 0.000000
O O10 0.925859 0.854057 0.955667
O O11 0.250000 0.750000 0.410862
O O12 0.250000 0.522866 0.500000
O O13 0.394029 0.576520 0.393196
#
# Coordination Sequence:
#
# PCOD8205654 Si02
#       6
#     8   8   8   4   8   8
#     4   9  19  35  55  76 103 142 178 215 267 323
#     4   9  18  33  52  76 103 136 176 218 268 318
#     4  11  22  40  59  81 113 144 181 230 278 331
#     4  10  24  38  58  86 108 142 188 224 276 342
#     4   8  15  30  50  71 100 140 179 212 257 321
#     4   9  18  32  51  75 103 134 176 219 259 319
#
# _framework density 19.756767
#
# number of rings (size 3 to 8) (size 9 to 14) (size 15 to 20)
#    0.000    2.727    0.000    3.818    0.000    6.545 
#    0.000    5.455    0.000    1.091    0.000    0.000 
#    0.000    0.000    0.000    0.000    0.000    0.000 
#
# Total GULP energy -545129.136853 kJ/mol
# GULP energy per Si atom -12389.298565 kJ/mol
# Density = 1.971180 g / cm^3
# Si number density = 19.756767 Si / 1000 Ang^3
#
#
#
# Elastic Constant Matrix: (Units=GPa)
#
#
# Indices 1 2 3 4 5 6 
#
# 1 89.1278 31.8331 19.1102 0.0000 0.0000 0.0000
# 2 31.8331 55.1558 25.3993 0.0000 0.0000 0.0000
# 3 19.1102 25.3993 101.8931 0.0000 0.0000 0.0000
# 4 0.0000 0.0000 0.0000 17.5659 0.0000 0.0000
# 5 0.0000 0.0000 0.0000 0.0000 18.3245 0.0000
# 6 0.0000 0.0000 0.0000 0.0000 0.0000 38.4340
#
#
#
# Elastic Compliance Matrix: (Units=1/GPa)
#
#
# Indices 1 2 3 4 5 6 
#
# 1 0.014177 -0.007860 -0.000700 0.000000 0.000000 0.000000
# 2 -0.007860 0.024839 -0.004718 0.000000 0.000000 0.000000
# 3 -0.000700 -0.004718 0.011121 0.000000 0.000000 0.000000
# 4 0.000000 0.000000 0.000000 0.056929 0.000000 0.000000
# 5 0.000000 0.000000 0.000000 0.000000 0.054572 0.000000
# 6 0.000000 0.000000 0.000000 0.000000 0.000000 0.026019
#
#
# Mechanical properties :
#
#
# Convention : Reuss Voigt Hill
#
# Bulk Modulus (GPa) = 42.40310 44.31797 43.36054
# Shear Modulus (GPa) = 22.51513 26.18714 24.35114
#
# Velocity S-wave (km/s) = 3.37948 3.64466 3.51457
# Velocity P-wave (km/s) = 6.06111 6.33971 6.20197
#
# Compressibility (1/GPa) = 0.02358318
#
# Stress axis : x y z
#
# Youngs Moduli (GPa) = 70.53573 40.25863 89.91667
#
# Poissons Ratio (x) = 0.31644 0.06291
# Poissons Ratio (y) = 0.55442 0.42419
# Poissons Ratio (z) = 0.04935 0.18993
#
# Static dielectric constant tensor:
#      x y z
#    x 3.747230 0.000000 0.000000 
#    y 0.000000 3.326760 0.000000 
#    z 0.000000 0.000000 3.558480 
# 
# 
# High freq. dielectric constant tensor:
#      x y z
#    x 1.777540 0.000000 0.000000 
#    y 0.000000 1.744660 0.000000 
#    z 0.000000 0.000000 1.764540 
# 
# From -- ./inp_files/29392.got.cif
#   From: 2010.03.12/outbox.cif.g09.slc.cpg/sg50_15_cif.got.tgz:29392.got - 2010.04.16 13:23:21.
