data_PCOD8205929
_publ_section_title
;
Structure prediction by ZEFSAII (Michael W. Deem and Ramdas Pophale) SiO2 
 PCOD8205929
Probable space group: P M M A
;
_chemical_formula_sum "Si O2"
_cell_formula_units_Z 52
_cell_length_a 8.959786
_cell_length_b 26.975685
_cell_length_c 13.553471
_cell_angle_alpha 90.000000
_cell_angle_beta 90.000000
_cell_angle_gamma 90.000000
_cell_volume 3275.824671
_symmetry_space_group_name_H-M "P M M A"
_symmetry_group_IT_number 51
_symmetry_cell_setting 'orthorhombic'
loop_
_space_group_symop_operation_xyz
x,y,z
1/2-x,-y,z
1/2+x,-y,-z
-x,y,-z
-x,-y,-z
1/2+x,y,-z
1/2-x,y,z
x,-y,z
loop_
_atom_site_type_symbol
_atom_site_label
_atom_site_fract_x
_atom_site_fract_y
_atom_site_fract_z
Si Si1 0.422733 0.203532 0.395800
Si Si2 0.424171 0.390642 0.599052
Si Si3 0.925428 0.095161 0.606115
Si Si4 0.423820 0.443393 0.798644
Si Si5 0.575350 0.302795 0.702245
Si Si6 0.924998 0.644815 0.900112
Si Si7 0.071780 0.000000 0.609322
O O1 0.500000 0.211990 0.500000
O O2 0.250000 0.207696 0.420796
O O3 0.455436 0.149441 0.345895
O O4 0.470648 0.245745 0.317649
O O5 0.500000 0.411280 0.500000
O O6 0.250000 0.385641 0.580273
O O7 0.462148 0.429074 0.686128
O O8 0.487362 0.336523 0.624794
O O9 0.750000 0.083128 0.597997
O O10 0.000000 0.098701 0.500000
O O11 0.009052 0.049878 0.663761
O O12 0.250000 0.434531 0.820170
O O13 0.470888 0.500000 0.815938
O O14 0.517188 0.410101 0.874149
O O15 0.750000 0.312380 0.685678
O O16 0.529711 0.316668 0.813950
O O17 0.750000 0.642062 0.916361
O O18 0.000000 0.664407 0.000000
O O19 0.000000 0.000000 0.500000
O O20 0.250000 0.000000 0.607050
#
# Coordination Sequence:
#
# PCOD8205929 Si02
#       7
#     8   8   8   8   8   8   4
#     4   9  17  27  40  59  83 110 141 174 207 242
#     4  10  19  30  45  65  88 115 144 172 204 243
#     4   9  15  23  34  49  71 101 137 174 207 238
#     4   9  19  35  51  67  88 112 140 173 206 243
#     4   9  18  32  47  64  85 110 140 174 210 248
#     4  10  20  34  52  70  88 109 135 168 208 255
#     4  10  16  22  32  46  68 100 139 178 209 238
#
# _framework density 15.873865
#
# number of rings (size 3 to 8) (size 9 to 14) (size 15 to 20)
#    0.000    2.615    0.000    3.462    0.000    4.615 
#    0.000    0.000    0.000    0.000    0.000    0.000 
#    0.000    0.000    0.000    0.692    0.000    6.538 
#
# Total GULP energy -644515.103590 kJ/mol
# GULP energy per Si atom -12394.521223 kJ/mol
# Density = 1.583774 g / cm^3
# Si number density = 15.873865 Si / 1000 Ang^3
#
#
#
# Elastic Constant Matrix: (Units=GPa)
#
#
# Indices 1 2 3 4 5 6 
#
# 1 67.2169 38.3765 26.5892 0.0000 0.0000 0.0000
# 2 38.3765 129.2747 31.9297 0.0000 0.0000 0.0000
# 3 26.5892 31.9297 66.9196 0.0000 0.0000 0.0000
# 4 0.0000 0.0000 0.0000 10.0196 0.0000 0.0000
# 5 0.0000 0.0000 0.0000 0.0000 22.2766 0.0000
# 6 0.0000 0.0000 0.0000 0.0000 0.0000 23.1863
#
#
#
# Elastic Compliance Matrix: (Units=1/GPa)
#
#
# Indices 1 2 3 4 5 6 
#
# 1 0.019660 -0.004429 -0.005698 0.000000 0.000000 0.000000
# 2 -0.004429 0.009767 -0.002900 0.000000 0.000000 0.000000
# 3 -0.005698 -0.002900 0.018591 0.000000 0.000000 0.000000
# 4 0.000000 0.000000 0.000000 0.099805 0.000000 0.000000
# 5 0.000000 0.000000 0.000000 0.000000 0.044890 0.000000
# 6 0.000000 0.000000 0.000000 0.000000 0.000000 0.043129
#
#
# Mechanical properties :
#
#
# Convention : Reuss Voigt Hill
#
# Bulk Modulus (GPa) = 45.53139 50.80023 48.16581
# Shear Modulus (GPa) = 18.57238 22.19756 20.38497
#
# Velocity S-wave (km/s) = 3.42423 3.74354 3.58744
# Velocity P-wave (km/s) = 6.66178 7.12442 6.89698
#
# Compressibility (1/GPa) = 0.02196287
#
# Stress axis : x y z
#
# Youngs Moduli (GPa) = 50.86504 102.39045 53.78875
#
# Poissons Ratio (x) = 0.45347 0.30651
# Poissons Ratio (y) = 0.22527 0.15600
# Poissons Ratio (z) = 0.28985 0.29696
#
# Static dielectric constant tensor:
#      x y z
#    x 3.110490 0.000000 0.000000 
#    y 0.000000 3.819030 0.000000 
#    z 0.000000 0.000000 2.752030 
# 
# 
# High freq. dielectric constant tensor:
#      x y z
#    x 1.621540 0.000000 0.000000 
#    y 0.000000 1.616720 0.000000 
#    z 0.000000 0.000000 1.560240 
# 
# From -- ./inp_files/14644.got.cif
#   From: 2010.03.12/outbox.cif.g09.slc.cpg/sg51_8_cif.got.tgz:14644.got - 2010.04.16 13:43:02.
