data_PCOD8205742
_publ_section_title
;
Structure prediction by ZEFSAII (Michael W. Deem and Ramdas Pophale) SiO2 
 PCOD8205742
Probable space group: P B A N
;
_chemical_formula_sum "Si O2"
_cell_formula_units_Z 48
_cell_length_a 21.731522
_cell_length_b 9.547694
_cell_length_c 11.060379
_cell_angle_alpha 90.000000
_cell_angle_beta 90.000000
_cell_angle_gamma 90.000000
_cell_volume 2294.872937
_symmetry_space_group_name_H-M "P B A N"
_symmetry_group_IT_number 50
_space_group.IT_coordinate_system_code '2'
_symmetry_cell_setting 'orthorhombic'
loop_
_space_group_symop_operation_xyz
x,y,z
1/2-x,1/2-y,z
x,1/2-y,-z
1/2-x,y,-z
-x,-y,-z
1/2+x,1/2+y,-z
-x,1/2+y,z
1/2+x,-y,z
loop_
_atom_site_type_symbol
_atom_site_label
_atom_site_fract_x
_atom_site_fract_y
_atom_site_fract_z
Si Si1 0.124323 0.454607 0.753841
Si Si2 0.061255 0.215197 0.630058
Si Si3 0.920240 0.222195 0.634307
Si Si4 0.748441 0.915920 0.639698
Si Si5 0.065358 0.418912 0.002444
Si Si6 0.622101 0.015930 0.749957
O O1 0.102246 0.297994 0.726153
O O2 0.085998 0.561405 0.670899
O O3 0.195413 0.475865 0.719539
O O4 0.108452 0.475310 0.894176
O O5 0.089477 0.250000 0.500000
O O6 0.071770 0.051776 0.658093
O O7 0.991476 0.263259 0.639605
O O8 0.893832 0.250000 0.500000
O O9 0.884167 0.317087 0.732290
O O10 0.750000 0.750000 0.639795
O O11 0.750000 0.970623 0.500000
O O12 0.689685 0.969969 0.711577
O O13 0.054392 0.250000 0.000000
O O14 0.105443 0.466268 0.116448
O O15 0.000000 0.500000 0.000000
#
# Coordination Sequence:
#
# PCOD8205742 Si02
#       6
#     8   8   8   8   8   8
#     4  12  25  41  66  99 134 179 231 274 335 409
#     4  11  20  38  64  93 128 170 222 283 344 399
#     4  11  24  40  64  99 138 174 220 293 354 401
#     4  11  22  42  70  97 134 181 229 284 339 404
#     4  12  26  45  71 100 138 183 229 284 339 403
#     4  12  25  41  66  99 134 179 231 274 335 409
#
# _framework density 20.916191999999999
#
# number of rings (size 3 to 8) (size 9 to 14) (size 15 to 20)
#    0.000    0.500    3.333    6.000    2.333    4.000 
#    0.000    3.333    0.000    2.000    0.000    0.000 
#    0.000    0.000    0.000    0.000    0.000    0.000 
#
# Total GULP energy -595211.411314 kJ/mol
# GULP energy per Si atom -12400.237736 kJ/mol
# Density = 2.086859 g / cm^3
# Si number density = 20.916192 Si / 1000 Ang^3
#
#
#
# Elastic Constant Matrix: (Units=GPa)
#
#
# Indices 1 2 3 4 5 6 
#
# 1 133.9764 28.9275 72.7921 0.0000 0.0000 0.0000
# 2 28.9275 69.0652 20.5867 0.0000 0.0000 0.0000
# 3 72.7921 20.5867 151.5414 0.0000 0.0000 0.0000
# 4 0.0000 0.0000 0.0000 33.2417 0.0000 0.0000
# 5 0.0000 0.0000 0.0000 0.0000 39.4940 0.0000
# 6 0.0000 0.0000 0.0000 0.0000 0.0000 28.3809
#
#
#
# Elastic Compliance Matrix: (Units=1/GPa)
#
#
# Indices 1 2 3 4 5 6 
#
# 1 0.010690 -0.003071 -0.004718 0.000000 0.000000 0.000000
# 2 -0.003071 0.015973 -0.000695 0.000000 0.000000 0.000000
# 3 -0.004718 -0.000695 0.008959 0.000000 0.000000 0.000000
# 4 0.000000 0.000000 0.000000 0.030083 0.000000 0.000000
# 5 0.000000 0.000000 0.000000 0.000000 0.025320 0.000000
# 6 0.000000 0.000000 0.000000 0.000000 0.000000 0.035235
#
#
# Mechanical properties :
#
#
# Convention : Reuss Voigt Hill
#
# Bulk Modulus (GPa) = 53.60527 66.57729 60.09128
# Shear Modulus (GPa) = 33.45687 35.70844 34.58266
#
# Velocity S-wave (km/s) = 4.00380 4.13633 4.07060
# Velocity P-wave (km/s) = 6.85989 7.39675 7.13337
#
# Compressibility (1/GPa) = 0.01865488
#
# Stress axis : x y z
#
# Youngs Moduli (GPa) = 93.54134 62.60754 111.61450
#
# Poissons Ratio (x) = 0.19229 0.52658
# Poissons Ratio (y) = 0.28730 0.07752
# Poissons Ratio (z) = 0.44132 0.04348
#
# Static dielectric constant tensor:
#      x y z
#    x 3.773440 0.000000 0.000000 
#    y 0.000000 3.834560 0.000000 
#    z 0.000000 0.000000 3.960740 
# 
# 
# High freq. dielectric constant tensor:
#      x y z
#    x 1.815850 0.000000 0.000000 
#    y 0.000000 1.823810 0.000000 
#    z 0.000000 0.000000 1.824910 
# 
# From -- ./inp_files/22780.got.cif
#   From: 2010.03.12/outbox.cif.g09.slc.cpg/sg50_12_cif.got.tgz:22780.got - 2010.04.16 13:23:21.
