data_PCOD8205969
_publ_section_title
;
Structure prediction by ZEFSAII (Michael W. Deem and Ramdas Pophale) SiO2 
 PCOD8205969
Probable space group: P M M A
;
_chemical_formula_sum "Si O2"
_cell_formula_units_Z 32
_cell_length_a 8.574421
_cell_length_b 21.150046
_cell_length_c 9.587651
_cell_angle_alpha 90.000000
_cell_angle_beta 90.000000
_cell_angle_gamma 90.000000
_cell_volume 1738.714743
_symmetry_space_group_name_H-M "P M M A"
_symmetry_group_IT_number 51
_symmetry_cell_setting 'orthorhombic'
loop_
_space_group_symop_operation_xyz
x,y,z
1/2-x,-y,z
1/2+x,-y,-z
-x,y,-z
-x,-y,-z
1/2+x,y,-z
1/2-x,y,z
x,-y,z
loop_
_atom_site_type_symbol
_atom_site_label
_atom_site_fract_x
_atom_site_fract_y
_atom_site_fract_z
Si Si1 0.433491 0.744774 0.346593
Si Si2 0.569596 0.500000 0.150078
Si Si3 0.434383 0.000000 0.343819
Si Si4 0.934791 0.363024 0.155893
Si Si5 0.065495 0.126834 0.655568
O O1 0.500000 0.732485 0.500000
O O2 0.250000 0.753551 0.357563
O O3 0.475386 0.686032 0.251125
O O4 0.506426 0.808015 0.274469
O O5 0.750000 0.500000 0.123493
O O6 0.524664 0.567023 0.222395
O O7 0.500000 0.500000 0.000000
O O8 0.500000 0.000000 0.500000
O O9 0.497375 0.936128 0.267937
O O10 0.250000 0.000000 0.344935
O O11 0.750000 0.349609 0.156811
O O12 0.000000 0.357253 0.000000
O O13 0.250000 0.123500 0.656542
O O14 0.000000 0.128524 0.500000
#
# Coordination Sequence:
#
# PCOD8205969 Si02
#       5
#     8   4   4   8   8
#     4  11  21  34  50  72 101 135 168 206 252 301
#     4   8  16  30  51  74  99 126 160 202 246 290
#     4  10  16  24  38  60  89 122 159 200 241 288
#     4  10  19  34  54  78 102 130 165 205 247 295
#     4  10  17  27  42  63  91 125 161 201 245 293
#
# _framework density 18.404398
#
# number of rings (size 3 to 8) (size 9 to 14) (size 15 to 20)
#    0.000    2.000    0.000    9.375    0.000    1.000 
#    0.000    0.625    0.000    0.000    0.000    0.875 
#    0.000    0.000    0.000    0.000    0.000    0.000 
#
# Total GULP energy -396430.426765 kJ/mol
# GULP energy per Si atom -12388.450836 kJ/mol
# Density = 1.836251 g / cm^3
# Si number density = 18.404398 Si / 1000 Ang^3
#
#
#
# Elastic Constant Matrix: (Units=GPa)
#
#
# Indices 1 2 3 4 5 6 
#
# 1 156.2413 68.0455 21.0616 0.0000 0.0000 0.0000
# 2 68.0455 196.1059 40.2838 0.0000 0.0000 0.0000
# 3 21.0616 40.2838 35.4733 0.0000 0.0000 0.0000
# 4 0.0000 0.0000 0.0000 0.9260 0.0000 0.0000
# 5 0.0000 0.0000 0.0000 0.0000 20.4606 0.0000
# 6 0.0000 0.0000 0.0000 0.0000 0.0000 11.4301
#
#
#
# Elastic Compliance Matrix: (Units=1/GPa)
#
#
# Indices 1 2 3 4 5 6 
#
# 1 0.007646 -0.002244 -0.001991 0.000000 0.000000 0.000000
# 2 -0.002244 0.007309 -0.006968 0.000000 0.000000 0.000000
# 3 -0.001991 -0.006968 0.037286 0.000000 0.000000 0.000000
# 4 0.000000 0.000000 0.000000 1.079859 0.000000 0.000000
# 5 0.000000 0.000000 0.000000 0.000000 0.048874 0.000000
# 6 0.000000 0.000000 0.000000 0.000000 0.000000 0.087489
#
#
# Mechanical properties :
#
#
# Convention : Reuss Voigt Hill
#
# Bulk Modulus (GPa) = 33.51889 71.84471 52.68180
# Shear Modulus (GPa) = 3.84374 23.79198 13.81786
#
# Velocity S-wave (km/s) = 1.44673 3.59936 2.74303
# Velocity P-wave (km/s) = 4.58723 7.50968 6.22246
#
# Compressibility (1/GPa) = 0.02983393
#
# Stress axis : x y z
#
# Youngs Moduli (GPa) = 130.78564 136.81188 26.81990
#
# Poissons Ratio (x) = 0.30700 0.05341
# Poissons Ratio (y) = 0.29348 0.18689
# Poissons Ratio (z) = 0.26045 0.95333
#
# Static dielectric constant tensor:
#      x y z
#    x 3.581640 0.000000 0.000000 
#    y 0.000000 5.096040 0.000000 
#    z 0.000000 0.000000 2.746160 
# 
# 
# High freq. dielectric constant tensor:
#      x y z
#    x 1.736720 0.000000 0.000000 
#    y 0.000000 1.754730 0.000000 
#    z 0.000000 0.000000 1.631230 
# 
# From -- ./inp_files/13943.got.cif
#   From: 2010.03.12/outbox.cif.g09.slc.cpg/sg51_7_cif.got.tgz:13943.got - 2010.04.16 13:43:02.
