data_PCOD8205954
_publ_section_title
;
Structure prediction by ZEFSAII (Michael W. Deem and Ramdas Pophale) SiO2 
 PCOD8205954
Probable space group: P M M A
;
_chemical_formula_sum "Si O2"
_cell_formula_units_Z 40
_cell_length_a 8.776758
_cell_length_b 25.400876
_cell_length_c 9.724750
_cell_angle_alpha 90.000000
_cell_angle_beta 90.000000
_cell_angle_gamma 90.000000
_cell_volume 2168.009913
_symmetry_space_group_name_H-M "P M M A"
_symmetry_group_IT_number 51
_symmetry_cell_setting 'orthorhombic'
loop_
_space_group_symop_operation_xyz
x,y,z
1/2-x,-y,z
1/2+x,-y,-z
-x,y,-z
-x,-y,-z
1/2+x,y,-z
1/2-x,y,z
x,-y,z
loop_
_atom_site_type_symbol
_atom_site_label
_atom_site_fract_x
_atom_site_fract_y
_atom_site_fract_z
Si Si1 0.070995 0.082060 0.354810
Si Si2 0.931804 0.000000 0.152181
Si Si3 0.573127 0.717521 0.148552
Si Si4 0.426891 0.204017 0.358069
Si Si5 0.426719 0.601989 0.851439
Si Si6 0.430050 0.500000 0.153161
O O1 0.250000 0.069145 0.356731
O O2 0.037487 0.143188 0.327870
O O3 0.000000 0.063942 0.500000
O O4 0.989774 0.051596 0.231460
O O5 0.750000 0.000000 0.144236
O O6 0.000000 0.000000 0.000000
O O7 0.750000 0.730414 0.133767
O O8 0.496118 0.762123 0.237349
O O9 0.549188 0.659428 0.218376
O O10 0.500000 0.719621 0.000000
O O11 0.500000 0.222535 0.500000
O O12 0.250000 0.215325 0.368215
O O13 0.250000 0.587992 0.865717
O O14 0.509512 0.553446 0.771017
O O15 0.500000 0.606476 0.000000
O O16 0.250000 0.500000 0.150808
O O17 0.500000 0.500000 0.000000
#
# Coordination Sequence:
#
# PCOD8205954 Si02
#       6
#     8   4   8   8   8   4
#     4  10  21  39  61  84 109 141 179 218 260 309
#     4  12  25  40  59  84 114 146 178 218 263 310
#     4  10  20  33  51  75 105 139 175 216 265 316
#     4  10  21  37  58  81 107 139 177 219 261 308
#     4   9  16  26  40  61  91 127 165 207 254 306
#     4  10  16  22  36  58  87 124 163 206 253 304
#
# _framework density 18.450101
#
# number of rings (size 3 to 8) (size 9 to 14) (size 15 to 20)
#    0.000    2.000    0.000    5.700    0.000    5.600 
#    0.000    0.000    0.000    0.000    0.000    0.700 
#    0.000    0.000    0.000    0.000    0.000    0.000 
#
# Total GULP energy -495828.554814 kJ/mol
# GULP energy per Si atom -12395.713870 kJ/mol
# Density = 1.840811 g / cm^3
# Si number density = 18.450101 Si / 1000 Ang^3
#
#
#
# Elastic Constant Matrix: (Units=GPa)
#
#
# Indices 1 2 3 4 5 6 
#
# 1 149.8876 71.9497 55.4324 0.0000 0.0000 0.0000
# 2 71.9497 122.4878 62.5225 0.0000 0.0000 0.0000
# 3 55.4324 62.5225 94.6548 0.0000 0.0000 0.0000
# 4 0.0000 0.0000 0.0000 -10.0191 0.0000 0.0000
# 5 0.0000 0.0000 0.0000 0.0000 29.9567 0.0000
# 6 0.0000 0.0000 0.0000 0.0000 0.0000 40.8648
#
#
#
# Elastic Compliance Matrix: (Units=1/GPa)
#
#
# Indices 1 2 3 4 5 6 
#
# 1 0.009799 -0.004265 -0.002922 0.000000 0.000000 0.000000
# 2 -0.004265 0.014173 -0.006864 0.000000 0.000000 0.000000
# 3 -0.002922 -0.006864 0.016810 0.000000 0.000000 0.000000
# 4 0.000000 0.000000 0.000000 -0.099810 0.000000 0.000000
# 5 0.000000 0.000000 0.000000 0.000000 0.033382 0.000000
# 6 0.000000 0.000000 0.000000 0.000000 0.000000 0.024471
#
#
# Mechanical properties :
#
#
# Convention : Reuss Voigt Hill
#
# Bulk Modulus (GPa) = 78.85970 82.98216 80.92093
# Shear Modulus (GPa) = 160.49604 23.96883 92.23244
#
# Velocity S-wave (km/s) = 9.33692 3.60824 7.07805
# Velocity P-wave (km/s) = 12.61239 7.90148 10.52392
#
# Compressibility (1/GPa) = 0.01268075
#
# Stress axis : x y z
#
# Youngs Moduli (GPa) = 102.04672 70.55686 59.48941
#
# Poissons Ratio (x) = 0.30091 0.17381
# Poissons Ratio (y) = 0.43521 0.40834
# Poissons Ratio (z) = 0.29815 0.48431
#
# Static dielectric constant tensor:
#      x y z
#    x 3.607510 0.000000 0.000000 
#    y 0.000000 4.206400 0.000000 
#    z 0.000000 0.000000 3.016180 
# 
# 
# High freq. dielectric constant tensor:
#      x y z
#    x 1.739160 0.000000 0.000000 
#    y 0.000000 1.741260 0.000000 
#    z 0.000000 0.000000 1.665260 
# 
# From -- ./inp_files/5554.got.cif
#   From: 2010.03.12/outbox.cif.g09.slc.cpg/sg51_3_cif.got.tgz:5554.got - 2010.04.16 13:43:02.
