data_PCOD8205063
_publ_section_title
;
Structure prediction by ZEFSAII (Michael W. Deem and Ramdas Pophale) SiO2 
 PCOD8205063
Probable space group: P B A N
;
_chemical_formula_sum "Si O2"
_cell_formula_units_Z 56
_cell_length_a 16.916904
_cell_length_b 9.296566
_cell_length_c 16.872427
_cell_angle_alpha 90.000000
_cell_angle_beta 90.000000
_cell_angle_gamma 90.000000
_cell_volume 2653.511655
_symmetry_space_group_name_H-M "P B A N"
_symmetry_group_IT_number 50
_space_group.IT_coordinate_system_code '2'
_symmetry_cell_setting 'orthorhombic'
loop_
_space_group_symop_operation_xyz
x,y,z
1/2-x,1/2-y,z
x,1/2-y,-z
1/2-x,y,-z
-x,-y,-z
1/2+x,1/2+y,-z
-x,1/2+y,z
1/2+x,-y,z
loop_
_atom_site_type_symbol
_atom_site_label
_atom_site_fract_x
_atom_site_fract_y
_atom_site_fract_z
Si Si1 0.836655 0.032020 0.677933
Si Si2 0.343361 0.910175 0.505168
Si Si3 0.905987 0.771434 0.756032
Si Si4 0.421588 0.837251 0.071702
Si Si5 0.589382 0.292775 0.244626
Si Si6 0.410850 0.320234 0.925079
Si Si7 0.845597 0.533987 0.659223
O O1 0.868736 0.014142 0.587634
O O2 0.851883 0.194765 0.704549
O O3 0.884861 0.938010 0.742099
O O4 0.743805 0.005652 0.679466
O O5 0.380945 0.750000 0.500000
O O6 0.250000 0.894868 0.500000
O O7 0.371250 0.008281 0.431761
O O8 0.870309 0.712362 0.839889
O O9 0.860757 0.699046 0.681713
O O10 0.999060 0.740436 0.752072
O O11 0.378684 0.801463 0.154393
O O12 0.509248 0.773583 0.077085
O O13 0.424085 0.009940 0.059301
O O14 0.377737 0.750000 0.000000
O O15 0.594544 0.449436 0.283371
O O16 0.362422 0.250000 0.000000
#
# Coordination Sequence:
#
# PCOD8205063 Si02
#       7
#     8   8   8   8   8   8   8
#     4  11  23  38  65  87 113 166 200 244 297 352
#     4   9  18  36  61  86 112 154 209 246 280 352
#     4  11  24  38  58  93 126 149 193 252 308 346
#     4  10  20  33  57  87 119 156 201 246 289 351
#     4  11  22  38  62  90 120 155 199 246 298 351
#     4  10  20  34  57  85 120 158 198 245 291 354
#     4  11  21  42  62  86 120 155 205 244 289 366
#
# _framework density 21.104109000000001
#
# number of rings (size 3 to 8) (size 9 to 14) (size 15 to 20)
#    0.000    1.571    2.857    3.429    8.000    0.571 
#    0.000    6.429    0.000    5.143    0.000    0.000 
#    0.000    0.000    0.000    0.000    0.000    0.000 
#
# Total GULP energy -694024.566171 kJ/mol
# GULP energy per Si atom -12393.295824 kJ/mol
# Density = 2.105607 g / cm^3
# Si number density = 21.104109 Si / 1000 Ang^3
#
#
#
# Elastic Constant Matrix: (Units=GPa)
#
#
# Indices 1 2 3 4 5 6 
#
# 1 40.1289 11.2974 20.4712 0.0000 0.0000 0.0000
# 2 11.2974 100.6448 50.7031 0.0000 0.0000 0.0000
# 3 20.4712 50.7031 182.2731 0.0000 0.0000 0.0000
# 4 0.0000 0.0000 0.0000 44.1790 0.0000 0.0000
# 5 0.0000 0.0000 0.0000 0.0000 16.7189 0.0000
# 6 0.0000 0.0000 0.0000 0.0000 0.0000 27.0551
#
#
#
# Elastic Compliance Matrix: (Units=1/GPa)
#
#
# Indices 1 2 3 4 5 6 
#
# 1 0.026690 -0.001728 -0.002517 0.000000 0.000000 0.000000
# 2 -0.001728 0.011667 -0.003051 0.000000 0.000000 0.000000
# 3 -0.002517 -0.003051 0.006618 0.000000 0.000000 0.000000
# 4 0.000000 0.000000 0.000000 0.022635 0.000000 0.000000
# 5 0.000000 0.000000 0.000000 0.000000 0.059813 0.000000
# 6 0.000000 0.000000 0.000000 0.000000 0.000000 0.036962
#
#
# Mechanical properties :
#
#
# Convention : Reuss Voigt Hill
#
# Bulk Modulus (GPa) = 32.91376 54.22115 43.56745
# Shear Modulus (GPa) = 26.44041 33.62895 30.03468
#
# Velocity S-wave (km/s) = 3.54341 3.99617 3.77658
# Velocity P-wave (km/s) = 5.68953 6.85861 6.30124
#
# Compressibility (1/GPa) = 0.03038243
#
# Stress axis : x y z
#
# Youngs Moduli (GPa) = 37.46703 85.71081 151.10865
#
# Poissons Ratio (x) = 0.14811 0.38033
# Poissons Ratio (y) = 0.06474 0.46109
# Poissons Ratio (z) = 0.09430 0.26154
#
# Static dielectric constant tensor:
#      x y z
#    x 3.170670 0.000000 0.000000 
#    y 0.000000 3.812670 0.000000 
#    z 0.000000 0.000000 4.934910 
# 
# 
# High freq. dielectric constant tensor:
#      x y z
#    x 1.769860 0.000000 0.000000 
#    y 0.000000 1.836470 0.000000 
#    z 0.000000 0.000000 1.853510 
# 
# From -- ./inp_files/27270.got.cif
#   From: 2010.03.12/outbox.cif.g09.slc.cpg/sg50_14_cif.got.tgz:27270.got - 2010.04.16 13:23:21.
