data_PCOD8205003
_publ_section_title
;
Structure prediction by ZEFSAII (Michael W. Deem and Ramdas Pophale) SiO2 
 PCOD8205003
Probable space group: P B A N
;
_chemical_formula_sum "Si O2"
_cell_formula_units_Z 58
_cell_length_a 12.063901
_cell_length_b 27.163804
_cell_length_c 9.446527
_cell_angle_alpha 90.000000
_cell_angle_beta 90.000000
_cell_angle_gamma 90.000000
_cell_volume 3095.640522
_symmetry_space_group_name_H-M "P B A N"
_symmetry_group_IT_number 50
_space_group.IT_coordinate_system_code '2'
_symmetry_cell_setting 'orthorhombic'
loop_
_space_group_symop_operation_xyz
x,y,z
1/2-x,1/2-y,z
x,1/2-y,-z
1/2-x,y,-z
-x,-y,-z
1/2+x,1/2+y,-z
-x,1/2+y,z
1/2+x,-y,z
loop_
_atom_site_type_symbol
_atom_site_label
_atom_site_fract_x
_atom_site_fract_y
_atom_site_fract_z
Si Si1 0.525827 0.141708 0.877241
Si Si2 0.750000 0.750000 0.000000
Si Si3 0.879038 0.901607 0.354703
Si Si4 0.369293 0.547407 0.955492
Si Si5 0.008970 0.513288 0.769552
Si Si6 0.932072 0.687042 0.842284
Si Si7 0.866528 0.579983 0.322877
Si Si8 0.126645 0.757808 0.833715
O O1 0.625766 0.104974 0.916179
O O2 0.432709 0.114951 0.783921
O O3 0.582013 0.187628 0.796831
O O4 0.466897 0.156488 0.021429
O O5 0.826632 0.719081 0.892075
O O6 0.902876 0.848742 0.286556
O O7 0.763856 0.920604 0.286957
O O8 0.878227 0.896028 0.522983
O O9 0.975680 0.941462 0.329127
O O10 0.401502 0.518083 0.813808
O O11 0.250000 0.529882 0.000000
O O12 0.447860 0.536694 0.086387
O O13 0.093632 0.476890 0.687939
O O14 0.033525 0.719720 0.779689
O O15 0.250000 0.750000 0.765563
O O16 0.136389 0.750000 0.000000
#
# Coordination Sequence:
#
# PCOD8205003 Si02
#       8
#     8   2   8   8   8   8   8   8
#     4  10  19  37  56  84 114 143 185 242 282 334
#     4  12  20  36  58  90 120 144 192 248 300 336
#     4  11  22  38  59  81 114 157 193 232 292 350
#     4  10  20  31  55  87 112 141 183 234 287 329
#     4  10  20  37  54  81 114 149 187 233 281 345
#     4  11  21  35  60  86 113 150 191 239 289 349
#     4  10  23  38  56  82 116 152 191 237 287 343
#     4   9  19  34  57  85 113 146 188 234 291 341
#
# _framework density 18.736025999999999
#
# number of rings (size 3 to 8) (size 9 to 14) (size 15 to 20)
#    0.000    1.793    3.448    2.069    3.862    0.000 
#    1.241    0.690    0.000    6.621    0.000    0.000 
#    0.000    0.000    0.000    0.000    0.000    0.000 
#
# Total GULP energy -718928.733545 kJ/mol
# GULP energy per Si atom -12395.322992 kJ/mol
# Density = 1.869338 g / cm^3
# Si number density = 18.736026 Si / 1000 Ang^3
#
#
#
# Elastic Constant Matrix: (Units=GPa)
#
#
# Indices 1 2 3 4 5 6 
#
# 1 94.0842 40.5838 7.7929 0.0000 0.0000 0.0000
# 2 40.5838 123.8192 28.1582 0.0000 0.0000 0.0000
# 3 7.7929 28.1582 47.1288 0.0000 0.0000 0.0000
# 4 0.0000 0.0000 0.0000 -33.1206 0.0000 0.0000
# 5 0.0000 0.0000 0.0000 0.0000 20.0308 0.0000
# 6 0.0000 0.0000 0.0000 0.0000 0.0000 23.8475
#
#
#
# Elastic Compliance Matrix: (Units=1/GPa)
#
#
# Indices 1 2 3 4 5 6 
#
# 1 0.012387 -0.004159 0.000437 0.000000 0.000000 0.000000
# 2 -0.004159 0.010743 -0.005731 0.000000 0.000000 0.000000
# 3 0.000437 -0.005731 0.024570 0.000000 0.000000 0.000000
# 4 0.000000 0.000000 0.000000 -0.030193 0.000000 0.000000
# 5 0.000000 0.000000 0.000000 0.000000 0.049923 0.000000
# 6 0.000000 0.000000 0.000000 0.000000 0.000000 0.041933
#
#
# Mechanical properties :
#
#
# Convention : Reuss Voigt Hill
#
# Bulk Modulus (GPa) = 34.73027 46.45578 40.59302
# Shear Modulus (GPa) = 36.26671 14.71804 25.49237
#
# Velocity S-wave (km/s) = 4.40439 2.80580 3.69264
# Velocity P-wave (km/s) = 6.66647 5.94520 6.31614
#
# Compressibility (1/GPa) = 0.02879333
#
# Stress axis : x y z
#
# Youngs Moduli (GPa) = 80.73153 93.08534 40.69972
#
# Poissons Ratio (x) = 0.38717 -0.01778
# Poissons Ratio (y) = 0.33579 0.23324
# Poissons Ratio (z) = -0.03527 0.53345
#
# Static dielectric constant tensor:
#      x y z
#    x 3.790000 0.000000 0.000000 
#    y 0.000000 3.671630 0.000000 
#    z 0.000000 0.000000 3.116950 
# 
# 
# High freq. dielectric constant tensor:
#      x y z
#    x 1.735400 0.000000 0.000000 
#    y 0.000000 1.740470 0.000000 
#    z 0.000000 0.000000 1.695870 
# 
# From -- ./inp_files/11768.got.cif
#   From: 2010.03.12/outbox.cif.g09.slc.cpg/sg50_6_cif.got.tgz:11768.got - 2010.04.16 13:23:21.
