data_PCOD8205662
_publ_section_title
;
Structure prediction by ZEFSAII (Michael W. Deem and Ramdas Pophale) SiO2 
 PCOD8205662
Probable space group: P B A N
;
_chemical_formula_sum "Si O2"
_cell_formula_units_Z 32
_cell_length_a 10.266873
_cell_length_b 22.077995
_cell_length_c 6.123759
_cell_angle_alpha 90.000000
_cell_angle_beta 90.000000
_cell_angle_gamma 90.000000
_cell_volume 1388.084521
_symmetry_space_group_name_H-M "P B A N"
_symmetry_group_IT_number 50
_space_group.IT_coordinate_system_code '2'
_symmetry_cell_setting 'orthorhombic'
loop_
_space_group_symop_operation_xyz
x,y,z
1/2-x,1/2-y,z
x,1/2-y,-z
1/2-x,y,-z
-x,-y,-z
1/2+x,1/2+y,-z
-x,1/2+y,z
1/2+x,-y,z
loop_
_atom_site_type_symbol
_atom_site_label
_atom_site_fract_x
_atom_site_fract_y
_atom_site_fract_z
Si Si1 0.359626 0.656710 0.670499
Si Si2 0.250000 0.250000 0.000000
Si Si3 0.354620 0.156707 0.687172
Si Si4 0.250000 0.058787 0.000000
Si Si5 0.371992 0.516736 0.645167
Si Si6 0.750000 0.250000 0.000000
O O1 0.250000 0.676039 0.500000
O O2 0.504865 0.662701 0.571843
O O3 0.352030 0.585644 0.727222
O O4 0.343054 0.703615 0.868868
O O5 0.345945 0.211877 0.851527
O O6 0.250000 0.160329 0.500000
O O7 0.337643 0.096329 0.829956
O O8 0.360801 0.021379 0.130877
O O9 0.250000 0.497188 0.500000
O O10 0.500000 0.500000 0.500000
#
# Coordination Sequence:
#
# PCOD8205662 Si02
#       6
#     8   2   8   4   8   2
#     4  11  26  44  66  96 135 178 222 279 341 412
#     4  10  24  40  70  96 122 170 226 280 334 396
#     4  11  24  44  68  97 131 172 225 283 342 410
#     4  11  23  41  70 101 133 175 224 282 350 419
#     4  11  24  43  68 101 138 178 227 288 354 423
#     4  12  26  44  66  96 136 184 234 276 342 430
#
# _framework density 23.053353000000001
#
# number of rings (size 3 to 8) (size 9 to 14) (size 15 to 20)
#    0.000    1.000    0.000    6.000    0.000   16.000 
#    0.000    0.000    0.000    0.000    0.000    0.000 
#    0.000    0.000    0.000    0.000    0.000    0.000 
#
# Total GULP energy -396550.159773 kJ/mol
# GULP energy per Si atom -12392.192493 kJ/mol
# Density = 2.300088 g / cm^3
# Si number density = 23.053353 Si / 1000 Ang^3
#
#
#
# Elastic Constant Matrix: (Units=GPa)
#
#
# Indices 1 2 3 4 5 6 
#
# 1 211.3920 40.5996 85.0912 0.0000 0.0000 0.0000
# 2 40.5996 154.6415 77.8136 0.0000 0.0000 0.0000
# 3 85.0912 77.8136 139.0176 0.0000 0.0000 0.0000
# 4 0.0000 0.0000 0.0000 61.4224 0.0000 0.0000
# 5 0.0000 0.0000 0.0000 0.0000 42.5860 0.0000
# 6 0.0000 0.0000 0.0000 0.0000 0.0000 44.8291
#
#
#
# Elastic Compliance Matrix: (Units=1/GPa)
#
#
# Indices 1 2 3 4 5 6 
#
# 1 0.006295 0.000398 -0.004076 0.000000 0.000000 0.000000
# 2 0.000398 0.009027 -0.005297 0.000000 0.000000 0.000000
# 3 -0.004076 -0.005297 0.012653 0.000000 0.000000 0.000000
# 4 0.000000 0.000000 0.000000 0.016281 0.000000 0.000000
# 5 0.000000 0.000000 0.000000 0.000000 0.023482 0.000000
# 6 0.000000 0.000000 0.000000 0.000000 0.000000 0.022307
#
#
# Mechanical properties :
#
#
# Convention : Reuss Voigt Hill
#
# Bulk Modulus (GPa) = 99.73748 101.33998 100.53873
# Shear Modulus (GPa) = 44.90954 49.87062 47.39008
#
# Velocity S-wave (km/s) = 4.41848 4.65614 4.53887
# Velocity P-wave (km/s) = 8.32997 8.54169 8.43649
#
# Compressibility (1/GPa) = 0.01002632
#
# Stress axis : x y z
#
# Youngs Moduli (GPa) = 158.86377 110.77609 79.03333
#
# Poissons Ratio (x) = -0.04412 0.32213
# Poissons Ratio (y) = -0.06328 0.41861
# Poissons Ratio (z) = 0.64751 0.58675
#
# Static dielectric constant tensor:
#      x y z
#    x 4.152370 0.000000 0.000000 
#    y 0.000000 4.610050 0.000000 
#    z 0.000000 0.000000 4.229220 
# 
# 
# High freq. dielectric constant tensor:
#      x y z
#    x 1.916670 0.000000 0.000000 
#    y 0.000000 1.937740 0.000000 
#    z 0.000000 0.000000 1.904860 
# 
# From -- ./inp_files/2080.got.cif
#   From: 2010.03.12/outbox.cif.g09.slc.cpg/sg50_2_cif.got.tgz:2080.got - 2010.04.16 13:23:21.
