data_PCOD8205173
_publ_section_title
;
Structure prediction by ZEFSAII (Michael W. Deem and Ramdas Pophale) SiO2 
 PCOD8205173
Probable space group: P B A N
;
_chemical_formula_sum "Si O2"
_cell_formula_units_Z 64
_cell_length_a 32.016517
_cell_length_b 9.299532
_cell_length_c 11.101003
_cell_angle_alpha 90.000000
_cell_angle_beta 90.000000
_cell_angle_gamma 90.000000
_cell_volume 3305.197362
_symmetry_space_group_name_H-M "P B A N"
_symmetry_group_IT_number 50
_space_group.IT_coordinate_system_code '2'
_symmetry_cell_setting 'orthorhombic'
loop_
_space_group_symop_operation_xyz
x,y,z
1/2-x,1/2-y,z
x,1/2-y,-z
1/2-x,y,-z
-x,-y,-z
1/2+x,1/2+y,-z
-x,1/2+y,z
1/2+x,-y,z
loop_
_atom_site_type_symbol
_atom_site_label
_atom_site_fract_x
_atom_site_fract_y
_atom_site_fract_z
Si Si1 0.042886 0.213512 0.633312
Si Si2 0.084155 0.040913 0.242889
Si Si3 0.249491 0.911757 0.642670
Si Si4 0.553103 0.213585 0.369842
Si Si5 0.330537 0.083566 0.641206
Si Si6 0.331995 0.079686 0.361836
Si Si7 0.045137 0.923892 0.001380
Si Si8 0.415133 0.970291 0.247028
O O1 0.060462 0.250000 0.500000
O O2 0.069075 0.296033 0.736879
O O3 0.994999 0.257152 0.644304
O O4 0.050828 0.047128 0.665068
O O5 0.133377 0.030600 0.268272
O O6 0.058977 0.954095 0.345546
O O7 0.071971 0.976105 0.114813
O O8 0.250000 0.750000 0.696034
O O9 0.250000 0.907340 0.500000
O O10 0.289710 0.999859 0.687298
O O11 0.207916 0.992526 0.686273
O O12 0.570605 0.250000 0.500000
O O13 0.581623 0.301221 0.276006
O O14 0.341926 0.045129 0.502231
O O15 0.322473 0.252629 0.654341
O O16 0.369620 0.032525 0.275056
O O17 0.072267 0.986422 0.891666
O O18 0.039786 0.750000 0.000000
O O19 0.000000 0.000000 0.000000
#
# Coordination Sequence:
#
# PCOD8205173 Si02
#       8
#     8   8   8   8   8   8   8   8
#     4  11  22  39  59  88 122 156 200 251 316 380
#     4  12  24  39  61  87 121 163 211 259 305 365
#     4   9  19  33  57  92 127 162 195 241 307 373
#     4  11  22  35  57  86 120 158 196 255 320 370
#     4  10  20  37  60  90 127 162 200 247 306 376
#     4  10  20  37  60  90 127 162 200 247 306 376
#     4  12  28  46  64  85 118 167 224 272 309 360
#     4  12  24  39  61  87 121 163 211 259 305 365
#
# _framework density 19.363443
#
# number of rings (size 3 to 8) (size 9 to 14) (size 15 to 20)
#    0.000    1.125    2.500    4.875    3.500    3.500 
#    0.000    0.000    0.000    0.750    0.000    3.500 
#    0.000    0.000    0.000    0.000    0.000    0.000 
#
# Total GULP energy -793610.132734 kJ/mol
# GULP energy per Si atom -12400.158324 kJ/mol
# Density = 1.931937 g / cm^3
# Si number density = 19.363443 Si / 1000 Ang^3
#
#
#
# Elastic Constant Matrix: (Units=GPa)
#
#
# Indices 1 2 3 4 5 6 
#
# 1 137.6919 62.4520 51.8981 0.0000 0.0000 0.0000
# 2 62.4520 95.1203 35.1837 0.0000 0.0000 0.0000
# 3 51.8981 35.1837 87.5648 0.0000 0.0000 0.0000
# 4 0.0000 0.0000 0.0000 27.9114 0.0000 0.0000
# 5 0.0000 0.0000 0.0000 0.0000 20.1654 0.0000
# 6 0.0000 0.0000 0.0000 0.0000 0.0000 36.9805
#
#
#
# Elastic Compliance Matrix: (Units=1/GPa)
#
#
# Indices 1 2 3 4 5 6 
#
# 1 0.011687 -0.006003 -0.004515 0.000000 0.000000 0.000000
# 2 -0.006003 0.015432 -0.002643 0.000000 0.000000 0.000000
# 3 -0.004515 -0.002643 0.015158 0.000000 0.000000 0.000000
# 4 0.000000 0.000000 0.000000 0.035828 0.000000 0.000000
# 5 0.000000 0.000000 0.000000 0.000000 0.049590 0.000000
# 6 0.000000 0.000000 0.000000 0.000000 0.000000 0.027041
#
#
# Mechanical properties :
#
#
# Convention : Reuss Voigt Hill
#
# Bulk Modulus (GPa) = 62.67328 68.82718 65.75023
# Shear Modulus (GPa) = 26.82763 28.40101 27.61432
#
# Velocity S-wave (km/s) = 3.72624 3.83395 3.78048
# Velocity P-wave (km/s) = 7.13794 7.43108 7.28599
#
# Compressibility (1/GPa) = 0.01595576
#
# Stress axis : x y z
#
# Youngs Moduli (GPa) = 85.56433 64.80040 65.97358
#
# Poissons Ratio (x) = 0.38902 0.29784
# Poissons Ratio (y) = 0.51368 0.17434
# Poissons Ratio (z) = 0.38629 0.17124
#
# Static dielectric constant tensor:
#      x y z
#    x 3.490300 0.000000 0.000000 
#    y 0.000000 3.827200 0.000000 
#    z 0.000000 0.000000 3.332230 
# 
# 
# High freq. dielectric constant tensor:
#      x y z
#    x 1.749970 0.000000 0.000000 
#    y 0.000000 1.776390 0.000000 
#    z 0.000000 0.000000 1.718560 
# 
# From -- ./inp_files/23404.got.cif
#   From: 2010.03.12/outbox.cif.g09.slc.cpg/sg50_12_cif.got.tgz:23404.got - 2010.04.16 13:23:21.
