data_PCOD8205014
_publ_section_title
;
Structure prediction by ZEFSAII (Michael W. Deem and Ramdas Pophale) SiO2 
 PCOD8205014
Probable space group: P B A N
;
_chemical_formula_sum "Si O2"
_cell_formula_units_Z 48
_cell_length_a 7.424847
_cell_length_b 33.199791
_cell_length_c 8.536710
_cell_angle_alpha 90.000000
_cell_angle_beta 90.000000
_cell_angle_gamma 90.000000
_cell_volume 2104.327772
_symmetry_space_group_name_H-M "P B A N"
_symmetry_group_IT_number 50
_space_group.IT_coordinate_system_code '2'
_symmetry_cell_setting 'orthorhombic'
loop_
_space_group_symop_operation_xyz
x,y,z
1/2-x,1/2-y,z
x,1/2-y,-z
1/2-x,y,-z
-x,-y,-z
1/2+x,1/2+y,-z
-x,1/2+y,z
1/2+x,-y,z
loop_
_atom_site_type_symbol
_atom_site_label
_atom_site_fract_x
_atom_site_fract_y
_atom_site_fract_z
Si Si1 0.106884 0.059092 0.693487
Si Si2 0.739053 0.794461 0.184936
Si Si3 0.523601 0.358138 0.827637
Si Si4 0.558341 0.356426 0.191624
Si Si5 0.419400 0.932360 0.390230
Si Si6 0.707386 0.007689 0.181207
O O1 0.071503 0.104630 0.742386
O O2 0.078522 0.053615 0.507620
O O3 0.978687 0.030293 0.796923
O O4 0.298184 0.038675 0.746636
O O5 0.750000 0.750000 0.262605
O O6 0.554806 0.816666 0.240328
O O7 0.914111 0.819763 0.235348
O O8 0.750000 0.789975 0.000000
O O9 0.729429 0.349859 0.781630
O O10 0.508737 0.366304 0.012440
O O11 0.500659 0.393965 0.297892
O O12 0.250000 0.919477 0.500000
O O13 0.362614 0.967616 0.273078
O O14 0.750000 0.007387 0.000000
#
# Coordination Sequence:
#
# PCOD8205014 Si02
#       6
#     8   8   8   8   8   8
#     4  11  23  38  56  84 120 160 207 255 301 368
#     4   9  20  37  61  99 128 149 196 254 307 369
#     4  10  20  37  62  90 120 161 209 242 305 375
#     4  10  19  37  65  86 122 164 196 256 303 359
#     4  10  20  37  60  83 119 162 209 253 303 364
#     4  11  22  37  56  83 118 157 204 259 304 356
#
# _framework density 22.810134000000001
#
# number of rings (size 3 to 8) (size 9 to 14) (size 15 to 20)
#    0.000    1.833    3.333    2.000    0.000    4.000 
#    0.000    5.833    0.000    2.000    0.000    0.000 
#    0.000    0.000    0.000    0.000    0.000    0.000 
#
# Total GULP energy -595062.422958 kJ/mol
# GULP energy per Si atom -12397.133812 kJ/mol
# Density = 2.275822 g / cm^3
# Si number density = 22.810134 Si / 1000 Ang^3
#
#
#
# Elastic Constant Matrix: (Units=GPa)
#
#
# Indices 1 2 3 4 5 6 
#
# 1 68.8290 34.9329 3.3744 0.0000 0.0000 0.0000
# 2 34.9329 176.0439 43.3984 0.0000 0.0000 0.0000
# 3 3.3744 43.3984 105.4870 0.0000 0.0000 0.0000
# 4 0.0000 0.0000 0.0000 11.9425 0.0000 0.0000
# 5 0.0000 0.0000 0.0000 0.0000 10.4421 0.0000
# 6 0.0000 0.0000 0.0000 0.0000 0.0000 32.7594
#
#
#
# Elastic Compliance Matrix: (Units=1/GPa)
#
#
# Indices 1 2 3 4 5 6 
#
# 1 0.016232 -0.003442 0.000897 0.000000 0.000000 0.000000
# 2 -0.003442 0.007051 -0.002791 0.000000 0.000000 0.000000
# 3 0.000897 -0.002791 0.010599 0.000000 0.000000 0.000000
# 4 0.000000 0.000000 0.000000 0.083734 0.000000 0.000000
# 5 0.000000 0.000000 0.000000 0.000000 0.095766 0.000000
# 6 0.000000 0.000000 0.000000 0.000000 0.000000 0.030526
#
#
# Mechanical properties :
#
#
# Convention : Reuss Voigt Hill
#
# Bulk Modulus (GPa) = 43.08424 57.08568 50.08496
# Shear Modulus (GPa) = 19.06090 28.93911 24.00000
#
# Velocity S-wave (km/s) = 2.89387 3.56574 3.24723
# Velocity P-wave (km/s) = 5.48591 6.48332 6.00536
#
# Compressibility (1/GPa) = 0.02321034
#
# Stress axis : x y z
#
# Youngs Moduli (GPa) = 61.60784 141.81534 94.34526
#
# Poissons Ratio (x) = 0.48813 -0.08461
# Poissons Ratio (y) = 0.21205 0.26331
# Poissons Ratio (z) = -0.05525 0.39580
#
# Static dielectric constant tensor:
#      x y z
#    x 5.033820 0.000000 0.000000 
#    y 0.000000 4.382890 0.000000 
#    z 0.000000 0.000000 4.097930 
# 
# 
# High freq. dielectric constant tensor:
#      x y z
#    x 1.928280 0.000000 0.000000 
#    y 0.000000 1.889900 0.000000 
#    z 0.000000 0.000000 1.890450 
# 
# From -- ./inp_files/10053.got.cif
#   From: 2010.03.12/outbox.cif.g09.slc.cpg/sg50_6_cif.got.tgz:10053.got - 2010.04.16 13:23:21.
