data_PCOD8205811
_publ_section_title
;
Structure prediction by ZEFSAII (Michael W. Deem and Ramdas Pophale) SiO2 
 PCOD8205811
Probable space group: P B A N
;
_chemical_formula_sum "Si O2"
_cell_formula_units_Z 40
_cell_length_a 12.391395
_cell_length_b 13.334785
_cell_length_c 10.645864
_cell_angle_alpha 90.000000
_cell_angle_beta 90.000000
_cell_angle_gamma 90.000000
_cell_volume 1759.086246
_symmetry_space_group_name_H-M "P B A N"
_symmetry_group_IT_number 50
_space_group.IT_coordinate_system_code '2'
_symmetry_cell_setting 'orthorhombic'
loop_
_space_group_symop_operation_xyz
x,y,z
1/2-x,1/2-y,z
x,1/2-y,-z
1/2-x,y,-z
-x,-y,-z
1/2+x,1/2+y,-z
-x,1/2+y,z
1/2+x,-y,z
loop_
_atom_site_type_symbol
_atom_site_label
_atom_site_fract_x
_atom_site_fract_y
_atom_site_fract_z
Si Si1 0.126129 0.488806 0.340896
Si Si2 0.320392 0.150418 0.681505
Si Si3 0.987367 0.359367 0.491205
Si Si4 0.356248 0.557244 0.934151
Si Si5 0.418768 0.357868 0.049666
O O1 0.244161 0.442557 0.351050
O O2 0.031134 0.401667 0.354592
O O3 0.129155 0.555828 0.215675
O O4 0.101077 0.563921 0.455772
O O5 0.250000 0.250000 0.695683
O O6 0.402927 0.154905 0.568770
O O7 0.390406 0.129578 0.805132
O O8 0.931234 0.250000 0.500000
O O9 0.455592 0.623456 0.983048
O O10 0.250000 0.606154 0.000000
O O11 0.353926 0.440826 0.972891
O O12 0.382225 0.250000 0.000000
#
# Coordination Sequence:
#
# PCOD8205811 Si02
#       5
#     8   8   8   8   8
#     4  11  23  39  67 100 135 180 226 294 355 416
#     4  12  22  40  69 102 134 178 240 293 358 416
#     4  11  24  42  66 101 140 181 240 291 357 423
#     4  11  23  43  65  95 135 181 226 285 355 419
#     4  11  25  40  65 100 133 174 233 290 349 425
#
# _framework density 22.739079
#
# number of rings (size 3 to 8) (size 9 to 14) (size 15 to 20)
#    0.000    0.800    6.000    1.800    0.000    0.400 
#    0.000    0.000    0.000    9.600    0.000    0.000 
#    0.000    0.000    0.000    0.000    0.000    0.000 
#
# Total GULP energy -495652.119012 kJ/mol
# GULP energy per Si atom -12391.302975 kJ/mol
# Density = 2.268732 g / cm^3
# Si number density = 22.739079 Si / 1000 Ang^3
#
#
#
# Elastic Constant Matrix: (Units=GPa)
#
#
# Indices 1 2 3 4 5 6 
#
# 1 117.3750 24.1465 27.1371 0.0000 0.0000 0.0000
# 2 24.1465 89.3794 -6.3829 0.0000 0.0000 0.0000
# 3 27.1371 -6.3829 87.1531 0.0000 0.0000 0.0000
# 4 0.0000 0.0000 0.0000 21.1290 0.0000 0.0000
# 5 0.0000 0.0000 0.0000 0.0000 -3.1794 0.0000
# 6 0.0000 0.0000 0.0000 0.0000 0.0000 20.9632
#
#
#
# Elastic Compliance Matrix: (Units=1/GPa)
#
#
# Indices 1 2 3 4 5 6 
#
# 1 0.009877 -0.002903 -0.003288 0.000000 0.000000 0.000000
# 2 -0.002903 0.012100 0.001790 0.000000 0.000000 0.000000
# 3 -0.003288 0.001790 0.012629 0.000000 0.000000 0.000000
# 4 0.000000 0.000000 0.000000 0.047328 0.000000 0.000000
# 5 0.000000 0.000000 0.000000 0.000000 -0.314523 0.000000
# 6 0.000000 0.000000 0.000000 0.000000 0.000000 0.047703
#
#
# Mechanical properties :
#
#
# Convention : Reuss Voigt Hill
#
# Bulk Modulus (GPa) = 38.75316 42.63432 40.69374
# Shear Modulus (GPa) = -29.85395 24.38299 -2.73548
#
# Velocity S-wave (km/s) = -3.62732 3.27814 -1.09800
# Velocity P-wave (km/s) = 0.68095 5.75486 4.04071
#
# Compressibility (1/GPa) = 0.02580435
#
# Stress axis : x y z
#
# Youngs Moduli (GPa) = 101.24367 82.64169 79.18287
#
# Poissons Ratio (x) = 0.23993 0.26036
# Poissons Ratio (y) = 0.29393 -0.14175
# Poissons Ratio (z) = 0.33290 -0.14794
#
# Static dielectric constant tensor:
#      x y z
#    x 4.092520 0.000000 0.000000 
#    y 0.000000 4.036860 0.000000 
#    z 0.000000 0.000000 4.259740 
# 
# 
# High freq. dielectric constant tensor:
#      x y z
#    x 1.896560 0.000000 0.000000 
#    y 0.000000 1.894030 0.000000 
#    z 0.000000 0.000000 1.892240 
# 
# From -- ./inp_files/20017.got.cif
#   From: 2010.03.12/outbox.cif.g09.slc.cpg/sg50_11_cif.got.tgz:20017.got - 2010.04.16 13:23:21.
