data_PCOD8205902
_publ_section_title
;
Structure prediction by ZEFSAII (Michael W. Deem and Ramdas Pophale) SiO2 
 PCOD8205902
Probable space group: P B A N
;
_chemical_formula_sum "Si O2"
_cell_formula_units_Z 34
_cell_length_a 29.035665
_cell_length_b 5.179625
_cell_length_c 9.304992
_cell_angle_alpha 90.000000
_cell_angle_beta 90.000000
_cell_angle_gamma 90.000000
_cell_volume 1399.413630
_symmetry_space_group_name_H-M "P B A N"
_symmetry_group_IT_number 50
_space_group.IT_coordinate_system_code '2'
_symmetry_cell_setting 'orthorhombic'
loop_
_space_group_symop_operation_xyz
x,y,z
1/2-x,1/2-y,z
x,1/2-y,-z
1/2-x,y,-z
-x,-y,-z
1/2+x,1/2+y,-z
-x,1/2+y,z
1/2+x,-y,z
loop_
_atom_site_type_symbol
_atom_site_label
_atom_site_fract_x
_atom_site_fract_y
_atom_site_fract_z
Si Si1 0.527076 0.323912 0.697302
Si Si2 0.375211 0.250000 0.000000
Si Si3 0.609849 0.250000 0.500000
Si Si4 0.063470 0.750000 0.000000
Si Si5 0.331123 0.250000 0.500000
Si Si6 0.250000 0.750000 0.000000
Si Si7 0.796422 0.882283 0.801991
O O1 0.500577 0.575946 0.640421
O O2 0.578790 0.328373 0.635895
O O3 0.529735 0.310937 0.868349
O O4 0.405983 0.499356 0.972391
O O5 0.343701 0.240057 0.858146
O O6 0.639337 0.500275 0.452273
O O7 0.299290 0.363963 0.370950
O O8 0.288410 0.649131 0.115262
O O9 0.750000 0.750000 0.859223
#
# Coordination Sequence:
#
# PCOD8205902 Si02
#       7
#     8   4   4   4   4   2   8
#     4  12  24  44  71 101 140 188 238 298 362 453
#     4  12  23  43  70 100 144 194 239 311 366 451
#     4  12  26  49  69 108 141 196 241 302 383 447
#     4  12  25  41  67 106 141 182 241 302 375 429
#     4  12  29  47  74 108 155 188 251 324 372 437
#     4  12  24  48  82 106 154 196 276 296 392 456
#     4  12  26  47  73 109 144 205 254 312 375 455
#
# _framework density 24.29589
#
# number of rings (size 3 to 8) (size 9 to 14) (size 15 to 20)
#    0.000    0.000    2.353    8.118    3.294    0.000 
#    0.000    0.000    0.000    0.000    0.000    0.000 
#    0.000    0.000    0.000    0.000    0.000    0.000 
#
# Total GULP energy -421271.752270 kJ/mol
# GULP energy per Si atom -12390.345655 kJ/mol
# Density = 2.424059 g / cm^3
# Si number density = 24.295890 Si / 1000 Ang^3
#
#
#
# Elastic Constant Matrix: (Units=GPa)
#
#
# Indices 1 2 3 4 5 6 
#
# 1 79.6873 48.0813 10.9703 0.0000 0.0000 0.0000
# 2 48.0813 162.6334 18.3847 0.0000 0.0000 0.0000
# 3 10.9703 18.3847 138.8918 0.0000 0.0000 0.0000
# 4 0.0000 0.0000 0.0000 35.0168 0.0000 0.0000
# 5 0.0000 0.0000 0.0000 0.0000 66.7270 0.0000
# 6 0.0000 0.0000 0.0000 0.0000 0.0000 25.7082
#
#
#
# Elastic Compliance Matrix: (Units=1/GPa)
#
#
# Indices 1 2 3 4 5 6 
#
# 1 0.015326 -0.004461 -0.000620 0.000000 0.000000 0.000000
# 2 -0.004461 0.007541 -0.000646 0.000000 0.000000 0.000000
# 3 -0.000620 -0.000646 0.007334 0.000000 0.000000 0.000000
# 4 0.000000 0.000000 0.000000 0.028558 0.000000 0.000000
# 5 0.000000 0.000000 0.000000 0.000000 0.014986 0.000000
# 6 0.000000 0.000000 0.000000 0.000000 0.000000 0.038898
#
#
# Mechanical properties :
#
#
# Convention : Reuss Voigt Hill
#
# Bulk Modulus (GPa) = 53.34056 59.56502 56.45279
# Shear Modulus (GPa) = 38.35946 45.74214 42.05080
#
# Velocity S-wave (km/s) = 3.97778 4.34373 4.16478
# Velocity P-wave (km/s) = 6.56500 7.05174 6.81272
#
# Compressibility (1/GPa) = 0.01874746
#
# Stress axis : x y z
#
# Youngs Moduli (GPa) = 65.24845 132.61468 136.34565
#
# Poissons Ratio (x) = 0.59159 0.08454
# Poissons Ratio (y) = 0.29107 0.08805
# Poissons Ratio (z) = 0.04046 0.08564
#
# Static dielectric constant tensor:
#      x y z
#    x 4.488080 0.000000 0.000000 
#    y 0.000000 4.450290 0.000000 
#    z 0.000000 0.000000 4.212760 
# 
# 
# High freq. dielectric constant tensor:
#      x y z
#    x 1.973590 0.000000 0.000000 
#    y 0.000000 1.968940 0.000000 
#    z 0.000000 0.000000 1.979750 
# 
# From -- ./inp_files/8056.got.cif
#   From: 2010.03.12/outbox.cif.g09.slc.cpg/sg50_5_cif.got.tgz:8056.got - 2010.04.16 13:23:21.
