data_PCOD8205215
_publ_section_title
;
Structure prediction by ZEFSAII (Michael W. Deem and Ramdas Pophale) SiO2 
 PCOD8205215
Probable space group: P B A N
;
_chemical_formula_sum "Si O2"
_cell_formula_units_Z 20
_cell_length_a 13.204669
_cell_length_b 9.696513
_cell_length_c 6.771392
_cell_angle_alpha 90.000000
_cell_angle_beta 90.000000
_cell_angle_gamma 90.000000
_cell_volume 867.003917
_symmetry_space_group_name_H-M "P B A N"
_symmetry_group_IT_number 50
_space_group.IT_coordinate_system_code '2'
_symmetry_cell_setting 'orthorhombic'
loop_
_space_group_symop_operation_xyz
x,y,z
1/2-x,1/2-y,z
x,1/2-y,-z
1/2-x,y,-z
-x,-y,-z
1/2+x,1/2+y,-z
-x,1/2+y,z
1/2+x,-y,z
loop_
_atom_site_type_symbol
_atom_site_label
_atom_site_fract_x
_atom_site_fract_y
_atom_site_fract_z
Si Si1 0.992275 0.250000 0.000000
Si Si2 0.652914 0.670609 0.301911
Si Si3 0.690884 0.381693 0.197879
O O1 0.063047 0.161038 0.855551
O O2 0.923960 0.345708 0.861172
O O3 0.750000 0.750000 0.213443
O O4 0.617735 0.750000 0.500000
O O5 0.685780 0.511642 0.346734
O O6 0.750000 0.250000 0.294479
O O7 0.750000 0.426431 0.000000
#
# Coordination Sequence:
#
# PCOD8205215 Si02
#       3
#     4   8   8
#     4  10  20  38  68  92 122 162 206 260 312 368
#     4  11  23  38  60  92 127 165 206 253 309 369
#     4   9  20  40  66  92 124 168 208 255 317 371
#
# _framework density 23.067945000000002
#
# number of rings (size 3 to 8) (size 9 to 14) (size 15 to 20)
#    0.000    2.400    0.000    4.200    0.000    4.800 
#    0.000   12.000    0.000   13.200    0.000    0.000 
#    0.000    0.000    0.000    0.000    0.000    0.000 
#
# Total GULP energy -247820.835052 kJ/mol
# GULP energy per Si atom -12391.041753 kJ/mol
# Density = 2.301544 g / cm^3
# Si number density = 23.067945 Si / 1000 Ang^3
#
#
#
# Elastic Constant Matrix: (Units=GPa)
#
#
# Indices 1 2 3 4 5 6 
#
# 1 150.9098 48.8147 29.3111 0.0000 0.0000 0.0000
# 2 48.8147 222.0319 50.5787 0.0000 0.0000 0.0000
# 3 29.3111 50.5787 59.0545 0.0000 0.0000 0.0000
# 4 0.0000 0.0000 0.0000 8.4601 0.0000 0.0000
# 5 0.0000 0.0000 0.0000 0.0000 9.5245 0.0000
# 6 0.0000 0.0000 0.0000 0.0000 0.0000 11.9080
#
#
#
# Elastic Compliance Matrix: (Units=1/GPa)
#
#
# Indices 1 2 3 4 5 6 
#
# 1 0.007507 -0.000996 -0.002873 0.000000 0.000000 0.000000
# 2 -0.000996 0.005728 -0.004411 0.000000 0.000000 0.000000
# 3 -0.002873 -0.004411 0.022138 0.000000 0.000000 0.000000
# 4 0.000000 0.000000 0.000000 0.118202 0.000000 0.000000
# 5 0.000000 0.000000 0.000000 0.000000 0.104993 0.000000
# 6 0.000000 0.000000 0.000000 0.000000 0.000000 0.083977
#
#
# Mechanical properties :
#
#
# Convention : Reuss Voigt Hill
#
# Bulk Modulus (GPa) = 53.15832 76.60057 64.87945
# Shear Modulus (GPa) = 13.68461 26.19797 19.94129
#
# Velocity S-wave (km/s) = 2.43827 3.37365 2.94336
# Velocity P-wave (km/s) = 5.56967 6.96089 6.30377
#
# Compressibility (1/GPa) = 0.01881173
#
# Stress axis : x y z
#
# Youngs Moduli (GPa) = 133.21570 174.58987 45.17204
#
# Poissons Ratio (x) = 0.17388 0.12977
# Poissons Ratio (y) = 0.13267 0.19927
# Poissons Ratio (z) = 0.38271 0.77017
#
# Static dielectric constant tensor:
#      x y z
#    x 4.294540 0.000000 0.000000 
#    y 0.000000 4.165570 0.000000 
#    z 0.000000 0.000000 3.613460 
# 
# 
# High freq. dielectric constant tensor:
#      x y z
#    x 1.921430 0.000000 0.000000 
#    y 0.000000 1.918320 0.000000 
#    z 0.000000 0.000000 1.880220 
# 
# From -- ./inp_files/10235.got.cif
#   From: 2010.03.12/outbox.cif.g09.slc.cpg/sg50_6_cif.got.tgz:10235.got - 2010.04.16 13:23:21.
