data_PCOD8205956
_publ_section_title
;
Structure prediction by ZEFSAII (Michael W. Deem and Ramdas Pophale) SiO2 
 PCOD8205956
Probable space group: P M M A
;
_chemical_formula_sum "Si O2"
_cell_formula_units_Z 44
_cell_length_a 8.844634
_cell_length_b 27.964962
_cell_length_c 9.262496
_cell_angle_alpha 90.000000
_cell_angle_beta 90.000000
_cell_angle_gamma 90.000000
_cell_volume 2290.984406
_symmetry_space_group_name_H-M "P M M A"
_symmetry_group_IT_number 51
_symmetry_cell_setting 'orthorhombic'
loop_
_space_group_symop_operation_xyz
x,y,z
1/2-x,-y,z
1/2+x,-y,-z
-x,y,-z
-x,-y,-z
1/2+x,y,-z
1/2-x,y,z
x,-y,z
loop_
_atom_site_type_symbol
_atom_site_label
_atom_site_fract_x
_atom_site_fract_y
_atom_site_fract_z
Si Si1 0.075489 0.908166 0.154260
Si Si2 0.929186 0.000000 0.160720
Si Si3 0.425392 0.802170 0.156408
Si Si4 0.925749 0.444280 0.649363
Si Si5 0.926724 0.277991 0.345892
Si Si6 0.426697 0.369266 0.847443
O O1 0.250000 0.922290 0.137875
O O2 0.055899 0.855678 0.224363
O O3 0.990290 0.951499 0.239933
O O4 0.000000 0.903524 0.000000
O O5 0.750000 0.000000 0.158530
O O6 0.000000 0.000000 0.000000
O O7 0.250000 0.788931 0.138455
O O8 0.502832 0.767962 0.270565
O O9 0.500000 0.796348 0.000000
O O10 0.750000 0.431811 0.641181
O O11 0.955660 0.500000 0.676117
O O12 0.000000 0.427100 0.500000
O O13 0.000859 0.417006 0.782224
O O14 0.750000 0.269231 0.364032
O O15 0.963626 0.324753 0.253967
O O16 0.000000 0.286044 0.500000
O O17 0.250000 0.377955 0.867305
O O18 0.500000 0.357632 0.000000
#
# Coordination Sequence:
#
# PCOD8205956 Si02
#       6
#     8   4   8   8   8   8
#     4   9  16  26  41  64  96 133 171 213 261 314
#     4  10  16  22  36  60  93 132 171 212 259 312
#     4  10  20  34  54  79 108 142 180 223 273 325
#     4  10  21  38  61  88 118 153 191 231 275 324
#     4  11  24  40  59  82 109 142 181 225 273 327
#     4  11  24  40  60  86 115 149 186 228 277 327
#
# _framework density 19.205715999999999
#
# number of rings (size 3 to 8) (size 9 to 14) (size 15 to 20)
#    0.000    1.818    0.000    5.727    0.000    9.455 
#    0.000    0.000    0.000    0.000    0.000    0.636 
#    0.000    0.000    0.000    0.000    0.000    0.000 
#
# Total GULP energy -545547.713926 kJ/mol
# GULP energy per Si atom -12398.811680 kJ/mol
# Density = 1.916200 g / cm^3
# Si number density = 19.205716 Si / 1000 Ang^3
#
#
#
# Elastic Constant Matrix: (Units=GPa)
#
#
# Indices 1 2 3 4 5 6 
#
# 1 157.8492 86.2540 70.9064 0.0000 0.0000 0.0000
# 2 86.2540 118.3621 57.6039 0.0000 0.0000 0.0000
# 3 70.9064 57.6039 107.2044 0.0000 0.0000 0.0000
# 4 0.0000 0.0000 0.0000 0.5053 0.0000 0.0000
# 5 0.0000 0.0000 0.0000 0.0000 31.1359 0.0000
# 6 0.0000 0.0000 0.0000 0.0000 0.0000 12.7661
#
#
#
# Elastic Compliance Matrix: (Units=1/GPa)
#
#
# Indices 1 2 3 4 5 6 
#
# 1 0.011845 -0.006525 -0.004328 0.000000 0.000000 0.000000
# 2 -0.006525 0.015035 -0.003763 0.000000 0.000000 0.000000
# 3 -0.004328 -0.003763 0.014213 0.000000 0.000000 0.000000
# 4 0.000000 0.000000 0.000000 1.978828 0.000000 0.000000
# 5 0.000000 0.000000 0.000000 0.000000 0.032117 0.000000
# 6 0.000000 0.000000 0.000000 0.000000 0.000000 0.078333
#
#
# Mechanical properties :
#
#
# Convention : Reuss Voigt Hill
#
# Bulk Modulus (GPa) = 84.31741 90.32713 87.32227
# Shear Modulus (GPa) = 2.31101 20.12491 11.21796
#
# Velocity S-wave (km/s) = 1.09814 3.24058 2.41943
# Velocity P-wave (km/s) = 6.75318 7.81891 7.30550
#
# Compressibility (1/GPa) = 0.01185995
#
# Stress axis : x y z
#
# Youngs Moduli (GPa) = 84.42284 66.51056 70.36028
#
# Poissons Ratio (x) = 0.43401 0.30453
# Poissons Ratio (y) = 0.55090 0.26475
# Poissons Ratio (z) = 0.36540 0.25027
#
# Static dielectric constant tensor:
#      x y z
#    x 3.691570 0.000000 0.000000 
#    y 0.000000 4.286300 0.000000 
#    z 0.000000 0.000000 3.128850 
# 
# 
# High freq. dielectric constant tensor:
#      x y z
#    x 1.769160 0.000000 0.000000 
#    y 0.000000 1.772530 0.000000 
#    z 0.000000 0.000000 1.704660 
# 
# From -- ./inp_files/5806.got.cif
#   From: 2010.03.12/outbox.cif.g09.slc.cpg/sg51_3_cif.got.tgz:5806.got - 2010.04.16 13:43:02.
