data_PCOD8205935
_publ_section_title
;
Structure prediction by ZEFSAII (Michael W. Deem and Ramdas Pophale) SiO2 
 PCOD8205935
Probable space group: P M M A
;
_chemical_formula_sum "Si O2"
_cell_formula_units_Z 40
_cell_length_a 8.884349
_cell_length_b 20.972814
_cell_length_c 14.424388
_cell_angle_alpha 90.000000
_cell_angle_beta 90.000000
_cell_angle_gamma 90.000000
_cell_volume 2687.693318
_symmetry_space_group_name_H-M "P M M A"
_symmetry_group_IT_number 51
_symmetry_cell_setting 'orthorhombic'
loop_
_space_group_symop_operation_xyz
x,y,z
1/2-x,-y,z
1/2+x,-y,-z
-x,y,-z
-x,-y,-z
1/2+x,y,-z
1/2-x,y,z
x,-y,z
loop_
_atom_site_type_symbol
_atom_site_label
_atom_site_fract_x
_atom_site_fract_y
_atom_site_fract_z
Si Si1 0.571645 0.000000 0.399423
Si Si2 0.075507 0.762754 0.401368
Si Si3 0.425880 0.072451 0.091915
Si Si4 0.426501 0.622993 0.399955
Si Si5 0.571005 0.500000 0.397066
Si Si6 0.427365 0.885024 0.290672
O O1 0.500000 0.000000 0.500000
O O2 0.519722 0.062524 0.345715
O O3 0.750000 0.000000 0.408782
O O4 0.250000 0.769394 0.422680
O O5 0.042282 0.692869 0.355649
O O6 0.023153 0.815763 0.327922
O O7 0.000000 0.774346 0.500000
O O8 0.250000 0.073957 0.075889
O O9 0.471974 0.112956 0.182308
O O10 0.483192 0.000000 0.106760
O O11 0.500000 0.102853 0.000000
O O12 0.500000 0.627143 0.500000
O O13 0.250000 0.607779 0.407073
O O14 0.509141 0.564352 0.345810
O O15 0.750000 0.500000 0.399281
O O16 0.500000 0.500000 0.500000
O O17 0.250000 0.898760 0.303768
#
# Coordination Sequence:
#
# PCOD8205935 Si02
#       6
#     4   8   8   8   4   8
#     4  12  24  34  45  62  83 110 143 178 210 246
#     4   9  18  29  43  59  80 109 141 171 205 245
#     4   9  17  30  48  66  84 105 129 167 213 256
#     4   9  15  24  36  53  74 100 132 168 201 234
#     4  10  16  22  34  52  72 100 133 168 201 232
#     4  10  19  34  49  63  83 109 139 174 214 252
#
# _framework density 14.88265
#
# number of rings (size 3 to 8) (size 9 to 14) (size 15 to 20)
#    0.000    2.400    1.000    4.200    0.000    4.000 
#    0.000    0.000    0.000    0.000    0.000    0.000 
#    0.000    0.000    0.000    0.900    0.000    8.500 
#
# Total GULP energy -495663.823202 kJ/mol
# GULP energy per Si atom -12391.595580 kJ/mol
# Density = 1.484878 g / cm^3
# Si number density = 14.882650 Si / 1000 Ang^3
#
#
#
# Elastic Constant Matrix: (Units=GPa)
#
#
# Indices 1 2 3 4 5 6 
#
# 1 73.0294 51.6883 34.4836 0.0000 0.0000 0.0000
# 2 51.6883 143.0579 55.7726 0.0000 0.0000 0.0000
# 3 34.4836 55.7726 90.1021 0.0000 0.0000 0.0000
# 4 0.0000 0.0000 0.0000 -1.5342 0.0000 0.0000
# 5 0.0000 0.0000 0.0000 0.0000 18.0599 0.0000
# 6 0.0000 0.0000 0.0000 0.0000 0.0000 17.6588
#
#
#
# Elastic Compliance Matrix: (Units=1/GPa)
#
#
# Indices 1 2 3 4 5 6 
#
# 1 0.019475 -0.005445 -0.004083 0.000000 0.000000 0.000000
# 2 -0.005445 0.010736 -0.004562 0.000000 0.000000 0.000000
# 3 -0.004083 -0.004562 0.015485 0.000000 0.000000 0.000000
# 4 0.000000 0.000000 0.000000 -0.651789 0.000000 0.000000
# 5 0.000000 0.000000 0.000000 0.000000 0.055371 0.000000
# 6 0.000000 0.000000 0.000000 0.000000 0.000000 0.056629
#
#
# Mechanical properties :
#
#
# Convention : Reuss Voigt Hill
#
# Bulk Modulus (GPa) = 57.08878 65.56427 61.32653
# Shear Modulus (GPa) = -10.86777 17.78657 3.45940
#
# Velocity S-wave (km/s) = -2.70521 3.46080 1.52627
# Velocity P-wave (km/s) = 5.35584 7.75367 6.66350
#
# Compressibility (1/GPa) = 0.01751658
#
# Stress axis : x y z
#
# Youngs Moduli (GPa) = 51.34889 93.14679 64.57933
#
# Poissons Ratio (x) = 0.50714 0.26369
# Poissons Ratio (y) = 0.27957 0.29459
# Poissons Ratio (z) = 0.20966 0.42490
#
# Static dielectric constant tensor:
#      x y z
#    x 2.913540 0.000000 0.000000 
#    y 0.000000 4.191900 0.000000 
#    z 0.000000 0.000000 2.683350 
# 
# 
# High freq. dielectric constant tensor:
#      x y z
#    x 1.577940 0.000000 0.000000 
#    y 0.000000 1.576170 0.000000 
#    z 0.000000 0.000000 1.517490 
# 
# From -- ./inp_files/21328.got.cif
#   From: 2010.03.12/outbox.cif.g09.slc.cpg/sg51_11_cif.got.tgz:21328.got - 2010.04.16 13:43:02.
