data_PCOD8205254
_publ_section_title
;
Structure prediction by ZEFSAII (Michael W. Deem and Ramdas Pophale) SiO2 
 PCOD8205254
Probable space group: P B A N
;
_chemical_formula_sum "Si O2"
_cell_formula_units_Z 52
_cell_length_a 7.851345
_cell_length_b 24.550355
_cell_length_c 10.308097
_cell_angle_alpha 90.000000
_cell_angle_beta 90.000000
_cell_angle_gamma 90.000000
_cell_volume 1986.919785
_symmetry_space_group_name_H-M "P B A N"
_symmetry_group_IT_number 50
_space_group.IT_coordinate_system_code '2'
_symmetry_cell_setting 'orthorhombic'
loop_
_space_group_symop_operation_xyz
x,y,z
1/2-x,1/2-y,z
x,1/2-y,-z
1/2-x,y,-z
-x,-y,-z
1/2+x,1/2+y,-z
-x,1/2+y,z
1/2+x,-y,z
loop_
_atom_site_type_symbol
_atom_site_label
_atom_site_fract_x
_atom_site_fract_y
_atom_site_fract_z
Si Si1 0.009795 0.416990 0.358306
Si Si2 0.801574 0.809959 0.824265
Si Si3 0.321891 0.694995 0.796985
Si Si4 0.481855 0.385476 0.355347
Si Si5 0.750000 0.053777 0.000000
Si Si6 0.305016 0.981239 0.281970
Si Si7 0.976726 0.358151 0.094750
O O1 0.044409 0.385547 0.491383
O O2 0.841579 0.454698 0.369758
O O3 0.986459 0.373735 0.246008
O O4 0.169759 0.456871 0.328278
O O5 0.750000 0.750000 0.770620
O O6 0.661158 0.829956 0.932135
O O7 0.996664 0.803842 0.880118
O O8 0.814884 0.855698 0.708832
O O9 0.250000 0.750000 0.731142
O O10 0.350373 0.651041 0.681957
O O11 0.185659 0.681151 0.907194
O O12 0.519656 0.446303 0.300488
O O13 0.743626 0.017421 0.871278
O O14 0.925515 0.090474 0.996716
#
# Coordination Sequence:
#
# PCOD8205254 Si02
#       7
#     8   8   8   8   4   8   8
#     4  11  24  43  68 100 138 185 236 301 369 439
#     4  10  21  40  72 105 146 193 241 285 363 435
#     4  10  20  41  69 100 149 187 235 289 352 430
#     4  10  22  42  64 101 149 180 235 288 361 439
#     4  10  22  46  71  96 138 184 245 300 362 420
#     4  11  24  42  70 100 135 188 235 297 369 428
#     4  11  22  43  70  98 143 190 233 306 356 420
#
# _framework density 26.17116
#
# number of rings (size 3 to 8) (size 9 to 14) (size 15 to 20)
#    0.923    0.615    4.615    0.923    2.154    3.077 
#    0.000    8.077    0.000    3.692    0.000    0.000 
#    0.000    0.000    0.000    0.000    0.000    0.000 
#
# Total GULP energy -644314.630839 kJ/mol
# GULP energy per Si atom -12390.665978 kJ/mol
# Density = 2.611159 g / cm^3
# Si number density = 26.171160 Si / 1000 Ang^3
#
#
#
# Elastic Constant Matrix: (Units=GPa)
#
#
# Indices 1 2 3 4 5 6 
#
# 1 156.3232 25.6773 48.6290 0.0000 0.0000 0.0000
# 2 25.6773 91.9060 26.7537 0.0000 0.0000 0.0000
# 3 48.6290 26.7537 104.4706 0.0000 0.0000 0.0000
# 4 0.0000 0.0000 0.0000 -2.7938 0.0000 0.0000
# 5 0.0000 0.0000 0.0000 0.0000 31.8676 0.0000
# 6 0.0000 0.0000 0.0000 0.0000 0.0000 29.5986
#
#
#
# Elastic Compliance Matrix: (Units=1/GPa)
#
#
# Indices 1 2 3 4 5 6 
#
# 1 0.007597 -0.001181 -0.003234 0.000000 0.000000 0.000000
# 2 -0.001181 0.011941 -0.002508 0.000000 0.000000 0.000000
# 3 -0.003234 -0.002508 0.011720 0.000000 0.000000 0.000000
# 4 0.000000 0.000000 0.000000 -0.357936 0.000000 0.000000
# 5 0.000000 0.000000 0.000000 0.000000 0.031380 0.000000
# 6 0.000000 0.000000 0.000000 0.000000 0.000000 0.033785
#
#
# Mechanical properties :
#
#
# Convention : Reuss Voigt Hill
#
# Bulk Modulus (GPa) = 57.43375 61.64664 59.54019
# Shear Modulus (GPa) = -20.67283 28.51048 3.91883
#
# Velocity S-wave (km/s) = -2.81358 3.30416 1.22500
# Velocity P-wave (km/s) = 3.38203 6.17762 4.98001
#
# Compressibility (1/GPa) = 0.01741137
#
# Stress axis : x y z
#
# Youngs Moduli (GPa) = 131.63143 83.74656 85.32704
#
# Poissons Ratio (x) = 0.09892 0.27593
# Poissons Ratio (y) = 0.15548 0.21401
# Poissons Ratio (z) = 0.42566 0.21004
#
# Static dielectric constant tensor:
#      x y z
#    x 5.413370 0.000000 0.000000 
#    y 0.000000 4.686480 0.000000 
#    z 0.000000 0.000000 4.310800 
# 
# 
# High freq. dielectric constant tensor:
#      x y z
#    x 2.078350 0.000000 0.000000 
#    y 0.000000 2.036950 0.000000 
#    z 0.000000 0.000000 2.034650 
# 
# From -- ./inp_files/19362.got.cif
#   From: 2010.03.12/outbox.cif.g09.slc.cpg/sg50_10_cif.got.tgz:19362.got - 2010.04.16 13:23:21.
