data_PCOD8205206
_publ_section_title
;
Structure prediction by ZEFSAII (Michael W. Deem and Ramdas Pophale) SiO2 
 PCOD8205206
Probable space group: P B A N
;
_chemical_formula_sum "Si O2"
_cell_formula_units_Z 36
_cell_length_a 8.974449
_cell_length_b 18.659956
_cell_length_c 10.106960
_cell_angle_alpha 90.000000
_cell_angle_beta 90.000000
_cell_angle_gamma 90.000000
_cell_volume 1692.540058
_symmetry_space_group_name_H-M "P B A N"
_symmetry_group_IT_number 50
_space_group.IT_coordinate_system_code '2'
_symmetry_cell_setting 'orthorhombic'
loop_
_space_group_symop_operation_xyz
x,y,z
1/2-x,1/2-y,z
x,1/2-y,-z
1/2-x,y,-z
-x,-y,-z
1/2+x,1/2+y,-z
-x,1/2+y,z
1/2+x,-y,z
loop_
_atom_site_type_symbol
_atom_site_label
_atom_site_fract_x
_atom_site_fract_y
_atom_site_fract_z
Si Si1 0.908098 0.061494 0.724647
Si Si2 0.750000 0.750000 0.000000
Si Si3 0.558648 0.085086 0.755933
Si Si4 0.250000 0.750000 0.000000
Si Si5 0.075156 0.828973 0.506705
Si Si6 0.497731 0.648634 0.046027
O O1 0.731570 0.063200 0.749437
O O2 0.967361 0.113616 0.607823
O O3 0.996717 0.081704 0.857801
O O4 0.956684 0.980071 0.704978
O O5 0.642584 0.696356 0.080586
O O6 0.522073 0.145228 0.649365
O O7 0.511264 0.118821 0.896695
O O8 0.355983 0.698678 0.087151
O O9 0.000109 0.750000 0.500000
O O10 0.250000 0.820303 0.500000
#
# Coordination Sequence:
#
# PCOD8205206 Si02
#       6
#     8   2   8   2   8   8
#     4  11  23  40  64  92 127 166 205 254 306 369
#     4  10  28  38  62  96 132 158 194 272 312 362
#     4  11  23  40  64  92 127 166 205 254 306 369
#     4  10  20  38  62  92 120 154 206 248 308 366
#     4   9  21  38  63  91 122 161 210 253 306 364
#     4  11  23  40  65  90 127 159 208 253 316 361
#
# _framework density 21.269807
#
# number of rings (size 3 to 8) (size 9 to 14) (size 15 to 20)
#    0.000    1.556    2.222    1.333    9.333    0.000 
#    0.000    0.000    0.000    2.667    0.000    0.000 
#    0.000    0.000    0.000    0.000    0.000    0.000 
#
# Total GULP energy -446039.164462 kJ/mol
# GULP energy per Si atom -12389.976791 kJ/mol
# Density = 2.122140 g / cm^3
# Si number density = 21.269807 Si / 1000 Ang^3
#
#
#
# Elastic Constant Matrix: (Units=GPa)
#
#
# Indices 1 2 3 4 5 6 
#
# 1 89.6600 38.5003 17.0039 0.0000 0.0000 0.0000
# 2 38.5003 158.5178 64.5074 0.0000 0.0000 0.0000
# 3 17.0039 64.5074 151.4806 0.0000 0.0000 0.0000
# 4 0.0000 0.0000 0.0000 1.9093 0.0000 0.0000
# 5 0.0000 0.0000 0.0000 0.0000 8.8168 0.0000
# 6 0.0000 0.0000 0.0000 0.0000 0.0000 16.5908
#
#
#
# Elastic Compliance Matrix: (Units=1/GPa)
#
#
# Indices 1 2 3 4 5 6 
#
# 1 0.012454 -0.002971 -0.000133 0.000000 0.000000 0.000000
# 2 -0.002971 0.008339 -0.003218 0.000000 0.000000 0.000000
# 3 -0.000133 -0.003218 0.007987 0.000000 0.000000 0.000000
# 4 0.000000 0.000000 0.000000 0.523762 0.000000 0.000000
# 5 0.000000 0.000000 0.000000 0.000000 0.113420 0.000000
# 6 0.000000 0.000000 0.000000 0.000000 0.000000 0.060274
#
#
# Mechanical properties :
#
#
# Convention : Reuss Voigt Hill
#
# Bulk Modulus (GPa) = 61.96828 71.07572 66.52200
# Shear Modulus (GPa) = 6.71809 24.10648 15.41229
#
# Velocity S-wave (km/s) = 1.77915 3.37020 2.69478
# Velocity P-wave (km/s) = 5.78084 6.97375 6.40513
#
# Compressibility (1/GPa) = 0.01613729
#
# Stress axis : x y z
#
# Youngs Moduli (GPa) = 80.29490 119.91225 125.20768
#
# Poissons Ratio (x) = 0.35623 0.01664
# Poissons Ratio (y) = 0.23853 0.40290
# Poissons Ratio (z) = 0.01067 0.38586
#
# Static dielectric constant tensor:
#      x y z
#    x 3.776370 0.000000 0.000000 
#    y 0.000000 4.225910 0.000000 
#    z 0.000000 0.000000 3.790940 
# 
# 
# High freq. dielectric constant tensor:
#      x y z
#    x 1.813840 0.000000 0.000000 
#    y 0.000000 1.858940 0.000000 
#    z 0.000000 0.000000 1.823350 
# 
# From -- ./inp_files/9304.got.cif
#   From: 2010.03.12/outbox.cif.g09.slc.cpg/sg50_5_cif.got.tgz:9304.got - 2010.04.16 13:23:21.
