data_PCOD8205062
_publ_section_title
;
Structure prediction by ZEFSAII (Michael W. Deem and Ramdas Pophale) SiO2 
 PCOD8205062
Probable space group: P B A N
;
_chemical_formula_sum "Si O2"
_cell_formula_units_Z 44
_cell_length_a 27.880790
_cell_length_b 9.273580
_cell_length_c 9.161456
_cell_angle_alpha 90.000000
_cell_angle_beta 90.000000
_cell_angle_gamma 90.000000
_cell_volume 2368.737842
_symmetry_space_group_name_H-M "P B A N"
_symmetry_group_IT_number 50
_space_group.IT_coordinate_system_code '2'
_symmetry_cell_setting 'orthorhombic'
loop_
_space_group_symop_operation_xyz
x,y,z
1/2-x,1/2-y,z
x,1/2-y,-z
1/2-x,y,-z
-x,-y,-z
1/2+x,1/2+y,-z
-x,1/2+y,z
1/2+x,-y,z
loop_
_atom_site_type_symbol
_atom_site_label
_atom_site_fract_x
_atom_site_fract_y
_atom_site_fract_z
Si Si1 0.303161 0.235918 0.264821
Si Si2 0.374072 0.750000 0.500000
Si Si3 0.097833 0.292124 0.157495
Si Si4 0.959543 0.873140 0.608070
Si Si5 0.062925 0.947713 0.659191
Si Si6 0.196664 0.008757 0.490975
O O1 0.250000 0.250000 0.193118
O O2 0.344811 0.230423 0.144004
O O3 0.308598 0.374903 0.364876
O O4 0.312456 0.089645 0.356117
O O5 0.406748 0.700924 0.640847
O O6 0.340625 0.616732 0.455870
O O7 0.078668 0.179352 0.275479
O O8 0.083730 0.453227 0.210439
O O9 0.075750 0.250000 0.000000
O O10 0.978879 0.750000 0.500000
O O11 0.006513 0.929236 0.693841
O O12 0.932418 0.987632 0.505449
O O13 0.250000 0.942259 0.500000
#
# Coordination Sequence:
#
# PCOD8205062 Si02
#       6
#     8   4   8   8   8   8
#     4   9  18  35  53  77 109 144 184 222 273 334
#     4  12  17  28  54  86 112 130 177 238 280 338
#     4  11  22  35  54  79 111 147 186 229 273 332
#     4   9  19  36  55  77 105 140 189 228 272 328
#     4  10  20  33  56  80 104 144 182 229 280 327
#     4   9  18  30  52  83 111 137 174 235 286 321
#
# _framework density 18.575294
#
# number of rings (size 3 to 8) (size 9 to 14) (size 15 to 20)
#    0.000    2.182    2.727    2.455    5.091    1.091 
#    0.000    0.000    0.000    0.000    0.000    0.000 
#    0.000    0.000    0.000    0.000    0.000    0.000 
#
# Total GULP energy -545169.384721 kJ/mol
# GULP energy per Si atom -12390.213289 kJ/mol
# Density = 1.853302 g / cm^3
# Si number density = 18.575294 Si / 1000 Ang^3
#
#
#
# Elastic Constant Matrix: (Units=GPa)
#
#
# Indices 1 2 3 4 5 6 
#
# 1 106.1121 43.8336 35.7767 0.0000 0.0000 0.0000
# 2 43.8336 83.0904 24.5201 0.0000 0.0000 0.0000
# 3 35.7767 24.5201 63.3159 0.0000 0.0000 0.0000
# 4 0.0000 0.0000 0.0000 6.9174 0.0000 0.0000
# 5 0.0000 0.0000 0.0000 0.0000 13.2662 0.0000
# 6 0.0000 0.0000 0.0000 0.0000 0.0000 36.9451
#
#
#
# Elastic Compliance Matrix: (Units=1/GPa)
#
#
# Indices 1 2 3 4 5 6 
#
# 1 0.013571 -0.005528 -0.005528 0.000000 0.000000 0.000000
# 2 -0.005528 0.015840 -0.003011 0.000000 0.000000 0.000000
# 3 -0.005528 -0.003011 0.020083 0.000000 0.000000 0.000000
# 4 0.000000 0.000000 0.000000 0.144563 0.000000 0.000000
# 5 0.000000 0.000000 0.000000 0.000000 0.075379 0.000000
# 6 0.000000 0.000000 0.000000 0.000000 0.000000 0.027067
#
#
# Mechanical properties :
#
#
# Convention : Reuss Voigt Hill
#
# Bulk Modulus (GPa) = 46.81302 51.19768 49.00535
# Shear Modulus (GPa) = 15.07126 21.31828 18.19477
#
# Velocity S-wave (km/s) = 2.85153 3.39140 3.13312
# Velocity P-wave (km/s) = 6.00817 6.55420 6.28712
#
# Compressibility (1/GPa) = 0.02136158
#
# Stress axis : x y z
#
# Youngs Moduli (GPa) = 73.68485 63.13185 49.79320
#
# Poissons Ratio (x) = 0.34901 0.27524
# Poissons Ratio (y) = 0.40735 0.14990
# Poissons Ratio (z) = 0.40730 0.19006
#
# Static dielectric constant tensor:
#      x y z
#    x 3.892970 0.000000 0.000000 
#    y 0.000000 3.516120 0.000000 
#    z 0.000000 0.000000 2.914020 
# 
# 
# High freq. dielectric constant tensor:
#      x y z
#    x 1.748890 0.000000 0.000000 
#    y 0.000000 1.716770 0.000000 
#    z 0.000000 0.000000 1.663750 
# 
# From -- ./inp_files/16841.got.cif
#   From: 2010.03.12/outbox.cif.g09.slc.cpg/sg50_9_cif.got.tgz:16841.got - 2010.04.16 13:23:21.
