data_PCOD8205872
_publ_section_title
;
Structure prediction by ZEFSAII (Michael W. Deem and Ramdas Pophale) SiO2 
 PCOD8205872
Probable space group: P B A N
;
_chemical_formula_sum "Si O2"
_cell_formula_units_Z 26
_cell_length_a 9.606833
_cell_length_b 10.948160
_cell_length_c 11.326273
_cell_angle_alpha 90.000000
_cell_angle_beta 90.000000
_cell_angle_gamma 90.000000
_cell_volume 1191.265055
_symmetry_space_group_name_H-M "P B A N"
_symmetry_group_IT_number 50
_space_group.IT_coordinate_system_code '2'
_symmetry_cell_setting 'orthorhombic'
loop_
_space_group_symop_operation_xyz
x,y,z
1/2-x,1/2-y,z
x,1/2-y,-z
1/2-x,y,-z
-x,-y,-z
1/2+x,1/2+y,-z
-x,1/2+y,z
1/2+x,-y,z
loop_
_atom_site_type_symbol
_atom_site_label
_atom_site_fract_x
_atom_site_fract_y
_atom_site_fract_z
Si Si1 0.907198 0.617926 0.541798
Si Si2 0.250000 0.250000 0.000000
Si Si3 0.584374 0.908880 0.810238
Si Si4 0.774045 0.382634 0.137337
O O1 0.965722 0.750000 0.500000
O O2 0.750000 0.592927 0.500000
O O3 0.906126 0.646743 0.681052
O O4 0.000000 0.500000 0.500000
O O5 0.347992 0.329121 0.914897
O O6 0.425681 0.936472 0.840938
O O7 0.660126 0.037258 0.798049
O O8 0.750000 0.250000 0.193381
O O9 0.750000 0.380983 0.000000
#
# Coordination Sequence:
#
# PCOD8205872 Si02
#       4
#     8   2   8   8
#     4  11  26  49  73 104 142 188 247 300 355 430
#     4  12  24  40  74 104 144 192 230 288 380 420
#     4  12  26  44  73 102 147 186 238 293 366 433
#     4  11  25  43  68 106 144 179 236 284 358 432
#
# _framework density 21.825537000000001
#
# number of rings (size 3 to 8) (size 9 to 14) (size 15 to 20)
#    0.000    0.615    1.538    6.462    8.615    0.615 
#    0.000    0.000    0.000    0.000    0.000    0.000 
#    0.000    0.000    0.000    0.000    0.000    0.000 
#
# Total GULP energy -322270.557775 kJ/mol
# GULP energy per Si atom -12395.021453 kJ/mol
# Density = 2.177586 g / cm^3
# Si number density = 21.825537 Si / 1000 Ang^3
#
#
#
# Elastic Constant Matrix: (Units=GPa)
#
#
# Indices 1 2 3 4 5 6 
#
# 1 185.2780 79.6247 43.7141 0.0000 0.0000 0.0000
# 2 79.6247 186.2577 57.7938 0.0000 0.0000 0.0000
# 3 43.7141 57.7938 155.6132 0.0000 0.0000 0.0000
# 4 0.0000 0.0000 0.0000 50.3840 0.0000 0.0000
# 5 0.0000 0.0000 0.0000 0.0000 23.8729 0.0000
# 6 0.0000 0.0000 0.0000 0.0000 0.0000 169.6692
#
#
#
# Elastic Compliance Matrix: (Units=1/GPa)
#
#
# Indices 1 2 3 4 5 6 
#
# 1 0.006729 -0.002588 -0.000929 0.000000 0.000000 0.000000
# 2 -0.002588 0.007064 -0.001896 0.000000 0.000000 0.000000
# 3 -0.000929 -0.001896 0.007391 0.000000 0.000000 0.000000
# 4 0.000000 0.000000 0.000000 0.019848 0.000000 0.000000
# 5 0.000000 0.000000 0.000000 0.000000 0.041888 0.000000
# 6 0.000000 0.000000 0.000000 0.000000 0.000000 0.005894
#
#
# Mechanical properties :
#
#
# Convention : Reuss Voigt Hill
#
# Bulk Modulus (GPa) = 96.55452 98.82380 97.68916
# Shear Modulus (GPa) = 48.49968 71.85298 60.17633
#
# Velocity S-wave (km/s) = 4.71909 5.74395 5.25656
# Velocity P-wave (km/s) = 8.60397 9.45346 9.03870
#
# Compressibility (1/GPa) = 0.01035684
#
# Stress axis : x y z
#
# Youngs Moduli (GPa) = 148.61458 141.56635 135.29156
#
# Poissons Ratio (x) = 0.36642 0.12568
# Poissons Ratio (y) = 0.38466 0.25656
# Poissons Ratio (z) = 0.13805 0.26846
#
# Static dielectric constant tensor:
#      x y z
#    x 4.144590 0.000000 0.000000 
#    y 0.000000 4.801010 0.000000 
#    z 0.000000 0.000000 4.068370 
# 
# 
# High freq. dielectric constant tensor:
#      x y z
#    x 1.868170 0.000000 0.000000 
#    y 0.000000 1.872520 0.000000 
#    z 0.000000 0.000000 1.869890 
# 
# From -- ./inp_files/18157.got.cif
#   From: 2010.03.12/outbox.cif.g09.slc.cpg/sg50_10_cif.got.tgz:18157.got - 2010.04.16 13:23:21.
