data_PCOD8205483
_publ_section_title
;
Structure prediction by ZEFSAII (Michael W. Deem and Ramdas Pophale) SiO2 
 PCOD8205483
Probable space group: P B A N
;
_chemical_formula_sum "Si O2"
_cell_formula_units_Z 28
_cell_length_a 10.334401
_cell_length_b 8.592821
_cell_length_c 12.768295
_cell_angle_alpha 90.000000
_cell_angle_beta 90.000000
_cell_angle_gamma 90.000000
_cell_volume 1133.845765
_symmetry_space_group_name_H-M "P B A N"
_symmetry_group_IT_number 50
_space_group.IT_coordinate_system_code '2'
_symmetry_cell_setting 'orthorhombic'
loop_
_space_group_symop_operation_xyz
x,y,z
1/2-x,1/2-y,z
x,1/2-y,-z
1/2-x,y,-z
-x,-y,-z
1/2+x,1/2+y,-z
-x,1/2+y,z
1/2+x,-y,z
loop_
_atom_site_type_symbol
_atom_site_label
_atom_site_fract_x
_atom_site_fract_y
_atom_site_fract_z
Si Si1 0.931197 0.250000 0.500000
Si Si2 0.611118 0.308282 0.883511
Si Si3 0.863770 0.646595 0.183532
Si Si4 0.848539 0.551657 0.413356
O O1 0.848625 0.362617 0.423446
O O2 0.011860 0.370716 0.570343
O O3 0.750000 0.250000 0.841835
O O4 0.609613 0.495069 0.886149
O O5 0.496680 0.245105 0.808510
O O6 0.583061 0.250000 0.000000
O O7 0.750000 0.750000 0.131030
O O8 0.806596 0.594604 0.296452
O O9 0.750000 0.620804 0.500000
#
# Coordination Sequence:
#
# PCOD8205483 Si02
#       4
#     4   8   8   8
#     4  10  22  38  62  88 132 184 232 284 342 408
#     4  11  26  48  72 105 145 190 245 306 369 435
#     4  12  25  44  75 109 146 190 242 302 370 439
#     4  11  23  41  63  97 137 182 234 289 347 418
#
# _framework density 24.694718000000002
#
# number of rings (size 3 to 8) (size 9 to 14) (size 15 to 20)
#    0.000    0.857    0.000    6.857    0.000   12.000 
#    0.000    0.000    0.000    0.000    0.000    0.000 
#    0.000    0.000    0.000    0.000    0.000    0.000 
#
# Total GULP energy -347238.975021 kJ/mol
# GULP energy per Si atom -12401.391965 kJ/mol
# Density = 2.463851 g / cm^3
# Si number density = 24.694718 Si / 1000 Ang^3
#
#
#
# Elastic Constant Matrix: (Units=GPa)
#
#
# Indices 1 2 3 4 5 6 
#
# 1 154.2287 62.1073 26.2056 0.0000 0.0000 0.0000
# 2 62.1073 212.0271 40.8786 0.0000 0.0000 0.0000
# 3 26.2056 40.8786 112.2226 0.0000 0.0000 0.0000
# 4 0.0000 0.0000 0.0000 25.8168 0.0000 0.0000
# 5 0.0000 0.0000 0.0000 0.0000 27.8421 0.0000
# 6 0.0000 0.0000 0.0000 0.0000 0.0000 43.2270
#
#
#
# Elastic Compliance Matrix: (Units=1/GPa)
#
#
# Indices 1 2 3 4 5 6 
#
# 1 0.007457 -0.001988 -0.001017 0.000000 0.000000 0.000000
# 2 -0.001988 0.005603 -0.001577 0.000000 0.000000 0.000000
# 3 -0.001017 -0.001577 0.009723 0.000000 0.000000 0.000000
# 4 0.000000 0.000000 0.000000 0.038734 0.000000 0.000000
# 5 0.000000 0.000000 0.000000 0.000000 0.035917 0.000000
# 6 0.000000 0.000000 0.000000 0.000000 0.000000 0.023134
#
#
# Mechanical properties :
#
#
# Convention : Reuss Voigt Hill
#
# Bulk Modulus (GPa) = 73.42821 81.87348 77.65084
# Shear Modulus (GPa) = 37.23800 42.66298 39.95049
#
# Velocity S-wave (km/s) = 3.88743 4.16097 4.02652
# Velocity P-wave (km/s) = 7.06742 7.50407 7.28901
#
# Compressibility (1/GPa) = 0.01361874
#
# Stress axis : x y z
#
# Youngs Moduli (GPa) = 134.09503 178.48324 102.85246
#
# Poissons Ratio (x) = 0.35488 0.10461
# Poissons Ratio (y) = 0.26663 0.16215
# Poissons Ratio (z) = 0.13639 0.28139
#
# Static dielectric constant tensor:
#      x y z
#    x 4.382910 0.000000 0.000000 
#    y 0.000000 4.766170 0.000000 
#    z 0.000000 0.000000 4.014690 
# 
# 
# High freq. dielectric constant tensor:
#      x y z
#    x 1.984090 0.000000 0.000000 
#    y 0.000000 2.011440 0.000000 
#    z 0.000000 0.000000 1.956040 
# 
# From -- ./inp_files/25573.got.cif
#   From: 2010.03.12/outbox.cif.g09.slc.cpg/sg50_13_cif.got.tgz:25573.got - 2010.04.16 13:23:21.
