data_PCOD8205386
_publ_section_title
;
Structure prediction by ZEFSAII (Michael W. Deem and Ramdas Pophale) SiO2 
 PCOD8205386
Probable space group: P B A N
;
_chemical_formula_sum "Si O2"
_cell_formula_units_Z 56
_cell_length_a 14.481927
_cell_length_b 18.671105
_cell_length_c 9.678260
_cell_angle_alpha 90.000000
_cell_angle_beta 90.000000
_cell_angle_gamma 90.000000
_cell_volume 2616.939366
_symmetry_space_group_name_H-M "P B A N"
_symmetry_group_IT_number 50
_space_group.IT_coordinate_system_code '2'
_symmetry_cell_setting 'orthorhombic'
loop_
_space_group_symop_operation_xyz
x,y,z
1/2-x,1/2-y,z
x,1/2-y,-z
1/2-x,y,-z
-x,-y,-z
1/2+x,1/2+y,-z
-x,1/2+y,z
1/2+x,-y,z
loop_
_atom_site_type_symbol
_atom_site_label
_atom_site_fract_x
_atom_site_fract_y
_atom_site_fract_z
Si Si1 0.481641 0.750000 0.000000
Si Si2 0.646137 0.008950 0.464317
Si Si3 0.904416 0.844172 0.550393
Si Si4 0.448729 0.584454 0.709447
Si Si5 0.147707 0.618322 0.037027
Si Si6 0.451713 0.955893 0.807947
Si Si7 0.750000 0.750000 0.304327
Si Si8 0.420839 0.322631 0.762241
O O1 0.419454 0.681509 0.997943
O O2 0.539641 0.741523 0.141747
O O3 0.750000 0.032114 0.500000
O O4 0.577246 0.034220 0.583133
O O5 0.614306 0.050613 0.326448
O O6 0.637544 0.923733 0.458869
O O7 0.823431 0.793683 0.604379
O O8 0.940572 0.813579 0.402602
O O9 0.992282 0.847408 0.654907
O O10 0.510068 0.536575 0.814709
O O11 0.358805 0.605920 0.797884
O O12 0.113820 0.552378 0.941803
O O13 0.250000 0.640980 0.000000
O O14 0.538176 0.899636 0.806896
O O15 0.690943 0.689853 0.218543
#
# Coordination Sequence:
#
# PCOD8205386 Si02
#       8
#     4   8   8   8   8   8   4   8
#     4  10  25  41  66  78 122 170 200 251 323 378
#     4  11  20  36  64  95 123 162 207 262 316 365
#     4  11  21  38  61  93 128 160 209 261 317 375
#     4  11  21  39  65  91 124 164 204 257 319 375
#     4  11  23  41  62  89 117 163 213 255 306 376
#     4  10  21  39  61  87 129 163 197 262 317 373
#     4  12  25  35  62  95 124 164 213 254 305 386
#     4  11  20  40  57  88 122 167 203 254 312 376
#
# _framework density 21.399044
#
# number of rings (size 3 to 8) (size 9 to 14) (size 15 to 20)
#    0.000    1.143    2.857    5.357    0.000    0.286 
#    0.000    0.000    0.000    0.000    0.000    0.000 
#    0.000    0.000    0.000    0.000    0.000    0.000 
#
# Total GULP energy -693777.501090 kJ/mol
# GULP energy per Si atom -12388.883948 kJ/mol
# Density = 2.135034 g / cm^3
# Si number density = 21.399044 Si / 1000 Ang^3
#
#
#
# Elastic Constant Matrix: (Units=GPa)
#
#
# Indices 1 2 3 4 5 6 
#
# 1 110.5042 42.8224 54.2275 0.0000 0.0000 0.0000
# 2 42.8224 67.2531 37.0233 0.0000 0.0000 0.0000
# 3 54.2275 37.0233 115.1676 0.0000 0.0000 0.0000
# 4 0.0000 0.0000 0.0000 30.8937 0.0000 0.0000
# 5 0.0000 0.0000 0.0000 0.0000 51.7040 0.0000
# 6 0.0000 0.0000 0.0000 0.0000 0.0000 34.8086
#
#
#
# Elastic Compliance Matrix: (Units=1/GPa)
#
#
# Indices 1 2 3 4 5 6 
#
# 1 0.013638 -0.006256 -0.004410 0.000000 0.000000 0.000000
# 2 -0.006256 0.020936 -0.003785 0.000000 0.000000 0.000000
# 3 -0.004410 -0.003785 0.011976 0.000000 0.000000 0.000000
# 4 0.000000 0.000000 0.000000 0.032369 0.000000 0.000000
# 5 0.000000 0.000000 0.000000 0.000000 0.019341 0.000000
# 6 0.000000 0.000000 0.000000 0.000000 0.000000 0.028729
#
#
# Mechanical properties :
#
#
# Convention : Reuss Voigt Hill
#
# Bulk Modulus (GPa) = 56.66261 62.34125 59.50193
# Shear Modulus (GPa) = 30.90735 34.07139 32.48937
#
# Velocity S-wave (km/s) = 3.80456 3.99456 3.90072
# Velocity P-wave (km/s) = 6.77024 7.10431 6.93929
#
# Compressibility (1/GPa) = 0.01764832
#
# Stress axis : x y z
#
# Youngs Moduli (GPa) = 73.32440 47.76450 83.49747
#
# Poissons Ratio (x) = 0.29881 0.36826
# Poissons Ratio (y) = 0.45870 0.31602
# Poissons Ratio (z) = 0.32340 0.18078
#
# Static dielectric constant tensor:
#      x y z
#    x 4.080800 0.000000 0.000000 
#    y 0.000000 2.862920 0.000000 
#    z 0.000000 0.000000 4.296810 
# 
# 
# High freq. dielectric constant tensor:
#      x y z
#    x 1.836390 0.000000 0.000000 
#    y 0.000000 1.836350 0.000000 
#    z 0.000000 0.000000 1.846370 
# 
# From -- ./inp_files/13319.got.cif
#   From: 2010.03.12/outbox.cif.g09.slc.cpg/sg50_7_cif.got.tgz:13319.got - 2010.04.16 13:23:21.
