data_PCOD8205369
_publ_section_title
;
Structure prediction by ZEFSAII (Michael W. Deem and Ramdas Pophale) SiO2 
 PCOD8205369
Probable space group: P B A N
;
_chemical_formula_sum "Si O2"
_cell_formula_units_Z 64
_cell_length_a 8.891412
_cell_length_b 15.079387
_cell_length_c 22.970805
_cell_angle_alpha 90.000000
_cell_angle_beta 90.000000
_cell_angle_gamma 90.000000
_cell_volume 3079.857599
_symmetry_space_group_name_H-M "P B A N"
_symmetry_group_IT_number 50
_space_group.IT_coordinate_system_code '2'
_symmetry_cell_setting 'orthorhombic'
loop_
_space_group_symop_operation_xyz
x,y,z
1/2-x,1/2-y,z
x,1/2-y,-z
1/2-x,y,-z
-x,-y,-z
1/2+x,1/2+y,-z
-x,1/2+y,z
1/2+x,-y,z
loop_
_atom_site_type_symbol
_atom_site_label
_atom_site_fract_x
_atom_site_fract_y
_atom_site_fract_z
Si Si1 0.899400 0.868003 0.247256
Si Si2 0.558067 0.837470 0.241084
Si Si3 0.911335 0.290770 0.875529
Si Si4 0.063322 0.577704 0.638200
Si Si5 0.928145 0.243107 0.564678
Si Si6 0.418745 0.902574 0.355101
Si Si7 0.497053 0.100258 0.120817
Si Si8 0.201449 0.953676 0.933855
O O1 0.720882 0.883266 0.243996
O O2 0.936280 0.765618 0.255772
O O3 0.969661 0.910097 0.189293
O O4 0.975852 0.916687 0.300865
O O5 0.485198 0.846007 0.177285
O O6 0.454661 0.887226 0.287431
O O7 0.750000 0.250000 0.856587
O O8 0.900326 0.364272 0.926889
O O9 0.012159 0.205919 0.895718
O O10 0.011835 0.651954 0.592404
O O11 0.241579 0.581857 0.643886
O O12 0.009619 0.482823 0.614874
O O13 0.750000 0.250000 0.560424
O O14 0.998697 0.250000 0.500000
O O15 0.980859 0.321060 0.607075
O O16 0.658824 0.058326 0.108905
O O17 0.377766 0.045756 0.082721
O O18 0.250000 0.961003 0.000000
#
# Coordination Sequence:
#
# PCOD8205369 Si02
#       8
#     8   8   8   8   8   8   8   8
#     4  10  22  39  61  93 130 166 211 268 325 383
#     4  10  21  38  63  90 131 166 212 266 320 386
#     4   9  22  40  65  93 127 171 212 263 322 390
#     4  11  23  38  62  96 129 167 219 264 328 384
#     4   9  20  41  65  90 125 173 219 264 318 384
#     4  11  23  37  63  93 127 172 210 270 322 383
#     4  10  24  41  64  95 127 168 215 267 321 384
#     4  11  24  44  68  93 128 170 216 263 321 392
#
# _framework density 20.780183000000001
#
# number of rings (size 3 to 8) (size 9 to 14) (size 15 to 20)
#    0.000    1.875    1.250    1.125    8.750    2.750 
#    0.000    0.000    0.000    5.250    0.000    0.000 
#    0.000    0.000    0.000    0.000    0.000    0.000 
#
# Total GULP energy -793503.130907 kJ/mol
# GULP energy per Si atom -12398.486420 kJ/mol
# Density = 2.073289 g / cm^3
# Si number density = 20.780183 Si / 1000 Ang^3
#
#
#
# Elastic Constant Matrix: (Units=GPa)
#
#
# Indices 1 2 3 4 5 6 
#
# 1 82.3888 49.7891 41.3168 0.0000 0.0000 0.0000
# 2 49.7891 141.5646 78.3411 0.0000 0.0000 0.0000
# 3 41.3168 78.3411 129.5990 0.0000 0.0000 0.0000
# 4 0.0000 0.0000 0.0000 11.9917 0.0000 0.0000
# 5 0.0000 0.0000 0.0000 0.0000 15.9662 0.0000
# 6 0.0000 0.0000 0.0000 0.0000 0.0000 31.0215
#
#
#
# Elastic Compliance Matrix: (Units=1/GPa)
#
#
# Indices 1 2 3 4 5 6 
#
# 1 0.015954 -0.004202 -0.002546 0.000000 0.000000 0.000000
# 2 -0.004202 0.011722 -0.005746 0.000000 0.000000 0.000000
# 3 -0.002546 -0.005746 0.012001 0.000000 0.000000 0.000000
# 4 0.000000 0.000000 0.000000 0.083391 0.000000 0.000000
# 5 0.000000 0.000000 0.000000 0.000000 0.062632 0.000000
# 6 0.000000 0.000000 0.000000 0.000000 0.000000 0.032236
#
#
# Mechanical properties :
#
#
# Convention : Reuss Voigt Hill
#
# Bulk Modulus (GPa) = 68.08078 76.93849 72.50963
# Shear Modulus (GPa) = 20.17598 24.06957 22.12277
#
# Velocity S-wave (km/s) = 3.11935 3.40706 3.26637
# Velocity P-wave (km/s) = 6.76810 7.25140 7.01391
#
# Compressibility (1/GPa) = 0.01468843
#
# Stress axis : x y z
#
# Youngs Moduli (GPa) = 62.68110 85.31276 83.32540
#
# Poissons Ratio (x) = 0.35849 0.21215
# Poissons Ratio (y) = 0.26339 0.47878
# Poissons Ratio (z) = 0.15959 0.49020
#
# Static dielectric constant tensor:
#      x y z
#    x 3.720780 0.000000 0.000000 
#    y 0.000000 4.063280 0.000000 
#    z 0.000000 0.000000 3.704710 
# 
# 
# High freq. dielectric constant tensor:
#      x y z
#    x 1.803590 0.000000 0.000000 
#    y 0.000000 1.829510 0.000000 
#    z 0.000000 0.000000 1.802400 
# 
# From -- ./inp_files/31628.got.cif
#   From: 2010.03.12/outbox.cif.g09.slc.cpg/sg50_16_cif.got.tgz:31628.got - 2010.04.16 13:23:21.
