data_PCOD8205948
_publ_section_title
;
Structure prediction by ZEFSAII (Michael W. Deem and Ramdas Pophale) SiO2 
 PCOD8205948
Probable space group: P M M A
;
_chemical_formula_sum "Si O2"
_cell_formula_units_Z 40
_cell_length_a 8.773972
_cell_length_b 20.771409
_cell_length_c 14.385065
_cell_angle_alpha 90.000000
_cell_angle_beta 90.000000
_cell_angle_gamma 90.000000
_cell_volume 2621.645888
_symmetry_space_group_name_H-M "P M M A"
_symmetry_group_IT_number 51
_symmetry_cell_setting 'orthorhombic'
loop_
_space_group_symop_operation_xyz
x,y,z
1/2-x,-y,z
1/2+x,-y,-z
-x,y,-z
-x,-y,-z
1/2+x,y,-z
1/2-x,y,z
x,-y,z
loop_
_atom_site_type_symbol
_atom_site_label
_atom_site_fract_x
_atom_site_fract_y
_atom_site_fract_z
Si Si1 0.072477 0.266935 0.601649
Si Si2 0.928434 0.572778 0.906914
Si Si3 0.570168 0.618816 0.708545
Si Si4 0.425649 0.124312 0.599753
Si Si5 0.430422 0.500000 0.601319
Si Si6 0.929958 0.000000 0.603639
O O1 0.250000 0.285749 0.594020
O O2 0.053749 0.194904 0.645168
O O3 0.000000 0.274058 0.500000
O O4 0.984778 0.312320 0.673004
O O5 0.750000 0.571991 0.920849
O O6 0.990296 0.500000 0.892330
O O7 0.974316 0.614661 0.817237
O O8 0.000000 0.603784 0.000000
O O9 0.750000 0.610045 0.693510
O O10 0.484475 0.563377 0.653587
O O11 0.500000 0.130573 0.500000
O O12 0.250000 0.105597 0.589433
O O13 0.509782 0.065487 0.654659
O O14 0.250000 0.500000 0.594101
O O15 0.500000 0.500000 0.500000
O O16 0.000000 0.000000 0.500000
O O17 0.750000 0.000000 0.602084
#
# Coordination Sequence:
#
# PCOD8205948 Si02
#       6
#     8   8   8   8   4   4
#     4  10  20  32  45  63  86 118 154 185 219 261
#     4   9  18  33  51  70  89 108 135 173 220 268
#     4  11  21  35  50  66  89 114 143 181 222 264
#     4   9  16  26  39  55  79 108 143 181 216 252
#     4  12  24  36  49  64  85 114 149 186 220 256
#     4  10  16  22  36  56  78 104 141 180 217 254
#
# _framework density 15.25759
#
# number of rings (size 3 to 8) (size 9 to 14) (size 15 to 20)
#    0.000    2.000    1.000    5.400    0.000    4.000 
#    0.000    0.000    0.000    0.000    0.000    0.000 
#    0.000    0.000    0.000    0.900    0.000   11.900 
#
# Total GULP energy -495765.373595 kJ/mol
# GULP energy per Si atom -12394.134340 kJ/mol
# Density = 1.522286 g / cm^3
# Si number density = 15.257590 Si / 1000 Ang^3
#
#
#
# Elastic Constant Matrix: (Units=GPa)
#
#
# Indices 1 2 3 4 5 6 
#
# 1 109.3001 50.5063 42.7857 0.0000 0.0000 0.0000
# 2 50.5063 110.9327 45.9046 0.0000 0.0000 0.0000
# 3 42.7857 45.9046 89.0567 0.0000 0.0000 0.0000
# 4 0.0000 0.0000 0.0000 -3.7560 0.0000 0.0000
# 5 0.0000 0.0000 0.0000 0.0000 20.7567 0.0000
# 6 0.0000 0.0000 0.0000 0.0000 0.0000 25.5381
#
#
#
# Elastic Compliance Matrix: (Units=1/GPa)
#
#
# Indices 1 2 3 4 5 6 
#
# 1 0.012584 -0.004103 -0.003931 0.000000 0.000000 0.000000
# 2 -0.004103 0.012796 -0.004625 0.000000 0.000000 0.000000
# 3 -0.003931 -0.004625 0.015501 0.000000 0.000000 0.000000
# 4 0.000000 0.000000 0.000000 -0.266241 0.000000 0.000000
# 5 0.000000 0.000000 0.000000 0.000000 0.048177 0.000000
# 6 0.000000 0.000000 0.000000 0.000000 0.000000 0.039157
#
#
# Mechanical properties :
#
#
# Convention : Reuss Voigt Hill
#
# Bulk Modulus (GPa) = 64.24909 65.29808 64.77359
# Shear Modulus (GPa) = -46.50268 19.84730 -13.32769
#
# Velocity S-wave (km/s) = -5.52671 3.61059 -2.95873
# Velocity P-wave (km/s) = 1.21447 7.76350 5.55638
#
# Compressibility (1/GPa) = 0.01556442
#
# Stress axis : x y z
#
# Youngs Moduli (GPa) = 79.46842 78.14895 64.51112
#
# Poissons Ratio (x) = 0.32061 0.25359
# Poissons Ratio (y) = 0.32602 0.29835
# Poissons Ratio (z) = 0.31238 0.36142
#
# Static dielectric constant tensor:
#      x y z
#    x 3.077600 0.000000 0.000000 
#    y 0.000000 3.676050 0.000000 
#    z 0.000000 0.000000 2.673560 
# 
# 
# High freq. dielectric constant tensor:
#      x y z
#    x 1.605140 0.000000 0.000000 
#    y 0.000000 1.589460 0.000000 
#    z 0.000000 0.000000 1.531650 
# 
# From -- ./inp_files/14267.got.cif
#   From: 2010.03.12/outbox.cif.g09.slc.cpg/sg51_8_cif.got.tgz:14267.got - 2010.04.16 13:43:02.
