data_PCOD8205179
_publ_section_title
;
Structure prediction by ZEFSAII (Michael W. Deem and Ramdas Pophale) SiO2 
 PCOD8205179
Probable space group: P B A N
;
_chemical_formula_sum "Si O2"
_cell_formula_units_Z 64
_cell_length_a 22.640145
_cell_length_b 11.229200
_cell_length_c 11.622666
_cell_angle_alpha 90.000000
_cell_angle_beta 90.000000
_cell_angle_gamma 90.000000
_cell_volume 2954.838702
_symmetry_space_group_name_H-M "P B A N"
_symmetry_group_IT_number 50
_space_group.IT_coordinate_system_code '2'
_symmetry_cell_setting 'orthorhombic'
loop_
_space_group_symop_operation_xyz
x,y,z
1/2-x,1/2-y,z
x,1/2-y,-z
1/2-x,y,-z
-x,-y,-z
1/2+x,1/2+y,-z
-x,1/2+y,z
1/2+x,-y,z
loop_
_atom_site_type_symbol
_atom_site_label
_atom_site_fract_x
_atom_site_fract_y
_atom_site_fract_z
Si Si1 0.333320 0.107767 0.591151
Si Si2 0.203532 0.402580 0.338167
Si Si3 0.081012 0.037212 0.099034
Si Si4 0.052409 0.485366 0.158697
Si Si5 0.389291 0.259272 0.769179
Si Si6 0.622841 0.386686 0.704206
Si Si7 0.130825 0.874747 0.673717
Si Si8 0.964167 0.121630 0.521319
O O1 0.329331 0.139921 0.456557
O O2 0.271391 0.135425 0.655931
O O3 0.387717 0.178929 0.652015
O O4 0.341375 0.968100 0.614103
O O5 0.172379 0.333808 0.232011
O O6 0.189837 0.543423 0.326992
O O7 0.104599 0.170553 0.123498
O O8 0.121334 0.941306 0.166912
O O9 0.085856 0.019541 0.963601
O O10 0.014554 0.023948 0.143939
O O11 0.058134 0.357307 0.224676
O O12 0.084098 0.587594 0.229597
O O13 0.653207 0.257337 0.705323
O O14 0.555746 0.378060 0.654761
O O15 0.095858 0.880133 0.553690
O O16 0.997708 0.250000 0.500000
O O17 0.000000 0.000000 0.500000
#
# Coordination Sequence:
#
# PCOD8205179 Si02
#       8
#     8   8   8   8   8   8   8   8
#     4  10  20  37  62  90 120 157 201 246 302 363
#     4  10  20  37  62  90 120 157 201 246 302 363
#     4  10  22  39  60  85 113 154 204 245 292 354
#     4  10  22  39  60  85 113 154 204 245 292 354
#     4  10  21  37  60  87 120 147 192 250 310 343
#     4  10  21  37  56  84 122 155 196 250 302 355
#     4  10  21  37  56  84 122 155 196 250 302 355
#     4  10  20  38  55  81 124 168 205 251 316 385
#
# _framework density 21.659389000000001
#
# number of rings (size 3 to 8) (size 9 to 14) (size 15 to 20)
#    0.000    2.000    1.250    1.875    1.750    2.000 
#   13.500    1.250    0.000   30.750    0.000    7.000 
#    0.000    0.000    0.000    0.000    0.000    0.000 
#
# Total GULP energy -792916.376275 kJ/mol
# GULP energy per Si atom -12389.318379 kJ/mol
# Density = 2.161009 g / cm^3
# Si number density = 21.659389 Si / 1000 Ang^3
#
#
#
# Elastic Constant Matrix: (Units=GPa)
#
#
# Indices 1 2 3 4 5 6 
#
# 1 41.0251 18.5639 23.2507 0.0000 0.0000 0.0000
# 2 18.5639 149.2152 27.4904 0.0000 0.0000 0.0000
# 3 23.2507 27.4904 80.8301 0.0000 0.0000 0.0000
# 4 0.0000 0.0000 0.0000 23.7775 0.0000 0.0000
# 5 0.0000 0.0000 0.0000 0.0000 25.1464 0.0000
# 6 0.0000 0.0000 0.0000 0.0000 0.0000 23.9142
#
#
#
# Elastic Compliance Matrix: (Units=1/GPa)
#
#
# Indices 1 2 3 4 5 6 
#
# 1 0.029828 -0.002273 -0.007807 0.000000 0.000000 0.000000
# 2 -0.002273 0.007323 -0.001837 0.000000 0.000000 0.000000
# 3 -0.007807 -0.001837 0.015242 0.000000 0.000000 0.000000
# 4 0.000000 0.000000 0.000000 0.042057 0.000000 0.000000
# 5 0.000000 0.000000 0.000000 0.000000 0.039767 0.000000
# 6 0.000000 0.000000 0.000000 0.000000 0.000000 0.041816
#
#
# Mechanical properties :
#
#
# Convention : Reuss Voigt Hill
#
# Bulk Modulus (GPa) = 35.01387 45.52003 40.26695
# Shear Modulus (GPa) = 23.87932 28.01867 25.94900
#
# Velocity S-wave (km/s) = 3.32398 3.60057 3.46504
# Velocity P-wave (km/s) = 5.56171 6.19253 5.88558
#
# Compressibility (1/GPa) = 0.02856011
#
# Stress axis : x y z
#
# Youngs Moduli (GPa) = 33.52515 136.55862 65.60801
#
# Poissons Ratio (x) = 0.31034 0.51221
# Poissons Ratio (y) = 0.07619 0.12051
# Poissons Ratio (z) = 0.26174 0.25083
#
# Static dielectric constant tensor:
#      x y z
#    x 3.528800 0.000000 0.000000 
#    y 0.000000 4.354050 0.000000 
#    z 0.000000 0.000000 3.876530 
# 
# 
# High freq. dielectric constant tensor:
#      x y z
#    x 1.812760 0.000000 0.000000 
#    y 0.000000 1.880150 0.000000 
#    z 0.000000 0.000000 1.834720 
# 
# From -- ./inp_files/22890.got.cif
#   From: 2010.03.12/outbox.cif.g09.slc.cpg/sg50_12_cif.got.tgz:22890.got - 2010.04.16 13:23:21.
