data_PCOD8205365
_publ_section_title
;
Structure prediction by ZEFSAII (Michael W. Deem and Ramdas Pophale) SiO2 
 PCOD8205365
Probable space group: P B A N
;
_chemical_formula_sum "Si O2"
_cell_formula_units_Z 44
_cell_length_a 14.636550
_cell_length_b 9.572653
_cell_length_c 15.557240
_cell_angle_alpha 90.000000
_cell_angle_beta 90.000000
_cell_angle_gamma 90.000000
_cell_volume 2179.734453
_symmetry_space_group_name_H-M "P B A N"
_symmetry_group_IT_number 50
_space_group.IT_coordinate_system_code '2'
_symmetry_cell_setting 'orthorhombic'
loop_
_space_group_symop_operation_xyz
x,y,z
1/2-x,1/2-y,z
x,1/2-y,-z
1/2-x,y,-z
-x,-y,-z
1/2+x,1/2+y,-z
-x,1/2+y,z
1/2+x,-y,z
loop_
_atom_site_type_symbol
_atom_site_label
_atom_site_fract_x
_atom_site_fract_y
_atom_site_fract_z
Si Si1 0.855969 0.231388 0.309542
Si Si2 0.995525 0.370821 0.562240
Si Si3 0.589109 0.823348 0.913668
Si Si4 0.112125 0.451767 0.715815
Si Si5 0.958880 0.110814 0.153592
Si Si6 0.250000 0.250000 0.786959
O O1 0.750000 0.250000 0.321561
O O2 0.893840 0.387235 0.308966
O O3 0.879108 0.149084 0.221237
O O4 0.896631 0.149554 0.392100
O O5 0.024127 0.250000 0.500000
O O6 0.070005 0.366740 0.637223
O O7 0.000000 0.500000 0.500000
O O8 0.490949 0.750118 0.896104
O O9 0.664067 0.803007 0.840407
O O10 0.573496 0.991785 0.914958
O O11 0.628278 0.750000 0.000000
O O12 0.212570 0.383013 0.731635
O O13 0.049770 0.442898 0.799861
#
# Coordination Sequence:
#
# PCOD8205365 Si02
#       6
#     8   8   8   8   8   4
#     4  11  22  38  65  88 124 165 218 262 317 375
#     4  11  23  41  61  89 126 165 209 264 326 379
#     4  11  21  38  62  91 124 162 202 263 318 372
#     4  10  21  40  62  90 121 172 207 261 314 391
#     4  10  21  38  62  88 123 163 214 248 307 396
#     4  10  23  38  63  92 126 152 216 252 323 388
#
# _framework density 20.185943999999999
#
# number of rings (size 3 to 8) (size 9 to 14) (size 15 to 20)
#    0.000    1.455    3.636    1.909    0.000    1.818 
#    0.000    2.273    0.000    0.000    0.000    0.000 
#    0.000    0.000    0.000    0.000    0.000    0.000 
#
# Total GULP energy -545261.291536 kJ/mol
# GULP energy per Si atom -12392.302080 kJ/mol
# Density = 2.014000 g / cm^3
# Si number density = 20.185944 Si / 1000 Ang^3
#
#
#
# Elastic Constant Matrix: (Units=GPa)
#
#
# Indices 1 2 3 4 5 6 
#
# 1 102.1756 40.9868 37.9447 0.0000 0.0000 0.0000
# 2 40.9868 126.2134 40.7440 0.0000 0.0000 0.0000
# 3 37.9447 40.7440 93.4474 0.0000 0.0000 0.0000
# 4 0.0000 0.0000 0.0000 -15.8633 0.0000 0.0000
# 5 0.0000 0.0000 0.0000 0.0000 13.6815 0.0000
# 6 0.0000 0.0000 0.0000 0.0000 0.0000 29.1016
#
#
#
# Elastic Compliance Matrix: (Units=1/GPa)
#
#
# Indices 1 2 3 4 5 6 
#
# 1 0.012306 -0.002774 -0.003788 0.000000 0.000000 0.000000
# 2 -0.002774 0.009846 -0.003167 0.000000 0.000000 0.000000
# 3 -0.003788 -0.003167 0.013620 0.000000 0.000000 0.000000
# 4 0.000000 0.000000 0.000000 -0.063039 0.000000 0.000000
# 5 0.000000 0.000000 0.000000 0.000000 0.073091 0.000000
# 6 0.000000 0.000000 0.000000 0.000000 0.000000 0.034362
#
#
# Mechanical properties :
#
#
# Convention : Reuss Voigt Hill
#
# Bulk Modulus (GPa) = 61.28881 62.35417 61.82149
# Shear Modulus (GPa) = 47.58175 18.86135 33.22155
#
# Velocity S-wave (km/s) = 4.86034 3.06008 4.06122
# Velocity P-wave (km/s) = 7.86926 6.59109 7.25836
#
# Compressibility (1/GPa) = 0.01631619
#
# Stress axis : x y z
#
# Youngs Moduli (GPa) = 81.25905 101.56311 73.42171
#
# Poissons Ratio (x) = 0.28170 0.27810
# Poissons Ratio (y) = 0.22538 0.23251
# Poissons Ratio (z) = 0.30778 0.32162
#
# Static dielectric constant tensor:
#      x y z
#    x 3.537090 0.000000 0.000000 
#    y 0.000000 3.095410 0.000000 
#    z 0.000000 0.000000 3.737760 
# 
# 
# High freq. dielectric constant tensor:
#      x y z
#    x 1.774900 0.000000 0.000000 
#    y 0.000000 1.804090 0.000000 
#    z 0.000000 0.000000 1.784290 
# 
# From -- ./inp_files/28639.got.cif
#   From: 2010.03.12/outbox.cif.g09.slc.cpg/sg50_15_cif.got.tgz:28639.got - 2010.04.16 13:23:21.
