data_PCOD8205971
_publ_section_title
;
Structure prediction by ZEFSAII (Michael W. Deem and Ramdas Pophale) SiO2 
 PCOD8205971
Probable space group: P M M A
;
_chemical_formula_sum "Si O2"
_cell_formula_units_Z 40
_cell_length_a 8.436094
_cell_length_b 25.723286
_cell_length_c 9.620905
_cell_angle_alpha 90.000000
_cell_angle_beta 90.000000
_cell_angle_gamma 90.000000
_cell_volume 2087.775433
_symmetry_space_group_name_H-M "P M M A"
_symmetry_group_IT_number 51
_symmetry_cell_setting 'orthorhombic'
loop_
_space_group_symop_operation_xyz
x,y,z
1/2-x,-y,z
1/2+x,-y,-z
-x,y,-z
-x,-y,-z
1/2+x,y,-z
1/2-x,y,z
x,-y,z
loop_
_atom_site_type_symbol
_atom_site_label
_atom_site_fract_x
_atom_site_fract_y
_atom_site_fract_z
Si Si1 0.937849 0.894443 0.843926
Si Si2 0.562176 0.000000 0.156657
Si Si3 0.936038 0.412229 0.349254
Si Si4 0.935941 0.500000 0.845411
Si Si5 0.435955 0.700380 0.352827
Si Si6 0.562847 0.212452 0.156113
O O1 0.750000 0.889508 0.839572
O O2 0.995395 0.947718 0.767779
O O3 0.015691 0.843147 0.774522
O O4 0.000000 0.897454 0.000000
O O5 0.750000 0.000000 0.160015
O O6 0.500000 0.000000 0.000000
O O7 0.750000 0.419476 0.350215
O O8 0.000000 0.428693 0.500000
O O9 0.007810 0.448412 0.231692
O O10 0.979944 0.353264 0.311977
O O11 0.750000 0.500000 0.851268
O O12 0.000000 0.500000 0.000000
O O13 0.500000 0.721184 0.500000
O O14 0.250000 0.690241 0.363496
O O15 0.474099 0.742366 0.236950
O O16 0.750000 0.220844 0.162050
O O17 0.500000 0.214092 0.000000
#
# Coordination Sequence:
#
# PCOD8205971 Si02
#       6
#     8   4   8   4   8   8
#     4  10  17  27  42  65  96 133 173 218 268 324
#     4  10  16  24  38  60  91 130 171 216 265 320
#     4  11  22  40  63  88 114 148 187 228 271 321
#     4  12  25  42  61  88 120 152 186 228 275 326
#     4  11  22  39  60  85 112 145 185 229 273 323
#     4  11  21  35  53  78 109 144 181 225 276 331
#
# _framework density 19.159148999999999
#
# number of rings (size 3 to 8) (size 9 to 14) (size 15 to 20)
#    0.000    1.200    0.000   12.900    0.000    0.800 
#    0.000    4.000    0.000    0.000    0.000    0.700 
#    0.000    0.000    0.000    0.000    0.000    0.000 
#
# Total GULP energy -495996.702786 kJ/mol
# GULP energy per Si atom -12399.917570 kJ/mol
# Density = 1.911554 g / cm^3
# Si number density = 19.159149 Si / 1000 Ang^3
#
#
#
# Elastic Constant Matrix: (Units=GPa)
#
#
# Indices 1 2 3 4 5 6 
#
# 1 145.9653 25.4759 26.7789 0.0000 0.0000 0.0000
# 2 25.4759 128.7737 63.6774 0.0000 0.0000 0.0000
# 3 26.7789 63.6774 77.5793 0.0000 0.0000 0.0000
# 4 0.0000 0.0000 0.0000 -3.6230 0.0000 0.0000
# 5 0.0000 0.0000 0.0000 0.0000 26.9706 0.0000
# 6 0.0000 0.0000 0.0000 0.0000 0.0000 39.4930
#
#
#
# Elastic Compliance Matrix: (Units=1/GPa)
#
#
# Indices 1 2 3 4 5 6 
#
# 1 0.007323 -0.000335 -0.002253 0.000000 0.000000 0.000000
# 2 -0.000335 0.013086 -0.010626 0.000000 0.000000 0.000000
# 3 -0.002253 -0.010626 0.022389 0.000000 0.000000 0.000000
# 4 0.000000 0.000000 0.000000 -0.276013 0.000000 0.000000
# 5 0.000000 0.000000 0.000000 0.000000 0.037077 0.000000
# 6 0.000000 0.000000 0.000000 0.000000 0.000000 0.025321
#
#
# Mechanical properties :
#
#
# Convention : Reuss Voigt Hill
#
# Bulk Modulus (GPa) = 61.08139 64.90921 62.99530
# Shear Modulus (GPa) = -35.98841 28.32718 -3.83062
#
# Velocity S-wave (km/s) = -4.33875 3.84932 -1.41552
# Velocity P-wave (km/s) = 2.61738 7.32864 5.50271
#
# Compressibility (1/GPa) = 0.01637160
#
# Stress axis : x y z
#
# Youngs Moduli (GPa) = 136.56206 76.41760 44.66432
#
# Poissons Ratio (x) = 0.02557 0.10063
# Poissons Ratio (y) = 0.04569 0.47458
# Poissons Ratio (z) = 0.30768 0.81198
#
# Static dielectric constant tensor:
#      x y z
#    x 3.724960 0.000000 0.000000 
#    y 0.000000 4.482520 0.000000 
#    z 0.000000 0.000000 2.900870 
# 
# 
# High freq. dielectric constant tensor:
#      x y z
#    x 1.773860 0.000000 0.000000 
#    y 0.000000 1.773060 0.000000 
#    z 0.000000 0.000000 1.694840 
# 
# From -- ./inp_files/5629.got.cif
#   From: 2010.03.12/outbox.cif.g09.slc.cpg/sg51_3_cif.got.tgz:5629.got - 2010.04.16 13:43:02.
