data_PCOD8205137
_publ_section_title
;
Structure prediction by ZEFSAII (Michael W. Deem and Ramdas Pophale) SiO2 
 PCOD8205137
Probable space group: P B A N
;
_chemical_formula_sum "Si O2"
_cell_formula_units_Z 58
_cell_length_a 12.356357
_cell_length_b 8.509939
_cell_length_c 26.614851
_cell_angle_alpha 90.000000
_cell_angle_beta 90.000000
_cell_angle_gamma 90.000000
_cell_volume 2798.600669
_symmetry_space_group_name_H-M "P B A N"
_symmetry_group_IT_number 50
_space_group.IT_coordinate_system_code '2'
_symmetry_cell_setting 'orthorhombic'
loop_
_space_group_symop_operation_xyz
x,y,z
1/2-x,1/2-y,z
x,1/2-y,-z
1/2-x,y,-z
-x,-y,-z
1/2+x,1/2+y,-z
-x,1/2+y,z
1/2+x,-y,z
loop_
_atom_site_type_symbol
_atom_site_label
_atom_site_fract_x
_atom_site_fract_y
_atom_site_fract_z
Si Si1 0.750000 0.750000 0.000000
Si Si2 0.443891 0.121482 0.464342
Si Si3 0.912876 0.885778 0.079205
Si Si4 0.634367 0.178570 0.586474
Si Si5 0.371715 0.754057 0.297008
Si Si6 0.869201 0.230097 0.059078
Si Si7 0.010372 0.505700 0.759479
Si Si8 0.129538 0.257690 0.815901
O O1 0.832124 0.854821 0.032548
O O2 0.379732 0.250000 0.500000
O O3 0.536305 0.219333 0.435544
O O4 0.500000 0.000000 0.500000
O O5 0.369946 0.009616 0.428229
O O6 0.869330 0.784048 0.125410
O O7 0.040592 0.857553 0.072766
O O8 0.912024 0.071734 0.084482
O O9 0.750000 0.250000 0.568351
O O10 0.621843 0.193069 0.645684
O O11 0.250000 0.750000 0.277790
O O12 0.421009 0.581182 0.286475
O O13 0.433040 0.877266 0.263294
O O14 0.750000 0.250000 0.083552
O O15 0.858046 0.250000 0.000000
O O16 0.085295 0.431629 0.803373
O O17 0.940492 0.635895 0.785683
O O18 0.250000 0.250000 0.794695
#
# Coordination Sequence:
#
# PCOD8205137 Si02
#       8
#     2   8   8   8   8   8   8   8
#     4  12  24  40  68  88 124 164 206 254 304 368
#     4   9  19  35  54  82 121 162 206 256 303 362
#     4  12  25  42  65  91 123 162 203 252 308 364
#     4  10  20  36  59  86 118 160 211 261 318 368
#     4  10  20  37  62  89 118 156 199 256 311 369
#     4  11  25  42  63  89 120 154 200 246 300 360
#     4  10  22  39  61  88 121 155 196 246 312 374
#     4  11  23  41  61  89 121 157 196 243 300 374
#
# _framework density 20.724644000000001
#
# number of rings (size 3 to 8) (size 9 to 14) (size 15 to 20)
#    0.000    1.517    1.379    3.724    1.931    3.586 
#    0.000    8.276    0.000   11.586    0.000    0.000 
#    0.000    0.000    0.000    0.000    0.000    0.000 
#
# Total GULP energy -718615.831475 kJ/mol
# GULP energy per Si atom -12389.928129 kJ/mol
# Density = 2.067747 g / cm^3
# Si number density = 20.724644 Si / 1000 Ang^3
#
#
#
# Elastic Constant Matrix: (Units=GPa)
#
#
# Indices 1 2 3 4 5 6 
#
# 1 160.2961 63.8230 34.6191 0.0000 0.0000 0.0000
# 2 63.8230 129.6506 45.5878 0.0000 0.0000 0.0000
# 3 34.6191 45.5878 91.6010 0.0000 0.0000 0.0000
# 4 0.0000 0.0000 0.0000 16.3464 0.0000 0.0000
# 5 0.0000 0.0000 0.0000 0.0000 25.1823 0.0000
# 6 0.0000 0.0000 0.0000 0.0000 0.0000 33.0239
#
#
#
# Elastic Compliance Matrix: (Units=1/GPa)
#
#
# Indices 1 2 3 4 5 6 
#
# 1 0.007879 -0.003432 -0.001270 0.000000 0.000000 0.000000
# 2 -0.003432 0.010844 -0.004100 0.000000 0.000000 0.000000
# 3 -0.001270 -0.004100 0.013437 0.000000 0.000000 0.000000
# 4 0.000000 0.000000 0.000000 0.061175 0.000000 0.000000
# 5 0.000000 0.000000 0.000000 0.000000 0.039710 0.000000
# 6 0.000000 0.000000 0.000000 0.000000 0.000000 0.030281
#
#
# Mechanical properties :
#
#
# Convention : Reuss Voigt Hill
#
# Bulk Modulus (GPa) = 68.69456 74.40082 71.54769
# Shear Modulus (GPa) = 26.91306 30.74504 28.82905
#
# Velocity S-wave (km/s) = 3.60752 3.85580 3.73373
# Velocity P-wave (km/s) = 7.11130 7.46998 7.29284
#
# Compressibility (1/GPa) = 0.01455719
#
# Stress axis : x y z
#
# Youngs Moduli (GPa) = 126.91579 92.21529 74.42070
#
# Poissons Ratio (x) = 0.31651 0.09449
# Poissons Ratio (y) = 0.43561 0.30511
# Poissons Ratio (z) = 0.16114 0.37806
#
# Static dielectric constant tensor:
#      x y z
#    x 3.015360 0.000000 0.000000 
#    y 0.000000 4.155580 0.000000 
#    z 0.000000 0.000000 4.477170 
# 
# 
# High freq. dielectric constant tensor:
#      x y z
#    x 1.820280 0.000000 0.000000 
#    y 0.000000 1.822970 0.000000 
#    z 0.000000 0.000000 1.805770 
# 
# From -- ./inp_files/32471.got.cif
#   From: 2010.03.12/outbox.cif.g09.slc.cpg/sg50_17_cif.got.tgz:32471.got - 2010.04.16 13:23:21.
