data_PCOD8205219
_publ_section_title
;
Structure prediction by ZEFSAII (Michael W. Deem and Ramdas Pophale) SiO2 
 PCOD8205219
Probable space group: P B A N
;
_chemical_formula_sum "Si O2"
_cell_formula_units_Z 30
_cell_length_a 25.387987
_cell_length_b 7.791058
_cell_length_c 8.778240
_cell_angle_alpha 90.000000
_cell_angle_beta 90.000000
_cell_angle_gamma 90.000000
_cell_volume 1736.329545
_symmetry_space_group_name_H-M "P B A N"
_symmetry_group_IT_number 50
_space_group.IT_coordinate_system_code '2'
_symmetry_cell_setting 'orthorhombic'
loop_
_space_group_symop_operation_xyz
x,y,z
1/2-x,1/2-y,z
x,1/2-y,-z
1/2-x,y,-z
-x,-y,-z
1/2+x,1/2+y,-z
-x,1/2+y,z
1/2+x,-y,z
loop_
_atom_site_type_symbol
_atom_site_label
_atom_site_fract_x
_atom_site_fract_y
_atom_site_fract_z
Si Si1 0.896981 0.250000 0.500000
Si Si2 0.750000 0.750000 0.500000
Si Si3 0.932535 0.714635 0.823034
Si Si4 0.350303 0.101178 0.392697
Si Si5 0.524881 0.041318 0.335744
O O1 0.860870 0.410730 0.545181
O O2 0.934600 0.300232 0.357417
O O3 0.713134 0.868861 0.609286
O O4 0.877353 0.626637 0.771988
O O5 0.980350 0.585896 0.786967
O O6 0.941123 0.886529 0.728234
O O7 0.928996 0.750000 0.000000
O O8 0.375975 0.250000 0.500000
O O9 0.500000 0.000000 0.500000
#
# Coordination Sequence:
#
# PCOD8205219 Si02
#       5
#     4   2   8   8   8
#     4  12  20  32  66  82 114 148 204 242 266 336
#     4   8  20  40  66  80 110 138 214 258 284 346
#     4  12  22  34  53  86 127 155 188 242 298 345
#     4  10  20  39  58  85 108 148 200 245 292 341
#     4  12  19  34  55  83 118 163 198 224 270 349
#
# _framework density 17.277826000000001
#
# number of rings (size 3 to 8) (size 9 to 14) (size 15 to 20)
#    0.800    0.000    8.000    0.800    0.000    0.533 
#    0.000    0.667    0.000    0.000    0.000    3.733 
#    0.000    0.000    0.000    0.000    0.000    0.000 
#
# Total GULP energy -371770.486863 kJ/mol
# GULP energy per Si atom -12392.349562 kJ/mol
# Density = 1.723850 g / cm^3
# Si number density = 17.277826 Si / 1000 Ang^3
#
#
#
# Elastic Constant Matrix: (Units=GPa)
#
#
# Indices 1 2 3 4 5 6 
#
# 1 138.0075 47.3289 49.3654 0.0000 0.0000 0.0000
# 2 47.3289 117.4215 38.1752 0.0000 0.0000 0.0000
# 3 49.3654 38.1752 109.9856 0.0000 0.0000 0.0000
# 4 0.0000 0.0000 0.0000 24.7060 0.0000 0.0000
# 5 0.0000 0.0000 0.0000 0.0000 17.7993 0.0000
# 6 0.0000 0.0000 0.0000 0.0000 0.0000 30.1795
#
#
#
# Elastic Compliance Matrix: (Units=1/GPa)
#
#
# Indices 1 2 3 4 5 6 
#
# 1 0.009337 -0.002706 -0.003251 0.000000 0.000000 0.000000
# 2 -0.002706 0.010384 -0.002389 0.000000 0.000000 0.000000
# 3 -0.003251 -0.002389 0.011381 0.000000 0.000000 0.000000
# 4 0.000000 0.000000 0.000000 0.040476 0.000000 0.000000
# 5 0.000000 0.000000 0.000000 0.000000 0.056182 0.000000
# 6 0.000000 0.000000 0.000000 0.000000 0.000000 0.033135
#
#
# Mechanical properties :
#
#
# Convention : Reuss Voigt Hill
#
# Bulk Modulus (GPa) = 69.40923 70.57262 69.99092
# Shear Modulus (GPa) = 27.41342 29.90662 28.66002
#
# Velocity S-wave (km/s) = 3.98757 4.16495 4.07722
# Velocity P-wave (km/s) = 7.83968 8.00397 7.92225
#
# Compressibility (1/GPa) = 0.01440731
#
# Stress axis : x y z
#
# Youngs Moduli (GPa) = 107.09857 96.30145 87.86688
#
# Poissons Ratio (x) = 0.26063 0.28570
# Poissons Ratio (y) = 0.28985 0.20996
# Poissons Ratio (z) = 0.34823 0.23011
#
# Static dielectric constant tensor:
#      x y z
#    x 3.165840 0.000000 0.000000 
#    y 0.000000 3.325640 0.000000 
#    z 0.000000 0.000000 2.795530 
# 
# 
# High freq. dielectric constant tensor:
#      x y z
#    x 1.654240 0.000000 0.000000 
#    y 0.000000 1.683260 0.000000 
#    z 0.000000 0.000000 1.635120 
# 
# From -- ./inp_files/9636.got.cif
#   From: 2010.03.12/outbox.cif.g09.slc.cpg/sg50_5_cif.got.tgz:9636.got - 2010.04.16 13:23:21.
