data_PCOD8205894
_publ_section_title
;
Structure prediction by ZEFSAII (Michael W. Deem and Ramdas Pophale) SiO2 
 PCOD8205894
Probable space group: P B A N
;
_chemical_formula_sum "Si O2"
_cell_formula_units_Z 32
_cell_length_a 10.445238
_cell_length_b 10.466325
_cell_length_c 13.775044
_cell_angle_alpha 90.000000
_cell_angle_beta 90.000000
_cell_angle_gamma 90.000000
_cell_volume 1505.932656
_symmetry_space_group_name_H-M "P B A N"
_symmetry_group_IT_number 50
_space_group.IT_coordinate_system_code '2'
_symmetry_cell_setting 'orthorhombic'
loop_
_space_group_symop_operation_xyz
x,y,z
1/2-x,1/2-y,z
x,1/2-y,-z
1/2-x,y,-z
-x,-y,-z
1/2+x,1/2+y,-z
-x,1/2+y,z
1/2+x,-y,z
loop_
_atom_site_type_symbol
_atom_site_label
_atom_site_fract_x
_atom_site_fract_y
_atom_site_fract_z
Si Si1 0.238177 0.043998 0.893057
Si Si2 0.395343 0.604068 0.533104
Si Si3 0.459640 0.249578 0.107141
Si Si4 0.156947 0.647550 0.257995
O O1 0.348628 0.146888 0.885183
O O2 0.099412 0.109175 0.877622
O O3 0.247739 0.942843 0.806970
O O4 0.250000 0.979338 0.000000
O O5 0.430934 0.750000 0.500000
O O6 0.250000 0.568277 0.500000
O O7 0.500000 0.500000 0.500000
O O8 0.409530 0.583793 0.649601
O O9 0.560437 0.277810 0.189168
O O10 0.523456 0.250000 0.000000
O O11 0.250000 0.750000 0.307823
#
# Coordination Sequence:
#
# PCOD8205894 Si02
#       4
#     8   8   8   8
#     4   9  22  41  61  92 134 174 215 261 315 391
#     4  11  27  52  72 100 139 177 234 296 349 412
#     4   9  22  41  61  92 134 174 215 261 315 391
#     4  12  26  38  70  95 131 167 220 264 340 388
#
# _framework density 21.249289000000001
#
# number of rings (size 3 to 8) (size 9 to 14) (size 15 to 20)
#    0.000    1.750    2.500    1.500   14.000    2.500 
#    0.000    0.000    0.000    0.000    0.000    0.000 
#    0.000    0.000    0.000    0.000    0.000    0.000 
#
# Total GULP energy -396525.881866 kJ/mol
# GULP energy per Si atom -12391.433808 kJ/mol
# Density = 2.120093 g / cm^3
# Si number density = 21.249289 Si / 1000 Ang^3
#
#
#
# Elastic Constant Matrix: (Units=GPa)
#
#
# Indices 1 2 3 4 5 6 
#
# 1 92.5011 40.4044 49.9591 0.0000 0.0000 0.0000
# 2 40.4044 92.9364 51.9292 0.0000 0.0000 0.0000
# 3 49.9591 51.9292 177.0451 0.0000 0.0000 0.0000
# 4 0.0000 0.0000 0.0000 23.4202 0.0000 0.0000
# 5 0.0000 0.0000 0.0000 0.0000 24.5913 0.0000
# 6 0.0000 0.0000 0.0000 0.0000 0.0000 31.2366
#
#
#
# Elastic Compliance Matrix: (Units=1/GPa)
#
#
# Indices 1 2 3 4 5 6 
#
# 1 0.014312 -0.004743 -0.002648 0.000000 0.000000 0.000000
# 2 -0.004743 0.014441 -0.002897 0.000000 0.000000 0.000000
# 3 -0.002648 -0.002897 0.007245 0.000000 0.000000 0.000000
# 4 0.000000 0.000000 0.000000 0.042698 0.000000 0.000000
# 5 0.000000 0.000000 0.000000 0.000000 0.040665 0.000000
# 6 0.000000 0.000000 0.000000 0.000000 0.000000 0.032014
#
#
# Mechanical properties :
#
#
# Convention : Reuss Voigt Hill
#
# Bulk Modulus (GPa) = 64.83888 71.89642 68.36765
# Shear Modulus (GPa) = 28.23394 30.52893 29.38144
#
# Velocity S-wave (km/s) = 3.64909 3.79450 3.72250
# Velocity P-wave (km/s) = 6.95228 7.28737 7.12180
#
# Compressibility (1/GPa) = 0.01542284
#
# Stress axis : x y z
#
# Youngs Moduli (GPa) = 69.86984 69.24736 138.02291
#
# Poissons Ratio (x) = 0.32844 0.36542
# Poissons Ratio (y) = 0.33139 0.39989
# Poissons Ratio (z) = 0.18498 0.20063
#
# Static dielectric constant tensor:
#      x y z
#    x 4.095440 0.000000 0.000000 
#    y 0.000000 5.137890 0.000000 
#    z 0.000000 0.000000 4.099640 
# 
# 
# High freq. dielectric constant tensor:
#      x y z
#    x 1.831210 0.000000 0.000000 
#    y 0.000000 1.832770 0.000000 
#    z 0.000000 0.000000 1.842690 
# 
# From -- ./inp_files/19759.got.cif
#   From: 2010.03.12/outbox.cif.g09.slc.cpg/sg50_10_cif.got.tgz:19759.got - 2010.04.16 13:23:21.
