data_PCOD8205806
_publ_section_title
;
Structure prediction by ZEFSAII (Michael W. Deem and Ramdas Pophale) SiO2 
 PCOD8205806
Probable space group: P B A N
;
_chemical_formula_sum "Si O2"
_cell_formula_units_Z 40
_cell_length_a 9.771064
_cell_length_b 16.465567
_cell_length_c 11.814651
_cell_angle_alpha 90.000000
_cell_angle_beta 90.000000
_cell_angle_gamma 90.000000
_cell_volume 1900.813228
_symmetry_space_group_name_H-M "P B A N"
_symmetry_group_IT_number 50
_space_group.IT_coordinate_system_code '2'
_symmetry_cell_setting 'orthorhombic'
loop_
_space_group_symop_operation_xyz
x,y,z
1/2-x,1/2-y,z
x,1/2-y,-z
1/2-x,y,-z
-x,-y,-z
1/2+x,1/2+y,-z
-x,1/2+y,z
1/2+x,-y,z
loop_
_atom_site_type_symbol
_atom_site_label
_atom_site_fract_x
_atom_site_fract_y
_atom_site_fract_z
Si Si1 0.285357 0.047931 0.881738
Si Si2 0.853311 0.823987 0.275133
Si Si3 0.910730 0.242047 0.134279
Si Si4 0.381414 0.469327 0.576888
Si Si5 0.925908 0.438283 0.805575
O O1 0.239545 0.110093 0.786638
O O2 0.438626 0.018692 0.855309
O O3 0.198621 0.964288 0.886277
O O4 0.250000 0.092416 0.000000
O O5 0.750000 0.750000 0.304258
O O6 0.900743 0.874008 0.387029
O O7 0.989220 0.803172 0.202084
O O8 0.750000 0.250000 0.162941
O O9 0.955914 0.156291 0.184354
O O10 0.938477 0.250000 0.000000
O O11 0.250000 0.480011 0.500000
O O12 0.500000 0.500000 0.500000
O O13 0.383383 0.531793 0.681665
#
# Coordination Sequence:
#
# PCOD8205806 Si02
#       5
#     8   8   8   8   8
#     4  11  23  38  68 100 141 185 223 269 344 426
#     4  11  24  44  69 101 137 174 235 285 342 420
#     4  11  26  42  69 103 146 179 216 277 354 422
#     4  11  26  47  73  95 130 181 237 298 351 400
#     4  11  24  43  66  99 137 179 232 281 338 419
#
# _framework density 21.043626
#
# number of rings (size 3 to 8) (size 9 to 14) (size 15 to 20)
#    0.000    1.000    2.000    4.200   11.200    0.400 
#    0.000    0.000    0.000    0.000    0.000    0.000 
#    0.000    0.000    0.000    0.000    0.000    0.000 
#
# Total GULP energy -495628.605847 kJ/mol
# GULP energy per Si atom -12390.715146 kJ/mol
# Density = 2.099573 g / cm^3
# Si number density = 21.043626 Si / 1000 Ang^3
#
#
#
# Elastic Constant Matrix: (Units=GPa)
#
#
# Indices 1 2 3 4 5 6 
#
# 1 169.6714 27.1409 72.5419 0.0000 0.0000 0.0000
# 2 27.1409 84.3932 53.8095 0.0000 0.0000 0.0000
# 3 72.5419 53.8095 122.2382 0.0000 0.0000 0.0000
# 4 0.0000 0.0000 0.0000 28.3723 0.0000 0.0000
# 5 0.0000 0.0000 0.0000 0.0000 39.3927 0.0000
# 6 0.0000 0.0000 0.0000 0.0000 0.0000 46.6278
#
#
#
# Elastic Compliance Matrix: (Units=1/GPa)
#
#
# Indices 1 2 3 4 5 6 
#
# 1 0.007921 0.000625 -0.004976 0.000000 0.000000 0.000000
# 2 0.000625 0.016522 -0.007644 0.000000 0.000000 0.000000
# 3 -0.004976 -0.007644 0.014499 0.000000 0.000000 0.000000
# 4 0.000000 0.000000 0.000000 0.035246 0.000000 0.000000
# 5 0.000000 0.000000 0.000000 0.000000 0.025385 0.000000
# 6 0.000000 0.000000 0.000000 0.000000 0.000000 0.021446
#
#
# Mechanical properties :
#
#
# Convention : Reuss Voigt Hill
#
# Bulk Modulus (GPa) = 66.87962 75.92083 71.40023
# Shear Modulus (GPa) = 33.33475 37.73258 35.53366
#
# Velocity S-wave (km/s) = 3.98437 4.23905 4.11368
# Velocity P-wave (km/s) = 7.28130 7.75342 7.52107
#
# Compressibility (1/GPa) = 0.01495224
#
# Stress axis : x y z
#
# Youngs Moduli (GPa) = 126.24331 60.52476 68.97132
#
# Poissons Ratio (x) = -0.03785 0.34321
# Poissons Ratio (y) = -0.07894 0.52723
# Poissons Ratio (z) = 0.62820 0.46266
#
# Static dielectric constant tensor:
#      x y z
#    x 4.498220 0.000000 0.000000 
#    y 0.000000 3.896570 0.000000 
#    z 0.000000 0.000000 2.595830 
# 
# 
# High freq. dielectric constant tensor:
#      x y z
#    x 1.847480 0.000000 0.000000 
#    y 0.000000 1.823220 0.000000 
#    z 0.000000 0.000000 1.822670 
# 
# From -- ./inp_files/18724.got.cif
#   From: 2010.03.12/outbox.cif.g09.slc.cpg/sg50_10_cif.got.tgz:18724.got - 2010.04.16 13:23:21.
