data_PCOD8205865
_publ_section_title
;
Structure prediction by ZEFSAII (Michael W. Deem and Ramdas Pophale) SiO2 
 PCOD8205865
Probable space group: P B A N
;
_chemical_formula_sum "Si O2"
_cell_formula_units_Z 38
_cell_length_a 9.304471
_cell_length_b 10.768272
_cell_length_c 17.583720
_cell_angle_alpha 90.000000
_cell_angle_beta 90.000000
_cell_angle_gamma 90.000000
_cell_volume 1761.766969
_symmetry_space_group_name_H-M "P B A N"
_symmetry_group_IT_number 50
_space_group.IT_coordinate_system_code '2'
_symmetry_cell_setting 'orthorhombic'
loop_
_space_group_symop_operation_xyz
x,y,z
1/2-x,1/2-y,z
x,1/2-y,-z
1/2-x,y,-z
-x,-y,-z
1/2+x,1/2+y,-z
-x,1/2+y,z
1/2+x,-y,z
loop_
_atom_site_type_symbol
_atom_site_label
_atom_site_fract_x
_atom_site_fract_y
_atom_site_fract_z
Si Si1 0.490591 0.400937 0.432803
Si Si2 0.093107 0.114623 0.970152
Si Si3 0.401014 0.544857 0.289485
Si Si4 0.824579 0.619296 0.797185
Si Si5 0.250000 0.250000 0.500000
Si Si6 0.750000 0.250000 0.387191
O O1 0.500000 0.500000 0.500000
O O2 0.478858 0.452388 0.347976
O O3 0.342769 0.329765 0.442568
O O4 0.625213 0.307616 0.440060
O O5 0.108430 0.103056 0.880244
O O6 0.033658 0.250000 0.000000
O O7 0.250000 0.093586 0.000000
O O8 0.000000 0.000000 0.000000
O O9 0.533874 0.616988 0.253555
O O10 0.297149 0.481213 0.226544
O O11 0.305667 0.640843 0.334736
O O12 0.750000 0.750000 0.787905
#
# Coordination Sequence:
#
# PCOD8205865 Si02
#       6
#     8   8   8   8   2   4
#     4  12  27  49  70 105 144 197 251 313 372 453
#     4  11  24  47  75 111 149 198 251 308 380 460
#     4  12  27  46  73 111 147 197 250 306 387 443
#     4  12  26  47  76 107 154 191 247 315 373 455
#     4  12  28  42  76  94 136 194 246 308 382 422
#     4  12  26  49  70 104 149 188 256 304 379 454
#
# _framework density 21.569253
#
# number of rings (size 3 to 8) (size 9 to 14) (size 15 to 20)
#    0.000    0.211    4.211    5.053    4.421    3.368 
#    0.000    0.000    0.000    0.000    0.000    0.000 
#    0.000    0.000    0.000    0.000    0.000    0.000 
#
# Total GULP energy -471095.203507 kJ/mol
# GULP energy per Si atom -12397.242198 kJ/mol
# Density = 2.152016 g / cm^3
# Si number density = 21.569253 Si / 1000 Ang^3
#
#
#
# Elastic Constant Matrix: (Units=GPa)
#
#
# Indices 1 2 3 4 5 6 
#
# 1 139.9026 75.6637 46.5112 0.0000 0.0000 0.0000
# 2 75.6637 159.0580 55.7425 0.0000 0.0000 0.0000
# 3 46.5112 55.7425 138.4090 0.0000 0.0000 0.0000
# 4 0.0000 0.0000 0.0000 50.5058 0.0000 0.0000
# 5 0.0000 0.0000 0.0000 0.0000 53.7725 0.0000
# 6 0.0000 0.0000 0.0000 0.0000 0.0000 58.5071
#
#
#
# Elastic Compliance Matrix: (Units=1/GPa)
#
#
# Indices 1 2 3 4 5 6 
#
# 1 0.009946 -0.004145 -0.001673 0.000000 0.000000 0.000000
# 2 -0.004145 0.009048 -0.002251 0.000000 0.000000 0.000000
# 3 -0.001673 -0.002251 0.008694 0.000000 0.000000 0.000000
# 4 0.000000 0.000000 0.000000 0.019800 0.000000 0.000000
# 5 0.000000 0.000000 0.000000 0.000000 0.018597 0.000000
# 6 0.000000 0.000000 0.000000 0.000000 0.000000 0.017092
#
#
# Mechanical properties :
#
#
# Convention : Reuss Voigt Hill
#
# Bulk Modulus (GPa) = 86.58363 88.13381 87.35872
# Shear Modulus (GPa) = 48.46716 49.85389 49.16052
#
# Velocity S-wave (km/s) = 4.74545 4.81286 4.77927
# Velocity P-wave (km/s) = 8.38182 8.47551 8.42880
#
# Compressibility (1/GPa) = 0.01154953
#
# Stress axis : x y z
#
# Youngs Moduli (GPa) = 100.54635 110.52673 115.02646
#
# Poissons Ratio (x) = 0.45812 0.19242
# Poissons Ratio (y) = 0.41675 0.25892
# Poissons Ratio (z) = 0.16820 0.24879
#
# Static dielectric constant tensor:
#      x y z
#    x 4.192490 0.000000 0.000000 
#    y 0.000000 4.292380 0.000000 
#    z 0.000000 0.000000 3.838090 
# 
# 
# High freq. dielectric constant tensor:
#      x y z
#    x 1.867640 0.000000 0.000000 
#    y 0.000000 1.859910 0.000000 
#    z 0.000000 0.000000 1.861810 
# 
# From -- ./inp_files/28530.got.cif
#   From: 2010.03.12/outbox.cif.g09.slc.cpg/sg50_15_cif.got.tgz:28530.got - 2010.04.16 13:23:21.
