data_PCOD8205390
_publ_section_title
;
Structure prediction by ZEFSAII (Michael W. Deem and Ramdas Pophale) SiO2 
 PCOD8205390
Probable space group: P B A N
;
_chemical_formula_sum "Si O2"
_cell_formula_units_Z 32
_cell_length_a 5.180048
_cell_length_b 22.095057
_cell_length_c 11.492386
_cell_angle_alpha 90.000000
_cell_angle_beta 90.000000
_cell_angle_gamma 90.000000
_cell_volume 1315.343293
_symmetry_space_group_name_H-M "P B A N"
_symmetry_group_IT_number 50
_space_group.IT_coordinate_system_code '2'
_symmetry_cell_setting 'orthorhombic'
loop_
_space_group_symop_operation_xyz
x,y,z
1/2-x,1/2-y,z
x,1/2-y,-z
1/2-x,y,-z
-x,-y,-z
1/2+x,1/2+y,-z
-x,1/2+y,z
1/2+x,-y,z
loop_
_atom_site_type_symbol
_atom_site_label
_atom_site_fract_x
_atom_site_fract_y
_atom_site_fract_z
Si Si1 0.487555 0.025550 0.129550
Si Si2 0.250000 0.750000 0.500000
Si Si3 0.750000 0.043097 0.500000
Si Si4 0.108560 0.158211 0.814568
Si Si5 0.372726 0.847735 0.334322
Si Si6 0.750000 0.750000 0.000000
O O1 0.470683 0.096822 0.121946
O O2 0.245034 0.995796 0.197503
O O3 0.500000 0.000000 0.000000
O O4 0.438193 0.795345 0.427682
O O5 0.701171 0.086925 0.610978
O O6 0.500000 0.000000 0.500000
O O7 0.389602 0.149579 0.755834
O O8 0.891648 0.176293 0.722836
O O9 0.083556 0.208051 0.914955
#
# Coordination Sequence:
#
# PCOD8205390 Si02
#       6
#     8   2   4   8   8   2
#     4  10  21  39  62  89 127 173 217 260 313 380
#     4  10  24  50  72  96 128 172 224 280 348 398
#     4  11  24  45  72 107 140 171 216 284 354 415
#     4  12  26  44  67 102 135 181 228 276 334 392
#     4  11  26  45  72  99 134 175 225 281 339 409
#     4  12  28  46  68  96 144 182 236 288 324 392
#
# _framework density 24.328250000000001
#
# number of rings (size 3 to 8) (size 9 to 14) (size 15 to 20)
#    0.000    1.000    0.000    6.000    0.000   14.000 
#    0.000    0.000    0.000    0.000    0.000    0.000 
#    0.000    0.000    0.000    0.000    0.000    0.000 
#
# Total GULP energy -396538.008026 kJ/mol
# GULP energy per Si atom -12391.812751 kJ/mol
# Density = 2.427288 g / cm^3
# Si number density = 24.328250 Si / 1000 Ang^3
#
#
#
# Elastic Constant Matrix: (Units=GPa)
#
#
# Indices 1 2 3 4 5 6 
#
# 1 194.5271 58.0705 43.3506 0.0000 0.0000 0.0000
# 2 58.0705 201.3292 61.0247 0.0000 0.0000 0.0000
# 3 43.3506 61.0247 104.3369 0.0000 0.0000 0.0000
# 4 0.0000 0.0000 0.0000 9.1337 0.0000 0.0000
# 5 0.0000 0.0000 0.0000 0.0000 22.0709 0.0000
# 6 0.0000 0.0000 0.0000 0.0000 0.0000 21.6928
#
#
#
# Elastic Compliance Matrix: (Units=1/GPa)
#
#
# Indices 1 2 3 4 5 6 
#
# 1 0.005880 -0.001161 -0.001764 0.000000 0.000000 0.000000
# 2 -0.001161 0.006267 -0.003183 0.000000 0.000000 0.000000
# 3 -0.001764 -0.003183 0.012179 0.000000 0.000000 0.000000
# 4 0.000000 0.000000 0.000000 0.109485 0.000000 0.000000
# 5 0.000000 0.000000 0.000000 0.000000 0.045309 0.000000
# 6 0.000000 0.000000 0.000000 0.000000 0.000000 0.046098
#
#
# Mechanical properties :
#
#
# Convention : Reuss Voigt Hill
#
# Bulk Modulus (GPa) = 82.57845 91.67609 87.12727
# Shear Modulus (GPa) = 20.70649 33.09597 26.90123
#
# Velocity S-wave (km/s) = 2.92058 3.69235 3.32891
# Velocity P-wave (km/s) = 6.73722 7.47949 7.11804
#
# Compressibility (1/GPa) = 0.01210970
#
# Stress axis : x y z
#
# Youngs Moduli (GPa) = 170.05376 159.57345 82.11031
#
# Poissons Ratio (x) = 0.18534 0.14484
# Poissons Ratio (y) = 0.19751 0.26133
# Poissons Ratio (z) = 0.29996 0.50787
#
# Static dielectric constant tensor:
#      x y z
#    x 4.352810 0.000000 0.000000 
#    y 0.000000 4.656270 0.000000 
#    z 0.000000 0.000000 4.406660 
# 
# 
# High freq. dielectric constant tensor:
#      x y z
#    x 1.970380 0.000000 0.000000 
#    y 0.000000 1.995120 0.000000 
#    z 0.000000 0.000000 1.962770 
# 
# From -- ./inp_files/17603.got.cif
#   From: 2010.03.12/outbox.cif.g09.slc.cpg/sg50_9_cif.got.tgz:17603.got - 2010.04.16 13:23:21.
