data_PCOD8205933
_publ_section_title
;
Structure prediction by ZEFSAII (Michael W. Deem and Ramdas Pophale) SiO2 
 PCOD8205933
Probable space group: P M M A
;
_chemical_formula_sum "Si O2"
_cell_formula_units_Z 48
_cell_length_a 8.938040
_cell_length_b 20.960062
_cell_length_c 19.555450
_cell_angle_alpha 90.000000
_cell_angle_beta 90.000000
_cell_angle_gamma 90.000000
_cell_volume 3663.554622
_symmetry_space_group_name_H-M "P M M A"
_symmetry_group_IT_number 51
_symmetry_cell_setting 'orthorhombic'
loop_
_space_group_symop_operation_xyz
x,y,z
1/2-x,-y,z
1/2+x,-y,-z
-x,y,-z
-x,-y,-z
1/2+x,y,-z
1/2-x,y,z
x,-y,z
loop_
_atom_site_type_symbol
_atom_site_label
_atom_site_fract_x
_atom_site_fract_y
_atom_site_fract_z
Si Si1 0.424690 0.122280 0.426779
Si Si2 0.425749 0.500000 0.426797
Si Si3 0.426260 0.426522 0.795074
Si Si4 0.928333 0.000000 0.424133
Si Si5 0.918540 0.424071 0.932903
Si Si6 0.073216 0.379811 0.337746
Si Si7 0.923245 0.262671 0.572722
O O1 0.500000 0.127652 0.500000
O O2 0.250000 0.105419 0.433523
O O3 0.509257 0.064349 0.386549
O O4 0.449558 0.192278 0.393539
O O5 0.250000 0.500000 0.437881
O O6 0.500000 0.500000 0.500000
O O7 0.478946 0.562029 0.385499
O O8 0.250000 0.418714 0.799157
O O9 0.473329 0.500000 0.782690
O O10 0.494811 0.400391 0.865680
O O11 0.490891 0.383613 0.734512
O O12 0.000000 0.000000 0.500000
O O13 0.750000 0.000000 0.425556
O O14 0.750000 0.397557 0.930843
O O15 0.919629 0.500000 0.935963
O O16 0.000000 0.396026 0.000000
O O17 0.250000 0.381505 0.324753
O O18 0.018190 0.314515 0.373219
O O19 0.750000 0.274151 0.557952
O O20 0.000000 0.272143 0.500000
#
# Coordination Sequence:
#
# PCOD8205933 Si02
#       7
#     8   4   8   4   8   8   8
#     4   9  15  24  36  51  69  89 110 138 174 215
#     4  10  20  30  42  54  67  86 115 154 196 234
#     4  10  19  29  41  57  74  93 119 150 183 221
#     4  10  16  22  34  52  70  88 108 134 167 210
#     4   9  16  26  41  59  78  97 114 137 171 214
#     4  10  19  31  42  54  70  93 120 152 192 231
#     4   9  18  29  41  54  70  91 119 152 189 229
#
# _framework density 13.102029999999999
#
# number of rings (size 3 to 8) (size 9 to 14) (size 15 to 20)
#    0.000    2.500    0.833    3.750    0.000    4.667 
#    0.000    0.000    0.000    0.000    0.000    0.000 
#    0.000    0.000    0.000    0.000    0.000    0.000 
#
# Total GULP energy -594936.021846 kJ/mol
# GULP energy per Si atom -12394.500455 kJ/mol
# Density = 1.307221 g / cm^3
# Si number density = 13.102030 Si / 1000 Ang^3
#
#
#
# Elastic Constant Matrix: (Units=GPa)
#
#
# Indices 1 2 3 4 5 6 
#
# 1 71.8856 37.0256 37.7640 0.0000 0.0000 0.0000
# 2 37.0256 94.7633 38.8242 0.0000 0.0000 0.0000
# 3 37.7640 38.8242 88.9491 0.0000 0.0000 0.0000
# 4 0.0000 0.0000 0.0000 3.4740 0.0000 0.0000
# 5 0.0000 0.0000 0.0000 0.0000 22.3375 0.0000
# 6 0.0000 0.0000 0.0000 0.0000 0.0000 14.1208
#
#
#
# Elastic Compliance Matrix: (Units=1/GPa)
#
#
# Indices 1 2 3 4 5 6 
#
# 1 0.019830 -0.005235 -0.006134 0.000000 0.000000 0.000000
# 2 -0.005235 0.014232 -0.003990 0.000000 0.000000 0.000000
# 3 -0.006134 -0.003990 0.015588 0.000000 0.000000 0.000000
# 4 0.000000 0.000000 0.000000 0.287849 0.000000 0.000000
# 5 0.000000 0.000000 0.000000 0.000000 0.044768 0.000000
# 6 0.000000 0.000000 0.000000 0.000000 0.000000 0.070817
#
#
# Mechanical properties :
#
#
# Convention : Reuss Voigt Hill
#
# Bulk Modulus (GPa) = 52.81693 53.64727 53.23210
# Shear Modulus (GPa) = 10.20175 17.45210 13.82692
#
# Velocity S-wave (km/s) = 2.79344 3.65364 3.25210
# Velocity P-wave (km/s) = 7.12769 7.67029 7.40396
#
# Compressibility (1/GPa) = 0.01893332
#
# Stress axis : x y z
#
# Youngs Moduli (GPa) = 50.42977 70.26195 64.15187
#
# Poissons Ratio (x) = 0.36780 0.39351
# Poissons Ratio (y) = 0.26398 0.25595
# Poissons Ratio (z) = 0.30933 0.28032
#
# Static dielectric constant tensor:
#      x y z
#    x 2.645530 0.000000 0.000000 
#    y 0.000000 3.169080 0.000000 
#    z 0.000000 0.000000 2.442780 
# 
# 
# High freq. dielectric constant tensor:
#      x y z
#    x 1.513020 0.000000 0.000000 
#    y 0.000000 1.477390 0.000000 
#    z 0.000000 0.000000 1.460280 
# 
# From -- ./inp_files/28145.got.cif
#   From: 2010.03.12/outbox.cif.g09.slc.cpg/sg51_15_cif.got.tgz:28145.got - 2010.04.16 13:43:02.
