data_PCOD8205095
_publ_section_title
;
Structure prediction by ZEFSAII (Michael W. Deem and Ramdas Pophale) SiO2 
 PCOD8205095
Probable space group: P B A N
;
_chemical_formula_sum "Si O2"
_cell_formula_units_Z 64
_cell_length_a 18.369605
_cell_length_b 13.169861
_cell_length_c 15.563392
_cell_angle_alpha 90.000000
_cell_angle_beta 90.000000
_cell_angle_gamma 90.000000
_cell_volume 3765.175858
_symmetry_space_group_name_H-M "P B A N"
_symmetry_group_IT_number 50
_space_group.IT_coordinate_system_code '2'
_symmetry_cell_setting 'orthorhombic'
loop_
_space_group_symop_operation_xyz
x,y,z
1/2-x,1/2-y,z
x,1/2-y,-z
1/2-x,y,-z
-x,-y,-z
1/2+x,1/2+y,-z
-x,1/2+y,z
1/2+x,-y,z
loop_
_atom_site_type_symbol
_atom_site_label
_atom_site_fract_x
_atom_site_fract_y
_atom_site_fract_z
Si Si1 0.064704 0.867010 0.638923
Si Si2 0.500000 0.500000 0.222184
Si Si3 0.336711 0.546223 0.500000
Si Si4 0.593854 0.628826 0.097490
Si Si5 0.406146 0.371174 0.097490
Si Si6 0.435296 0.632990 0.361077
Si Si7 0.557194 0.864620 0.500000
Si Si8 0.250000 0.359997 0.898956
O O1 0.059598 0.939687 0.721495
O O2 0.136816 0.893500 0.584530
O O3 0.069728 0.750000 0.667693
O O4 0.992047 0.886719 0.583122
O O5 0.536860 0.583890 0.163102
O O6 0.463140 0.416110 0.163102
O O7 0.440402 0.560313 0.278505
O O8 0.250000 0.537494 0.500000
O O9 0.363184 0.606500 0.415470
O O10 0.371750 0.434288 0.500000
O O11 0.593986 0.750000 0.105493
O O12 0.674088 0.584058 0.124416
O O13 0.574055 0.596518 0.000000
O O14 0.325912 0.415942 0.124416
O O15 0.507954 0.613281 0.416877
O O16 0.586044 0.750000 0.500000
O O17 0.250000 0.250000 0.852832
O O18 0.250000 0.341433 0.000000
#
# Coordination Sequence:
#
# PCOD8205095 Si02
#       8
#     8   8   8   8   8   8   8   8
#     4  10  20  35  54  73  98 134 174 211 248 298
#     4  12  19  31  50  78 106 128 168 215 265 292
#     4  11  20  36  57  76 101 136 174 204 246 308
#     4   9  18  32  51  75 102 135 170 205 251 307
#     4   9  18  32  51  75 102 135 170 205 251 307
#     4  10  20  35  54  73  98 134 174 211 248 298
#     4   9  17  35  57  75  99 130 164 203 253 309
#     4   7  12  28  50  68  91 122 159 198 241 298
#
# _framework density 16.997876999999999
#
# number of rings (size 3 to 8) (size 9 to 14) (size 15 to 20)
#    0.000    2.375    2.500    4.500    0.000    1.250 
#    2.250    0.000    0.000    0.000    0.000    0.000 
#    0.000    8.000    0.000    0.000    0.000    0.000 
#
# Total GULP energy -793124.565521 kJ/mol
# GULP energy per Si atom -12392.571336 kJ/mol
# Density = 1.695919 g / cm^3
# Si number density = 16.997877 Si / 1000 Ang^3
#
#
#
# Elastic Constant Matrix: (Units=GPa)
#
#
# Indices 1 2 3 4 5 6 
#
# 1 105.0397 31.9304 36.4263 0.0000 0.0000 0.0000
# 2 31.9304 76.9095 32.5454 0.0000 0.0000 0.0000
# 3 36.4263 32.5454 81.3103 0.0000 0.0000 0.0000
# 4 0.0000 0.0000 0.0000 26.9856 0.0000 0.0000
# 5 0.0000 0.0000 0.0000 0.0000 7.8348 0.0000
# 6 0.0000 0.0000 0.0000 0.0000 0.0000 16.9497
#
#
#
# Elastic Compliance Matrix: (Units=1/GPa)
#
#
# Indices 1 2 3 4 5 6 
#
# 1 0.011904 -0.003233 -0.004039 0.000000 0.000000 0.000000
# 2 -0.003233 0.016532 -0.005169 0.000000 0.000000 0.000000
# 3 -0.004039 -0.005169 0.016177 0.000000 0.000000 0.000000
# 4 0.000000 0.000000 0.000000 0.037057 0.000000 0.000000
# 5 0.000000 0.000000 0.000000 0.000000 0.127635 0.000000
# 6 0.000000 0.000000 0.000000 0.000000 0.000000 0.058998
#
#
# Mechanical properties :
#
#
# Convention : Reuss Voigt Hill
#
# Bulk Modulus (GPa) = 50.68076 51.67374 51.17725
# Shear Modulus (GPa) = 16.68004 21.17786 18.92895
#
# Velocity S-wave (km/s) = 3.13597 3.53358 3.34069
# Velocity P-wave (km/s) = 6.55691 6.86399 6.71221
#
# Compressibility (1/GPa) = 0.01973135
#
# Stress axis : x y z
#
# Youngs Moduli (GPa) = 84.00870 60.48983 61.81744
#
# Poissons Ratio (x) = 0.19556 0.24966
# Poissons Ratio (y) = 0.27160 0.31951
# Poissons Ratio (z) = 0.33928 0.31265
#
# Static dielectric constant tensor:
#      x y z
#    x 3.284520 0.000000 0.000000 
#    y 0.000000 3.124890 0.000000 
#    z 0.000000 0.000000 3.076490 
# 
# 
# High freq. dielectric constant tensor:
#      x y z
#    x 1.638720 0.000000 0.000000 
#    y 0.000000 1.651110 0.000000 
#    z 0.000000 0.000000 1.642270 
# 
# From -- ./inp_files/27048.got.cif
#   From: 2010.03.12/outbox.cif.g09.slc.cpg/sg50_14_cif.got.tgz:27048.got - 2010.04.16 13:23:21.
