data_PCOD8205248
_publ_section_title
;
Structure prediction by ZEFSAII (Michael W. Deem and Ramdas Pophale) SiO2 
 PCOD8205248
Probable space group: P B A N
;
_chemical_formula_sum "Si O2"
_cell_formula_units_Z 38
_cell_length_a 9.201507
_cell_length_b 16.305717
_cell_length_c 12.246332
_cell_angle_alpha 90.000000
_cell_angle_beta 90.000000
_cell_angle_gamma 90.000000
_cell_volume 1837.404985
_symmetry_space_group_name_H-M "P B A N"
_symmetry_group_IT_number 50
_space_group.IT_coordinate_system_code '2'
_symmetry_cell_setting 'orthorhombic'
loop_
_space_group_symop_operation_xyz
x,y,z
1/2-x,1/2-y,z
x,1/2-y,-z
1/2-x,y,-z
-x,-y,-z
1/2+x,1/2+y,-z
-x,1/2+y,z
1/2+x,-y,z
loop_
_atom_site_type_symbol
_atom_site_label
_atom_site_fract_x
_atom_site_fract_y
_atom_site_fract_z
Si Si1 0.510058 0.437423 0.861255
Si Si2 0.250000 0.018032 0.000000
Si Si3 0.250000 0.250000 0.500000
Si Si4 0.063555 0.955459 0.668542
Si Si5 0.819219 0.160903 0.705863
Si Si6 0.455287 0.115763 0.458155
O O1 0.346849 0.427677 0.913869
O O2 0.523270 0.511302 0.772942
O O3 0.556768 0.353058 0.799393
O O4 0.631255 0.457084 0.950087
O O5 0.348795 0.190237 0.426850
O O6 0.197753 0.908041 0.720801
O O7 0.969324 0.895833 0.589625
O O8 0.111647 0.033576 0.594959
O O9 0.750000 0.250000 0.715953
O O10 0.888113 0.143491 0.587185
#
# Coordination Sequence:
#
# PCOD8205248 Si02
#       6
#     8   4   2   8   8   8
#     4  10  21  38  68  96 123 168 216 276 323 400
#     4  10  20  40  67  97 120 160 224 272 342 389
#     4  12  24  36  50  96 126 178 200 278 312 368
#     4  10  21  39  62  90 124 174 219 255 317 403
#     4  11  22  40  62  96 125 173 219 264 324 392
#     4  10  24  35  59  89 134 172 211 261 322 391
#
# _framework density 20.681342999999998
#
# number of rings (size 3 to 8) (size 9 to 14) (size 15 to 20)
#    0.000    1.684    2.105    1.895    8.842    0.842 
#    0.000    0.526    0.000    1.263    0.000    0.000 
#    0.000    0.000    0.000    0.000    0.000    0.000 
#
# Total GULP energy -470862.863650 kJ/mol
# GULP energy per Si atom -12391.127991 kJ/mol
# Density = 2.063427 g / cm^3
# Si number density = 20.681343 Si / 1000 Ang^3
#
#
#
# Elastic Constant Matrix: (Units=GPa)
#
#
# Indices 1 2 3 4 5 6 
#
# 1 99.6707 51.9967 36.2771 0.0000 0.0000 0.0000
# 2 51.9967 121.4371 28.2243 0.0000 0.0000 0.0000
# 3 36.2771 28.2243 96.2194 0.0000 0.0000 0.0000
# 4 0.0000 0.0000 0.0000 16.1417 0.0000 0.0000
# 5 0.0000 0.0000 0.0000 0.0000 37.8645 0.0000
# 6 0.0000 0.0000 0.0000 0.0000 0.0000 42.5686
#
#
#
# Elastic Compliance Matrix: (Units=1/GPa)
#
#
# Indices 1 2 3 4 5 6 
#
# 1 0.014108 -0.005156 -0.003807 0.000000 0.000000 0.000000
# 2 -0.005156 0.010722 -0.001201 0.000000 0.000000 0.000000
# 3 -0.003807 -0.001201 0.012180 0.000000 0.000000 0.000000
# 4 0.000000 0.000000 0.000000 0.061951 0.000000 0.000000
# 5 0.000000 0.000000 0.000000 0.000000 0.026410 0.000000
# 6 0.000000 0.000000 0.000000 0.000000 0.000000 0.023491
#
#
# Mechanical properties :
#
#
# Convention : Reuss Voigt Hill
#
# Bulk Modulus (GPa) = 59.94246 61.14703 60.54474
# Shear Modulus (GPa) = 28.61198 32.70358 30.65778
#
# Velocity S-wave (km/s) = 3.72354 3.98088 3.85436
# Velocity P-wave (km/s) = 6.89442 7.12463 7.01047
#
# Compressibility (1/GPa) = 0.01668267
#
# Stress axis : x y z
#
# Youngs Moduli (GPa) = 70.87929 93.26956 82.09870
#
# Poissons Ratio (x) = 0.48091 0.31253
# Poissons Ratio (y) = 0.36547 0.09860
# Poissons Ratio (z) = 0.26982 0.11202
#
# Static dielectric constant tensor:
#      x y z
#    x 3.912750 0.000000 0.000000 
#    y 0.000000 3.588860 0.000000 
#    z 0.000000 0.000000 3.927850 
# 
# 
# High freq. dielectric constant tensor:
#      x y z
#    x 1.817410 0.000000 0.000000 
#    y 0.000000 1.783180 0.000000 
#    z 0.000000 0.000000 1.803200 
# 
# From -- ./inp_files/18796.got.cif
#   From: 2010.03.12/outbox.cif.g09.slc.cpg/sg50_10_cif.got.tgz:18796.got - 2010.04.16 13:23:21.
