data_PCOD8205472
_publ_section_title
;
Structure prediction by ZEFSAII (Michael W. Deem and Ramdas Pophale) SiO2 
 PCOD8205472
Probable space group: P B A N
;
_chemical_formula_sum "Si O2"
_cell_formula_units_Z 60
_cell_length_a 8.753773
_cell_length_b 29.682879
_cell_length_c 11.897336
_cell_angle_alpha 90.000000
_cell_angle_beta 90.000000
_cell_angle_gamma 90.000000
_cell_volume 3091.370292
_symmetry_space_group_name_H-M "P B A N"
_symmetry_group_IT_number 50
_space_group.IT_coordinate_system_code '2'
_symmetry_cell_setting 'orthorhombic'
loop_
_space_group_symop_operation_xyz
x,y,z
1/2-x,1/2-y,z
x,1/2-y,-z
1/2-x,y,-z
-x,-y,-z
1/2+x,1/2+y,-z
-x,1/2+y,z
1/2+x,-y,z
loop_
_atom_site_type_symbol
_atom_site_label
_atom_site_fract_x
_atom_site_fract_y
_atom_site_fract_z
Si Si1 0.430189 0.049536 0.015968
Si Si2 0.490070 0.484584 0.346918
Si Si3 0.574825 0.077166 0.240700
Si Si4 0.573877 0.658528 0.640063
Si Si5 0.568285 0.656787 0.377835
Si Si6 0.077994 0.587871 0.190348
Si Si7 0.921399 0.249335 0.632904
Si Si8 0.750000 0.987844 0.500000
O O1 0.457379 0.067336 0.141054
O O2 0.250000 0.046635 0.000000
O O3 0.506940 0.087722 0.934593
O O4 0.500000 0.000000 0.000000
O O5 0.426878 0.534710 0.324881
O O6 0.525251 0.461470 0.230545
O O7 0.634483 0.481151 0.428994
O O8 0.350696 0.458307 0.412591
O O9 0.522274 0.119122 0.312273
O O10 0.739478 0.088895 0.188273
O O11 0.530888 0.649942 0.509863
O O12 0.754400 0.654225 0.652900
O O13 0.488712 0.624719 0.724635
O O14 0.518127 0.708135 0.677042
O O15 0.508157 0.704244 0.330129
O O16 0.750000 0.250000 0.684212
O O17 0.912258 0.250000 0.500000
#
# Coordination Sequence:
#
# PCOD8205472 Si02
#       8
#     8   8   8   8   8   8   8   4
#     4  12  26  44  64  83 112 153 204 254 300 351
#     4  11  24  37  56  80 120 159 195 236 290 350
#     4  12  25  40  60  86 115 156 201 248 297 350
#     4  10  22  36  60  90 125 160 199 242 297 356
#     4  10  22  36  60  90 125 160 199 242 297 356
#     4  12  25  40  60  86 115 156 201 248 297 350
#     4   9  17  35  57  86 123 160 197 241 292 355
#     4  10  24  38  52  80 120 160 188 238 294 354
#
# _framework density 19.408868999999999
#
# number of rings (size 3 to 8) (size 9 to 14) (size 15 to 20)
#    0.000    1.200    2.667    3.200    7.467    3.200 
#    0.000    0.000    0.000    0.800    0.000    5.600 
#    0.000    0.000    0.000    0.000    0.000    0.000 
#
# Total GULP energy -743734.262031 kJ/mol
# GULP energy per Si atom -12395.571034 kJ/mol
# Density = 1.936469 g / cm^3
# Si number density = 19.408869 Si / 1000 Ang^3
#
#
#
# Elastic Constant Matrix: (Units=GPa)
#
#
# Indices 1 2 3 4 5 6 
#
# 1 138.8385 40.9876 35.6785 0.0000 0.0000 0.0000
# 2 40.9876 109.1498 32.3327 0.0000 0.0000 0.0000
# 3 35.6785 32.3327 77.5709 0.0000 0.0000 0.0000
# 4 0.0000 0.0000 0.0000 12.2482 0.0000 0.0000
# 5 0.0000 0.0000 0.0000 0.0000 33.1431 0.0000
# 6 0.0000 0.0000 0.0000 0.0000 0.0000 23.5567
#
#
#
# Elastic Compliance Matrix: (Units=1/GPa)
#
#
# Indices 1 2 3 4 5 6 
#
# 1 0.008673 -0.002368 -0.003002 0.000000 0.000000 0.000000
# 2 -0.002368 0.011099 -0.003537 0.000000 0.000000 0.000000
# 3 -0.003002 -0.003537 0.015747 0.000000 0.000000 0.000000
# 4 0.000000 0.000000 0.000000 0.081645 0.000000 0.000000
# 5 0.000000 0.000000 0.000000 0.000000 0.030172 0.000000
# 6 0.000000 0.000000 0.000000 0.000000 0.000000 0.042451
#
#
# Mechanical properties :
#
#
# Convention : Reuss Voigt Hill
#
# Bulk Modulus (GPa) = 56.48325 60.39519 58.43922
# Shear Modulus (GPa) = 23.41908 28.22698 25.82303
#
# Velocity S-wave (km/s) = 3.47741 3.81771 3.65153
# Velocity P-wave (km/s) = 6.72964 7.11464 6.92482
#
# Compressibility (1/GPa) = 0.01770436
#
# Stress axis : x y z
#
# Youngs Moduli (GPa) = 115.29928 90.10200 63.50555
#
# Poissons Ratio (x) = 0.21332 0.19066
# Poissons Ratio (y) = 0.27297 0.22463
# Poissons Ratio (z) = 0.34617 0.31870
#
# Static dielectric constant tensor:
#      x y z
#    x 3.875760 0.000000 0.000000 
#    y 0.000000 3.525870 0.000000 
#    z 0.000000 0.000000 3.518750 
# 
# 
# High freq. dielectric constant tensor:
#      x y z
#    x 1.781970 0.000000 0.000000 
#    y 0.000000 1.738880 0.000000 
#    z 0.000000 0.000000 1.739710 
# 
# From -- ./inp_files/19494.got.cif
#   From: 2010.03.12/outbox.cif.g09.slc.cpg/sg50_10_cif.got.tgz:19494.got - 2010.04.16 13:23:21.
