data_PCOD8205244
_publ_section_title
;
Structure prediction by ZEFSAII (Michael W. Deem and Ramdas Pophale) SiO2 
 PCOD8205244
Probable space group: P B A N
;
_chemical_formula_sum "Si O2"
_cell_formula_units_Z 40
_cell_length_a 9.056470
_cell_length_b 23.564974
_cell_length_c 8.349319
_cell_angle_alpha 90.000000
_cell_angle_beta 90.000000
_cell_angle_gamma 90.000000
_cell_volume 1781.873923
_symmetry_space_group_name_H-M "P B A N"
_symmetry_group_IT_number 50
_space_group.IT_coordinate_system_code '2'
_symmetry_cell_setting 'orthorhombic'
loop_
_space_group_symop_operation_xyz
x,y,z
1/2-x,1/2-y,z
x,1/2-y,-z
1/2-x,y,-z
-x,-y,-z
1/2+x,1/2+y,-z
-x,1/2+y,z
1/2+x,-y,z
loop_
_atom_site_type_symbol
_atom_site_label
_atom_site_fract_x
_atom_site_fract_y
_atom_site_fract_z
Si Si1 0.403445 0.140816 0.826614
Si Si2 0.630795 0.963931 0.366954
Si Si3 0.419410 0.765720 0.320856
Si Si4 0.893028 0.084677 0.583761
Si Si5 0.423573 0.333713 0.815283
O O1 0.361149 0.075817 0.788781
O O2 0.534123 0.168670 0.716123
O O3 0.250971 0.173626 0.789313
O O4 0.456454 0.141393 0.009668
O O5 0.750000 0.945905 0.500000
O O6 0.472087 0.948336 0.439412
O O7 0.651397 0.029441 0.307898
O O8 0.250000 0.750000 0.290749
O O9 0.467356 0.750000 0.500000
O O10 0.512567 0.729423 0.193907
O O11 0.750000 0.115350 0.500000
O O12 0.991919 0.128859 0.680828
#
# Coordination Sequence:
#
# PCOD8205244 Si02
#       5
#     8   8   8   8   8
#     4  11  24  42  65  92 129 171 213 263 328 392
#     4  10  20  40  65  93 124 170 216 261 317 380
#     4  11  26  43  65  94 124 164 215 268 325 389
#     4  10  22  38  65  95 128 165 215 267 314 380
#     4  11  24  42  64  93 130 169 213 266 324 394
#
# _framework density 22.448277000000001
#
# number of rings (size 3 to 8) (size 9 to 14) (size 15 to 20)
#    0.000    1.400    2.000    2.400    5.600    4.800 
#    0.000    0.000    0.000    0.000    0.000    0.000 
#    0.000    0.000    0.000    0.000    0.000    0.000 
#
# Total GULP energy -495705.453326 kJ/mol
# GULP energy per Si atom -12392.636333 kJ/mol
# Density = 2.239718 g / cm^3
# Si number density = 22.448277 Si / 1000 Ang^3
#
#
#
# Elastic Constant Matrix: (Units=GPa)
#
#
# Indices 1 2 3 4 5 6 
#
# 1 105.1768 10.7412 28.9145 0.0000 0.0000 0.0000
# 2 10.7412 73.7669 8.3751 0.0000 0.0000 0.0000
# 3 28.9145 8.3751 78.2079 0.0000 0.0000 0.0000
# 4 0.0000 0.0000 0.0000 18.2007 0.0000 0.0000
# 5 0.0000 0.0000 0.0000 0.0000 32.8294 0.0000
# 6 0.0000 0.0000 0.0000 0.0000 0.0000 35.5536
#
#
#
# Elastic Compliance Matrix: (Units=1/GPa)
#
#
# Indices 1 2 3 4 5 6 
#
# 1 0.010674 -0.001120 -0.003826 0.000000 0.000000 0.000000
# 2 -0.001120 0.013841 -0.001068 0.000000 0.000000 0.000000
# 3 -0.003826 -0.001068 0.014315 0.000000 0.000000 0.000000
# 4 0.000000 0.000000 0.000000 0.054943 0.000000 0.000000
# 5 0.000000 0.000000 0.000000 0.000000 0.030460 0.000000
# 6 0.000000 0.000000 0.000000 0.000000 0.000000 0.028127
#
#
# Mechanical properties :
#
#
# Convention : Reuss Voigt Hill
#
# Bulk Modulus (GPa) = 37.31153 39.24589 38.27871
# Shear Modulus (GPa) = 28.84791 31.25812 30.05302
#
# Velocity S-wave (km/s) = 3.58870 3.73560 3.66289
# Velocity P-wave (km/s) = 5.81626 6.01058 5.91422
#
# Compressibility (1/GPa) = 0.02680136
#
# Stress axis : x y z
#
# Youngs Moduli (GPa) = 93.68470 72.25147 69.85439
#
# Poissons Ratio (x) = 0.08091 0.26729
# Poissons Ratio (y) = 0.10491 0.07461
# Poissons Ratio (z) = 0.35848 0.07717
#
# Static dielectric constant tensor:
#      x y z
#    x 4.159930 0.000000 0.000000 
#    y 0.000000 4.599170 0.000000 
#    z 0.000000 0.000000 3.790520 
# 
# 
# High freq. dielectric constant tensor:
#      x y z
#    x 1.895880 0.000000 0.000000 
#    y 0.000000 1.895960 0.000000 
#    z 0.000000 0.000000 1.858240 
# 
# From -- ./inp_files/9518.got.cif
#   From: 2010.03.12/outbox.cif.g09.slc.cpg/sg50_5_cif.got.tgz:9518.got - 2010.04.16 13:23:21.
