data_PCOD8205801
_publ_section_title
;
Structure prediction by ZEFSAII (Michael W. Deem and Ramdas Pophale) SiO2 
 PCOD8205801
Probable space group: P B A N
;
_chemical_formula_sum "Si O2"
_cell_formula_units_Z 40
_cell_length_a 24.738636
_cell_length_b 9.106830
_cell_length_c 7.495150
_cell_angle_alpha 90.000000
_cell_angle_beta 90.000000
_cell_angle_gamma 90.000000
_cell_volume 1688.586484
_symmetry_space_group_name_H-M "P B A N"
_symmetry_group_IT_number 50
_space_group.IT_coordinate_system_code '2'
_symmetry_cell_setting 'orthorhombic'
loop_
_space_group_symop_operation_xyz
x,y,z
1/2-x,1/2-y,z
x,1/2-y,-z
1/2-x,y,-z
-x,-y,-z
1/2+x,1/2+y,-z
-x,1/2+y,z
1/2+x,-y,z
loop_
_atom_site_type_symbol
_atom_site_label
_atom_site_fract_x
_atom_site_fract_y
_atom_site_fract_z
Si Si1 0.040882 0.075590 0.368402
Si Si2 0.304684 0.571080 0.111678
Si Si3 0.040611 0.780286 0.203582
Si Si4 0.337977 0.091272 0.543664
Si Si5 0.349279 0.633201 0.764382
O O1 0.097828 0.112537 0.454778
O O2 0.014367 0.227370 0.300361
O O3 0.050130 0.954291 0.215010
O O4 0.000000 0.000000 0.500000
O O5 0.312610 0.451261 0.265724
O O6 0.307955 0.730413 0.207480
O O7 0.250000 0.546702 0.000000
O O8 0.351898 0.554221 0.959803
O O9 0.091469 0.692456 0.289784
O O10 0.033708 0.750000 0.000000
O O11 0.312047 0.250000 0.500000
O O12 0.324749 0.971410 0.389660
#
# Coordination Sequence:
#
# PCOD8205801 Si02
#       5
#     8   8   8   8   8
#     4  12  24  40  66 104 151 198 241 293 364 446
#     4  11  25  49  78 109 137 184 257 323 373 436
#     4  12  23  41  66 104 147 196 248 301 361 444
#     4  12  26  46  72 110 154 200 239 302 386 455
#     4  11  22  45  77 106 144 187 253 314 367 435
#
# _framework density 23.688452000000002
#
# number of rings (size 3 to 8) (size 9 to 14) (size 15 to 20)
#    0.000    0.400    6.000    4.200    0.000    1.600 
#    0.000    8.000    0.000    0.000    0.000    0.000 
#    0.000    0.000    0.000    0.000    0.000    0.000 
#
# Total GULP energy -495835.013290 kJ/mol
# GULP energy per Si atom -12395.875332 kJ/mol
# Density = 2.363454 g / cm^3
# Si number density = 23.688452 Si / 1000 Ang^3
#
#
#
# Elastic Constant Matrix: (Units=GPa)
#
#
# Indices 1 2 3 4 5 6 
#
# 1 104.4945 23.9107 29.4185 0.0000 0.0000 0.0000
# 2 23.9107 127.7900 54.2964 0.0000 0.0000 0.0000
# 3 29.4185 54.2964 123.5671 0.0000 0.0000 0.0000
# 4 0.0000 0.0000 0.0000 43.0776 0.0000 0.0000
# 5 0.0000 0.0000 0.0000 0.0000 33.2816 0.0000
# 6 0.0000 0.0000 0.0000 0.0000 0.0000 18.9329
#
#
#
# Elastic Compliance Matrix: (Units=1/GPa)
#
#
# Indices 1 2 3 4 5 6 
#
# 1 0.010381 -0.001097 -0.001989 0.000000 0.000000 0.000000
# 2 -0.001097 0.009738 -0.004018 0.000000 0.000000 0.000000
# 3 -0.001989 -0.004018 0.010332 0.000000 0.000000 0.000000
# 4 0.000000 0.000000 0.000000 0.023214 0.000000 0.000000
# 5 0.000000 0.000000 0.000000 0.000000 0.030047 0.000000
# 6 0.000000 0.000000 0.000000 0.000000 0.000000 0.052818
#
#
# Mechanical properties :
#
#
# Convention : Reuss Voigt Hill
#
# Bulk Modulus (GPa) = 61.56809 63.45590 62.51199
# Shear Modulus (GPa) = 32.02021 35.60682 33.81352
#
# Velocity S-wave (km/s) = 3.68057 3.88123 3.78223
# Velocity P-wave (km/s) = 6.64148 6.85063 6.74686
#
# Compressibility (1/GPa) = 0.01624218
#
# Stress axis : x y z
#
# Youngs Moduli (GPa) = 96.32977 102.69418 96.78882
#
# Poissons Ratio (x) = 0.11267 0.19255
# Poissons Ratio (y) = 0.10568 0.38886
# Poissons Ratio (z) = 0.19164 0.41259
#
# Static dielectric constant tensor:
#      x y z
#    x 4.956770 0.000000 0.000000 
#    y 0.000000 -0.502620 0.000000 
#    z 0.000000 0.000000 4.222600 
# 
# 
# High freq. dielectric constant tensor:
#      x y z
#    x 1.935730 0.000000 0.000000 
#    y 0.000000 1.929790 0.000000 
#    z 0.000000 0.000000 1.949420 
# 
# From -- ./inp_files/15792.got.cif
#   From: 2010.03.12/outbox.cif.g09.slc.cpg/sg50_8_cif.got.tgz:15792.got - 2010.04.16 13:23:21.
