data_PCOD8205739
_publ_section_title
;
Structure prediction by ZEFSAII (Michael W. Deem and Ramdas Pophale) SiO2 
 PCOD8205739
Probable space group: P B A N
;
_chemical_formula_sum "Si O2"
_cell_formula_units_Z 64
_cell_length_a 18.136917
_cell_length_b 11.966846
_cell_length_c 14.253797
_cell_angle_alpha 90.000000
_cell_angle_beta 90.000000
_cell_angle_gamma 90.000000
_cell_volume 3093.668228
_symmetry_space_group_name_H-M "P B A N"
_symmetry_group_IT_number 50
_space_group.IT_coordinate_system_code '2'
_symmetry_cell_setting 'orthorhombic'
loop_
_space_group_symop_operation_xyz
x,y,z
1/2-x,1/2-y,z
x,1/2-y,-z
1/2-x,y,-z
-x,-y,-z
1/2+x,1/2+y,-z
-x,1/2+y,z
1/2+x,-y,z
loop_
_atom_site_type_symbol
_atom_site_label
_atom_site_fract_x
_atom_site_fract_y
_atom_site_fract_z
Si Si1 0.593043 0.073275 0.979919
Si Si2 0.195707 0.046342 0.711576
Si Si3 0.632730 0.934107 0.319396
Si Si4 0.932664 0.366961 0.196449
Si Si5 0.938540 0.857668 0.946397
Si Si6 0.094231 0.274866 0.223328
Si Si7 0.676145 0.319707 0.182790
Si Si8 0.663532 0.875388 0.512757
O O1 0.585103 0.118955 0.086005
O O2 0.611373 0.940803 0.990353
O O3 0.516036 0.080856 0.920979
O O4 0.656215 0.134664 0.921387
O O5 0.281974 0.070391 0.710377
O O6 0.158630 0.133347 0.783849
O O7 0.150495 0.068542 0.614509
O O8 0.184022 0.919714 0.743741
O O9 0.600023 0.807619 0.312322
O O10 0.628637 0.956752 0.431904
O O11 0.588406 0.024900 0.258210
O O12 0.885270 0.260390 0.228370
O O13 0.017397 0.339619 0.214861
O O14 0.892496 0.818151 0.857537
O O15 0.966152 0.750000 0.000000
O O16 0.750000 0.250000 0.170661
O O17 0.631029 0.750000 0.500000
O O18 0.750000 0.868800 0.500000
#
# Coordination Sequence:
#
# PCOD8205739 Si02
#       8
#     8   8   8   8   8   8   8   8
#     4  11  23  39  62  90 130 183 237 253 322 406
#     4  11  24  43  72 103 128 176 227 283 343 404
#     4  11  23  45  69 101 131 170 230 279 339 407
#     4  12  25  42  63  99 136 185 221 275 330 411
#     4  11  20  36  59  92 124 168 225 278 310 390
#     4  12  23  38  70  96 137 169 224 285 337 386
#     4  12  25  44  65  97 140 179 227 278 334 398
#     4   9  18  40  73  99 126 168 217 270 339 414
#
# _framework density 20.687414
#
# number of rings (size 3 to 8) (size 9 to 14) (size 15 to 20)
#    0.000    0.875    6.250    1.500    3.500    1.000 
#    0.000    1.250    2.750    0.750    0.000    0.000 
#    0.000    0.000    0.000    0.000    0.000    0.000 
#
# Total GULP energy -793049.358703 kJ/mol
# GULP energy per Si atom -12391.396230 kJ/mol
# Density = 2.064033 g / cm^3
# Si number density = 20.687414 Si / 1000 Ang^3
#
#
#
# Elastic Constant Matrix: (Units=GPa)
#
#
# Indices 1 2 3 4 5 6 
#
# 1 66.7989 53.4974 38.0919 0.0000 0.0000 0.0000
# 2 53.4974 155.3892 51.0835 0.0000 0.0000 0.0000
# 3 38.0919 51.0835 105.4328 0.0000 0.0000 0.0000
# 4 0.0000 0.0000 0.0000 27.0413 0.0000 0.0000
# 5 0.0000 0.0000 0.0000 0.0000 18.3271 0.0000
# 6 0.0000 0.0000 0.0000 0.0000 0.0000 37.7290
#
#
#
# Elastic Compliance Matrix: (Units=1/GPa)
#
#
# Indices 1 2 3 4 5 6 
#
# 1 0.022916 -0.006147 -0.005301 0.000000 0.000000 0.000000
# 2 -0.006147 0.009303 -0.002287 0.000000 0.000000 0.000000
# 3 -0.005301 -0.002287 0.012508 0.000000 0.000000 0.000000
# 4 0.000000 0.000000 0.000000 0.036980 0.000000 0.000000
# 5 0.000000 0.000000 0.000000 0.000000 0.054564 0.000000
# 6 0.000000 0.000000 0.000000 0.000000 0.000000 0.026505
#
#
# Mechanical properties :
#
#
# Convention : Reuss Voigt Hill
#
# Bulk Modulus (GPa) = 57.94458 68.10741 63.02600
# Shear Modulus (GPa) = 25.51031 28.94935 27.22983
#
# Velocity S-wave (km/s) = 3.51541 3.74487 3.63195
# Velocity P-wave (km/s) = 6.67442 7.18974 6.93687
#
# Compressibility (1/GPa) = 0.01725787
#
# Stress axis : x y z
#
# Youngs Moduli (GPa) = 43.63742 107.48661 79.94886
#
# Poissons Ratio (x) = 0.66070 0.42382
# Poissons Ratio (y) = 0.26823 0.18283
# Poissons Ratio (z) = 0.23133 0.24581
#
# Static dielectric constant tensor:
#      x y z
#    x 3.585760 0.000000 0.000000 
#    y 0.000000 4.321090 0.000000 
#    z 0.000000 0.000000 4.570410 
# 
# 
# High freq. dielectric constant tensor:
#      x y z
#    x 1.785710 0.000000 0.000000 
#    y 0.000000 1.830070 0.000000 
#    z 0.000000 0.000000 1.802390 
# 
# From -- ./inp_files/27010.got.cif
#   From: 2010.03.12/outbox.cif.g09.slc.cpg/sg50_14_cif.got.tgz:27010.got - 2010.04.16 13:23:21.
