data_PCOD8205468
_publ_section_title
;
Structure prediction by ZEFSAII (Michael W. Deem and Ramdas Pophale) SiO2 
 PCOD8205468
Probable space group: P B A N
;
_chemical_formula_sum "Si O2"
_cell_formula_units_Z 60
_cell_length_a 9.049091
_cell_length_b 29.619745
_cell_length_c 12.042141
_cell_angle_alpha 90.000000
_cell_angle_beta 90.000000
_cell_angle_gamma 90.000000
_cell_volume 3227.676342
_symmetry_space_group_name_H-M "P B A N"
_symmetry_group_IT_number 50
_space_group.IT_coordinate_system_code '2'
_symmetry_cell_setting 'orthorhombic'
loop_
_space_group_symop_operation_xyz
x,y,z
1/2-x,1/2-y,z
x,1/2-y,-z
1/2-x,y,-z
-x,-y,-z
1/2+x,1/2+y,-z
-x,1/2+y,z
1/2+x,-y,z
loop_
_atom_site_type_symbol
_atom_site_label
_atom_site_fract_x
_atom_site_fract_y
_atom_site_fract_z
Si Si1 0.578988 0.047718 0.011345
Si Si2 0.489423 0.485149 0.353563
Si Si3 0.585722 0.079541 0.252311
Si Si4 0.580041 0.661897 0.635069
Si Si5 0.572461 0.658027 0.378994
Si Si6 0.078305 0.590654 0.211076
Si Si7 0.915498 0.248413 0.631386
Si Si8 0.750000 0.987887 0.500000
O O1 0.531343 0.069134 0.128222
O O2 0.750000 0.035546 0.000000
O O3 0.546099 0.087645 0.920687
O O4 0.500000 0.000000 0.000000
O O5 0.430643 0.535209 0.328186
O O6 0.531461 0.460269 0.242141
O O7 0.628856 0.481779 0.436043
O O8 0.348312 0.459089 0.412373
O O9 0.479752 0.116059 0.306846
O O10 0.752337 0.098689 0.246649
O O11 0.531792 0.649701 0.508856
O O12 0.755144 0.665584 0.639980
O O13 0.522966 0.625812 0.724317
O O14 0.510735 0.709347 0.674440
O O15 0.491749 0.702146 0.330573
O O16 0.750000 0.250000 0.681708
O O17 0.909805 0.250000 0.500000
#
# Coordination Sequence:
#
# PCOD8205468 Si02
#       8
#     8   8   8   8   8   8   8   4
#     4  10  22  40  58  77 104 143 194 242 281 327
#     4  11  22  35  52  74 112 149 183 222 274 334
#     4  11  23  37  55  79 107 147 189 233 280 330
#     4  10  22  35  57  85 117 149 185 224 274 333
#     4  10  22  35  57  85 117 149 185 224 274 333
#     4  11  23  37  55  79 107 147 189 233 280 330
#     4   9  17  35  57  84 117 150 181 221 271 333
#     4  10  24  34  48  76 112 148 176 226 278 334
#
# _framework density 18.589224999999999
#
# number of rings (size 3 to 8) (size 9 to 14) (size 15 to 20)
#    0.000    1.733    2.667    1.200    5.600    4.267 
#    0.000    0.000    0.000    0.800    0.000    5.600 
#    0.000    0.000    0.000    0.000    0.000    0.000 
#
# Total GULP energy -743570.862369 kJ/mol
# GULP energy per Si atom -12392.847706 kJ/mol
# Density = 1.854692 g / cm^3
# Si number density = 18.589225 Si / 1000 Ang^3
#
#
#
# Elastic Constant Matrix: (Units=GPa)
#
#
# Indices 1 2 3 4 5 6 
#
# 1 108.6327 41.6942 42.5593 0.0000 0.0000 0.0000
# 2 41.6942 99.9643 42.1545 0.0000 0.0000 0.0000
# 3 42.5593 42.1545 99.4542 0.0000 0.0000 0.0000
# 4 0.0000 0.0000 0.0000 13.2790 0.0000 0.0000
# 5 0.0000 0.0000 0.0000 0.0000 24.1862 0.0000
# 6 0.0000 0.0000 0.0000 0.0000 0.0000 31.7770
#
#
#
# Elastic Compliance Matrix: (Units=1/GPa)
#
#
# Indices 1 2 3 4 5 6 
#
# 1 0.011961 -0.003446 -0.003658 0.000000 0.000000 0.000000
# 2 -0.003446 0.013174 -0.004109 0.000000 0.000000 0.000000
# 3 -0.003658 -0.004109 0.013362 0.000000 0.000000 0.000000
# 4 0.000000 0.000000 0.000000 0.075307 0.000000 0.000000
# 5 0.000000 0.000000 0.000000 0.000000 0.041346 0.000000
# 6 0.000000 0.000000 0.000000 0.000000 0.000000 0.031469
#
#
# Mechanical properties :
#
#
# Convention : Reuss Voigt Hill
#
# Bulk Modulus (GPa) = 62.22628 62.31859 62.27244
# Shear Modulus (GPa) = 23.32073 25.95800 24.63936
#
# Velocity S-wave (km/s) = 3.54578 3.74090 3.64464
# Velocity P-wave (km/s) = 7.09298 7.22882 7.16123
#
# Compressibility (1/GPa) = 0.01607038
#
# Stress axis : x y z
#
# Youngs Moduli (GPa) = 83.60444 75.90835 74.84051
#
# Poissons Ratio (x) = 0.26161 0.27374
# Poissons Ratio (y) = 0.28814 0.30752
# Poissons Ratio (z) = 0.30580 0.31191
#
# Static dielectric constant tensor:
#      x y z
#    x 3.667170 0.000000 0.000000 
#    y 0.000000 3.302400 0.000000 
#    z 0.000000 0.000000 3.448950 
# 
# 
# High freq. dielectric constant tensor:
#      x y z
#    x 1.739890 0.000000 0.000000 
#    y 0.000000 1.704000 0.000000 
#    z 0.000000 0.000000 1.704830 
# 
# From -- ./inp_files/19495.got.cif
#   From: 2010.03.12/outbox.cif.g09.slc.cpg/sg50_10_cif.got.tgz:19495.got - 2010.04.16 13:23:21.
