data_PCOD8205029
_publ_section_title
;
Structure prediction by ZEFSAII (Michael W. Deem and Ramdas Pophale) SiO2 
 PCOD8205029
Probable space group: P B A N
;
_chemical_formula_sum "Si O2"
_cell_formula_units_Z 52
_cell_length_a 8.946979
_cell_length_b 17.287690
_cell_length_c 15.098049
_cell_angle_alpha 90.000000
_cell_angle_beta 90.000000
_cell_angle_gamma 90.000000
_cell_volume 2335.254485
_symmetry_space_group_name_H-M "P B A N"
_symmetry_group_IT_number 50
_space_group.IT_coordinate_system_code '2'
_symmetry_cell_setting 'orthorhombic'
loop_
_space_group_symop_operation_xyz
x,y,z
1/2-x,1/2-y,z
x,1/2-y,-z
1/2-x,y,-z
-x,-y,-z
1/2+x,1/2+y,-z
-x,1/2+y,z
1/2+x,-y,z
loop_
_atom_site_type_symbol
_atom_site_label
_atom_site_fract_x
_atom_site_fract_y
_atom_site_fract_z
Si Si1 0.230847 0.915709 0.396869
Si Si2 0.180925 0.047248 0.741394
Si Si3 0.250000 0.750000 0.000000
Si Si4 0.850247 0.390064 0.898999
Si Si5 0.564291 0.676584 0.354127
Si Si6 0.080791 0.507094 0.865411
Si Si7 0.750000 0.750000 0.500000
Si Si8 0.620309 0.305978 0.277074
O O1 0.250000 0.936990 0.500000
O O2 0.340333 0.844820 0.371472
O O3 0.065358 0.885512 0.374934
O O4 0.275676 0.988627 0.337138
O O5 0.190052 0.133167 0.702863
O O6 0.291706 0.046408 0.823909
O O7 0.015484 0.038617 0.783483
O O8 0.139935 0.806220 0.944642
O O9 0.678888 0.423723 0.913633
O O10 0.892576 0.375299 0.795265
O O11 0.975921 0.453396 0.930364
O O12 0.639592 0.696601 0.445541
O O13 0.522133 0.752615 0.296970
O O14 0.750000 0.250000 0.241041
#
# Coordination Sequence:
#
# PCOD8205029 Si02
#       8
#     8   8   2   8   8   8   2   8
#     4  11  22  37  64  92 127 182 239 288 335 399
#     4  11  21  39  64  98 125 178 235 278 334 395
#     4  12  28  44  80 114 138 178 216 274 344 440
#     4  11  23  44  75 105 138 174 229 271 343 420
#     4  11  25  39  56  89 132 179 232 287 351 392
#     4  10  21  42  72 100 133 177 223 276 338 414
#     4  12  28  40  50  88 144 178 230 310 356 368
#     4  10  19  40  65  88 128 179 225 273 337 412
#
# _framework density 22.267379999999999
#
# number of rings (size 3 to 8) (size 9 to 14) (size 15 to 20)
#    0.000    1.231    5.385    1.846    3.231    4.615 
#    0.000    0.000    0.000    3.692    0.000    0.000 
#    0.000    0.000    0.000    0.000    0.000    0.000 
#
# Total GULP energy -644273.934729 kJ/mol
# GULP energy per Si atom -12389.883360 kJ/mol
# Density = 2.221670 g / cm^3
# Si number density = 22.267380 Si / 1000 Ang^3
#
#
#
# Elastic Constant Matrix: (Units=GPa)
#
#
# Indices 1 2 3 4 5 6 
#
# 1 90.5690 53.0946 14.3333 0.0000 0.0000 0.0000
# 2 53.0946 123.8949 26.6738 0.0000 0.0000 0.0000
# 3 14.3333 26.6738 16.8944 0.0000 0.0000 0.0000
# 4 0.0000 0.0000 0.0000 38.3683 0.0000 0.0000
# 5 0.0000 0.0000 0.0000 0.0000 28.8246 0.0000
# 6 0.0000 0.0000 0.0000 0.0000 0.0000 36.4924
#
#
#
# Elastic Compliance Matrix: (Units=1/GPa)
#
#
# Indices 1 2 3 4 5 6 
#
# 1 0.014912 -0.005555 -0.003881 0.000000 0.000000 0.000000
# 2 -0.005555 0.014297 -0.017860 0.000000 0.000000 0.000000
# 3 -0.003881 -0.017860 0.090682 0.000000 0.000000 0.000000
# 4 0.000000 0.000000 0.000000 0.026063 0.000000 0.000000
# 5 0.000000 0.000000 0.000000 0.000000 0.034693 0.000000
# 6 0.000000 0.000000 0.000000 0.000000 0.000000 0.027403
#
#
# Mechanical properties :
#
#
# Convention : Reuss Voigt Hill
#
# Bulk Modulus (GPa) = 15.31413 46.61798 30.96605
# Shear Modulus (GPa) = 17.58034 29.88749 23.73392
#
# Velocity S-wave (km/s) = 2.81287 3.66759 3.26829
# Velocity P-wave (km/s) = 4.17636 6.23827 5.30839
#
# Compressibility (1/GPa) = 0.06529918
#
# Stress axis : x y z
#
# Youngs Moduli (GPa) = 67.06019 69.94442 11.02752
#
# Poissons Ratio (x) = 0.38853 0.04280
# Poissons Ratio (y) = 0.37251 0.19695
# Poissons Ratio (z) = 0.26026 1.24922
#
# Static dielectric constant tensor:
#      x y z
#    x 4.175300 0.000000 0.000000 
#    y 0.000000 4.083190 0.000000 
#    z 0.000000 0.000000 3.942440 
# 
# 
# High freq. dielectric constant tensor:
#      x y z
#    x 1.867870 0.000000 0.000000 
#    y 0.000000 1.886520 0.000000 
#    z 0.000000 0.000000 1.874200 
# 
# From -- ./inp_files/28872.got.cif
#   From: 2010.03.12/outbox.cif.g09.slc.cpg/sg50_15_cif.got.tgz:28872.got - 2010.04.16 13:23:21.
