data_PCOD8205629
_publ_section_title
;
Structure prediction by ZEFSAII (Michael W. Deem and Ramdas Pophale) SiO2 
 PCOD8205629
Probable space group: P B A N
;
_chemical_formula_sum "Si O2"
_cell_formula_units_Z 56
_cell_length_a 14.935812
_cell_length_b 16.693511
_cell_length_c 10.558735
_cell_angle_alpha 90.000000
_cell_angle_beta 90.000000
_cell_angle_gamma 90.000000
_cell_volume 2632.621455
_symmetry_space_group_name_H-M "P B A N"
_symmetry_group_IT_number 50
_space_group.IT_coordinate_system_code '2'
_symmetry_cell_setting 'orthorhombic'
loop_
_space_group_symop_operation_xyz
x,y,z
1/2-x,1/2-y,z
x,1/2-y,-z
1/2-x,y,-z
-x,-y,-z
1/2+x,1/2+y,-z
-x,1/2+y,z
1/2+x,-y,z
loop_
_atom_site_type_symbol
_atom_site_label
_atom_site_fract_x
_atom_site_fract_y
_atom_site_fract_z
Si Si1 0.504576 0.792510 0.130737
Si Si2 0.846791 0.917914 0.466164
Si Si3 0.595881 0.034636 0.318829
Si Si4 0.454218 0.530839 0.873363
Si Si5 0.504876 0.309448 0.613239
Si Si6 0.223724 0.010577 0.765990
Si Si7 0.209445 0.329613 0.863797
O O1 0.448436 0.873782 0.144926
O O2 0.491780 0.734772 0.250925
O O3 0.604802 0.822720 0.119286
O O4 0.475068 0.750000 0.000000
O O5 0.750000 0.880716 0.500000
O O6 0.906489 0.845394 0.412728
O O7 0.894272 0.961052 0.584112
O O8 0.832118 0.989800 0.364742
O O9 0.577088 0.118964 0.386980
O O10 0.688852 0.047131 0.238854
O O11 0.509185 0.013782 0.235993
O O12 0.348368 0.507033 0.876170
O O13 0.500000 0.500000 0.000000
O O14 0.531785 0.250000 0.500000
O O15 0.265807 0.098734 0.772974
O O16 0.250000 0.250000 0.801304
O O17 0.250000 0.346218 0.000000
#
# Coordination Sequence:
#
# PCOD8205629 Si02
#       7
#     8   8   8   8   8   8   8
#     4  12  25  45  66 103 142 183 225 288 358 419
#     4  10  23  42  69  99 134 178 232 289 351 422
#     4  11  24  46  68  97 139 181 241 281 341 424
#     4  12  25  43  73 101 138 183 234 281 348 432
#     4  12  26  42  69  99 144 184 229 296 362 415
#     4  11  24  42  71 100 132 185 235 281 344 417
#     4  11  21  36  64 101 140 170 216 287 351 419
#
# _framework density 21.271573
#
# number of rings (size 3 to 8) (size 9 to 14) (size 15 to 20)
#    0.000    0.714    4.286    3.857    4.000    0.286 
#    0.000    0.714    0.000    0.857    0.000    0.000 
#    0.000    0.000    0.000    0.000    0.000    0.000 
#
# Total GULP energy -694242.563891 kJ/mol
# GULP energy per Si atom -12397.188641 kJ/mol
# Density = 2.122316 g / cm^3
# Si number density = 21.271573 Si / 1000 Ang^3
#
#
#
# Elastic Constant Matrix: (Units=GPa)
#
#
# Indices 1 2 3 4 5 6 
#
# 1 103.8243 43.7542 22.9330 0.0000 0.0000 0.0000
# 2 43.7542 125.5348 45.5436 0.0000 0.0000 0.0000
# 3 22.9330 45.5436 104.9881 0.0000 0.0000 0.0000
# 4 0.0000 0.0000 0.0000 38.2286 0.0000 0.0000
# 5 0.0000 0.0000 0.0000 0.0000 33.5302 0.0000
# 6 0.0000 0.0000 0.0000 0.0000 0.0000 37.4448
#
#
#
# Elastic Compliance Matrix: (Units=1/GPa)
#
#
# Indices 1 2 3 4 5 6 
#
# 1 0.011362 -0.003631 -0.000907 0.000000 0.000000 0.000000
# 2 -0.003631 0.010614 -0.003811 0.000000 0.000000 0.000000
# 3 -0.000907 -0.003811 0.011376 0.000000 0.000000 0.000000
# 4 0.000000 0.000000 0.000000 0.026158 0.000000 0.000000
# 5 0.000000 0.000000 0.000000 0.000000 0.029824 0.000000
# 6 0.000000 0.000000 0.000000 0.000000 0.000000 0.026706
#
#
# Mechanical properties :
#
#
# Convention : Reuss Voigt Hill
#
# Bulk Modulus (GPa) = 60.04430 62.08986 61.06708
# Shear Modulus (GPa) = 36.15568 36.64849 36.40208
#
# Velocity S-wave (km/s) = 4.12724 4.15527 4.14128
# Velocity P-wave (km/s) = 7.14149 7.23009 7.18593
#
# Compressibility (1/GPa) = 0.01665437
#
# Stress axis : x y z
#
# Youngs Moduli (GPa) = 88.01083 94.21264 87.90246
#
# Poissons Ratio (x) = 0.34211 0.07970
# Poissons Ratio (y) = 0.31959 0.33502
# Poissons Ratio (z) = 0.07980 0.35907
#
# Static dielectric constant tensor:
#      x y z
#    x 3.898820 0.000000 0.000000 
#    y 0.000000 3.828150 0.000000 
#    z 0.000000 0.000000 3.964620 
# 
# 
# High freq. dielectric constant tensor:
#      x y z
#    x 1.833190 0.000000 0.000000 
#    y 0.000000 1.824990 0.000000 
#    z 0.000000 0.000000 1.846760 
# 
# From -- ./inp_files/21162.got.cif
#   From: 2010.03.12/outbox.cif.g09.slc.cpg/sg50_11_cif.got.tgz:21162.got - 2010.04.16 13:23:21.
