data_PCOD8205536
_publ_section_title
;
Structure prediction by ZEFSAII (Michael W. Deem and Ramdas Pophale) SiO2 
 PCOD8205536
Probable space group: P B A N
;
_chemical_formula_sum "Si O2"
_cell_formula_units_Z 58
_cell_length_a 15.799918
_cell_length_b 8.480232
_cell_length_c 19.231459
_cell_angle_alpha 90.000000
_cell_angle_beta 90.000000
_cell_angle_gamma 90.000000
_cell_volume 2576.764924
_symmetry_space_group_name_H-M "P B A N"
_symmetry_group_IT_number 50
_space_group.IT_coordinate_system_code '2'
_symmetry_cell_setting 'orthorhombic'
loop_
_space_group_symop_operation_xyz
x,y,z
1/2-x,1/2-y,z
x,1/2-y,-z
1/2-x,y,-z
-x,-y,-z
1/2+x,1/2+y,-z
-x,1/2+y,z
1/2+x,-y,z
loop_
_atom_site_type_symbol
_atom_site_label
_atom_site_fract_x
_atom_site_fract_y
_atom_site_fract_z
Si Si1 0.348721 0.425665 0.502818
Si Si2 0.425650 0.927955 0.359045
Si Si3 0.883404 0.402849 0.098159
Si Si4 0.750000 0.250000 0.000000
Si Si5 0.217238 0.581960 0.765614
Si Si6 0.110113 0.449309 0.216090
Si Si7 0.018898 0.179570 0.139700
Si Si8 0.106580 0.938955 0.359493
O O1 0.391282 0.250000 0.500000
O O2 0.250000 0.401013 0.500000
O O3 0.385538 0.516640 0.568786
O O4 0.364596 0.537872 0.437780
O O5 0.410129 0.744378 0.345640
O O6 0.383570 0.034602 0.299278
O O7 0.524952 0.952862 0.352479
O O8 0.807526 0.365798 0.045759
O O9 0.855170 0.386942 0.177940
O O10 0.920544 0.578488 0.088389
O O11 0.961555 0.282992 0.087972
O O12 0.250000 0.750000 0.738816
O O13 0.291777 0.482521 0.804657
O O14 0.175318 0.499721 0.697587
O O15 0.080930 0.277443 0.190822
O O16 0.042866 0.572983 0.186014
#
# Coordination Sequence:
#
# PCOD8205536 Si02
#       8
#     8   8   8   2   8   8   8   8
#     4  11  26  44  61  87 126 169 224 287 349 414
#     4  12  23  40  63  92 126 171 224 276 348 416
#     4  11  23  43  70 102 141 185 232 282 351 416
#     4  12  24  44  76 102 148 198 228 292 356 416
#     4  12  22  41  67 102 133 172 226 287 349 421
#     4  11  21  39  67  99 135 175 223 283 348 407
#     4  10  22  41  68 103 140 181 231 287 341 424
#     4  12  25  41  67  92 128 172 224 283 343 417
#
# _framework density 22.508844
#
# number of rings (size 3 to 8) (size 9 to 14) (size 15 to 20)
#    0.000    0.690    3.448    4.966    0.000    2.759 
#    0.000    0.000    0.000    7.448    0.000    0.000 
#    0.000    0.000    0.000    0.000    0.000    0.000 
#
# Total GULP energy -719082.077879 kJ/mol
# GULP energy per Si atom -12397.966860 kJ/mol
# Density = 2.245761 g / cm^3
# Si number density = 22.508844 Si / 1000 Ang^3
#
#
#
# Elastic Constant Matrix: (Units=GPa)
#
#
# Indices 1 2 3 4 5 6 
#
# 1 134.6540 64.8422 37.8942 0.0000 0.0000 0.0000
# 2 64.8422 117.3388 46.4301 0.0000 0.0000 0.0000
# 3 37.8942 46.4301 96.9934 0.0000 0.0000 0.0000
# 4 0.0000 0.0000 0.0000 18.1026 0.0000 0.0000
# 5 0.0000 0.0000 0.0000 0.0000 32.6284 0.0000
# 6 0.0000 0.0000 0.0000 0.0000 0.0000 -28.9365
#
#
#
# Elastic Compliance Matrix: (Units=1/GPa)
#
#
# Indices 1 2 3 4 5 6 
#
# 1 0.010318 -0.005066 -0.001606 0.000000 0.000000 0.000000
# 2 -0.005066 0.013002 -0.004244 0.000000 0.000000 0.000000
# 3 -0.001606 -0.004244 0.012969 0.000000 0.000000 0.000000
# 4 0.000000 0.000000 0.000000 0.055241 0.000000 0.000000
# 5 0.000000 0.000000 0.000000 0.000000 0.030648 0.000000
# 6 0.000000 0.000000 0.000000 0.000000 0.000000 -0.034558
#
#
# Mechanical properties :
#
#
# Convention : Reuss Voigt Hill
#
# Bulk Modulus (GPa) = 69.17825 71.92438 70.55132
# Shear Modulus (GPa) = 43.75570 17.68022 30.71796
#
# Velocity S-wave (km/s) = 4.41379 2.80568 3.69820
# Velocity P-wave (km/s) = 7.53498 6.52066 7.04609
#
# Compressibility (1/GPa) = 0.01445541
#
# Stress axis : x y z
#
# Youngs Moduli (GPa) = 96.91719 76.91412 77.10616
#
# Poissons Ratio (x) = 0.38968 0.12383
# Poissons Ratio (y) = 0.49102 0.32727
# Poissons Ratio (z) = 0.15564 0.32645
#
# Static dielectric constant tensor:
#      x y z
#    x 4.445280 0.000000 0.000000 
#    y 0.000000 4.232250 0.000000 
#    z 0.000000 0.000000 3.771120 
# 
# 
# High freq. dielectric constant tensor:
#      x y z
#    x 1.906890 0.000000 0.000000 
#    y 0.000000 1.885560 0.000000 
#    z 0.000000 0.000000 1.874270 
# 
# From -- ./inp_files/29711.got.cif
#   From: 2010.03.12/outbox.cif.g09.slc.cpg/sg50_15_cif.got.tgz:29711.got - 2010.04.16 13:23:21.
