data_PCOD8205582
_publ_section_title
;
Structure prediction by ZEFSAII (Michael W. Deem and Ramdas Pophale) SiO2 
 PCOD8205582
Probable space group: P B A N
;
_chemical_formula_sum "Si O2"
_cell_formula_units_Z 40
_cell_length_a 21.176286
_cell_length_b 8.532977
_cell_length_c 11.563131
_cell_angle_alpha 90.000000
_cell_angle_beta 90.000000
_cell_angle_gamma 90.000000
_cell_volume 2089.420323
_symmetry_space_group_name_H-M "P B A N"
_symmetry_group_IT_number 50
_space_group.IT_coordinate_system_code '2'
_symmetry_cell_setting 'orthorhombic'
loop_
_space_group_symop_operation_xyz
x,y,z
1/2-x,1/2-y,z
x,1/2-y,-z
1/2-x,y,-z
-x,-y,-z
1/2+x,1/2+y,-z
-x,1/2+y,z
1/2+x,-y,z
loop_
_atom_site_type_symbol
_atom_site_label
_atom_site_fract_x
_atom_site_fract_y
_atom_site_fract_z
Si Si1 0.941098 0.669732 0.392695
Si Si2 0.818792 0.233847 0.316446
Si Si3 0.977799 0.560941 0.759468
Si Si4 0.320603 0.005691 0.501326
Si Si5 0.079831 0.766531 0.868886
O O1 0.979480 0.750000 0.500000
O O2 0.932470 0.807476 0.297715
O O3 0.873042 0.622524 0.446641
O O4 0.981947 0.527785 0.340710
O O5 0.750000 0.250000 0.259289
O O6 0.820480 0.356320 0.418480
O O7 0.835957 0.061767 0.371508
O O8 0.865043 0.286290 0.215679
O O9 0.937235 0.444791 0.837527
O O10 0.022430 0.648716 0.849914
O O11 0.250000 0.083250 0.500000
O O12 0.103028 0.750000 0.000000
#
# Coordination Sequence:
#
# PCOD8205582 Si02
#       5
#     8   8   8   8   8
#     4  11  20  34  54  83 115 148 180 224 287 343
#     4   9  18  34  56  83 111 144 187 231 279 333
#     4  10  23  36  53  84 116 147 186 235 278 341
#     4   9  18  34  56  81 115 146 177 228 284 340
#     4  11  21  38  58  80 112 150 195 235 280 325
#
# _framework density 19.144065999999999
#
# number of rings (size 3 to 8) (size 9 to 14) (size 15 to 20)
#    0.000    2.000    2.000    3.600    0.000    2.400 
#    0.000    0.000    0.000    0.000    0.000    0.000 
#    0.000    0.000    0.000    0.000    0.000    0.000 
#
# Total GULP energy -495588.104965 kJ/mol
# GULP energy per Si atom -12389.702624 kJ/mol
# Density = 1.910049 g / cm^3
# Si number density = 19.144066 Si / 1000 Ang^3
#
#
#
# Elastic Constant Matrix: (Units=GPa)
#
#
# Indices 1 2 3 4 5 6 
#
# 1 81.7512 28.2195 30.7644 0.0000 0.0000 0.0000
# 2 28.2195 81.8382 13.9171 0.0000 0.0000 0.0000
# 3 30.7644 13.9171 87.8619 0.0000 0.0000 0.0000
# 4 0.0000 0.0000 0.0000 11.0328 0.0000 0.0000
# 5 0.0000 0.0000 0.0000 0.0000 -62.2891 0.0000
# 6 0.0000 0.0000 0.0000 0.0000 0.0000 0.8066
#
#
#
# Elastic Compliance Matrix: (Units=1/GPa)
#
#
# Indices 1 2 3 4 5 6 
#
# 1 0.015592 -0.004571 -0.004735 0.000000 0.000000 0.000000
# 2 -0.004571 0.013898 -0.000601 0.000000 0.000000 0.000000
# 3 -0.004735 -0.000601 0.013135 0.000000 0.000000 0.000000
# 4 0.000000 0.000000 0.000000 0.090638 0.000000 0.000000
# 5 0.000000 0.000000 0.000000 0.000000 -0.016054 0.000000
# 6 0.000000 0.000000 0.000000 0.000000 0.000000 1.239721
#
#
# Mechanical properties :
#
#
# Convention : Reuss Voigt Hill
#
# Bulk Modulus (GPa) = 43.84095 44.13925 43.99010
# Shear Modulus (GPa) = 3.61181 1.81343 2.71262
#
# Velocity S-wave (km/s) = 1.37504 0.97433 1.19165
# Velocity P-wave (km/s) = 5.04690 4.93682 4.99216
#
# Compressibility (1/GPa) = 0.02280972
#
# Stress axis : x y z
#
# Youngs Moduli (GPa) = 64.13462 71.95462 76.13392
#
# Poissons Ratio (x) = 0.32892 0.36053
# Poissons Ratio (y) = 0.29317 0.04574
# Poissons Ratio (z) = 0.30371 0.04323
#
# Static dielectric constant tensor:
#      x y z
#    x 3.829980 0.000000 0.000000 
#    y 0.000000 3.532470 0.000000 
#    z 0.000000 0.000000 3.308060 
# 
# 
# High freq. dielectric constant tensor:
#      x y z
#    x 1.734560 0.000000 0.000000 
#    y 0.000000 1.754980 0.000000 
#    z 0.000000 0.000000 1.725880 
# 
# From -- ./inp_files/18938.got.cif
#   From: 2010.03.12/outbox.cif.g09.slc.cpg/sg50_10_cif.got.tgz:18938.got - 2010.04.16 13:23:21.
