data_PCOD8205144
_publ_section_title
;
Structure prediction by ZEFSAII (Michael W. Deem and Ramdas Pophale) SiO2 
 PCOD8205144
Probable space group: P B A N
;
_chemical_formula_sum "Si O2"
_cell_formula_units_Z 64
_cell_length_a 5.501398
_cell_length_b 27.406678
_cell_length_c 18.601105
_cell_angle_alpha 90.000000
_cell_angle_beta 90.000000
_cell_angle_gamma 90.000000
_cell_volume 2804.582416
_symmetry_space_group_name_H-M "P B A N"
_symmetry_group_IT_number 50
_space_group.IT_coordinate_system_code '2'
_symmetry_cell_setting 'orthorhombic'
loop_
_space_group_symop_operation_xyz
x,y,z
1/2-x,1/2-y,z
x,1/2-y,-z
1/2-x,y,-z
-x,-y,-z
1/2+x,1/2+y,-z
-x,1/2+y,z
1/2+x,-y,z
loop_
_atom_site_type_symbol
_atom_site_label
_atom_site_fract_x
_atom_site_fract_y
_atom_site_fract_z
Si Si1 0.259864 0.528139 0.584641
Si Si2 0.127056 0.201954 0.274723
Si Si3 0.361573 0.383165 0.077176
Si Si4 0.641075 0.109902 0.688212
Si Si5 0.857587 0.202312 0.130867
Si Si6 0.065469 0.520425 0.099124
Si Si7 0.986405 0.633751 0.802453
Si Si8 0.545656 0.520074 0.737860
O O1 0.250000 0.535106 0.500000
O O2 0.517174 0.502172 0.607925
O O3 0.265630 0.584515 0.615227
O O4 0.250000 0.250000 0.313554
O O5 0.344956 0.168197 0.251698
O O6 0.946864 0.166675 0.322716
O O7 0.977395 0.220581 0.205593
O O8 0.445080 0.326748 0.083174
O O9 0.583957 0.421125 0.088052
O O10 0.181037 0.397918 0.143333
O O11 0.250000 0.391584 0.000000
O O12 0.415683 0.078063 0.723005
O O13 0.842463 0.102056 0.751131
O O14 0.750000 0.250000 0.090463
O O15 0.638938 0.165876 0.142383
O O16 0.810448 0.501712 0.062913
O O17 0.018254 0.503695 0.181421
O O18 0.775596 0.491701 0.701747
#
# Coordination Sequence:
#
# PCOD8205144 Si02
#       8
#     8   8   8   8   8   8   8   8
#     4  10  23  44  68 102 153 196 233 272 329 403
#     4  10  20  36  61  92 128 161 212 281 338 403
#     4  11  26  43  61  89 123 170 223 283 343 421
#     4  11  23  34  63 100 128 177 220 271 335 396
#     4  10  20  40  65  87 119 165 207 278 355 419
#     4  10  23  41  63  86 120 163 212 265 329 393
#     4  10  22  38  63  87 125 159 217 276 349 407
#     4  10  21  34  56  89 127 159 206 266 322 381
#
# _framework density 22.819796
#
# number of rings (size 3 to 8) (size 9 to 14) (size 15 to 20)
#    0.000    1.750    1.250    3.000   10.500    1.000 
#    0.000    1.875    0.000    0.000    0.000    2.625 
#    0.000    0.000    0.000    0.000    0.000    0.000 
#
# Total GULP energy -792917.895404 kJ/mol
# GULP energy per Si atom -12389.342116 kJ/mol
# Density = 2.276786 g / cm^3
# Si number density = 22.819796 Si / 1000 Ang^3
#
#
#
# Elastic Constant Matrix: (Units=GPa)
#
#
# Indices 1 2 3 4 5 6 
#
# 1 108.4449 45.5713 23.7057 0.0000 0.0000 0.0000
# 2 45.5713 126.5282 28.6288 0.0000 0.0000 0.0000
# 3 23.7057 28.6288 56.9498 0.0000 0.0000 0.0000
# 4 0.0000 0.0000 0.0000 44.6756 0.0000 0.0000
# 5 0.0000 0.0000 0.0000 0.0000 478.6795 0.0000
# 6 0.0000 0.0000 0.0000 0.0000 0.0000 36.9262
#
#
#
# Elastic Compliance Matrix: (Units=1/GPa)
#
#
# Indices 1 2 3 4 5 6 
#
# 1 0.011302 -0.003392 -0.002999 0.000000 0.000000 0.000000
# 2 -0.003392 0.009936 -0.003583 0.000000 0.000000 0.000000
# 3 -0.002999 -0.003583 0.020609 0.000000 0.000000 0.000000
# 4 0.000000 0.000000 0.000000 0.022384 0.000000 0.000000
# 5 0.000000 0.000000 0.000000 0.000000 0.002089 0.000000
# 6 0.000000 0.000000 0.000000 0.000000 0.000000 0.027081
#
#
# Mechanical properties :
#
#
# Convention : Reuss Voigt Hill
#
# Bulk Modulus (GPa) = 45.66531 54.19269 49.92900
# Shear Modulus (GPa) = 41.44260 124.99075 83.21667
#
# Velocity S-wave (km/s) = 4.26617 7.40890 6.04533
# Velocity P-wave (km/s) = 6.65745 9.84829 8.40567
#
# Compressibility (1/GPa) = 0.02189846
#
# Stress axis : x y z
#
# Youngs Moduli (GPa) = 88.47696 100.64680 48.52266
#
# Poissons Ratio (x) = 0.34140 0.14554
# Poissons Ratio (y) = 0.30012 0.17384
# Poissons Ratio (z) = 0.26538 0.36059
#
# Static dielectric constant tensor:
#      x y z
#    x 4.813240 0.000000 0.000000 
#    y 0.000000 4.084800 0.000000 
#    z 0.000000 0.000000 3.775520 
# 
# 
# High freq. dielectric constant tensor:
#      x y z
#    x 1.926740 0.000000 0.000000 
#    y 0.000000 1.898740 0.000000 
#    z 0.000000 0.000000 1.866340 
# 
# From -- ./inp_files/30493.got.cif
#   From: 2010.03.12/outbox.cif.g09.slc.cpg/sg50_16_cif.got.tgz:30493.got - 2010.04.16 13:23:21.
