data_PCOD8205992
_publ_section_title
;
Structure prediction by ZEFSAII (Michael W. Deem and Ramdas Pophale) SiO2 
 PCOD8205992
Probable space group: P M M A
;
_chemical_formula_sum "Si O2"
_cell_formula_units_Z 56
_cell_length_a 21.872757
_cell_length_b 9.040765
_cell_length_c 14.976242
_cell_angle_alpha 90.000000
_cell_angle_beta 90.000000
_cell_angle_gamma 90.000000
_cell_volume 2961.498779
_symmetry_space_group_name_H-M "P M M A"
_symmetry_group_IT_number 51
_symmetry_cell_setting 'orthorhombic'
loop_
_space_group_symop_operation_xyz
x,y,z
1/2-x,-y,z
1/2+x,-y,-z
-x,y,-z
-x,-y,-z
1/2+x,y,-z
1/2-x,y,z
x,-y,z
loop_
_atom_site_type_symbol
_atom_site_label
_atom_site_fract_x
_atom_site_fract_y
_atom_site_fract_z
Si Si1 0.821169 0.172665 0.958323
Si Si2 0.915485 0.169836 0.656614
Si Si3 0.250000 0.825262 0.750571
Si Si4 0.371645 0.169877 0.536268
Si Si5 0.250000 0.324977 0.562526
Si Si6 0.368073 0.174749 0.857212
Si Si7 0.048685 0.176182 0.702295
Si Si8 0.820052 0.326007 0.777187
O O1 0.750000 0.202027 0.981196
O O2 0.842693 0.260414 0.871285
O O3 0.832446 0.000000 0.940788
O O4 0.863245 0.232832 0.040727
O O5 0.915255 0.183529 0.549599
O O6 0.860481 0.263047 0.697567
O O7 0.980010 0.236423 0.690676
O O8 0.907528 0.000000 0.686593
O O9 0.250000 0.729294 0.662909
O O10 0.191675 0.773896 0.805418
O O11 0.250000 0.000000 0.728427
O O12 0.310761 0.262928 0.515259
O O13 0.407521 0.234566 0.622524
O O14 0.352628 0.000000 0.553812
O O15 0.250000 0.500000 0.554745
O O16 0.426465 0.230936 0.799522
O O17 0.369158 0.000000 0.862441
O O18 0.047998 0.000000 0.695685
O O19 0.750000 0.279272 0.759044
O O20 0.827730 0.500000 0.781207
#
# Coordination Sequence:
#
# PCOD8205992 Si02
#       8
#     8   8   4   8   4   8   8   8
#     4   9  16  29  53  83 108 134 175 223 265 313
#     4  10  21  36  58  84 105 135 183 229 268 314
#     4  10  16  30  54  79 110 147 178 213 266 324
#     4  10  20  36  58  80 108 144 181 221 269 319
#     4  12  24  34  48  79 116 145 180 225 266 310
#     4   9  15  26  53  86 112 138 172 215 268 318
#     4   9  17  32  56  85 113 139 173 219 267 322
#     4  10  22  39  56  75 104 143 180 223 277 323
#
# _framework density 18.909344999999998
#
# number of rings (size 3 to 8) (size 9 to 14) (size 15 to 20)
#    0.000    2.286    2.143    1.500    1.000    3.143 
#    0.000    2.143    0.000    6.000    0.000    0.000 
#    0.000    0.000    0.000    0.000    0.000    0.000 
#
# Total GULP energy -694232.071324 kJ/mol
# GULP energy per Si atom -12397.001274 kJ/mol
# Density = 1.886631 g / cm^3
# Si number density = 18.909345 Si / 1000 Ang^3
#
#
#
# Elastic Constant Matrix: (Units=GPa)
#
#
# Indices 1 2 3 4 5 6 
#
# 1 95.8279 26.9448 34.1458 0.0000 0.0000 0.0000
# 2 26.9448 49.2956 19.8665 0.0000 0.0000 0.0000
# 3 34.1458 19.8665 91.0161 0.0000 0.0000 0.0000
# 4 0.0000 0.0000 0.0000 5.4476 0.0000 0.0000
# 5 0.0000 0.0000 0.0000 0.0000 31.7651 0.0000
# 6 0.0000 0.0000 0.0000 0.0000 0.0000 8.2654
#
#
#
# Elastic Compliance Matrix: (Units=1/GPa)
#
#
# Indices 1 2 3 4 5 6 
#
# 1 0.013411 -0.005814 -0.003762 0.000000 0.000000 0.000000
# 2 -0.005814 0.024763 -0.003224 0.000000 0.000000 0.000000
# 3 -0.003762 -0.003224 0.013102 0.000000 0.000000 0.000000
# 4 0.000000 0.000000 0.000000 0.183567 0.000000 0.000000
# 5 0.000000 0.000000 0.000000 0.000000 0.031481 0.000000
# 6 0.000000 0.000000 0.000000 0.000000 0.000000 0.120986
#
#
# Mechanical properties :
#
#
# Convention : Reuss Voigt Hill
#
# Bulk Modulus (GPa) = 38.94739 44.22817 41.58778
# Shear Modulus (GPa) = 11.86328 19.44113 15.65221
#
# Velocity S-wave (km/s) = 2.50747 3.20991 2.88019
# Velocity P-wave (km/s) = 5.38747 6.09741 5.75340
#
# Compressibility (1/GPa) = 0.02567566
#
# Stress axis : x y z
#
# Youngs Moduli (GPa) = 74.56727 40.38283 76.32325
#
# Poissons Ratio (x) = 0.23479 0.28714
# Poissons Ratio (y) = 0.43354 0.24606
# Poissons Ratio (z) = 0.28053 0.13019
#
# Static dielectric constant tensor:
#      x y z
#    x 3.382350 0.000000 0.000000 
#    y 0.000000 3.052220 0.000000 
#    z 0.000000 0.000000 3.634250 
# 
# 
# High freq. dielectric constant tensor:
#      x y z
#    x 1.727710 0.000000 0.000000 
#    y 0.000000 1.688530 0.000000 
#    z 0.000000 0.000000 1.744300 
# 
# From -- ./inp_files/25890.got.cif
#   From: 2010.03.12/outbox.cif.g09.slc.cpg/sg51_13_cif.got.tgz:25890.got - 2010.04.16 13:43:02.
