data_PCOD8205315
_publ_section_title
;
Structure prediction by ZEFSAII (Michael W. Deem and Ramdas Pophale) SiO2 
 PCOD8205315
Probable space group: P B A N
;
_chemical_formula_sum "Si O2"
_cell_formula_units_Z 38
_cell_length_a 13.417710
_cell_length_b 23.932177
_cell_length_c 4.999905
_cell_angle_alpha 90.000000
_cell_angle_beta 90.000000
_cell_angle_gamma 90.000000
_cell_volume 1605.544547
_symmetry_space_group_name_H-M "P B A N"
_symmetry_group_IT_number 50
_space_group.IT_coordinate_system_code '2'
_symmetry_cell_setting 'orthorhombic'
loop_
_space_group_symop_operation_xyz
x,y,z
1/2-x,1/2-y,z
x,1/2-y,-z
1/2-x,y,-z
-x,-y,-z
1/2+x,1/2+y,-z
-x,1/2+y,z
1/2+x,-y,z
loop_
_atom_site_type_symbol
_atom_site_label
_atom_site_fract_x
_atom_site_fract_y
_atom_site_fract_z
Si Si1 0.161835 0.533950 0.348254
Si Si2 0.750000 0.124823 0.000000
Si Si3 0.750000 0.250000 0.500000
Si Si4 0.363602 0.072251 0.027292
Si Si5 0.518846 0.603924 0.524558
Si Si6 0.586815 0.195849 0.853088
O O1 0.250000 0.499486 0.500000
O O2 0.123695 0.492080 0.119589
O O3 0.071125 0.559954 0.518940
O O4 0.223729 0.587065 0.249497
O O5 0.854929 0.157816 0.926021
O O6 0.682289 0.210784 0.678267
O O7 0.425151 0.111990 0.238574
O O8 0.250000 0.092936 0.000000
O O9 0.407515 0.073842 0.731158
O O10 0.491286 0.663696 0.661745
O O11 0.536978 0.250000 0.000000
#
# Coordination Sequence:
#
# PCOD8205315 Si02
#       6
#     8   4   2   8   8   8
#     4  11  24  38  68 102 153 189 232 280 364 439
#     4  10  21  36  60 102 144 194 217 268 354 458
#     4  12  22  40  72 102 146 184 218 280 386 460
#     4  12  25  48  67  97 140 202 250 305 338 405
#     4  11  28  41  72 104 145 187 247 291 363 428
#     4  11  24  40  66 103 149 180 231 287 370 452
#
# _framework density 23.667984000000001
#
# number of rings (size 3 to 8) (size 9 to 14) (size 15 to 20)
#    0.000    0.842    3.158    3.158   14.737    0.000 
#    0.000    0.000    0.000    0.632    0.000    0.000 
#    0.000    0.000    0.000    0.000    0.000    0.000 
#
# Total GULP energy -470828.161468 kJ/mol
# GULP energy per Si atom -12390.214775 kJ/mol
# Density = 2.361411 g / cm^3
# Si number density = 23.667984 Si / 1000 Ang^3
#
#
#
# Elastic Constant Matrix: (Units=GPa)
#
#
# Indices 1 2 3 4 5 6 
#
# 1 125.3292 15.2864 22.5845 0.0000 0.0000 0.0000
# 2 15.2864 84.1160 -16.7125 0.0000 0.0000 0.0000
# 3 22.5845 -16.7125 53.7343 0.0000 0.0000 0.0000
# 4 0.0000 0.0000 0.0000 5.4093 0.0000 0.0000
# 5 0.0000 0.0000 0.0000 0.0000 76.0277 0.0000
# 6 0.0000 0.0000 0.0000 0.0000 0.0000 8.5627
#
#
#
# Elastic Compliance Matrix: (Units=1/GPa)
#
#
# Indices 1 2 3 4 5 6 
#
# 1 0.009130 -0.002581 -0.004640 0.000000 0.000000 0.000000
# 2 -0.002581 0.013401 0.005253 0.000000 0.000000 0.000000
# 3 -0.004640 0.005253 0.022194 0.000000 0.000000 0.000000
# 4 0.000000 0.000000 0.000000 0.184867 0.000000 0.000000
# 5 0.000000 0.000000 0.000000 0.000000 0.013153 0.000000
# 6 0.000000 0.000000 0.000000 0.000000 0.000000 0.116786
#
#
# Mechanical properties :
#
#
# Convention : Reuss Voigt Hill
#
# Bulk Modulus (GPa) = 24.51678 33.94406 29.23042
# Shear Modulus (GPa) = 13.26038 34.13468 23.69753
#
# Velocity S-wave (km/s) = 2.36956 3.80179 3.16768
# Velocity P-wave (km/s) = 4.22700 5.80038 5.07503
#
# Compressibility (1/GPa) = 0.04078838
#
# Stress axis : x y z
#
# Youngs Moduli (GPa) = 109.52957 74.62092 45.05709
#
# Poissons Ratio (x) = 0.19260 0.20907
# Poissons Ratio (y) = 0.28271 -0.23668
# Poissons Ratio (z) = 0.50823 -0.39197
#
# Static dielectric constant tensor:
#      x y z
#    x 4.769400 0.000000 0.000000 
#    y 0.000000 1.776820 0.000000 
#    z 0.000000 0.000000 5.649630 
# 
# 
# High freq. dielectric constant tensor:
#      x y z
#    x 1.930540 0.000000 0.000000 
#    y 0.000000 1.922150 0.000000 
#    z 0.000000 0.000000 1.944740 
# 
# From -- ./inp_files/2450.got.cif
#   From: 2010.03.12/outbox.cif.g09.slc.cpg/sg50_2_cif.got.tgz:2450.got - 2010.04.16 13:23:21.
