data_PCOD8205938
_publ_section_title
;
Structure prediction by ZEFSAII (Michael W. Deem and Ramdas Pophale) SiO2 
 PCOD8205938
Probable space group: P M M A
;
_chemical_formula_sum "Si O2"
_cell_formula_units_Z 32
_cell_length_a 8.713338
_cell_length_b 21.143386
_cell_length_c 9.717427
_cell_angle_alpha 90.000000
_cell_angle_beta 90.000000
_cell_angle_gamma 90.000000
_cell_volume 1790.236413
_symmetry_space_group_name_H-M "P M M A"
_symmetry_group_IT_number 51
_symmetry_cell_setting 'orthorhombic'
loop_
_space_group_symop_operation_xyz
x,y,z
1/2-x,-y,z
1/2+x,-y,-z
-x,y,-z
-x,-y,-z
1/2+x,y,-z
1/2-x,y,z
x,-y,z
loop_
_atom_site_type_symbol
_atom_site_label
_atom_site_fract_x
_atom_site_fract_y
_atom_site_fract_z
Si Si1 0.070573 0.876523 0.849987
Si Si2 0.066915 0.500000 0.347509
Si Si3 0.569040 0.000000 0.846504
Si Si4 0.567167 0.372198 0.348781
Si Si5 0.429138 0.262345 0.850827
O O1 0.250000 0.890400 0.858353
O O2 0.035146 0.807364 0.785281
O O3 0.990837 0.935782 0.769942
O O4 0.000000 0.873647 0.000000
O O5 0.250000 0.500000 0.346446
O O6 0.000000 0.500000 0.500000
O O7 0.001282 0.563951 0.277985
O O8 0.750000 0.000000 0.849810
O O9 0.500000 0.000000 0.000000
O O10 0.500000 0.361499 0.500000
O O11 0.750000 0.376935 0.357353
O O12 0.508542 0.314164 0.255702
O O13 0.250000 0.270650 0.872341
O O14 0.500000 0.272973 0.000000
#
# Coordination Sequence:
#
# PCOD8205938 Si02
#       5
#     8   4   4   8   8
#     4   9  15  25  39  58  84 116 148 184 225 268
#     4  10  18  30  49  72  93 120 154 192 232 272
#     4  10  16  22  34  56  83 114 149 186 222 264
#     4  10  19  33  51  73  96 122 154 192 231 275
#     4   9  19  32  48  69  96 125 156 190 232 278
#
# _framework density 17.874734
#
# number of rings (size 3 to 8) (size 9 to 14) (size 15 to 20)
#    0.000    2.500    0.000    6.750    0.000    3.000 
#    0.000    0.625    0.000    0.000    0.000    0.875 
#    0.000    0.000    0.000    0.000    0.000    0.000 
#
# Total GULP energy -396428.138382 kJ/mol
# GULP energy per Si atom -12388.379324 kJ/mol
# Density = 1.783405 g / cm^3
# Si number density = 17.874734 Si / 1000 Ang^3
#
#
#
# Elastic Constant Matrix: (Units=GPa)
#
#
# Indices 1 2 3 4 5 6 
#
# 1 108.8354 72.6944 22.4512 0.0000 0.0000 0.0000
# 2 72.6944 220.1204 54.1530 0.0000 0.0000 0.0000
# 3 22.4512 54.1530 41.5507 0.0000 0.0000 0.0000
# 4 0.0000 0.0000 0.0000 9.0568 0.0000 0.0000
# 5 0.0000 0.0000 0.0000 0.0000 15.8485 0.0000
# 6 0.0000 0.0000 0.0000 0.0000 0.0000 23.6146
#
#
#
# Elastic Compliance Matrix: (Units=1/GPa)
#
#
# Indices 1 2 3 4 5 6 
#
# 1 0.011892 -0.003454 -0.001924 0.000000 0.000000 0.000000
# 2 -0.003454 0.007690 -0.008156 0.000000 0.000000 0.000000
# 3 -0.001924 -0.008156 0.035737 0.000000 0.000000 0.000000
# 4 0.000000 0.000000 0.000000 0.110414 0.000000 0.000000
# 5 0.000000 0.000000 0.000000 0.000000 0.063097 0.000000
# 6 0.000000 0.000000 0.000000 0.000000 0.000000 0.042347
#
#
# Mechanical properties :
#
#
# Convention : Reuss Voigt Hill
#
# Bulk Modulus (GPa) = 35.39788 74.34484 54.87136
# Shear Modulus (GPa) = 16.25155 24.45118 20.35137
#
# Velocity S-wave (km/s) = 3.01855 3.70255 3.37791
# Velocity P-wave (km/s) = 5.65643 7.74345 6.78071
#
# Compressibility (1/GPa) = 0.02825028
#
# Stress axis : x y z
#
# Youngs Moduli (GPa) = 84.08927 130.03495 27.98228
#
# Poissons Ratio (x) = 0.44914 0.05384
# Poissons Ratio (y) = 0.29044 0.22823
# Poissons Ratio (z) = 0.16180 1.06062
#
# Static dielectric constant tensor:
#      x y z
#    x 3.350580 0.000000 0.000000 
#    y 0.000000 5.374170 0.000000 
#    z 0.000000 0.000000 2.752040 
# 
# 
# High freq. dielectric constant tensor:
#      x y z
#    x 1.705970 0.000000 0.000000 
#    y 0.000000 1.730920 0.000000 
#    z 0.000000 0.000000 1.610040 
# 
# From -- ./inp_files/14124.got.cif
#   From: 2010.03.12/outbox.cif.g09.slc.cpg/sg51_8_cif.got.tgz:14124.got - 2010.04.16 13:43:02.
