data_PCOD8205056
_publ_section_title
;
Structure prediction by ZEFSAII (Michael W. Deem and Ramdas Pophale) SiO2 
 PCOD8205056
Probable space group: P B A N
;
_chemical_formula_sum "Si O2"
_cell_formula_units_Z 48
_cell_length_a 13.439149
_cell_length_b 27.149980
_cell_length_c 7.708846
_cell_angle_alpha 90.000000
_cell_angle_beta 90.000000
_cell_angle_gamma 90.000000
_cell_volume 2812.746888
_symmetry_space_group_name_H-M "P B A N"
_symmetry_group_IT_number 50
_space_group.IT_coordinate_system_code '2'
_symmetry_cell_setting 'orthorhombic'
loop_
_space_group_symop_operation_xyz
x,y,z
1/2-x,1/2-y,z
x,1/2-y,-z
1/2-x,y,-z
-x,-y,-z
1/2+x,1/2+y,-z
-x,1/2+y,z
1/2+x,-y,z
loop_
_atom_site_type_symbol
_atom_site_label
_atom_site_fract_x
_atom_site_fract_y
_atom_site_fract_z
Si Si1 0.867215 0.610959 0.500000
Si Si2 0.979175 0.307431 0.500000
Si Si3 0.635220 0.141735 0.805632
Si Si4 0.014037 0.553617 0.306440
Si Si5 0.014037 0.553617 0.693560
Si Si6 0.135220 0.641735 0.805632
O O1 0.750000 0.615094 0.500000
O O2 0.907155 0.581630 0.328755
O O3 0.914335 0.665575 0.500000
O O4 0.907155 0.581630 0.671245
O O5 0.000084 0.250000 0.500000
O O6 0.918033 0.322089 0.671168
O O7 0.918033 0.322089 0.328831
O O8 0.588749 0.086840 0.804402
O O9 0.750000 0.137738 0.753159
O O10 0.622767 0.163185 1.000000
O O11 0.000000 0.500000 0.217370
O O12 0.061240 0.546848 0.500000
O O13 0.088748 0.586840 0.804402
#
# Coordination Sequence:
#
# PCOD8205056 Si02
#       6
#     8   8   8   8   8   8
#     4   8  15  29  49  73  96 125 166 202 237 284
#     4  10  21  36  52  70  96 128 161 208 260 294
#     4  10  20  33  51  75 101 129 162 200 245 299
#     4   8  16  30  47  76 101 134 163 194 234 281
#     4   8  16  30  47  76 101 134 163 194 234 281
#     4  10  20  33  51  75 101 129 162 200 245 299
#
# _framework density 17.065169000000001
#
# number of rings (size 3 to 8) (size 9 to 14) (size 15 to 20)
#    1.000    2.000    1.667    0.500    0.000    4.333 
#    0.000    1.667    0.000   16.000    0.000    9.333 
#    0.000    0.000    0.000    0.000    0.000    0.000 
#
# Total GULP energy -594656.867489 kJ/mol
# GULP energy per Si atom -12388.684739 kJ/mol
# Density = 1.702633 g / cm^3
# Si number density = 17.065169 Si / 1000 Ang^3
#
#
#
# Elastic Constant Matrix: (Units=GPa)
#
#
# Indices 1 2 3 4 5 6 
#
# 1 140.0525 61.9482 31.8659 0.0000 0.0000 0.0000
# 2 61.9482 153.0809 25.1709 0.0000 0.0000 0.0000
# 3 31.8659 25.1709 64.4618 0.0000 0.0000 0.0000
# 4 0.0000 0.0000 0.0000 -0.9487 0.0000 0.0000
# 5 0.0000 0.0000 0.0000 0.0000 15.1401 0.0000
# 6 0.0000 0.0000 0.0000 0.0000 0.0000 9.1732
#
#
#
# Elastic Compliance Matrix: (Units=1/GPa)
#
#
# Indices 1 2 3 4 5 6 
#
# 1 0.009329 -0.003224 -0.003353 0.000000 0.000000 0.000000
# 2 -0.003224 0.008095 -0.001567 0.000000 0.000000 0.000000
# 3 -0.003353 -0.001567 0.017782 0.000000 0.000000 0.000000
# 4 0.000000 0.000000 0.000000 -1.054026 0.000000 0.000000
# 5 0.000000 0.000000 0.000000 0.000000 0.066050 0.000000
# 6 0.000000 0.000000 0.000000 0.000000 0.000000 0.109013
#
#
# Mechanical properties :
#
#
# Convention : Reuss Voigt Hill
#
# Bulk Modulus (GPa) = 52.85831 66.17392 59.51612
# Shear Modulus (GPa) = -6.08892 20.58027 7.24567
#
# Velocity S-wave (km/s) = -1.89098 3.47649 2.06279
# Velocity P-wave (km/s) = 5.12581 7.41458 6.37377
#
# Compressibility (1/GPa) = 0.01891850
#
# Stress axis : x y z
#
# Youngs Moduli (GPa) = 107.19190 123.53569 56.23529
#
# Poissons Ratio (x) = 0.39827 0.18855
# Poissons Ratio (y) = 0.34558 0.08813
# Poissons Ratio (z) = 0.35940 0.19360
#
# Static dielectric constant tensor:
#      x y z
#    x 2.909660 0.000000 0.000000 
#    y 0.000000 3.169590 0.000000 
#    z 0.000000 0.000000 2.983950 
# 
# 
# High freq. dielectric constant tensor:
#      x y z
#    x 1.638200 0.000000 0.000000 
#    y 0.000000 1.656230 0.000000 
#    z 0.000000 0.000000 1.640010 
# 
# From -- ./inp_files/11624.got.cif
#   From: 2010.03.12/outbox.cif.g09.slc.cpg/sg50_6_cif.got.tgz:11624.got - 2010.04.16 13:23:21.
