data_PCOD8205290
_publ_section_title
;
Structure prediction by ZEFSAII (Michael W. Deem and Ramdas Pophale) SiO2 
 PCOD8205290
Probable space group: P B A N
;
_chemical_formula_sum "Si O2"
_cell_formula_units_Z 32
_cell_length_a 9.673046
_cell_length_b 12.992314
_cell_length_c 11.169661
_cell_angle_alpha 90.000000
_cell_angle_beta 90.000000
_cell_angle_gamma 90.000000
_cell_volume 1403.749949
_symmetry_space_group_name_H-M "P B A N"
_symmetry_group_IT_number 50
_space_group.IT_coordinate_system_code '2'
_symmetry_cell_setting 'orthorhombic'
loop_
_space_group_symop_operation_xyz
x,y,z
1/2-x,1/2-y,z
x,1/2-y,-z
1/2-x,y,-z
-x,-y,-z
1/2+x,1/2+y,-z
-x,1/2+y,z
1/2+x,-y,z
loop_
_atom_site_type_symbol
_atom_site_label
_atom_site_fract_x
_atom_site_fract_y
_atom_site_fract_z
Si Si1 0.012379 0.407641 0.738507
Si Si2 0.389366 0.696623 0.250074
Si Si3 0.403935 0.872110 0.510967
Si Si4 0.743695 0.480441 0.864247
O O1 0.163595 0.436693 0.783498
O O2 0.996971 0.287035 0.777234
O O3 0.000024 0.422933 0.592611
O O4 0.896002 0.472332 0.808870
O O5 0.250000 0.750000 0.306561
O O6 0.448607 0.612845 0.348560
O O7 0.340103 0.629179 0.136214
O O8 0.414093 0.750000 0.500000
O O9 0.250000 0.917347 0.500000
O O10 0.750000 0.519515 0.000000
#
# Coordination Sequence:
#
# PCOD8205290 Si02
#       4
#     8   8   8   8
#     4  10  21  35  58  84 115 154 196 253 298 347
#     4   9  17  33  58  84 112 155 202 242 292 357
#     4   9  12  29  55  84 111 144 196 244 285 343
#     4  11  22  37  55  84 117 151 202 248 293 358
#
# _framework density 22.796082999999999
#
# number of rings (size 3 to 8) (size 9 to 14) (size 15 to 20)
#    0.000    2.250    7.500    0.750    0.000    5.500 
#    0.000    1.250    0.000    1.500    0.000   21.000 
#    0.000    0.000    0.000    0.000    0.000    0.500 
#
# Total GULP energy -396428.052440 kJ/mol
# GULP energy per Si atom -12388.376639 kJ/mol
# Density = 2.274420 g / cm^3
# Si number density = 22.796083 Si / 1000 Ang^3
#
#
#
# Elastic Constant Matrix: (Units=GPa)
#
#
# Indices 1 2 3 4 5 6 
#
# 1 59.6792 22.5891 33.4132 0.0000 0.0000 0.0000
# 2 22.5891 32.0147 11.4507 0.0000 0.0000 0.0000
# 3 33.4132 11.4507 135.7146 0.0000 0.0000 0.0000
# 4 0.0000 0.0000 0.0000 25.4337 0.0000 0.0000
# 5 0.0000 0.0000 0.0000 0.0000 -72.2761 0.0000
# 6 0.0000 0.0000 0.0000 0.0000 0.0000 0.8227
#
#
#
# Elastic Compliance Matrix: (Units=1/GPa)
#
#
# Indices 1 2 3 4 5 6 
#
# 1 0.025730 -0.016384 -0.004953 0.000000 0.000000 0.000000
# 2 -0.016384 0.042640 0.000436 0.000000 0.000000 0.000000
# 3 -0.004953 0.000436 0.008551 0.000000 0.000000 0.000000
# 4 0.000000 0.000000 0.000000 0.039318 0.000000 0.000000
# 5 0.000000 0.000000 0.000000 0.000000 -0.013836 0.000000
# 6 0.000000 0.000000 0.000000 0.000000 0.000000 1.215452
#
#
# Mechanical properties :
#
#
# Convention : Reuss Voigt Hill
#
# Bulk Modulus (GPa) = 28.47317 40.25718 34.36518
# Shear Modulus (GPa) = 3.64601 1.45977 2.55289
#
# Velocity S-wave (km/s) = 1.26605 0.80109 1.05939
# Velocity P-wave (km/s) = 3.82814 4.30740 4.07482
#
# Compressibility (1/GPa) = 0.03512078
#
# Stress axis : x y z
#
# Youngs Moduli (GPa) = 38.86446 23.45232 116.94623
#
# Poissons Ratio (x) = 0.38423 0.57918
# Poissons Ratio (y) = 0.63674 -0.05099
# Poissons Ratio (z) = 0.19248 -0.01023
#
# Static dielectric constant tensor:
#      x y z
#    x 3.616260 0.000000 0.000000 
#    y 0.000000 4.090840 0.000000 
#    z 0.000000 0.000000 4.423160 
# 
# 
# High freq. dielectric constant tensor:
#      x y z
#    x 1.855800 0.000000 0.000000 
#    y 0.000000 1.898990 0.000000 
#    z 0.000000 0.000000 1.902600 
# 
# From -- ./inp_files/18480.got.cif
#   From: 2010.03.12/outbox.cif.g09.slc.cpg/sg50_10_cif.got.tgz:18480.got - 2010.04.16 13:23:21.
