data_PCOD8205103
_publ_section_title
;
Structure prediction by ZEFSAII (Michael W. Deem and Ramdas Pophale) SiO2 
 PCOD8205103
Probable space group: P B A N
;
_chemical_formula_sum "Si O2"
_cell_formula_units_Z 58
_cell_length_a 16.753009
_cell_length_b 10.222596
_cell_length_c 17.694281
_cell_angle_alpha 90.000000
_cell_angle_beta 90.000000
_cell_angle_gamma 90.000000
_cell_volume 3030.309166
_symmetry_space_group_name_H-M "P B A N"
_symmetry_group_IT_number 50
_space_group.IT_coordinate_system_code '2'
_symmetry_cell_setting 'orthorhombic'
loop_
_space_group_symop_operation_xyz
x,y,z
1/2-x,1/2-y,z
x,1/2-y,-z
1/2-x,y,-z
-x,-y,-z
1/2+x,1/2+y,-z
-x,1/2+y,z
1/2+x,-y,z
loop_
_atom_site_type_symbol
_atom_site_label
_atom_site_fract_x
_atom_site_fract_y
_atom_site_fract_z
Si Si1 0.076940 0.420364 0.143221
Si Si2 0.829158 0.925484 0.293329
Si Si3 0.750000 0.250000 0.500000
Si Si4 0.434410 0.383167 0.154074
Si Si5 0.892145 0.089466 0.427167
Si Si6 0.837734 0.596291 0.007181
Si Si7 0.653211 0.875830 0.308343
Si Si8 0.062273 0.371222 0.544892
O O1 0.145598 0.437555 0.205968
O O2 0.043970 0.270733 0.143627
O O3 0.110116 0.458738 0.061325
O O4 0.011580 0.528213 0.159222
O O5 0.735747 0.954962 0.301666
O O6 0.840780 0.778518 0.321086
O O7 0.879449 0.023604 0.345571
O O8 0.809614 0.161805 0.449252
O O9 0.391937 0.409984 0.232353
O O10 0.378353 0.437373 0.086926
O O11 0.973198 0.176972 0.425756
O O12 0.925709 0.988851 0.487809
O O13 0.828855 0.750000 0.000000
O O14 0.750000 0.531709 0.000000
O O15 0.608783 0.925821 0.382355
O O16 0.101682 0.250000 0.500000
#
# Coordination Sequence:
#
# PCOD8205103 Si02
#       8
#     8   8   2   8   8   8   8   8
#     4  10  20  35  57  85 115 149 193 238 291 350
#     4  10  20  36  55  81 109 145 187 241 287 338
#     4  12  24  40  54  88 120 150 186 246 312 364
#     4  10  20  35  56  84 114 150 189 237 289 348
#     4  11  23  38  58  81 116 150 188 238 300 353
#     4   9  17  32  57  85 113 149 192 239 283 337
#     4  10  20  35  57  82 109 142 196 242 279 338
#     4  11  21  39  59  81 105 150 196 237 284 351
#
# _framework density 19.139961
#
# number of rings (size 3 to 8) (size 9 to 14) (size 15 to 20)
#    0.000    1.793    2.069    2.897    0.000    3.310 
#    0.000    1.379    0.000    3.310    0.000    0.000 
#    0.000    0.000    0.000    0.000    0.000    0.000 
#
# Total GULP energy -718701.772187 kJ/mol
# GULP energy per Si atom -12391.409865 kJ/mol
# Density = 1.909640 g / cm^3
# Si number density = 19.139961 Si / 1000 Ang^3
#
#
#
# Elastic Constant Matrix: (Units=GPa)
#
#
# Indices 1 2 3 4 5 6 
#
# 1 114.8907 30.5546 35.8092 0.0000 0.0000 0.0000
# 2 30.5546 46.9003 22.9418 0.0000 0.0000 0.0000
# 3 35.8092 22.9418 128.9122 0.0000 0.0000 0.0000
# 4 0.0000 0.0000 0.0000 31.5389 0.0000 0.0000
# 5 0.0000 0.0000 0.0000 0.0000 48.5423 0.0000
# 6 0.0000 0.0000 0.0000 0.0000 0.0000 28.4103
#
#
#
# Elastic Compliance Matrix: (Units=1/GPa)
#
#
# Indices 1 2 3 4 5 6 
#
# 1 0.010955 -0.006187 -0.001942 0.000000 0.000000 0.000000
# 2 -0.006187 0.026849 -0.003060 0.000000 0.000000 0.000000
# 3 -0.001942 -0.003060 0.008841 0.000000 0.000000 0.000000
# 4 0.000000 0.000000 0.000000 0.031707 0.000000 0.000000
# 5 0.000000 0.000000 0.000000 0.000000 0.020601 0.000000
# 6 0.000000 0.000000 0.000000 0.000000 0.000000 0.035198
#
#
# Mechanical properties :
#
#
# Convention : Reuss Voigt Hill
#
# Bulk Modulus (GPa) = 41.20632 52.14605 46.67618
# Shear Modulus (GPa) = 30.37360 35.12480 32.74920
#
# Velocity S-wave (km/s) = 3.98794 4.28852 4.14096
# Velocity P-wave (km/s) = 6.54069 7.19900 6.87772
#
# Compressibility (1/GPa) = 0.02426812
#
# Stress axis : x y z
#
# Youngs Moduli (GPa) = 91.28651 37.24530 113.10746
#
# Poissons Ratio (x) = 0.23043 0.21965
# Poissons Ratio (y) = 0.56477 0.34607
# Poissons Ratio (z) = 0.17727 0.11396
#
# Static dielectric constant tensor:
#      x y z
#    x 3.847490 0.000000 0.000000 
#    y 0.000000 3.395720 0.000000 
#    z 0.000000 0.000000 3.981130 
# 
# 
# High freq. dielectric constant tensor:
#      x y z
#    x 1.751640 0.000000 0.000000 
#    y 0.000000 1.712850 0.000000 
#    z 0.000000 0.000000 1.761670 
# 
# From -- ./inp_files/29531.got.cif
#   From: 2010.03.12/outbox.cif.g09.slc.cpg/sg50_15_cif.got.tgz:29531.got - 2010.04.16 13:23:21.
