data_PCOD8205853
_publ_section_title
;
Structure prediction by ZEFSAII (Michael W. Deem and Ramdas Pophale) SiO2 
 PCOD8205853
Probable space group: P B A N
;
_chemical_formula_sum "Si O2"
_cell_formula_units_Z 48
_cell_length_a 8.869737
_cell_length_b 28.336144
_cell_length_c 8.261402
_cell_angle_alpha 90.000000
_cell_angle_beta 90.000000
_cell_angle_gamma 90.000000
_cell_volume 2076.372407
_symmetry_space_group_name_H-M "P B A N"
_symmetry_group_IT_number 50
_space_group.IT_coordinate_system_code '2'
_symmetry_cell_setting 'orthorhombic'
loop_
_space_group_symop_operation_xyz
x,y,z
1/2-x,1/2-y,z
x,1/2-y,-z
1/2-x,y,-z
-x,-y,-z
1/2+x,1/2+y,-z
-x,1/2+y,z
1/2+x,-y,z
loop_
_atom_site_type_symbol
_atom_site_label
_atom_site_fract_x
_atom_site_fract_y
_atom_site_fract_z
Si Si1 0.918559 0.260629 0.311996
Si Si2 0.093750 0.175583 0.198337
Si Si3 0.615676 0.522909 0.882701
Si Si4 0.940868 0.406326 0.662098
Si Si5 0.611501 0.429432 0.695993
Si Si6 0.438189 0.347533 0.833942
O O1 0.750000 0.250000 0.249108
O O2 0.933109 0.250000 0.500000
O O3 0.046396 0.230059 0.218768
O O4 0.950533 0.315142 0.272051
O O5 0.270262 0.166264 0.220051
O O6 0.006013 0.146679 0.339135
O O7 0.036727 0.159392 0.023217
O O8 0.547548 0.567056 0.789538
O O9 0.653613 0.482271 0.752305
O O10 0.750000 0.540278 0.000000
O O11 0.500000 0.500000 0.000000
O O12 0.767973 0.401594 0.717039
O O13 0.948211 0.431425 0.488063
O O14 0.481775 0.402324 0.797903
#
# Coordination Sequence:
#
# PCOD8205853 Si02
#       6
#     8   8   8   8   8   8
#     4  11  24  43  66  96 133 173 217 270 331 398
#     4  11  25  42  66  98 132 171 221 273 331 395
#     4  12  25  44  69  96 133 175 224 277 335 395
#     4  11  25  44  68  96 133 175 223 275 334 402
#     4  11  25  45  66  97 133 176 222 274 336 401
#     4  11  25  42  67  97 133 171 220 275 330 394
#
# _framework density 23.117239999999999
#
# number of rings (size 3 to 8) (size 9 to 14) (size 15 to 20)
#    0.000    0.833    1.667    4.500    4.667   10.000 
#    0.000    0.000    0.000    0.000    0.000    0.000 
#    0.000    0.000    0.000    0.000    0.000    0.000 
#
# Total GULP energy -595274.395325 kJ/mol
# GULP energy per Si atom -12401.549903 kJ/mol
# Density = 2.306462 g / cm^3
# Si number density = 23.117240 Si / 1000 Ang^3
#
#
#
# Elastic Constant Matrix: (Units=GPa)
#
#
# Indices 1 2 3 4 5 6 
#
# 1 120.2465 17.4851 43.0084 0.0000 0.0000 0.0000
# 2 17.4851 72.8781 14.2958 0.0000 0.0000 0.0000
# 3 43.0084 14.2958 99.6185 0.0000 0.0000 0.0000
# 4 0.0000 0.0000 0.0000 36.7343 0.0000 0.0000
# 5 0.0000 0.0000 0.0000 0.0000 42.0872 0.0000
# 6 0.0000 0.0000 0.0000 0.0000 0.0000 43.4027
#
#
#
# Elastic Compliance Matrix: (Units=1/GPa)
#
#
# Indices 1 2 3 4 5 6 
#
# 1 0.010013 -0.001599 -0.004093 0.000000 0.000000 0.000000
# 2 -0.001599 0.014374 -0.001372 0.000000 0.000000 0.000000
# 3 -0.004093 -0.001372 0.012002 0.000000 0.000000 0.000000
# 4 0.000000 0.000000 0.000000 0.027223 0.000000 0.000000
# 5 0.000000 0.000000 0.000000 0.000000 0.023760 0.000000
# 6 0.000000 0.000000 0.000000 0.000000 0.000000 0.023040
#
#
# Mechanical properties :
#
#
# Convention : Reuss Voigt Hill
#
# Bulk Modulus (GPa) = 44.92418 49.14685 47.03551
# Shear Modulus (GPa) = 37.88954 38.97509 38.43232
#
# Velocity S-wave (km/s) = 4.05287 4.11052 4.08179
# Velocity P-wave (km/s) = 6.43245 6.62076 6.52728
#
# Compressibility (1/GPa) = 0.02225973
#
# Stress axis : x y z
#
# Youngs Moduli (GPa) = 99.87139 69.56781 83.31627
#
# Poissons Ratio (x) = 0.11126 0.34104
# Poissons Ratio (y) = 0.15973 0.11434
# Poissons Ratio (z) = 0.40881 0.09547
#
# Static dielectric constant tensor:
#      x y z
#    x 4.117470 0.000000 0.000000 
#    y 0.000000 4.745640 0.000000 
#    z 0.000000 0.000000 4.007480 
# 
# 
# High freq. dielectric constant tensor:
#      x y z
#    x 1.921130 0.000000 0.000000 
#    y 0.000000 1.920670 0.000000 
#    z 0.000000 0.000000 1.918790 
# 
# From -- ./inp_files/10103.got.cif
#   From: 2010.03.12/outbox.cif.g09.slc.cpg/sg50_6_cif.got.tgz:10103.got - 2010.04.16 13:23:21.
