data_PCOD8205722
_publ_section_title
;
Structure prediction by ZEFSAII (Michael W. Deem and Ramdas Pophale) SiO2 
 PCOD8205722
Probable space group: P B A N
;
_chemical_formula_sum "Si O2"
_cell_formula_units_Z 40
_cell_length_a 7.515591
_cell_length_b 16.078002
_cell_length_c 12.728086
_cell_angle_alpha 90.000000
_cell_angle_beta 90.000000
_cell_angle_gamma 90.000000
_cell_volume 1538.007018
_symmetry_space_group_name_H-M "P B A N"
_symmetry_group_IT_number 50
_space_group.IT_coordinate_system_code '2'
_symmetry_cell_setting 'orthorhombic'
loop_
_space_group_symop_operation_xyz
x,y,z
1/2-x,1/2-y,z
x,1/2-y,-z
1/2-x,y,-z
-x,-y,-z
1/2+x,1/2+y,-z
-x,1/2+y,z
1/2+x,-y,z
loop_
_atom_site_type_symbol
_atom_site_label
_atom_site_fract_x
_atom_site_fract_y
_atom_site_fract_z
Si Si1 0.941370 0.088318 0.541952
Si Si2 0.088652 0.311078 0.631525
Si Si3 0.286999 0.089422 0.811035
Si Si4 0.831678 0.414139 0.885669
Si Si5 0.054381 0.670967 0.754761
O O1 0.750000 0.108573 0.500000
O O2 0.954908 0.097081 0.666932
O O3 0.054156 0.163209 0.488610
O O4 0.000000 0.000000 0.500000
O O5 0.250000 0.250000 0.636021
O O6 0.131143 0.396880 0.694119
O O7 0.934257 0.260941 0.696225
O O8 0.454774 0.103363 0.891389
O O9 0.125246 0.156549 0.826097
O O10 0.203663 0.998460 0.821293
O O11 0.728603 0.339157 0.827263
O O12 0.750000 0.425073 0.000000
#
# Coordination Sequence:
#
# PCOD8205722 Si02
#       5
#     8   8   8   8   8
#     4  12  28  43  73 108 146 196 248 303 371 456
#     4  10  25  47  71 102 149 191 235 298 365 437
#     4  11  24  42  72 102 137 186 238 298 368 434
#     4  12  25  44  75 103 140 185 245 309 364 431
#     4  11  26  45  70 101 143 191 237 303 361 435
#
# _framework density 26.007684999999999
#
# number of rings (size 3 to 8) (size 9 to 14) (size 15 to 20)
#    0.000    0.800    2.000    3.600    8.400    6.400 
#    0.000    2.000    4.400    0.000    0.000    0.000 
#    0.000    0.000    0.000    0.000    0.000    0.000 
#
# Total GULP energy -495807.189564 kJ/mol
# GULP energy per Si atom -12395.179739 kJ/mol
# Density = 2.594849 g / cm^3
# Si number density = 26.007685 Si / 1000 Ang^3
#
#
#
# Elastic Constant Matrix: (Units=GPa)
#
#
# Indices 1 2 3 4 5 6 
#
# 1 104.1441 10.2454 15.8374 0.0000 0.0000 0.0000
# 2 10.2454 92.1942 32.0532 0.0000 0.0000 0.0000
# 3 15.8374 32.0532 91.6470 0.0000 0.0000 0.0000
# 4 0.0000 0.0000 0.0000 26.9567 0.0000 0.0000
# 5 0.0000 0.0000 0.0000 0.0000 36.0696 0.0000
# 6 0.0000 0.0000 0.0000 0.0000 0.0000 24.6573
#
#
#
# Elastic Compliance Matrix: (Units=1/GPa)
#
#
# Indices 1 2 3 4 5 6 
#
# 1 0.009888 -0.000575 -0.001508 0.000000 0.000000 0.000000
# 2 -0.000575 0.012382 -0.004231 0.000000 0.000000 0.000000
# 3 -0.001508 -0.004231 0.012652 0.000000 0.000000 0.000000
# 4 0.000000 0.000000 0.000000 0.037097 0.000000 0.000000
# 5 0.000000 0.000000 0.000000 0.000000 0.027724 0.000000
# 6 0.000000 0.000000 0.000000 0.000000 0.000000 0.040556
#
#
# Mechanical properties :
#
#
# Convention : Reuss Voigt Hill
#
# Bulk Modulus (GPa) = 44.85451 44.91748 44.88599
# Shear Modulus (GPa) = 31.18056 32.86000 32.02028
#
# Velocity S-wave (km/s) = 3.46627 3.55839 3.51263
# Velocity P-wave (km/s) = 5.77097 5.84733 5.80927
#
# Compressibility (1/GPa) = 0.02229430
#
# Stress axis : x y z
#
# Youngs Moduli (GPa) = 101.13377 80.76535 79.04018
#
# Poissons Ratio (x) = 0.04641 0.11917
# Poissons Ratio (y) = 0.05812 0.33443
# Poissons Ratio (z) = 0.15248 0.34173
#
# Static dielectric constant tensor:
#      x y z
#    x 5.287470 0.000000 0.000000 
#    y 0.000000 5.039090 0.000000 
#    z 0.000000 0.000000 4.463980 
# 
# 
# High freq. dielectric constant tensor:
#      x y z
#    x 2.065570 0.000000 0.000000 
#    y 0.000000 2.038270 0.000000 
#    z 0.000000 0.000000 2.019120 
# 
# From -- ./inp_files/18692.got.cif
#   From: 2010.03.12/outbox.cif.g09.slc.cpg/sg50_10_cif.got.tgz:18692.got - 2010.04.16 13:23:21.
