data_PCOD8205277
_publ_section_title
;
Structure prediction by ZEFSAII (Michael W. Deem and Ramdas Pophale) SiO2 
 PCOD8205277
Probable space group: P B A N
;
_chemical_formula_sum "Si O2"
_cell_formula_units_Z 64
_cell_length_a 29.469339
_cell_length_b 8.709806
_cell_length_c 14.036904
_cell_angle_alpha 90.000000
_cell_angle_beta 90.000000
_cell_angle_gamma 90.000000
_cell_volume 3602.883391
_symmetry_space_group_name_H-M "P B A N"
_symmetry_group_IT_number 50
_space_group.IT_coordinate_system_code '2'
_symmetry_cell_setting 'orthorhombic'
loop_
_space_group_symop_operation_xyz
x,y,z
1/2-x,1/2-y,z
x,1/2-y,-z
1/2-x,y,-z
-x,-y,-z
1/2+x,1/2+y,-z
-x,1/2+y,z
1/2+x,-y,z
loop_
_atom_site_type_symbol
_atom_site_label
_atom_site_fract_x
_atom_site_fract_y
_atom_site_fract_z
Si Si1 0.758564 0.423904 0.110882
Si Si2 0.200095 0.430164 0.600572
Si Si3 0.172555 0.432725 0.192105
Si Si4 0.435974 0.038010 0.870445
Si Si5 0.841065 0.927439 0.794269
Si Si6 0.900114 0.407210 0.943254
Si Si7 0.301573 0.433775 0.605902
Si Si8 0.984833 0.260192 0.887896
O O1 0.750000 0.250000 0.145438
O O2 0.724848 0.538602 0.165466
O O3 0.810130 0.476245 0.132202
O O4 0.750000 0.440147 0.000000
O O5 0.169800 0.485897 0.688103
O O6 0.250470 0.499442 0.615006
O O7 0.202060 0.248183 0.605551
O O8 0.179226 0.486048 0.498181
O O9 0.163781 0.252310 0.182635
O O10 0.140846 0.529449 0.120917
O O11 0.167402 0.485751 0.303741
O O12 0.393494 0.028931 0.801430
O O13 0.466320 0.188173 0.847607
O O14 0.471090 0.902612 0.844733
O O15 0.416781 0.032247 0.978948
O O16 0.942262 0.376298 0.871498
O O17 0.885658 0.250000 0.000000
O O18 0.990664 0.250000 0.000000
#
# Coordination Sequence:
#
# PCOD8205277 Si02
#       8
#     8   8   8   8   8   8   8   8
#     4  11  25  37  49  67 112 160 182 205 260 316
#     4   8  14  29  50  75 108 129 172 218 278 296
#     4  11  21  33  56  78 107 136 190 217 258 311
#     4  10  21  33  53  75 107 135 175 221 269 315
#     4  11  22  34  53  84 104 138 184 230 259 313
#     4   9  20  34  52  75 104 142 177 215 263 318
#     4   8  14  28  52  76 100 140 167 224 260 313
#     4   9  19  35  52  70 102 136 177 215 273 309
#
# _framework density 17.763549999999999
#
# number of rings (size 3 to 8) (size 9 to 14) (size 15 to 20)
#    0.000    2.625    1.250    3.375    8.750    2.000 
#    0.000    0.000    0.000    1.500    0.000    0.875 
#    0.000    0.000    0.000    0.000    0.000    0.000 
#
# Total GULP energy -792863.261518 kJ/mol
# GULP energy per Si atom -12388.488461 kJ/mol
# Density = 1.772312 g / cm^3
# Si number density = 17.763550 Si / 1000 Ang^3
#
#
#
# Elastic Constant Matrix: (Units=GPa)
#
#
# Indices 1 2 3 4 5 6 
#
# 1 116.8053 42.4158 51.0285 0.0000 0.0000 0.0000
# 2 42.4158 60.1864 35.0864 0.0000 0.0000 0.0000
# 3 51.0285 35.0864 105.6067 0.0000 0.0000 0.0000
# 4 0.0000 0.0000 0.0000 8.6898 0.0000 0.0000
# 5 0.0000 0.0000 0.0000 0.0000 14.3506 0.0000
# 6 0.0000 0.0000 0.0000 0.0000 0.0000 25.9864
#
#
#
# Elastic Compliance Matrix: (Units=1/GPa)
#
#
# Indices 1 2 3 4 5 6 
#
# 1 0.012692 -0.006659 -0.003920 0.000000 0.000000 0.000000
# 2 -0.006659 0.024100 -0.004789 0.000000 0.000000 0.000000
# 3 -0.003920 -0.004789 0.012955 0.000000 0.000000 0.000000
# 4 0.000000 0.000000 0.000000 0.115077 0.000000 0.000000
# 5 0.000000 0.000000 0.000000 0.000000 0.069683 0.000000
# 6 0.000000 0.000000 0.000000 0.000000 0.000000 0.038482
#
#
# Mechanical properties :
#
#
# Convention : Reuss Voigt Hill
#
# Bulk Modulus (GPa) = 52.60632 59.96221 56.28426
# Shear Modulus (GPa) = 16.12578 20.07654 18.10116
#
# Velocity S-wave (km/s) = 3.01624 3.36551 3.19565
# Velocity P-wave (km/s) = 6.46601 6.99509 6.73575
#
# Compressibility (1/GPa) = 0.01900912
#
# Stress axis : x y z
#
# Youngs Moduli (GPa) = 78.78909 41.49372 77.19314
#
# Poissons Ratio (x) = 0.27632 0.30262
# Poissons Ratio (y) = 0.52468 0.36969
# Poissons Ratio (z) = 0.30888 0.19872
#
# Static dielectric constant tensor:
#      x y z
#    x 3.418950 0.000000 0.000000 
#    y 0.000000 2.912690 0.000000 
#    z 0.000000 0.000000 3.596190 
# 
# 
# High freq. dielectric constant tensor:
#      x y z
#    x 1.675900 0.000000 0.000000 
#    y 0.000000 1.673400 0.000000 
#    z 0.000000 0.000000 1.661540 
# 
# From -- ./inp_files/27810.got.cif
#   From: 2010.03.12/outbox.cif.g09.slc.cpg/sg50_14_cif.got.tgz:27810.got - 2010.04.16 13:23:21.
