data_PCOD8205028
_publ_section_title
;
Structure prediction by ZEFSAII (Michael W. Deem and Ramdas Pophale) SiO2 
 PCOD8205028
Probable space group: P B A N
;
_chemical_formula_sum "Si O2"
_cell_formula_units_Z 48
_cell_length_a 10.671519
_cell_length_b 27.520325
_cell_length_c 8.381392
_cell_angle_alpha 90.000000
_cell_angle_beta 90.000000
_cell_angle_gamma 90.000000
_cell_volume 2461.477972
_symmetry_space_group_name_H-M "P B A N"
_symmetry_group_IT_number 50
_space_group.IT_coordinate_system_code '2'
_symmetry_cell_setting 'orthorhombic'
loop_
_space_group_symop_operation_xyz
x,y,z
1/2-x,1/2-y,z
x,1/2-y,-z
1/2-x,y,-z
-x,-y,-z
1/2+x,1/2+y,-z
-x,1/2+y,z
1/2+x,-y,z
loop_
_atom_site_type_symbol
_atom_site_label
_atom_site_fract_x
_atom_site_fract_y
_atom_site_fract_z
Si Si1 0.367810 0.051707 0.618389
Si Si2 0.003984 0.854752 0.313165
Si Si3 0.880567 0.444096 0.415825
Si Si4 0.109614 0.757551 0.185388
Si Si5 0.239945 0.134493 0.187294
Si Si6 0.916968 0.703812 0.395008
O O1 0.250000 0.059513 0.500000
O O2 0.500544 0.060990 0.534373
O O3 0.348222 0.088029 0.769061
O O4 0.374586 0.995582 0.677329
O O5 0.104346 0.898405 0.298608
O O6 0.062292 0.811532 0.213325
O O7 0.972410 0.838340 0.493546
O O8 0.879988 0.876963 0.237412
O O9 0.750000 0.435994 0.500000
O O10 0.250000 0.750000 0.248643
O O11 0.027134 0.718558 0.277014
O O12 0.097973 0.750000 0.000000
O O13 0.195679 0.182277 0.287055
O O14 0.250000 0.145526 0.000000
O O15 0.869788 0.750000 0.500000
#
# Coordination Sequence:
#
# PCOD8205028 Si02
#       6
#     8   8   8   8   8   8
#     4  10  19  40  64  91 126 160 208 268 309 375
#     4  11  22  38  63  89 117 162 216 257 306 373
#     4  10  21  35  67  95 119 156 213 263 318 361
#     4  10  23  40  58  85 130 166 200 252 319 382
#     4  12  23  39  63  91 127 165 207 260 331 381
#     4  10  22  38  60  85 115 153 212 260 299 362
#
# _framework density 19.500478000000001
#
# number of rings (size 3 to 8) (size 9 to 14) (size 15 to 20)
#    0.000    1.500    3.333    1.500    2.333    7.000 
#    0.000    5.000    3.667    0.000    0.000    0.000 
#    0.000    0.000    0.000    0.000    0.000    0.000 
#
# Total GULP energy -594952.291274 kJ/mol
# GULP energy per Si atom -12394.839402 kJ/mol
# Density = 1.945609 g / cm^3
# Si number density = 19.500478 Si / 1000 Ang^3
#
#
#
# Elastic Constant Matrix: (Units=GPa)
#
#
# Indices 1 2 3 4 5 6 
#
# 1 128.0827 43.8741 26.9496 0.0000 0.0000 0.0000
# 2 43.8741 119.8976 41.0279 0.0000 0.0000 0.0000
# 3 26.9496 41.0279 68.5403 0.0000 0.0000 0.0000
# 4 0.0000 0.0000 0.0000 22.9677 0.0000 0.0000
# 5 0.0000 0.0000 0.0000 0.0000 30.0057 0.0000
# 6 0.0000 0.0000 0.0000 0.0000 0.0000 39.3582
#
#
#
# Elastic Compliance Matrix: (Units=1/GPa)
#
#
# Indices 1 2 3 4 5 6 
#
# 1 0.009140 -0.002660 -0.002002 0.000000 0.000000 0.000000
# 2 -0.002660 0.011263 -0.005696 0.000000 0.000000 0.000000
# 3 -0.002002 -0.005696 0.018787 0.000000 0.000000 0.000000
# 4 0.000000 0.000000 0.000000 0.043539 0.000000 0.000000
# 5 0.000000 0.000000 0.000000 0.000000 0.033327 0.000000
# 6 0.000000 0.000000 0.000000 0.000000 0.000000 0.025408
#
#
# Mechanical properties :
#
#
# Convention : Reuss Voigt Hill
#
# Bulk Modulus (GPa) = 54.12883 60.02488 57.07685
# Shear Modulus (GPa) = 29.70249 32.11092 30.90671
#
# Velocity S-wave (km/s) = 3.90701 4.06232 3.98543
# Velocity P-wave (km/s) = 6.94053 7.26989 7.10712
#
# Compressibility (1/GPa) = 0.01847444
#
# Stress axis : x y z
#
# Youngs Moduli (GPa) = 109.41372 88.78773 53.22917
#
# Poissons Ratio (x) = 0.23613 0.10655
# Poissons Ratio (y) = 0.29099 0.30320
# Poissons Ratio (z) = 0.21901 0.50575
#
# Static dielectric constant tensor:
#      x y z
#    x 3.950220 0.000000 0.000000 
#    y 0.000000 -1.246390 0.000000 
#    z 0.000000 0.000000 3.206040 
# 
# 
# High freq. dielectric constant tensor:
#      x y z
#    x 1.773560 0.000000 0.000000 
#    y 0.000000 1.780010 0.000000 
#    z 0.000000 0.000000 1.726400 
# 
# From -- ./inp_files/10093.got.cif
#   From: 2010.03.12/outbox.cif.g09.slc.cpg/sg50_6_cif.got.tgz:10093.got - 2010.04.16 13:23:21.
