data_PCOD8205256
_publ_section_title
;
Structure prediction by ZEFSAII (Michael W. Deem and Ramdas Pophale) SiO2 
 PCOD8205256
Probable space group: P B A N
;
_chemical_formula_sum "Si O2"
_cell_formula_units_Z 32
_cell_length_a 14.863654
_cell_length_b 11.097124
_cell_length_c 7.939679
_cell_angle_alpha 90.000000
_cell_angle_beta 90.000000
_cell_angle_gamma 90.000000
_cell_volume 1309.600917
_symmetry_space_group_name_H-M "P B A N"
_symmetry_group_IT_number 50
_space_group.IT_coordinate_system_code '2'
_symmetry_cell_setting 'orthorhombic'
loop_
_space_group_symop_operation_xyz
x,y,z
1/2-x,1/2-y,z
x,1/2-y,-z
1/2-x,y,-z
-x,-y,-z
1/2+x,1/2+y,-z
-x,1/2+y,z
1/2+x,-y,z
loop_
_atom_site_type_symbol
_atom_site_label
_atom_site_fract_x
_atom_site_fract_y
_atom_site_fract_z
Si Si1 0.521464 0.097634 0.778132
Si Si2 0.645818 0.499643 0.617399
Si Si3 0.095823 0.250000 0.000000
Si Si4 0.175123 0.424392 0.254569
Si Si5 0.897301 0.250000 0.500000
O O1 0.470361 0.143250 0.943089
O O2 0.540234 0.210362 0.655968
O O3 0.455042 0.003844 0.685893
O O4 0.613565 0.029767 0.827119
O O5 0.718829 0.539836 0.759203
O O6 0.653046 0.586859 0.453547
O O7 0.664879 0.362279 0.558516
O O8 0.157678 0.200370 0.846137
#
# Coordination Sequence:
#
# PCOD8205256 Si02
#       5
#     8   8   4   8   4
#     4  11  22  39  63  95 131 173 219 262 320 392
#     4  10  22  41  65  96 126 164 224 271 318 387
#     4  12  24  41  62  93 140 180 206 265 334 387
#     4  10  23  40  63  93 127 169 219 268 319 388
#     4  10  20  41  70  95 128 174 216 281 326 367
#
# _framework density 24.434925
#
# number of rings (size 3 to 8) (size 9 to 14) (size 15 to 20)
#    0.000    1.500    0.000    6.750    0.000   11.000 
#    0.000    2.500    0.000    6.000    0.000    0.000 
#    0.000    0.000    0.000    0.000    0.000    0.000 
#
# Total GULP energy -396736.350549 kJ/mol
# GULP energy per Si atom -12398.010955 kJ/mol
# Density = 2.437931 g / cm^3
# Si number density = 24.434925 Si / 1000 Ang^3
#
#
#
# Elastic Constant Matrix: (Units=GPa)
#
#
# Indices 1 2 3 4 5 6 
#
# 1 127.1474 42.6523 40.4808 0.0000 0.0000 0.0000
# 2 42.6523 104.3966 48.2160 0.0000 0.0000 0.0000
# 3 40.4808 48.2160 80.4217 0.0000 0.0000 0.0000
# 4 0.0000 0.0000 0.0000 30.7179 0.0000 0.0000
# 5 0.0000 0.0000 0.0000 0.0000 31.1731 0.0000
# 6 0.0000 0.0000 0.0000 0.0000 0.0000 21.5784
#
#
#
# Elastic Compliance Matrix: (Units=1/GPa)
#
#
# Indices 1 2 3 4 5 6 
#
# 1 0.009776 -0.002380 -0.003493 0.000000 0.000000 0.000000
# 2 -0.002380 0.013827 -0.007091 0.000000 0.000000 0.000000
# 3 -0.003493 -0.007091 0.018444 0.000000 0.000000 0.000000
# 4 0.000000 0.000000 0.000000 0.032554 0.000000 0.000000
# 5 0.000000 0.000000 0.000000 0.000000 0.032079 0.000000
# 6 0.000000 0.000000 0.000000 0.000000 0.000000 0.046343
#
#
# Mechanical properties :
#
#
# Convention : Reuss Voigt Hill
#
# Bulk Modulus (GPa) = 62.04964 63.85155 62.95059
# Shear Modulus (GPa) = 27.12596 28.73498 27.93047
#
# Velocity S-wave (km/s) = 3.33548 3.43298 3.38458
# Velocity P-wave (km/s) = 6.34688 6.47316 6.41033
#
# Compressibility (1/GPa) = 0.01611613
#
# Stress axis : x y z
#
# Youngs Moduli (GPa) = 102.29475 72.32431 54.21676
#
# Poissons Ratio (x) = 0.17217 0.18940
# Poissons Ratio (y) = 0.24351 0.38447
# Poissons Ratio (z) = 0.35736 0.51288
#
# Static dielectric constant tensor:
#      x y z
#    x 4.417440 0.000000 0.000000 
#    y 0.000000 4.126310 0.000000 
#    z 0.000000 0.000000 4.247810 
# 
# 
# High freq. dielectric constant tensor:
#      x y z
#    x 1.982150 0.000000 0.000000 
#    y 0.000000 1.963270 0.000000 
#    z 0.000000 0.000000 1.955610 
# 
# From -- ./inp_files/12219.got.cif
#   From: 2010.03.12/outbox.cif.g09.slc.cpg/sg50_7_cif.got.tgz:12219.got - 2010.04.16 13:23:21.
