data_PCOD8205728
_publ_section_title
;
Structure prediction by ZEFSAII (Michael W. Deem and Ramdas Pophale) SiO2 
 PCOD8205728
Probable space group: P B A N
;
_chemical_formula_sum "Si O2"
_cell_formula_units_Z 22
_cell_length_a 15.607784
_cell_length_b 5.480685
_cell_length_c 10.848797
_cell_angle_alpha 90.000000
_cell_angle_beta 90.000000
_cell_angle_gamma 90.000000
_cell_volume 928.020716
_symmetry_space_group_name_H-M "P B A N"
_symmetry_group_IT_number 50
_space_group.IT_coordinate_system_code '2'
_symmetry_cell_setting 'orthorhombic'
loop_
_space_group_symop_operation_xyz
x,y,z
1/2-x,1/2-y,z
x,1/2-y,-z
1/2-x,y,-z
-x,-y,-z
1/2+x,1/2+y,-z
-x,1/2+y,z
1/2+x,-y,z
loop_
_atom_site_type_symbol
_atom_site_label
_atom_site_fract_x
_atom_site_fract_y
_atom_site_fract_z
Si Si1 0.402224 0.500995 0.451035
Si Si2 0.250000 0.750000 0.000000
Si Si3 0.550610 0.750000 0.000000
Si Si4 0.332361 0.396858 0.194363
O O1 0.357448 0.750000 0.500000
O O2 0.500000 0.500000 0.500000
O O3 0.388157 0.513783 0.304434
O O4 0.358230 0.250000 0.500000
O O5 0.309772 0.594982 0.090534
O O6 0.606540 0.790128 0.876517
O O7 0.500000 0.500000 0.000000
O O8 0.250000 0.250000 0.245306
#
# Coordination Sequence:
#
# PCOD8205728 Si02
#       4
#     8   2   4   8
#     4  10  26  49  77 109 153 205 260 322 388 469
#     4  12  24  52  78 116 164 202 266 324 406 470
#     4  12  28  44  79 117 156 206 258 332 398 464
#     4  12  27  50  80 115 162 209 266 329 402 483
#
# _framework density 23.706368999999999
#
# number of rings (size 3 to 8) (size 9 to 14) (size 15 to 20)
#    0.000    0.727    3.636    1.091   15.273    0.727 
#    0.000    0.000    0.000    0.000    0.000    0.000 
#    0.000    0.000    0.000    0.000    0.000    0.000 
#
# Total GULP energy -272582.206653 kJ/mol
# GULP energy per Si atom -12390.100302 kJ/mol
# Density = 2.365241 g / cm^3
# Si number density = 23.706369 Si / 1000 Ang^3
#
#
#
# Elastic Constant Matrix: (Units=GPa)
#
#
# Indices 1 2 3 4 5 6 
#
# 1 111.4475 43.5710 73.9269 0.0000 0.0000 0.0000
# 2 43.5710 203.6258 74.7343 0.0000 0.0000 0.0000
# 3 73.9269 74.7343 221.5261 0.0000 0.0000 0.0000
# 4 0.0000 0.0000 0.0000 45.5487 0.0000 0.0000
# 5 0.0000 0.0000 0.0000 0.0000 56.0733 0.0000
# 6 0.0000 0.0000 0.0000 0.0000 0.0000 8.5666
#
#
#
# Elastic Compliance Matrix: (Units=1/GPa)
#
#
# Indices 1 2 3 4 5 6 
#
# 1 0.011788 -0.001231 -0.003519 0.000000 0.000000 0.000000
# 2 -0.001231 0.005734 -0.001523 0.000000 0.000000 0.000000
# 3 -0.003519 -0.001523 0.006202 0.000000 0.000000 0.000000
# 4 0.000000 0.000000 0.000000 0.021955 0.000000 0.000000
# 5 0.000000 0.000000 0.000000 0.000000 0.017834 0.000000
# 6 0.000000 0.000000 0.000000 0.000000 0.000000 0.116733
#
#
# Mechanical properties :
#
#
# Convention : Reuss Voigt Hill
#
# Bulk Modulus (GPa) = 89.46280 102.34045 95.90162
# Shear Modulus (GPa) = 25.44306 44.99552 35.21929
#
# Velocity S-wave (km/s) = 3.27962 4.36137 3.85859
# Velocity P-wave (km/s) = 7.22226 8.28407 7.77132
#
# Compressibility (1/GPa) = 0.01117783
#
# Stress axis : x y z
#
# Youngs Moduli (GPa) = 84.83135 174.41328 161.23017
#
# Poissons Ratio (x) = 0.21470 0.56730
# Poissons Ratio (y) = 0.10443 0.24563
# Poissons Ratio (z) = 0.29849 0.26571
#
# Static dielectric constant tensor:
#      x y z
#    x 4.453870 0.000000 0.000000 
#    y 0.000000 4.987900 0.000000 
#    z 0.000000 0.000000 4.604660 
# 
# 
# High freq. dielectric constant tensor:
#      x y z
#    x 1.928760 0.000000 0.000000 
#    y 0.000000 1.960070 0.000000 
#    z 0.000000 0.000000 1.946030 
# 
# From -- ./inp_files/13608.got.cif
#   From: 2010.03.12/outbox.cif.g09.slc.cpg/sg50_7_cif.got.tgz:13608.got - 2010.04.16 13:23:21.
