data_PCOD8205551
_publ_section_title
;
Structure prediction by ZEFSAII (Michael W. Deem and Ramdas Pophale) SiO2 
 PCOD8205551
Probable space group: P B A N
;
_chemical_formula_sum "Si O2"
_cell_formula_units_Z 28
_cell_length_a 8.608129
_cell_length_b 27.834178
_cell_length_c 5.294356
_cell_angle_alpha 90.000000
_cell_angle_beta 90.000000
_cell_angle_gamma 90.000000
_cell_volume 1268.528729
_symmetry_space_group_name_H-M "P B A N"
_symmetry_group_IT_number 50
_space_group.IT_coordinate_system_code '2'
_symmetry_cell_setting 'orthorhombic'
loop_
_space_group_symop_operation_xyz
x,y,z
1/2-x,1/2-y,z
x,1/2-y,-z
1/2-x,y,-z
-x,-y,-z
1/2+x,1/2+y,-z
-x,1/2+y,z
1/2+x,-y,z
loop_
_atom_site_type_symbol
_atom_site_label
_atom_site_fract_x
_atom_site_fract_y
_atom_site_fract_z
Si Si1 0.499239 0.294435 0.177870
Si Si2 0.250000 0.250000 0.500000
Si Si3 0.934761 0.602223 0.018063
Si Si4 0.250000 0.750000 0.500000
Si Si5 0.564759 0.446810 0.516574
O O1 0.346762 0.289075 0.345742
O O2 0.653116 0.289354 0.344306
O O3 0.502817 0.250000 0.000000
O O4 0.490771 0.342643 0.013879
O O5 0.014566 0.575945 0.783083
O O6 0.750000 0.596838 0.000000
O O7 0.991492 0.581772 0.284516
O O8 0.750000 0.446879 0.500000
O O9 0.500000 0.500000 0.500000
#
# Coordination Sequence:
#
# PCOD8205551 Si02
#       5
#     8   2   8   2   8
#     4  11  25  43  69 103 149 192 250 295 370 429
#     4  10  22  42  68 100 146 198 242 306 350 438
#     4  12  27  46  79 110 148 196 247 305 374 445
#     4  10  26  42  68  96 158 194 246 310 358 434
#     4  12  28  51  77 109 148 190 246 310 377 446
#
# _framework density 22.072814000000001
#
# number of rings (size 3 to 8) (size 9 to 14) (size 15 to 20)
#    0.000    0.571    0.000    6.857   14.000    2.286 
#    0.000    0.000    0.000    0.000    0.000    0.000 
#    0.000    0.000    0.000    0.000    0.000    0.000 
#
# Total GULP energy -347174.018752 kJ/mol
# GULP energy per Si atom -12399.072098 kJ/mol
# Density = 2.202258 g / cm^3
# Si number density = 22.072814 Si / 1000 Ang^3
#
#
#
# Elastic Constant Matrix: (Units=GPa)
#
#
# Indices 1 2 3 4 5 6 
#
# 1 178.5160 34.9327 34.0782 0.0000 0.0000 0.0000
# 2 34.9327 144.1723 33.3728 0.0000 0.0000 0.0000
# 3 34.0782 33.3728 109.4377 0.0000 0.0000 0.0000
# 4 0.0000 0.0000 0.0000 50.7610 0.0000 0.0000
# 5 0.0000 0.0000 0.0000 0.0000 102.7666 0.0000
# 6 0.0000 0.0000 0.0000 0.0000 0.0000 56.7025
#
#
#
# Elastic Compliance Matrix: (Units=1/GPa)
#
#
# Indices 1 2 3 4 5 6 
#
# 1 0.006120 -0.001121 -0.001564 0.000000 0.000000 0.000000
# 2 -0.001121 0.007668 -0.001989 0.000000 0.000000 0.000000
# 3 -0.001564 -0.001989 0.010231 0.000000 0.000000 0.000000
# 4 0.000000 0.000000 0.000000 0.019700 0.000000 0.000000
# 5 0.000000 0.000000 0.000000 0.000000 0.009731 0.000000
# 6 0.000000 0.000000 0.000000 0.000000 0.000000 0.017636
#
#
# Mechanical properties :
#
#
# Convention : Reuss Voigt Hill
#
# Bulk Modulus (GPa) = 68.16145 70.76591 69.46368
# Shear Modulus (GPa) = 58.60000 64.02885 61.31442
#
# Velocity S-wave (km/s) = 5.15811 5.39175 5.27623
# Velocity P-wave (km/s) = 8.14998 8.41969 8.28593
#
# Compressibility (1/GPa) = 0.01467105
#
# Stress axis : x y z
#
# Youngs Moduli (GPa) = 163.40975 130.40856 97.73979
#
# Poissons Ratio (x) = 0.14616 0.15285
# Poissons Ratio (y) = 0.18315 0.19444
# Poissons Ratio (z) = 0.25554 0.25943
#
# Static dielectric constant tensor:
#      x y z
#    x 4.395200 0.000000 0.000000 
#    y 0.000000 4.035800 0.000000 
#    z 0.000000 0.000000 4.204410 
# 
# 
# High freq. dielectric constant tensor:
#      x y z
#    x 1.896460 0.000000 0.000000 
#    y 0.000000 1.876630 0.000000 
#    z 0.000000 0.000000 1.892180 
# 
# From -- ./inp_files/1021.got.cif
#   From: 2010.03.12/outbox.cif.g09.slc.cpg/sg50_1_cif.got.tgz:1021.got - 2010.04.16 13:23:21.
