data_PCOD8205237
_publ_section_title
;
Structure prediction by ZEFSAII (Michael W. Deem and Ramdas Pophale) SiO2 
 PCOD8205237
Probable space group: P B A N
;
_chemical_formula_sum "Si O2"
_cell_formula_units_Z 58
_cell_length_a 8.775222
_cell_length_b 23.950135
_cell_length_c 13.419560
_cell_angle_alpha 90.000000
_cell_angle_beta 90.000000
_cell_angle_gamma 90.000000
_cell_volume 2820.358752
_symmetry_space_group_name_H-M "P B A N"
_symmetry_group_IT_number 50
_space_group.IT_coordinate_system_code '2'
_symmetry_cell_setting 'orthorhombic'
loop_
_space_group_symop_operation_xyz
x,y,z
1/2-x,1/2-y,z
x,1/2-y,-z
1/2-x,y,-z
-x,-y,-z
1/2+x,1/2+y,-z
-x,1/2+y,z
1/2+x,-y,z
loop_
_atom_site_type_symbol
_atom_site_label
_atom_site_fract_x
_atom_site_fract_y
_atom_site_fract_z
Si Si1 0.250000 0.750000 0.500000
Si Si2 0.404887 0.104703 0.448261
Si Si3 0.250054 0.183976 0.705971
Si Si4 0.671587 0.598501 0.139047
Si Si5 0.927361 0.340534 0.620514
Si Si6 0.518539 0.028739 0.287928
Si Si7 0.159453 0.928506 0.765811
Si Si8 0.976906 0.562004 0.044056
O O1 0.149441 0.714805 0.422542
O O2 0.250000 0.082819 0.500000
O O3 0.363659 0.157631 0.376867
O O4 0.533769 0.122598 0.525087
O O5 0.491096 0.052978 0.397412
O O6 0.250000 0.250000 0.707437
O O7 0.207293 0.159542 0.815042
O O8 0.422261 0.169755 0.682972
O O9 0.607055 0.559004 0.222713
O O10 0.821329 0.565256 0.105783
O O11 0.547311 0.604609 0.049236
O O12 0.818729 0.372023 0.700843
O O13 0.684671 0.037628 0.242697
O O14 0.480299 0.962944 0.284597
O O15 0.117322 0.919606 0.883549
O O16 0.000000 0.500000 0.000000
#
# Coordination Sequence:
#
# PCOD8205237 Si02
#       8
#     2   8   8   8   8   8   8   8
#     4  12  24  40  62  88 128 182 224 278 306 396
#     4   9  21  40  63  91 129 170 215 267 319 390
#     4  10  20  39  68  96 123 165 217 275 323 373
#     4  10  22  40  63  94 129 159 215 262 319 392
#     4  11  23  41  63  91 129 169 223 265 321 374
#     4  11  24  39  60  94 133 170 210 258 330 390
#     4  12  25  39  63  95 132 171 209 265 323 393
#     4  11  22  38  66  91 124 164 205 260 320 391
#
# _framework density 20.564758999999999
#
# number of rings (size 3 to 8) (size 9 to 14) (size 15 to 20)
#    0.000    1.379    2.759    2.483    5.793    4.138 
#    1.241    1.379    0.000    0.000    0.000    0.000 
#    0.000    0.000    0.000    0.000    0.000    0.000 
#
# Total GULP energy -718803.603408 kJ/mol
# GULP energy per Si atom -12393.165576 kJ/mol
# Density = 2.051795 g / cm^3
# Si number density = 20.564759 Si / 1000 Ang^3
#
#
#
# Elastic Constant Matrix: (Units=GPa)
#
#
# Indices 1 2 3 4 5 6 
#
# 1 25.5941 -6.8919 4.0074 0.0000 0.0000 0.0000
# 2 -6.8919 67.6740 36.6569 0.0000 0.0000 0.0000
# 3 4.0074 36.6569 108.7729 0.0000 0.0000 0.0000
# 4 0.0000 0.0000 0.0000 41.6709 0.0000 0.0000
# 5 0.0000 0.0000 0.0000 0.0000 11.8445 0.0000
# 6 0.0000 0.0000 0.0000 0.0000 0.0000 20.8395
#
#
#
# Elastic Compliance Matrix: (Units=1/GPa)
#
#
# Indices 1 2 3 4 5 6 
#
# 1 0.041291 0.006152 -0.003595 0.000000 0.000000 0.000000
# 2 0.006152 0.018993 -0.006627 0.000000 0.000000 0.000000
# 3 -0.003595 -0.006627 0.011559 0.000000 0.000000 0.000000
# 4 0.000000 0.000000 0.000000 0.023998 0.000000 0.000000
# 5 0.000000 0.000000 0.000000 0.000000 0.084427 0.000000
# 6 0.000000 0.000000 0.000000 0.000000 0.000000 0.047986
#
#
# Mechanical properties :
#
#
# Convention : Reuss Voigt Hill
#
# Bulk Modulus (GPa) = 15.69766 29.95399 22.82582
# Shear Modulus (GPa) = 19.40783 26.08891 22.74837
#
# Velocity S-wave (km/s) = 3.07537 3.56564 3.32954
# Velocity P-wave (km/s) = 4.50116 5.61685 5.08967
#
# Compressibility (1/GPa) = 0.06370376
#
# Stress axis : x y z
#
# Youngs Moduli (GPa) = 24.21840 52.65060 86.50994
#
# Poissons Ratio (x) = -0.32391 0.31096
# Poissons Ratio (y) = -0.14899 0.57334
# Poissons Ratio (z) = 0.08705 0.34894
#
# Static dielectric constant tensor:
#      x y z
#    x 3.666840 0.000000 0.000000 
#    y 0.000000 3.937700 0.000000 
#    z 0.000000 0.000000 4.336440 
# 
# 
# High freq. dielectric constant tensor:
#      x y z
#    x 1.809840 0.000000 0.000000 
#    y 0.000000 1.775900 0.000000 
#    z 0.000000 0.000000 1.818170 
# 
# From -- ./inp_files/25380.got.cif
#   From: 2010.03.12/outbox.cif.g09.slc.cpg/sg50_13_cif.got.tgz:25380.got - 2010.04.16 13:23:21.
