data_PCOD8205005
_publ_section_title
;
Structure prediction by ZEFSAII (Michael W. Deem and Ramdas Pophale) SiO2 
 PCOD8205005
Probable space group: P B A N
;
_chemical_formula_sum "Si O2"
_cell_formula_units_Z 58
_cell_length_a 12.562632
_cell_length_b 9.143984
_cell_length_c 25.948759
_cell_angle_alpha 90.000000
_cell_angle_beta 90.000000
_cell_angle_gamma 90.000000
_cell_volume 2980.798974
_symmetry_space_group_name_H-M "P B A N"
_symmetry_group_IT_number 50
_space_group.IT_coordinate_system_code '2'
_symmetry_cell_setting 'orthorhombic'
loop_
_space_group_symop_operation_xyz
x,y,z
1/2-x,1/2-y,z
x,1/2-y,-z
1/2-x,y,-z
-x,-y,-z
1/2+x,1/2+y,-z
-x,1/2+y,z
1/2+x,-y,z
loop_
_atom_site_type_symbol
_atom_site_label
_atom_site_fract_x
_atom_site_fract_y
_atom_site_fract_z
Si Si1 0.853581 0.825465 0.212650
Si Si2 0.239787 0.912973 0.185355
Si Si3 0.000781 0.001426 0.383171
Si Si4 0.872908 0.248150 0.560782
Si Si5 0.530297 0.410615 0.863581
Si Si6 0.250000 0.750000 0.000000
Si Si7 0.121844 0.632279 0.089297
Si Si8 0.373862 0.249220 0.326832
O O1 0.750000 0.750000 0.187466
O O2 0.890844 0.750566 0.265325
O O3 0.945240 0.822642 0.170451
O O4 0.810300 0.990232 0.224444
O O5 0.250000 0.750000 0.208173
O O6 0.117932 0.971481 0.177882
O O7 0.290303 0.924012 0.128749
O O8 0.073591 0.101401 0.346578
O O9 0.928323 0.106171 0.417884
O O10 0.075354 0.901387 0.418758
O O11 0.926447 0.896393 0.349509
O O12 0.750000 0.250000 0.577640
O O13 0.886584 0.250000 0.500000
O O14 0.481515 0.529520 0.902893
O O15 0.590300 0.298021 0.899738
O O16 0.174997 0.861009 0.967079
O O17 0.250000 0.250000 0.342016
#
# Coordination Sequence:
#
# PCOD8205005 Si02
#       8
#     8   8   8   8   8   2   8   8
#     4  10  21  34  55  82 111 141 186 233 264 335
#     4   9  18  36  54  81 106 138 180 225 271 321
#     4  10  21  37  57  81 118 154 187 238 289 343
#     4  10  20  36  59  85 111 151 200 242 285 334
#     4  10  19  37  58  81 104 146 178 223 280 316
#     4  12  20  40  56  78 114 140 172 222 276 340
#     4  10  21  35  58  78 109 136 176 220 268 333
#     4  10  22  38  54  82 118 150 187 231 291 336
#
# _framework density 19.457871000000001
#
# number of rings (size 3 to 8) (size 9 to 14) (size 15 to 20)
#    0.000    2.069    2.069    2.069    0.000    6.069 
#    0.000    3.448    0.000    7.448    0.000    0.000 
#    0.000    0.000    0.000    0.000    0.000    0.000 
#
# Total GULP energy -718856.044581 kJ/mol
# GULP energy per Si atom -12394.069734 kJ/mol
# Density = 1.941358 g / cm^3
# Si number density = 19.457871 Si / 1000 Ang^3
#
#
#
# Elastic Constant Matrix: (Units=GPa)
#
#
# Indices 1 2 3 4 5 6 
#
# 1 117.5669 42.9797 38.6741 0.0000 0.0000 0.0000
# 2 42.9797 87.1160 29.5433 0.0000 0.0000 0.0000
# 3 38.6741 29.5433 74.3602 0.0000 0.0000 0.0000
# 4 0.0000 0.0000 0.0000 26.3278 0.0000 0.0000
# 5 0.0000 0.0000 0.0000 0.0000 19.3352 0.0000
# 6 0.0000 0.0000 0.0000 0.0000 0.0000 24.4781
#
#
#
# Elastic Compliance Matrix: (Units=1/GPa)
#
#
# Indices 1 2 3 4 5 6 
#
# 1 0.011450 -0.004195 -0.004289 0.000000 0.000000 0.000000
# 2 -0.004195 0.014803 -0.003700 0.000000 0.000000 0.000000
# 3 -0.004289 -0.003700 0.017148 0.000000 0.000000 0.000000
# 4 0.000000 0.000000 0.000000 0.037983 0.000000 0.000000
# 5 0.000000 0.000000 0.000000 0.000000 0.051719 0.000000
# 6 0.000000 0.000000 0.000000 0.000000 0.000000 0.040853
#
#
# Mechanical properties :
#
#
# Convention : Reuss Voigt Hill
#
# Bulk Modulus (GPa) = 52.53266 55.71527 54.12397
# Shear Modulus (GPa) = 24.42990 25.21792 24.82391
#
# Velocity S-wave (km/s) = 3.54719 3.60394 3.57568
# Velocity P-wave (km/s) = 6.62069 6.78335 6.70251
#
# Compressibility (1/GPa) = 0.01903578
#
# Stress axis : x y z
#
# Youngs Moduli (GPa) = 87.33640 67.55349 58.31464
#
# Poissons Ratio (x) = 0.28336 0.25008
# Poissons Ratio (y) = 0.36634 0.21575
# Poissons Ratio (z) = 0.37454 0.24993
#
# Static dielectric constant tensor:
#      x y z
#    x 3.918070 0.000000 0.000000 
#    y 0.000000 3.848390 0.000000 
#    z 0.000000 0.000000 3.297490 
# 
# 
# High freq. dielectric constant tensor:
#      x y z
#    x 1.779610 0.000000 0.000000 
#    y 0.000000 1.766650 0.000000 
#    z 0.000000 0.000000 1.734030 
# 
# From -- ./inp_files/32473.got.cif
#   From: 2010.03.12/outbox.cif.g09.slc.cpg/sg50_17_cif.got.tgz:32473.got - 2010.04.16 13:23:21.
