data_PCOD8205755
_publ_section_title
;
Structure prediction by ZEFSAII (Michael W. Deem and Ramdas Pophale) SiO2 
 PCOD8205755
Probable space group: P B A N
;
_chemical_formula_sum "Si O2"
_cell_formula_units_Z 40
_cell_length_a 10.761786
_cell_length_b 18.930280
_cell_length_c 8.452026
_cell_angle_alpha 90.000000
_cell_angle_beta 90.000000
_cell_angle_gamma 90.000000
_cell_volume 1721.877352
_symmetry_space_group_name_H-M "P B A N"
_symmetry_group_IT_number 50
_space_group.IT_coordinate_system_code '2'
_symmetry_cell_setting 'orthorhombic'
loop_
_space_group_symop_operation_xyz
x,y,z
1/2-x,1/2-y,z
x,1/2-y,-z
1/2-x,y,-z
-x,-y,-z
1/2+x,1/2+y,-z
-x,1/2+y,z
1/2+x,-y,z
loop_
_atom_site_type_symbol
_atom_site_label
_atom_site_fract_x
_atom_site_fract_y
_atom_site_fract_z
Si Si1 0.997025 0.632273 0.200719
Si Si2 0.891268 0.766488 0.318593
Si Si3 0.369121 0.104855 0.104928
Si Si4 0.222613 0.548511 0.173975
Si Si5 0.122454 0.478658 0.595445
O O1 0.980708 0.716328 0.213788
O O2 0.895143 0.596043 0.316211
O O3 0.133520 0.606363 0.256735
O O4 0.982337 0.606112 0.019825
O O5 0.750000 0.750000 0.283901
O O6 0.927573 0.750000 0.500000
O O7 0.907174 0.846571 0.255997
O O8 0.349603 0.026686 0.172718
O O9 0.250000 0.131220 0.000000
O O10 0.350176 0.539933 0.273609
O O11 0.250000 0.575891 0.000000
O O12 0.250000 0.470649 0.500000
O O13 0.000000 0.500000 0.500000
#
# Coordination Sequence:
#
# PCOD8205755 Si02
#       5
#     8   8   8   8   8
#     4  12  24  40  70 104 138 188 241 299 373 432
#     4  11  24  39  62 101 144 186 236 304 373 436
#     4  11  21  40  67  97 143 179 239 302 363 433
#     4  11  24  45  69 107 140 190 245 305 371 449
#     4  12  25  41  66 106 153 185 236 302 376 432
#
# _framework density 23.230457000000001
#
# number of rings (size 3 to 8) (size 9 to 14) (size 15 to 20)
#    0.000    0.600    8.000    1.200    5.600    0.000 
#    0.000    0.000    0.000    2.400    0.000    0.000 
#    0.000    0.000    0.000    0.000    0.000    0.000 
#
# Total GULP energy -495846.101426 kJ/mol
# GULP energy per Si atom -12396.152536 kJ/mol
# Density = 2.317758 g / cm^3
# Si number density = 23.230457 Si / 1000 Ang^3
#
#
#
# Elastic Constant Matrix: (Units=GPa)
#
#
# Indices 1 2 3 4 5 6 
#
# 1 106.0880 32.8423 31.2586 0.0000 0.0000 0.0000
# 2 32.8423 91.9501 17.7741 0.0000 0.0000 0.0000
# 3 31.2586 17.7741 109.1862 0.0000 0.0000 0.0000
# 4 0.0000 0.0000 0.0000 32.2934 0.0000 0.0000
# 5 0.0000 0.0000 0.0000 0.0000 38.0374 0.0000
# 6 0.0000 0.0000 0.0000 0.0000 0.0000 31.0174
#
#
#
# Elastic Compliance Matrix: (Units=1/GPa)
#
#
# Indices 1 2 3 4 5 6 
#
# 1 0.011301 -0.003522 -0.002662 0.000000 0.000000 0.000000
# 2 -0.003522 0.012326 -0.000998 0.000000 0.000000 0.000000
# 3 -0.002662 -0.000998 0.010083 0.000000 0.000000 0.000000
# 4 0.000000 0.000000 0.000000 0.030966 0.000000 0.000000
# 5 0.000000 0.000000 0.000000 0.000000 0.026290 0.000000
# 6 0.000000 0.000000 0.000000 0.000000 0.000000 0.032240
#
#
# Mechanical properties :
#
#
# Convention : Reuss Voigt Hill
#
# Bulk Modulus (GPa) = 51.68969 52.33045 52.01007
# Shear Modulus (GPa) = 34.71759 35.29292 35.00526
#
# Velocity S-wave (km/s) = 3.87005 3.90199 3.88605
# Velocity P-wave (km/s) = 6.50145 6.54799 6.52476
#
# Compressibility (1/GPa) = 0.01934622
#
# Stress axis : x y z
#
# Youngs Moduli (GPa) = 88.48980 81.12712 99.17421
#
# Poissons Ratio (x) = 0.28571 0.26400
# Poissons Ratio (y) = 0.31164 0.09901
# Poissons Ratio (z) = 0.23556 0.08099
#
# Static dielectric constant tensor:
#      x y z
#    x 4.101510 0.000000 0.000000 
#    y 0.000000 3.940690 0.000000 
#    z 0.000000 0.000000 4.548390 
# 
# 
# High freq. dielectric constant tensor:
#      x y z
#    x 1.901330 0.000000 0.000000 
#    y 0.000000 1.888960 0.000000 
#    z 0.000000 0.000000 1.935400 
# 
# From -- ./inp_files/11047.got.cif
#   From: 2010.03.12/outbox.cif.g09.slc.cpg/sg50_6_cif.got.tgz:11047.got - 2010.04.16 13:23:21.
