data_PCOD8205452
_publ_section_title
;
Structure prediction by ZEFSAII (Michael W. Deem and Ramdas Pophale) SiO2 
 PCOD8205452
Probable space group: P B A N
;
_chemical_formula_sum "Si O2"
_cell_formula_units_Z 64
_cell_length_a 11.385304
_cell_length_b 28.749096
_cell_length_c 8.943451
_cell_angle_alpha 90.000000
_cell_angle_beta 90.000000
_cell_angle_gamma 90.000000
_cell_volume 2927.345319
_symmetry_space_group_name_H-M "P B A N"
_symmetry_group_IT_number 50
_space_group.IT_coordinate_system_code '2'
_symmetry_cell_setting 'orthorhombic'
loop_
_space_group_symop_operation_xyz
x,y,z
1/2-x,1/2-y,z
x,1/2-y,-z
1/2-x,y,-z
-x,-y,-z
1/2+x,1/2+y,-z
-x,1/2+y,z
1/2+x,-y,z
loop_
_atom_site_type_symbol
_atom_site_label
_atom_site_fract_x
_atom_site_fract_y
_atom_site_fract_z
Si Si1 0.387352 0.258563 0.828948
Si Si2 0.039721 0.173355 0.341199
Si Si3 0.086069 0.352932 0.330761
Si Si4 0.626639 0.021953 0.464253
Si Si5 0.791411 0.613852 0.153342
Si Si6 0.639483 0.098080 0.699981
Si Si7 0.608650 0.413059 0.781637
Si Si8 0.987182 0.948494 0.936874
O O1 0.250000 0.250000 0.803236
O O2 0.462343 0.226943 0.711430
O O3 0.416030 0.311296 0.787561
O O4 0.426275 0.250000 0.000000
O O5 0.103971 0.166605 0.501296
O O6 0.110886 0.147752 0.213104
O O7 0.912230 0.149283 0.334263
O O8 0.187867 0.389713 0.277749
O O9 0.963775 0.379872 0.329459
O O10 0.750000 0.992517 0.500000
O O11 0.650865 0.071332 0.544009
O O12 0.618046 0.034575 0.288061
O O13 0.500000 0.000000 0.500000
O O14 0.851268 0.564352 0.104269
O O15 0.750000 0.638121 0.000000
O O16 0.759442 0.106877 0.791852
O O17 0.560106 0.060706 0.788344
O O18 0.541301 0.413675 0.938949
O O19 0.000000 0.000000 0.000000
#
# Coordination Sequence:
#
# PCOD8205452 Si02
#       8
#     8   8   8   8   8   8   8   8
#     4  11  24  40  67  98 138 170 209 273 338 405
#     4  11  23  41  66  98 134 170 220 269 336 410
#     4  12  23  41  67  99 130 173 221 266 346 405
#     4  10  21  43  64  94 131 173 226 281 346 403
#     4  11  22  39  63  94 133 168 213 275 332 400
#     4  10  23  43  65  90 131 177 225 275 336 400
#     4  11  23  42  66  89 129 179 221 272 339 400
#     4  11  24  42  64  93 129 171 231 281 336 395
#
# _framework density 21.862811000000001
#
# number of rings (size 3 to 8) (size 9 to 14) (size 15 to 20)
#    0.000    1.125    3.750    2.625    1.750    1.500 
#    9.000    0.625    0.000    2.250    0.000    0.000 
#    0.000    0.000    0.000    0.000    0.000    0.000 
#
# Total GULP energy -792980.986181 kJ/mol
# GULP energy per Si atom -12390.327909 kJ/mol
# Density = 2.181305 g / cm^3
# Si number density = 21.862811 Si / 1000 Ang^3
#
#
#
# Elastic Constant Matrix: (Units=GPa)
#
#
# Indices 1 2 3 4 5 6 
#
# 1 147.0337 44.3402 32.8481 0.0000 0.0000 0.0000
# 2 44.3402 82.4654 25.0860 0.0000 0.0000 0.0000
# 3 32.8481 25.0860 112.0026 0.0000 0.0000 0.0000
# 4 0.0000 0.0000 0.0000 33.3559 0.0000 0.0000
# 5 0.0000 0.0000 0.0000 0.0000 23.4150 0.0000
# 6 0.0000 0.0000 0.0000 0.0000 0.0000 31.2729
#
#
#
# Elastic Compliance Matrix: (Units=1/GPa)
#
#
# Indices 1 2 3 4 5 6 
#
# 1 0.008361 -0.004024 -0.001551 0.000000 0.000000 0.000000
# 2 -0.004024 0.014949 -0.002168 0.000000 0.000000 0.000000
# 3 -0.001551 -0.002168 0.009869 0.000000 0.000000 0.000000
# 4 0.000000 0.000000 0.000000 0.029980 0.000000 0.000000
# 5 0.000000 0.000000 0.000000 0.000000 0.042708 0.000000
# 6 0.000000 0.000000 0.000000 0.000000 0.000000 0.031977
#
#
# Mechanical properties :
#
#
# Convention : Reuss Voigt Hill
#
# Bulk Modulus (GPa) = 56.51805 60.67225 58.59515
# Shear Modulus (GPa) = 31.40172 33.55727 32.47949
#
# Velocity S-wave (km/s) = 3.79398 3.92203 3.85854
# Velocity P-wave (km/s) = 6.71563 6.95136 6.83451
#
# Compressibility (1/GPa) = 0.01769346
#
# Stress axis : x y z
#
# Youngs Moduli (GPa) = 119.60179 66.89226 101.32901
#
# Poissons Ratio (x) = 0.26916 0.15715
# Poissons Ratio (y) = 0.48126 0.21970
# Poissons Ratio (z) = 0.18549 0.14504
#
# Static dielectric constant tensor:
#      x y z
#    x 4.355650 0.000000 0.000000 
#    y 0.000000 3.823780 0.000000 
#    z 0.000000 0.000000 5.010820 
# 
# 
# High freq. dielectric constant tensor:
#      x y z
#    x 1.857750 0.000000 0.000000 
#    y 0.000000 1.829570 0.000000 
#    z 0.000000 0.000000 1.880860 
# 
# From -- ./inp_files/11859.got.cif
#   From: 2010.03.12/outbox.cif.g09.slc.cpg/sg50_6_cif.got.tgz:11859.got - 2010.04.16 13:23:21.
