data_PCOD8205389
_publ_section_title
;
Structure prediction by ZEFSAII (Michael W. Deem and Ramdas Pophale) SiO2 
 PCOD8205389
Probable space group: P B A N
;
_chemical_formula_sum "Si O2"
_cell_formula_units_Z 64
_cell_length_a 15.852486
_cell_length_b 17.667525
_cell_length_c 11.503069
_cell_angle_alpha 90.000000
_cell_angle_beta 90.000000
_cell_angle_gamma 90.000000
_cell_volume 3221.712764
_symmetry_space_group_name_H-M "P B A N"
_symmetry_group_IT_number 50
_space_group.IT_coordinate_system_code '2'
_symmetry_cell_setting 'orthorhombic'
loop_
_space_group_symop_operation_xyz
x,y,z
1/2-x,1/2-y,z
x,1/2-y,-z
1/2-x,y,-z
-x,-y,-z
1/2+x,1/2+y,-z
-x,1/2+y,z
1/2+x,-y,z
loop_
_atom_site_type_symbol
_atom_site_label
_atom_site_fract_x
_atom_site_fract_y
_atom_site_fract_z
Si Si1 0.944321 0.115769 0.831303
Si Si2 0.734515 0.163534 0.127982
Si Si3 0.569660 0.822763 0.646602
Si Si4 0.000308 0.922719 0.933382
Si Si5 0.022925 0.156948 0.394792
Si Si6 0.880259 0.951161 0.755792
Si Si7 0.625994 0.088304 0.726415
Si Si8 0.209904 0.056092 0.628390
O O1 0.859005 0.161621 0.821476
O O2 0.019400 0.148437 0.756380
O O3 0.921455 0.031467 0.788475
O O4 0.974822 0.134074 0.963941
O O5 0.750000 0.250000 0.111179
O O6 0.788839 0.126272 0.229697
O O7 0.750000 0.124058 0.000000
O O8 0.573993 0.731094 0.651734
O O9 0.516343 0.844226 0.532996
O O10 0.661688 0.863255 0.642081
O O11 0.072258 0.933660 0.837935
O O12 0.910926 0.901292 0.869019
O O13 0.000000 0.000000 0.000000
O O14 0.075814 0.082811 0.358725
O O15 0.927124 0.149863 0.348344
O O16 0.780451 0.950586 0.731361
O O17 0.646143 0.013896 0.648761
O O18 0.250000 0.050180 0.500000
#
# Coordination Sequence:
#
# PCOD8205389 Si02
#       8
#     8   8   8   8   8   8   8   8
#     4  11  21  40  65  92 128 167 217 255 322 388
#     4  11  22  37  60  94 127 163 204 257 314 385
#     4  11  24  41  62  90 124 173 214 262 322 382
#     4   9  19  37  59  89 122 163 201 254 316 377
#     4  10  23  42  60  88 127 168 213 263 319 379
#     4  10  21  39  61  91 125 161 208 266 314 370
#     4  11  22  39  62  91 128 159 209 264 317 380
#     4  12  24  39  64  97 125 164 217 270 319 377
#
# _framework density 19.865209
#
# number of rings (size 3 to 8) (size 9 to 14) (size 15 to 20)
#    0.000    1.375    3.750    3.000    1.750    1.500 
#    0.000    1.875    0.000    2.250    0.000    8.750 
#    0.000    0.000    0.000    0.000    0.000    0.000 
#
# Total GULP energy -792864.170423 kJ/mol
# GULP energy per Si atom -12388.502663 kJ/mol
# Density = 1.981999 g / cm^3
# Si number density = 19.865209 Si / 1000 Ang^3
#
#
#
# Elastic Constant Matrix: (Units=GPa)
#
#
# Indices 1 2 3 4 5 6 
#
# 1 100.9862 33.3355 61.8078 0.0000 0.0000 0.0000
# 2 33.3355 71.2067 29.6753 0.0000 0.0000 0.0000
# 3 61.8078 29.6753 108.3957 0.0000 0.0000 0.0000
# 4 0.0000 0.0000 0.0000 26.6479 0.0000 0.0000
# 5 0.0000 0.0000 0.0000 0.0000 40.7683 0.0000
# 6 0.0000 0.0000 0.0000 0.0000 0.0000 29.2919
#
#
#
# Elastic Compliance Matrix: (Units=1/GPa)
#
#
# Indices 1 2 3 4 5 6 
#
# 1 0.016268 -0.004233 -0.008117 0.000000 0.000000 0.000000
# 2 -0.004233 0.016954 -0.002228 0.000000 0.000000 0.000000
# 3 -0.008117 -0.002228 0.014464 0.000000 0.000000 0.000000
# 4 0.000000 0.000000 0.000000 0.037526 0.000000 0.000000
# 5 0.000000 0.000000 0.000000 0.000000 0.024529 0.000000
# 6 0.000000 0.000000 0.000000 0.000000 0.000000 0.034139
#
#
# Mechanical properties :
#
#
# Convention : Reuss Voigt Hill
#
# Bulk Modulus (GPa) = 53.96774 58.91398 56.44086
# Shear Modulus (GPa) = 27.90002 29.72628 28.81315
#
# Velocity S-wave (km/s) = 3.75169 3.87253 3.81259
# Velocity P-wave (km/s) = 6.78180 7.05100 6.91771
#
# Compressibility (1/GPa) = 0.01852959
#
# Stress axis : x y z
#
# Youngs Moduli (GPa) = 61.47194 58.98424 69.13860
#
# Poissons Ratio (x) = 0.24968 0.56120
# Poissons Ratio (y) = 0.26021 0.15402
# Poissons Ratio (z) = 0.49897 0.13140
#
# Static dielectric constant tensor:
#      x y z
#    x 4.059510 0.000000 0.000000 
#    y 0.000000 3.644840 0.000000 
#    z 0.000000 0.000000 4.120290 
# 
# 
# High freq. dielectric constant tensor:
#      x y z
#    x 1.774300 0.000000 0.000000 
#    y 0.000000 1.762790 0.000000 
#    z 0.000000 0.000000 1.786080 
# 
# From -- ./inp_files/21344.got.cif
#   From: 2010.03.12/outbox.cif.g09.slc.cpg/sg50_11_cif.got.tgz:21344.got - 2010.04.16 13:23:21.
