data_PCOD8205482
_publ_section_title
;
Structure prediction by ZEFSAII (Michael W. Deem and Ramdas Pophale) SiO2 
 PCOD8205482
Probable space group: P B A N
;
_chemical_formula_sum "Si O2"
_cell_formula_units_Z 54
_cell_length_a 14.318678
_cell_length_b 12.342710
_cell_length_c 14.376408
_cell_angle_alpha 90.000000
_cell_angle_beta 90.000000
_cell_angle_gamma 90.000000
_cell_volume 2540.761133
_symmetry_space_group_name_H-M "P B A N"
_symmetry_group_IT_number 50
_space_group.IT_coordinate_system_code '2'
_symmetry_cell_setting 'orthorhombic'
loop_
_space_group_symop_operation_xyz
x,y,z
1/2-x,1/2-y,z
x,1/2-y,-z
1/2-x,y,-z
-x,-y,-z
1/2+x,1/2+y,-z
-x,1/2+y,z
1/2+x,-y,z
loop_
_atom_site_type_symbol
_atom_site_label
_atom_site_fract_x
_atom_site_fract_y
_atom_site_fract_z
Si Si1 0.602977 0.847761 0.323456
Si Si2 0.348248 0.445459 0.913147
Si Si3 0.826291 0.058889 0.898714
Si Si4 0.646296 0.482704 0.528455
Si Si5 0.750000 0.250000 0.000000
Si Si6 0.528841 0.635900 0.402786
Si Si7 0.250000 0.250000 0.819408
Si Si8 0.007933 0.520579 0.777994
O O1 0.654433 0.942924 0.380296
O O2 0.562722 0.761638 0.400312
O O3 0.676651 0.807463 0.248398
O O4 0.514376 0.901399 0.269424
O O5 0.278449 0.531802 0.865897
O O6 0.310240 0.326500 0.887398
O O7 0.448181 0.474191 0.871241
O O8 0.354060 0.465919 0.024500
O O9 0.888780 0.055710 0.808190
O O10 0.823140 0.178851 0.940946
O O11 0.750000 0.439573 0.500000
O O12 0.605865 0.557509 0.446750
O O13 0.573408 0.383216 0.549353
O O14 0.529283 0.608769 0.293673
#
# Coordination Sequence:
#
# PCOD8205482 Si02
#       8
#     8   8   8   8   2   8   4   8
#     4  11  22  37  64  94 127 163 214 266 328 391
#     4  10  22  39  61  87 130 156 217 266 319 376
#     4  10  22  41  58  86 122 172 208 268 320 385
#     4  10  22  40  65  92 126 171 211 265 330 388
#     4   8  20  40  60  78 120 170 226 252 316 394
#     4  10  22  38  61  96 129 162 214 269 320 391
#     4  12  20  39  63  98 120 168 214 276 325 387
#     4  11  22  39  62  89 126 164 208 264 328 381
#
# _framework density 21.253474000000001
#
# number of rings (size 3 to 8) (size 9 to 14) (size 15 to 20)
#    0.000    1.778    2.963    1.778    0.000    4.148 
#    0.000    0.000    0.000   24.889    0.000    0.000 
#    0.000    0.000    0.000    0.000    0.000    0.000 
#
# Total GULP energy -669191.742693 kJ/mol
# GULP energy per Si atom -12392.439680 kJ/mol
# Density = 2.120510 g / cm^3
# Si number density = 21.253474 Si / 1000 Ang^3
#
#
#
# Elastic Constant Matrix: (Units=GPa)
#
#
# Indices 1 2 3 4 5 6 
#
# 1 78.9005 9.6881 5.2744 0.0000 0.0000 0.0000
# 2 9.6881 74.1157 12.7612 0.0000 0.0000 0.0000
# 3 5.2744 12.7612 64.4770 0.0000 0.0000 0.0000
# 4 0.0000 0.0000 0.0000 24.3568 0.0000 0.0000
# 5 0.0000 0.0000 0.0000 0.0000 31.7165 0.0000
# 6 0.0000 0.0000 0.0000 0.0000 0.0000 25.8556
#
#
#
# Elastic Compliance Matrix: (Units=1/GPa)
#
#
# Indices 1 2 3 4 5 6 
#
# 1 0.012916 -0.001560 -0.000748 0.000000 0.000000 0.000000
# 2 -0.001560 0.014157 -0.002674 0.000000 0.000000 0.000000
# 3 -0.000748 -0.002674 0.016100 0.000000 0.000000 0.000000
# 4 0.000000 0.000000 0.000000 0.041056 0.000000 0.000000
# 5 0.000000 0.000000 0.000000 0.000000 0.031529 0.000000
# 6 0.000000 0.000000 0.000000 0.000000 0.000000 0.038676
#
#
# Mechanical properties :
#
#
# Convention : Reuss Voigt Hill
#
# Bulk Modulus (GPa) = 30.11244 30.32674 30.21959
# Shear Modulus (GPa) = 28.49534 29.03708 28.76621
#
# Velocity S-wave (km/s) = 3.66558 3.70026 3.68296
# Velocity P-wave (km/s) = 5.66695 5.70578 5.68640
#
# Compressibility (1/GPa) = 0.03320887
#
# Stress axis : x y z
#
# Youngs Moduli (GPa) = 77.42526 70.63773 62.11230
#
# Poissons Ratio (x) = 0.11016 0.04645
# Poissons Ratio (y) = 0.12075 0.16611
# Poissons Ratio (z) = 0.05790 0.18891
#
# Static dielectric constant tensor:
#      x y z
#    x 3.814050 0.000000 0.000000 
#    y 0.000000 3.865700 0.000000 
#    z 0.000000 0.000000 3.872370 
# 
# 
# High freq. dielectric constant tensor:
#      x y z
#    x 1.826930 0.000000 0.000000 
#    y 0.000000 1.820760 0.000000 
#    z 0.000000 0.000000 1.844080 
# 
# From -- ./inp_files/26526.got.cif
#   From: 2010.03.12/outbox.cif.g09.slc.cpg/sg50_14_cif.got.tgz:26526.got - 2010.04.16 13:23:21.
