data_PCOD8205383
_publ_section_title
;
Structure prediction by ZEFSAII (Michael W. Deem and Ramdas Pophale) SiO2 
 PCOD8205383
Probable space group: P B A N
;
_chemical_formula_sum "Si O2"
_cell_formula_units_Z 64
_cell_length_a 15.239567
_cell_length_b 12.450091
_cell_length_c 17.187547
_cell_angle_alpha 90.000000
_cell_angle_beta 90.000000
_cell_angle_gamma 90.000000
_cell_volume 3261.061973
_symmetry_space_group_name_H-M "P B A N"
_symmetry_group_IT_number 50
_space_group.IT_coordinate_system_code '2'
_symmetry_cell_setting 'orthorhombic'
loop_
_space_group_symop_operation_xyz
x,y,z
1/2-x,1/2-y,z
x,1/2-y,-z
1/2-x,y,-z
-x,-y,-z
1/2+x,1/2+y,-z
-x,1/2+y,z
1/2+x,-y,z
loop_
_atom_site_type_symbol
_atom_site_label
_atom_site_fract_x
_atom_site_fract_y
_atom_site_fract_z
Si Si1 0.647804 0.749810 0.409406
Si Si2 0.843764 0.871674 0.000050
Si Si3 0.904110 0.974105 0.850260
Si Si4 0.749922 0.127934 0.667995
Si Si5 0.899460 0.963566 0.676678
Si Si6 0.744110 0.132878 0.149264
Si Si7 0.100000 0.036726 0.677222
Si Si8 0.896300 0.976083 0.149185
O O1 0.750000 0.750000 0.391535
O O2 0.626116 0.750000 0.500000
O O3 0.605869 0.856016 0.373085
O O4 0.606865 0.642648 0.374031
O O5 0.895406 0.891378 0.920432
O O6 0.820210 0.750000 0.000000
O O7 0.750000 0.934898 0.000000
O O8 0.898379 0.891748 0.078839
O O9 0.869291 0.935045 0.765631
O O10 0.849076 0.080053 0.874635
O O11 0.006299 0.985084 0.839818
O O12 0.750000 0.250000 0.630273
O O13 0.751500 0.145377 0.759034
O O14 0.835633 0.057728 0.642631
O O15 0.662250 0.059976 0.644776
O O16 0.999253 0.002126 0.673166
O O17 0.750000 0.250000 0.109691
O O18 0.829057 0.067501 0.120854
O O19 0.131133 0.068134 0.765477
#
# Coordination Sequence:
#
# PCOD8205383 Si02
#       8
#     8   8   8   8   8   8   8   8
#     4  11  24  42  66  94 130 166 203 254 308 371
#     4  11  23  36  54  81 120 162 198 250 306 358
#     4  10  21  39  58  85 119 154 202 253 300 359
#     4   9  18  35  58  89 123 154 199 253 298 357
#     4  10  22  39  65  93 120 163 207 254 308 369
#     4   9  18  35  57  80 112 153 196 246 299 351
#     4  10  22  39  65  93 120 163 207 254 308 369
#     4  10  21  39  58  85 119 154 202 253 300 359
#
# _framework density 19.625506999999999
#
# number of rings (size 3 to 8) (size 9 to 14) (size 15 to 20)
#    0.000    2.000    2.500    0.375    3.500    1.500 
#    4.500    1.250    0.000    0.750    0.000    0.000 
#    0.000    0.000    0.000    0.000    0.000    0.000 
#
# Total GULP energy -792952.301564 kJ/mol
# GULP energy per Si atom -12389.879712 kJ/mol
# Density = 1.958084 g / cm^3
# Si number density = 19.625507 Si / 1000 Ang^3
#
#
#
# Elastic Constant Matrix: (Units=GPa)
#
#
# Indices 1 2 3 4 5 6 
#
# 1 103.5705 45.5567 34.2176 0.0000 0.0000 0.0000
# 2 45.5567 127.7562 48.3383 0.0000 0.0000 0.0000
# 3 34.2176 48.3383 89.0661 0.0000 0.0000 0.0000
# 4 0.0000 0.0000 0.0000 24.1108 0.0000 0.0000
# 5 0.0000 0.0000 0.0000 0.0000 10.4308 0.0000
# 6 0.0000 0.0000 0.0000 0.0000 0.0000 22.9648
#
#
#
# Elastic Compliance Matrix: (Units=1/GPa)
#
#
# Indices 1 2 3 4 5 6 
#
# 1 0.012012 -0.003193 -0.002882 0.000000 0.000000 0.000000
# 2 -0.003193 0.010699 -0.004580 0.000000 0.000000 0.000000
# 3 -0.002882 -0.004580 0.014820 0.000000 0.000000 0.000000
# 4 0.000000 0.000000 0.000000 0.041475 0.000000 0.000000
# 5 0.000000 0.000000 0.000000 0.000000 0.095870 0.000000
# 6 0.000000 0.000000 0.000000 0.000000 0.000000 0.043545
#
#
# Mechanical properties :
#
#
# Convention : Reuss Voigt Hill
#
# Bulk Modulus (GPa) = 61.64555 64.06865 62.85710
# Shear Modulus (GPa) = 20.39675 24.31997 22.35836
#
# Velocity S-wave (km/s) = 3.22731 3.52405 3.37894
# Velocity P-wave (km/s) = 6.73547 7.01962 6.87901
#
# Compressibility (1/GPa) = 0.01622177
#
# Stress axis : x y z
#
# Youngs Moduli (GPa) = 83.25145 93.46831 67.47477
#
# Poissons Ratio (x) = 0.29844 0.19445
# Poissons Ratio (y) = 0.26581 0.30902
# Poissons Ratio (z) = 0.23992 0.42807
#
# Static dielectric constant tensor:
#      x y z
#    x 3.551340 0.000000 0.000000 
#    y 0.000000 3.671520 0.000000 
#    z 0.000000 0.000000 3.759360 
# 
# 
# High freq. dielectric constant tensor:
#      x y z
#    x 1.775460 0.000000 0.000000 
#    y 0.000000 1.755800 0.000000 
#    z 0.000000 0.000000 1.747910 
# 
# From -- ./inp_files/29536.got.cif
#   From: 2010.03.12/outbox.cif.g09.slc.cpg/sg50_15_cif.got.tgz:29536.got - 2010.04.16 13:23:21.
