data_PCOD8205957
_publ_section_title
;
Structure prediction by ZEFSAII (Michael W. Deem and Ramdas Pophale) SiO2 
 PCOD8205957
Probable space group: P M M A
;
_chemical_formula_sum "Si O2"
_cell_formula_units_Z 64
_cell_length_a 27.121416
_cell_length_b 9.010933
_cell_length_c 17.038204
_cell_angle_alpha 90.000000
_cell_angle_beta 90.000000
_cell_angle_gamma 90.000000
_cell_volume 4163.954109
_symmetry_space_group_name_H-M "P M M A"
_symmetry_group_IT_number 51
_symmetry_cell_setting 'orthorhombic'
loop_
_space_group_symop_operation_xyz
x,y,z
1/2-x,-y,z
1/2+x,-y,-z
-x,y,-z
-x,-y,-z
1/2+x,y,-z
1/2-x,y,z
x,-y,z
loop_
_atom_site_type_symbol
_atom_site_label
_atom_site_fract_x
_atom_site_fract_y
_atom_site_fract_z
Si Si1 0.072616 0.825897 0.361006
Si Si2 0.375775 0.666800 0.227293
Si Si3 0.460075 0.174734 0.670460
Si Si4 0.439431 0.324370 0.827949
Si Si5 0.804951 0.676935 0.907827
Si Si6 0.557621 0.666867 0.484061
Si Si7 0.612409 0.675468 0.020433
Si Si8 0.538932 0.665836 0.896340
O O1 0.115074 0.773446 0.301171
O O2 0.084356 0.748082 0.443773
O O3 0.018068 0.781955 0.329507
O O4 0.076598 0.000000 0.373702
O O5 0.364399 0.500000 0.257277
O O6 0.330804 0.727915 0.173571
O O7 0.425129 0.666235 0.177193
O O8 0.432314 0.240120 0.746360
O O9 0.432103 0.243906 0.595789
O O10 0.452733 0.000000 0.668163
O O11 0.443978 0.500000 0.811075
O O12 0.393589 0.288510 0.887020
O O13 0.488104 0.256415 0.870411
O O14 0.750000 0.744930 0.912413
O O15 0.803139 0.500000 0.909095
O O16 0.836220 0.735967 0.983528
O O17 0.500000 0.665414 0.500000
O O18 0.578358 0.500000 0.476093
O O19 0.611252 0.500000 0.005141
O O20 0.565970 0.743122 0.970910
O O21 0.523975 0.500000 0.920823
#
# Coordination Sequence:
#
# PCOD8205957 Si02
#       8
#     8   8   8   8   8   8   8   8
#     4  10  18  27  39  56  81 109 137 169 203 240
#     4   9  15  24  40  60  79 105 140 171 203 245
#     4  10  19  28  37  53  81 113 140 167 205 242
#     4  10  16  23  38  56  77 105 140 175 203 237
#     4   8  14  25  41  62  86 106 130 173 220 250
#     4   9  17  28  42  57  75 104 142 174 197 228
#     4   8  14  22  35  57  78 102 136 171 208 247
#     4   8  13  21  34  53  76 100 132 172 204 230
#
# _framework density 15.370005000000001
#
# number of rings (size 3 to 8) (size 9 to 14) (size 15 to 20)
#    0.000    3.000    1.250    3.000    0.000    4.000 
#    0.000    0.000    0.000    4.875    0.000    0.000 
#    0.000    1.000    0.000    8.500    0.000    2.375 
#
# Total GULP energy -793021.012223 kJ/mol
# GULP energy per Si atom -12390.953316 kJ/mol
# Density = 1.533502 g / cm^3
# Si number density = 15.370005 Si / 1000 Ang^3
#
#
#
# Elastic Constant Matrix: (Units=GPa)
#
#
# Indices 1 2 3 4 5 6 
#
# 1 60.8193 17.7247 46.0862 0.0000 0.0000 0.0000
# 2 17.7247 52.9069 44.7634 0.0000 0.0000 0.0000
# 3 46.0862 44.7634 135.8099 0.0000 0.0000 0.0000
# 4 0.0000 0.0000 0.0000 5.4790 0.0000 0.0000
# 5 0.0000 0.0000 0.0000 0.0000 13.8693 0.0000
# 6 0.0000 0.0000 0.0000 0.0000 0.0000 7.2323
#
#
#
# Elastic Compliance Matrix: (Units=1/GPa)
#
#
# Indices 1 2 3 4 5 6 
#
# 1 0.022216 -0.001476 -0.007053 0.000000 0.000000 0.000000
# 2 -0.001476 0.026308 -0.008171 0.000000 0.000000 0.000000
# 3 -0.007053 -0.008171 0.012450 0.000000 0.000000 0.000000
# 4 0.000000 0.000000 0.000000 0.182515 0.000000 0.000000
# 5 0.000000 0.000000 0.000000 0.000000 0.072102 0.000000
# 6 0.000000 0.000000 0.000000 0.000000 0.000000 0.138269
#
#
# Mechanical properties :
#
#
# Convention : Reuss Voigt Hill
#
# Bulk Modulus (GPa) = 36.26279 51.85387 44.05833
# Shear Modulus (GPa) = 10.07152 14.71357 12.39255
#
# Velocity S-wave (km/s) = 2.56260 3.09737 2.84259
# Velocity P-wave (km/s) = 5.69213 6.82656 6.28499
#
# Compressibility (1/GPa) = 0.02757648
#
# Stress axis : x y z
#
# Youngs Moduli (GPa) = 45.01186 38.01057 80.32441
#
# Poissons Ratio (x) = 0.05610 0.56649
# Poissons Ratio (y) = 0.06643 0.65629
# Poissons Ratio (z) = 0.31745 0.31057
#
# Static dielectric constant tensor:
#      x y z
#    x 2.763870 0.000000 0.000000 
#    y 0.000000 2.655200 0.000000 
#    z 0.000000 0.000000 3.055290 
# 
# 
# High freq. dielectric constant tensor:
#      x y z
#    x 1.534430 0.000000 0.000000 
#    y 0.000000 1.557600 0.000000 
#    z 0.000000 0.000000 1.595680 
# 
# From -- ./inp_files/26715.got.cif
#   From: 2010.03.12/outbox.cif.g09.slc.cpg/sg51_14_cif.got.tgz:26715.got - 2010.04.16 13:43:02.
