data_PCOD8205432
_publ_section_title
;
Structure prediction by ZEFSAII (Michael W. Deem and Ramdas Pophale) SiO2 
 PCOD8205432
Probable space group: P B A N
;
_chemical_formula_sum "Si O2"
_cell_formula_units_Z 48
_cell_length_a 23.433613
_cell_length_b 13.232583
_cell_length_c 7.165215
_cell_angle_alpha 90.000000
_cell_angle_beta 90.000000
_cell_angle_gamma 90.000000
_cell_volume 2221.841665
_symmetry_space_group_name_H-M "P B A N"
_symmetry_group_IT_number 50
_space_group.IT_coordinate_system_code '2'
_symmetry_cell_setting 'orthorhombic'
loop_
_space_group_symop_operation_xyz
x,y,z
1/2-x,1/2-y,z
x,1/2-y,-z
1/2-x,y,-z
-x,-y,-z
1/2+x,1/2+y,-z
-x,1/2+y,z
1/2+x,-y,z
loop_
_atom_site_type_symbol
_atom_site_label
_atom_site_fract_x
_atom_site_fract_y
_atom_site_fract_z
Si Si1 0.434126 0.156325 0.602625
Si Si2 0.360704 0.135303 0.951531
Si Si3 0.550667 0.199593 0.796821
Si Si4 0.797538 0.444318 0.629420
Si Si5 0.912466 0.973472 0.274294
Si Si6 0.638863 0.250000 0.500000
Si Si7 0.750000 0.499908 0.000000
O O1 0.403374 0.250000 0.500000
O O2 0.489984 0.204420 0.697533
O O3 0.450046 0.070238 0.446783
O O4 0.389822 0.115105 0.752684
O O5 0.409744 0.101144 0.098463
O O6 0.344761 0.250000 0.000000
O O7 0.303438 0.070191 0.948405
O O8 0.597821 0.262912 0.680501
O O9 0.567303 0.081536 0.802101
O O10 0.547487 0.250000 0.000000
O O11 0.750000 0.495620 0.500000
O O12 0.848459 0.523303 0.645446
O O13 0.819354 0.343342 0.529505
O O14 0.768777 0.425606 0.832175
#
# Coordination Sequence:
#
# PCOD8205432 Si02
#       7
#     8   8   8   8   8   4   4
#     4  12  23  41  67  94 133 173 224 275 335 408
#     4  11  22  41  66  95 131 173 218 272 332 399
#     4  11  25  43  66  98 131 176 228 276 339 403
#     4  10  21  41  66  95 129 173 217 272 331 401
#     4  10  24  42  65  96 131 175 216 279 337 398
#     4  10  23  42  66  94 138 172 223 276 336 396
#     4  10  23  40  65  96 134 168 223 270 337 404
#
# _framework density 21.603698999999999
#
# number of rings (size 3 to 8) (size 9 to 14) (size 15 to 20)
#    0.000    1.333    2.500    2.500    0.000    7.333 
#    0.000    0.833    0.000    0.000    0.000    0.000 
#    0.000    0.000    0.000    0.000    0.000    0.000 
#
# Total GULP energy -595001.615785 kJ/mol
# GULP energy per Si atom -12395.866996 kJ/mol
# Density = 2.155453 g / cm^3
# Si number density = 21.603699 Si / 1000 Ang^3
#
#
#
# Elastic Constant Matrix: (Units=GPa)
#
#
# Indices 1 2 3 4 5 6 
#
# 1 86.3337 26.9168 54.7235 0.0000 0.0000 0.0000
# 2 26.9168 106.0162 68.9258 0.0000 0.0000 0.0000
# 3 54.7235 68.9258 168.7893 0.0000 0.0000 0.0000
# 4 0.0000 0.0000 0.0000 46.7967 0.0000 0.0000
# 5 0.0000 0.0000 0.0000 0.0000 38.4642 0.0000
# 6 0.0000 0.0000 0.0000 0.0000 0.0000 13.9722
#
#
#
# Elastic Compliance Matrix: (Units=1/GPa)
#
#
# Indices 1 2 3 4 5 6 
#
# 1 0.014636 -0.000859 -0.004394 0.000000 0.000000 0.000000
# 2 -0.000859 0.012892 -0.004986 0.000000 0.000000 0.000000
# 3 -0.004394 -0.004986 0.009385 0.000000 0.000000 0.000000
# 4 0.000000 0.000000 0.000000 0.021369 0.000000 0.000000
# 5 0.000000 0.000000 0.000000 0.000000 0.025998 0.000000
# 6 0.000000 0.000000 0.000000 0.000000 0.000000 0.071571
#
#
# Mechanical properties :
#
#
# Convention : Reuss Voigt Hill
#
# Bulk Modulus (GPa) = 60.84669 73.58571 67.21620
# Shear Modulus (GPa) = 27.50134 33.88484 30.69309
#
# Velocity S-wave (km/s) = 3.57177 3.96469 3.77335
# Velocity P-wave (km/s) = 6.72578 7.42253 7.08273
#
# Compressibility (1/GPa) = 0.01643475
#
# Stress axis : x y z
#
# Youngs Moduli (GPa) = 68.32345 77.56556 106.54859
#
# Poissons Ratio (x) = 0.06663 0.46822
# Poissons Ratio (y) = 0.05869 0.53126
# Poissons Ratio (z) = 0.30025 0.38675
#
# Static dielectric constant tensor:
#      x y z
#    x 3.988710 0.000000 0.000000 
#    y 0.000000 3.720010 0.000000 
#    z 0.000000 0.000000 4.210620 
# 
# 
# High freq. dielectric constant tensor:
#      x y z
#    x 1.854180 0.000000 0.000000 
#    y 0.000000 1.836580 0.000000 
#    z 0.000000 0.000000 1.866160 
# 
# From -- ./inp_files/6623.got.cif
#   From: 2010.03.12/outbox.cif.g09.slc.cpg/sg50_4_cif.got.tgz:6623.got - 2010.04.16 13:23:21.
