data_PCOD8205427
_publ_section_title
;
Structure prediction by ZEFSAII (Michael W. Deem and Ramdas Pophale) SiO2 
 PCOD8205427
Probable space group: P B A N
;
_chemical_formula_sum "Si O2"
_cell_formula_units_Z 40
_cell_length_a 26.660845
_cell_length_b 4.884907
_cell_length_c 13.272560
_cell_angle_alpha 90.000000
_cell_angle_beta 90.000000
_cell_angle_gamma 90.000000
_cell_volume 1728.561784
_symmetry_space_group_name_H-M "P B A N"
_symmetry_group_IT_number 50
_space_group.IT_coordinate_system_code '2'
_symmetry_cell_setting 'orthorhombic'
loop_
_space_group_symop_operation_xyz
x,y,z
1/2-x,1/2-y,z
x,1/2-y,-z
1/2-x,y,-z
-x,-y,-z
1/2+x,1/2+y,-z
-x,1/2+y,z
1/2+x,-y,z
loop_
_atom_site_type_symbol
_atom_site_label
_atom_site_fract_x
_atom_site_fract_y
_atom_site_fract_z
Si Si1 0.032876 0.764074 0.307603
Si Si2 0.835932 0.781369 0.112338
Si Si3 0.874830 0.017797 0.568098
Si Si4 0.096509 0.789503 0.113529
Si Si5 0.282474 0.026263 0.709111
O O1 0.073927 0.860360 0.387776
O O2 0.051914 0.761087 0.192818
O O3 0.015875 0.452849 0.325779
O O4 0.885419 0.598795 0.124925
O O5 0.791716 0.676270 0.184013
O O6 0.855465 0.090048 0.136238
O O7 0.814145 0.750000 0.000000
O O8 0.849621 0.250000 0.500000
O O9 0.884077 0.750000 0.500000
O O10 0.836767 0.989077 0.659739
O O11 0.075632 0.750000 0.000000
O O12 0.250000 0.250000 0.645962
O O13 0.250000 0.750000 0.719787
#
# Coordination Sequence:
#
# PCOD8205427 Si02
#       5
#     8   8   8   8   8
#     4  12  26  43  72 104 138 179 233 288 350 419
#     4  10  21  41  69 100 139 188 224 274 338 414
#     4  12  28  48  73  98 137 183 230 296 355 405
#     4  10  21  40  69 100 140 186 230 273 340 413
#     4  12  26  44  74 105 138 179 232 285 346 418
#
# _framework density 23.140626999999999
#
# number of rings (size 3 to 8) (size 9 to 14) (size 15 to 20)
#    0.000    0.800    2.000    4.800    2.800    6.000 
#    0.000    1.000    0.000    0.000    0.000    0.000 
#    0.000    0.000    0.000    0.000    0.000    0.000 
#
# Total GULP energy -495843.851031 kJ/mol
# GULP energy per Si atom -12396.096276 kJ/mol
# Density = 2.308796 g / cm^3
# Si number density = 23.140627 Si / 1000 Ang^3
#
#
#
# Elastic Constant Matrix: (Units=GPa)
#
#
# Indices 1 2 3 4 5 6 
#
# 1 86.9501 18.7523 36.5048 0.0000 0.0000 0.0000
# 2 18.7523 115.8592 30.6989 0.0000 0.0000 0.0000
# 3 36.5048 30.6989 105.0320 0.0000 0.0000 0.0000
# 4 0.0000 0.0000 0.0000 35.0912 0.0000 0.0000
# 5 0.0000 0.0000 0.0000 0.0000 -212.3176 0.0000
# 6 0.0000 0.0000 0.0000 0.0000 0.0000 17.6637
#
#
#
# Elastic Compliance Matrix: (Units=1/GPa)
#
#
# Indices 1 2 3 4 5 6 
#
# 1 0.013577 -0.001027 -0.004419 0.000000 0.000000 0.000000
# 2 -0.001027 0.009433 -0.002400 0.000000 0.000000 0.000000
# 3 -0.004419 -0.002400 0.011758 0.000000 0.000000 0.000000
# 4 0.000000 0.000000 0.000000 0.028497 0.000000 0.000000
# 5 0.000000 0.000000 0.000000 0.000000 -0.004710 0.000000
# 6 0.000000 0.000000 0.000000 0.000000 0.000000 0.056613
#
#
# Mechanical properties :
#
#
# Convention : Reuss Voigt Hill
#
# Bulk Modulus (GPa) = 52.41847 53.30594 52.86221
# Shear Modulus (GPa) = 36.43769 -17.12019 9.65875
#
# Velocity S-wave (km/s) = 3.97245 -2.72294 2.04524
# Velocity P-wave (km/s) = 6.61376 3.63315 5.33581
#
# Compressibility (1/GPa) = 0.01907724
#
# Stress axis : x y z
#
# Youngs Moduli (GPa) = 73.65139 106.00676 85.04632
#
# Poissons Ratio (x) = 0.10884 0.37581
# Poissons Ratio (y) = 0.07562 0.20414
# Poissons Ratio (z) = 0.32546 0.25445
#
# Static dielectric constant tensor:
#      x y z
#    x 3.855800 0.000000 0.000000 
#    y 0.000000 4.611430 0.000000 
#    z 0.000000 0.000000 4.358280 
# 
# 
# High freq. dielectric constant tensor:
#      x y z
#    x 1.907220 0.000000 0.000000 
#    y 0.000000 1.934990 0.000000 
#    z 0.000000 0.000000 1.921270 
# 
# From -- ./inp_files/27385.got.cif
#   From: 2010.03.12/outbox.cif.g09.slc.cpg/sg50_14_cif.got.tgz:27385.got - 2010.04.16 13:23:21.
