data_PCOD8205989
_publ_section_title
;
Structure prediction by ZEFSAII (Michael W. Deem and Ramdas Pophale) SiO2 
 PCOD8205989
Probable space group: P M M A
;
_chemical_formula_sum "Si O2"
_cell_formula_units_Z 64
_cell_length_a 22.942591
_cell_length_b 17.760505
_cell_length_c 8.785712
_cell_angle_alpha 90.000000
_cell_angle_beta 90.000000
_cell_angle_gamma 90.000000
_cell_volume 3579.931659
_symmetry_space_group_name_H-M "P M M A"
_symmetry_group_IT_number 51
_symmetry_cell_setting 'orthorhombic'
loop_
_space_group_symop_operation_xyz
x,y,z
1/2-x,-y,z
1/2+x,-y,-z
-x,y,-z
-x,-y,-z
1/2+x,y,-z
1/2-x,y,z
x,-y,z
loop_
_atom_site_type_symbol
_atom_site_label
_atom_site_fract_x
_atom_site_fract_y
_atom_site_fract_z
Si Si1 0.922679 0.772488 0.643364
Si Si2 0.518355 0.300692 0.154835
Si Si3 0.032091 0.084461 0.233163
Si Si4 0.925643 0.858778 0.085580
Si Si5 0.383867 0.682035 0.632369
Si Si6 0.316813 0.585106 0.399046
Si Si7 0.183853 0.776672 0.860228
Si Si8 0.184511 0.279336 0.190392
O O1 0.949226 0.856816 0.635588
O O2 0.917726 0.743018 0.471880
O O3 0.858972 0.776171 0.721015
O O4 0.962699 0.715534 0.740136
O O5 0.547731 0.224488 0.092368
O O6 0.567149 0.347594 0.248769
O O7 0.500000 0.345520 0.000000
O O8 0.962454 0.088876 0.201223
O O9 0.047978 0.000000 0.284885
O O10 0.068179 0.107405 0.082605
O O11 0.857536 0.851112 0.131425
O O12 0.357856 0.613529 0.536096
O O13 0.331159 0.724537 0.716550
O O14 0.250000 0.589508 0.454280
O O15 0.334851 0.500000 0.358575
O O16 0.326670 0.635103 0.247883
O O17 0.250000 0.805486 0.845084
O O18 0.174582 0.725197 0.010141
O O19 0.250000 0.253650 0.233037
#
# Coordination Sequence:
#
# PCOD8205989 Si02
#       8
#     8   8   8   8   8   8   8   8
#     4  10  17  31  48  75 103 129 169 209 259 307
#     4  10  16  29  50  73  98 132 170 218 255 293
#     4  10  17  28  51  77 104 134 164 211 269 316
#     4   9  15  28  47  74 100 129 168 215 260 302
#     4  10  20  29  50  77 105 134 171 214 256 306
#     4   9  18  34  53  75 106 140 169 204 258 315
#     4  10  18  30  49  75 102 130 174 222 259 295
#     4   9  17  30  52  74  96 127 169 217 251 294
#
# _framework density 17.877434999999998
#
# number of rings (size 3 to 8) (size 9 to 14) (size 15 to 20)
#    0.000    2.375    3.750    2.250    0.000    0.500 
#    0.000    0.625    0.000   27.750    0.000    0.000 
#    0.000    5.000    0.000    0.000    0.000    0.000 
#
# Total GULP energy -793231.656994 kJ/mol
# GULP energy per Si atom -12394.244641 kJ/mol
# Density = 1.783675 g / cm^3
# Si number density = 17.877435 Si / 1000 Ang^3
#
#
#
# Elastic Constant Matrix: (Units=GPa)
#
#
# Indices 1 2 3 4 5 6 
#
# 1 112.8122 31.0835 36.4115 0.0000 0.0000 0.0000
# 2 31.0835 75.8253 23.2465 0.0000 0.0000 0.0000
# 3 36.4115 23.2465 80.6432 0.0000 0.0000 0.0000
# 4 0.0000 0.0000 0.0000 16.3196 0.0000 0.0000
# 5 0.0000 0.0000 0.0000 0.0000 31.2467 0.0000
# 6 0.0000 0.0000 0.0000 0.0000 0.0000 18.7401
#
#
#
# Elastic Compliance Matrix: (Units=1/GPa)
#
#
# Indices 1 2 3 4 5 6 
#
# 1 0.011082 -0.003300 -0.004052 0.000000 0.000000 0.000000
# 2 -0.003300 0.015450 -0.002963 0.000000 0.000000 0.000000
# 3 -0.004052 -0.002963 0.015084 0.000000 0.000000 0.000000
# 4 0.000000 0.000000 0.000000 0.061276 0.000000 0.000000
# 5 0.000000 0.000000 0.000000 0.000000 0.032003 0.000000
# 6 0.000000 0.000000 0.000000 0.000000 0.000000 0.053362
#
#
# Mechanical properties :
#
#
# Convention : Reuss Voigt Hill
#
# Bulk Modulus (GPa) = 47.65639 50.08484 48.87062
# Shear Modulus (GPa) = 23.16075 25.16390 24.16232
#
# Velocity S-wave (km/s) = 3.60325 3.75584 3.68034
# Velocity P-wave (km/s) = 6.63524 6.84726 6.74208
#
# Compressibility (1/GPa) = 0.02098355
#
# Stress axis : x y z
#
# Youngs Moduli (GPa) = 90.24039 64.72623 66.29497
#
# Poissons Ratio (x) = 0.21362 0.26863
# Poissons Ratio (y) = 0.29783 0.19646
# Poissons Ratio (z) = 0.36566 0.19181
#
# Static dielectric constant tensor:
#      x y z
#    x 3.734290 0.000000 0.000000 
#    y 0.000000 2.941640 0.000000 
#    z 0.000000 0.000000 3.392070 
# 
# 
# High freq. dielectric constant tensor:
#      x y z
#    x 1.703200 0.000000 0.000000 
#    y 0.000000 1.635450 0.000000 
#    z 0.000000 0.000000 1.693550 
# 
# From -- ./inp_files/11950.got.cif
#   From: 2010.03.12/outbox.cif.g09.slc.cpg/sg51_6_cif.got.tgz:11950.got - 2010.04.16 13:43:02.
