data_PCOD8205434
_publ_section_title
;
Structure prediction by ZEFSAII (Michael W. Deem and Ramdas Pophale) SiO2 
 PCOD8205434
Probable space group: P B A N
;
_chemical_formula_sum "Si O2"
_cell_formula_units_Z 20
_cell_length_a 4.730511
_cell_length_b 14.922938
_cell_length_c 11.772107
_cell_angle_alpha 90.000000
_cell_angle_beta 90.000000
_cell_angle_gamma 90.000000
_cell_volume 831.029790
_symmetry_space_group_name_H-M "P B A N"
_symmetry_group_IT_number 50
_space_group.IT_coordinate_system_code '2'
_symmetry_cell_setting 'orthorhombic'
loop_
_space_group_symop_operation_xyz
x,y,z
1/2-x,1/2-y,z
x,1/2-y,-z
1/2-x,y,-z
-x,-y,-z
1/2+x,1/2+y,-z
-x,1/2+y,z
1/2+x,-y,z
loop_
_atom_site_type_symbol
_atom_site_label
_atom_site_fract_x
_atom_site_fract_y
_atom_site_fract_z
Si Si1 0.250000 0.569069 0.500000
Si Si2 0.268571 0.060168 0.129457
Si Si3 0.497487 0.691495 0.693913
O O1 0.500000 0.500000 0.500000
O O2 0.315858 0.632464 0.606224
O O3 0.167954 0.138109 0.210934
O O4 0.590195 0.030999 0.153386
O O5 0.250000 0.093871 0.000000
O O6 0.250000 0.750000 0.753286
O O7 0.750000 0.750000 0.633933
#
# Coordination Sequence:
#
# PCOD8205434 Si02
#       3
#     4   8   8
#     4  12  25  44  69  94 132 184 234 276 335 418
#     4  10  21  41  67  95 131 177 227 272 326 404
#     4  12  25  42  66 101 140 174 223 287 348 401
#
# _framework density 24.066528999999999
#
# number of rings (size 3 to 8) (size 9 to 14) (size 15 to 20)
#    0.000    0.800    0.000    7.800    0.000    2.400 
#    0.000    2.000    0.000    0.000    0.000    0.000 
#    0.000    0.000    0.000    0.000    0.000    0.000 
#
# Total GULP energy -247774.399999 kJ/mol
# GULP energy per Si atom -12388.720000 kJ/mol
# Density = 2.401175 g / cm^3
# Si number density = 24.066529 Si / 1000 Ang^3
#
#
#
# Elastic Constant Matrix: (Units=GPa)
#
#
# Indices 1 2 3 4 5 6 
#
# 1 142.9559 48.3296 45.0754 0.0000 0.0000 0.0000
# 2 48.3296 114.1777 67.5245 0.0000 0.0000 0.0000
# 3 45.0754 67.5245 133.5315 0.0000 0.0000 0.0000
# 4 0.0000 0.0000 0.0000 18.1312 0.0000 0.0000
# 5 0.0000 0.0000 0.0000 0.0000 40.9002 0.0000
# 6 0.0000 0.0000 0.0000 0.0000 0.0000 17.0273
#
#
#
# Elastic Compliance Matrix: (Units=1/GPa)
#
#
# Indices 1 2 3 4 5 6 
#
# 1 0.008362 -0.002668 -0.001473 0.000000 0.000000 0.000000
# 2 -0.002668 0.013346 -0.005848 0.000000 0.000000 0.000000
# 3 -0.001473 -0.005848 0.010944 0.000000 0.000000 0.000000
# 4 0.000000 0.000000 0.000000 0.055153 0.000000 0.000000
# 5 0.000000 0.000000 0.000000 0.000000 0.024450 0.000000
# 6 0.000000 0.000000 0.000000 0.000000 0.000000 0.058729
#
#
# Mechanical properties :
#
#
# Convention : Reuss Voigt Hill
#
# Bulk Modulus (GPa) = 78.91371 79.16935 79.04153
# Shear Modulus (GPa) = 25.61638 30.52747 28.07192
#
# Velocity S-wave (km/s) = 3.26605 3.56541 3.41901
# Velocity P-wave (km/s) = 6.86176 7.06520 6.96422
#
# Compressibility (1/GPa) = 0.01267207
#
# Stress axis : x y z
#
# Youngs Moduli (GPa) = 119.59236 74.92711 91.37694
#
# Poissons Ratio (x) = 0.19990 0.13464
# Poissons Ratio (y) = 0.31907 0.53441
# Poissons Ratio (z) = 0.17622 0.43820
#
# Static dielectric constant tensor:
#      x y z
#    x 4.913740 0.000000 0.000000 
#    y 0.000000 4.505270 0.000000 
#    z 0.000000 0.000000 4.099880 
# 
# 
# High freq. dielectric constant tensor:
#      x y z
#    x 1.995870 0.000000 0.000000 
#    y 0.000000 1.964000 0.000000 
#    z 0.000000 0.000000 1.934780 
# 
# From -- ./inp_files/17250.got.cif
#   From: 2010.03.12/outbox.cif.g09.slc.cpg/sg50_9_cif.got.tgz:17250.got - 2010.04.16 13:23:21.
