data_PCOD8205507
_publ_section_title
;
Structure prediction by ZEFSAII (Michael W. Deem and Ramdas Pophale) SiO2 
 PCOD8205507
Probable space group: P B A N
;
_chemical_formula_sum "Si O2"
_cell_formula_units_Z 48
_cell_length_a 16.581167
_cell_length_b 13.883794
_cell_length_c 9.569996
_cell_angle_alpha 90.000000
_cell_angle_beta 90.000000
_cell_angle_gamma 90.000000
_cell_volume 2203.104060
_symmetry_space_group_name_H-M "P B A N"
_symmetry_group_IT_number 50
_space_group.IT_coordinate_system_code '2'
_symmetry_cell_setting 'orthorhombic'
loop_
_space_group_symop_operation_xyz
x,y,z
1/2-x,1/2-y,z
x,1/2-y,-z
1/2-x,y,-z
-x,-y,-z
1/2+x,1/2+y,-z
-x,1/2+y,z
1/2+x,-y,z
loop_
_atom_site_type_symbol
_atom_site_label
_atom_site_fract_x
_atom_site_fract_y
_atom_site_fract_z
Si Si1 0.194609 0.162445 0.742969
Si Si2 0.504286 0.843960 0.428254
Si Si3 0.750000 0.959161 0.000000
Si Si4 0.082897 0.009012 0.086223
Si Si5 0.750000 0.959145 0.500000
Si Si6 0.951191 0.717862 0.147476
Si Si7 0.599673 0.035079 0.387555
O O1 0.250000 0.250000 0.698327
O O2 0.189336 0.099556 0.601680
O O3 0.106502 0.197325 0.794863
O O4 0.240026 0.105922 0.864180
O O5 0.544290 0.750000 0.500000
O O6 0.483943 0.812861 0.267033
O O7 0.424980 0.875659 0.513488
O O8 0.564780 0.932767 0.438245
O O9 0.833045 0.023649 0.988551
O O10 0.100348 0.121456 0.118736
O O11 0.072305 0.945990 0.227548
O O12 0.000000 0.000000 0.000000
O O13 0.695794 0.026202 0.399693
O O14 0.992732 0.750000 0.000000
#
# Coordination Sequence:
#
# PCOD8205507 Si02
#       7
#     8   8   4   8   4   8   8
#     4  12  20  34  60  96 137 168 208 278 357 444
#     4  10  22  40  64  89 128 177 216 280 338 412
#     4  12  21  40  62  96 139 176 222 284 363 420
#     4  11  24  40  61  96 138 184 222 282 354 427
#     4  12  23  38  65  92 134 176 216 284 358 426
#     4  11  21  36  60  98 131 167 220 274 355 425
#     4  10  23  43  60  97 134 170 239 278 346 425
#
# _framework density 21.787441999999999
#
# number of rings (size 3 to 8) (size 9 to 14) (size 15 to 20)
#    0.000    1.000    5.000    2.500    2.333    4.000 
#    0.000    0.417    0.000    0.000    0.000    0.583 
#    0.000    0.000    0.000    0.000    0.000    0.000 
#
# Total GULP energy -594654.609566 kJ/mol
# GULP energy per Si atom -12388.637699 kJ/mol
# Density = 2.173785 g / cm^3
# Si number density = 21.787442 Si / 1000 Ang^3
#
#
#
# Elastic Constant Matrix: (Units=GPa)
#
#
# Indices 1 2 3 4 5 6 
#
# 1 129.7599 24.4226 63.3160 0.0000 0.0000 0.0000
# 2 24.4226 41.0416 36.0882 0.0000 0.0000 0.0000
# 3 63.3160 36.0882 181.6783 0.0000 0.0000 0.0000
# 4 0.0000 0.0000 0.0000 37.6485 0.0000 0.0000
# 5 0.0000 0.0000 0.0000 0.0000 29.5377 0.0000
# 6 0.0000 0.0000 0.0000 0.0000 0.0000 15.3133
#
#
#
# Elastic Compliance Matrix: (Units=1/GPa)
#
#
# Indices 1 2 3 4 5 6 
#
# 1 0.009657 -0.003377 -0.002695 0.000000 0.000000 0.000000
# 2 -0.003377 0.030703 -0.004922 0.000000 0.000000 0.000000
# 3 -0.002695 -0.004922 0.007421 0.000000 0.000000 0.000000
# 4 0.000000 0.000000 0.000000 0.026562 0.000000 0.000000
# 5 0.000000 0.000000 0.000000 0.000000 0.033855 0.000000
# 6 0.000000 0.000000 0.000000 0.000000 0.000000 0.065303
#
#
# Mechanical properties :
#
#
# Convention : Reuss Voigt Hill
#
# Bulk Modulus (GPa) = 38.76920 66.68149 52.72534
# Shear Modulus (GPa) = 24.49955 31.74343 28.12149
#
# Velocity S-wave (km/s) = 3.35697 3.82116 3.59656
# Velocity P-wave (km/s) = 5.73224 7.08098 6.44200
#
# Compressibility (1/GPa) = 0.02579367
#
# Stress axis : x y z
#
# Youngs Moduli (GPa) = 103.55140 32.57021 134.75245
#
# Poissons Ratio (x) = 0.10999 0.36312
# Poissons Ratio (y) = 0.34971 0.66323
# Poissons Ratio (z) = 0.27904 0.16030
#
# Static dielectric constant tensor:
#      x y z
#    x 3.762530 0.000000 0.000000 
#    y 0.000000 3.769750 0.000000 
#    z 0.000000 0.000000 4.346170 
# 
# 
# High freq. dielectric constant tensor:
#      x y z
#    x 1.823420 0.000000 0.000000 
#    y 0.000000 1.814530 0.000000 
#    z 0.000000 0.000000 1.882850 
# 
# From -- ./inp_files/14262.got.cif
#   From: 2010.03.12/outbox.cif.g09.slc.cpg/sg50_8_cif.got.tgz:14262.got - 2010.04.16 13:23:21.
