data_PCOD8205126
_publ_section_title
;
Structure prediction by ZEFSAII (Michael W. Deem and Ramdas Pophale) SiO2 
 PCOD8205126
Probable space group: P B A N
;
_chemical_formula_sum "Si O2"
_cell_formula_units_Z 64
_cell_length_a 8.905459
_cell_length_b 14.735035
_cell_length_c 25.426777
_cell_angle_alpha 90.000000
_cell_angle_beta 90.000000
_cell_angle_gamma 90.000000
_cell_volume 3336.558890
_symmetry_space_group_name_H-M "P B A N"
_symmetry_group_IT_number 50
_space_group.IT_coordinate_system_code '2'
_symmetry_cell_setting 'orthorhombic'
loop_
_space_group_symop_operation_xyz
x,y,z
1/2-x,1/2-y,z
x,1/2-y,-z
1/2-x,y,-z
-x,-y,-z
1/2+x,1/2+y,-z
-x,1/2+y,z
1/2+x,-y,z
loop_
_atom_site_type_symbol
_atom_site_label
_atom_site_fract_x
_atom_site_fract_y
_atom_site_fract_z
Si Si1 0.427183 0.765491 0.558278
Si Si2 0.924942 0.401353 0.998137
Si Si3 0.926573 0.085739 0.248929
Si Si4 0.876438 0.428366 0.377910
Si Si5 0.072587 0.243302 0.193022
Si Si6 0.926560 0.248713 0.917372
Si Si7 0.962543 0.108381 0.368243
Si Si8 0.919852 0.101847 0.741208
O O1 0.250000 0.750000 0.559472
O O2 0.493551 0.750000 0.500000
O O3 0.458538 0.868051 0.577466
O O4 0.507092 0.698189 0.599603
O O5 0.969778 0.338162 0.047269
O O6 0.750000 0.420186 0.000000
O O7 0.968679 0.343969 0.945891
O O8 0.000000 0.500000 0.000000
O O9 0.968088 0.126786 0.305992
O O10 0.749260 0.089443 0.237939
O O11 0.016283 0.142233 0.205516
O O12 0.978020 0.982620 0.242336
O O13 0.699179 0.427046 0.385565
O O14 0.922413 0.387053 0.321572
O O15 0.919057 0.532405 0.384554
O O16 0.250000 0.250000 0.200011
O O17 0.026819 0.265472 0.133795
O O18 0.990269 0.309311 0.233636
O O19 0.750000 0.250000 0.903667
#
# Coordination Sequence:
#
# PCOD8205126 Si02
#       8
#     8   8   8   8   8   8   8   8
#     4   9  17  30  49  73 101 134 170 207 255 318
#     4   9  19  37  62  84 106 141 183 223 265 312
#     4  10  20  36  56  78 106 141 181 224 269 321
#     4   9  18  33  53  75  99 132 173 214 260 313
#     4  12  24  36  54  83 115 147 181 221 270 321
#     4   9  20  39  57  79 112 148 181 217 266 318
#     4   9  18  33  53  75  99 132 173 214 260 313
#     4  10  20  36  56  78 106 141 181 224 269 321
#
# _framework density 19.181439000000001
#
# number of rings (size 3 to 8) (size 9 to 14) (size 15 to 20)
#    0.000    2.375    0.000    3.375    0.000    5.500 
#    0.000    4.375    0.000    0.750    0.000    0.000 
#    0.000    0.000    0.000    0.000    0.000    0.000 
#
# Total GULP energy -793570.674340 kJ/mol
# GULP energy per Si atom -12399.541787 kJ/mol
# Density = 1.913778 g / cm^3
# Si number density = 19.181439 Si / 1000 Ang^3
#
#
#
# Elastic Constant Matrix: (Units=GPa)
#
#
# Indices 1 2 3 4 5 6 
#
# 1 73.0159 20.8463 15.6458 0.0000 0.0000 0.0000
# 2 20.8463 71.4390 12.2286 0.0000 0.0000 0.0000
# 3 15.6458 12.2286 59.0531 0.0000 0.0000 0.0000
# 4 0.0000 0.0000 0.0000 21.4113 0.0000 0.0000
# 5 0.0000 0.0000 0.0000 0.0000 19.9901 0.0000
# 6 0.0000 0.0000 0.0000 0.0000 0.0000 33.7681
#
#
#
# Elastic Compliance Matrix: (Units=1/GPa)
#
#
# Indices 1 2 3 4 5 6 
#
# 1 0.015535 -0.003969 -0.003294 0.000000 0.000000 0.000000
# 2 -0.003969 0.015527 -0.002164 0.000000 0.000000 0.000000
# 3 -0.003294 -0.002164 0.018255 0.000000 0.000000 0.000000
# 4 0.000000 0.000000 0.000000 0.046704 0.000000 0.000000
# 5 0.000000 0.000000 0.000000 0.000000 0.050025 0.000000
# 6 0.000000 0.000000 0.000000 0.000000 0.000000 0.029614
#
#
# Mechanical properties :
#
#
# Convention : Reuss Voigt Hill
#
# Bulk Modulus (GPa) = 32.82731 33.43882 33.13307
# Shear Modulus (GPa) = 24.43002 25.35307 24.89155
#
# Velocity S-wave (km/s) = 3.57266 3.63953 3.60625
# Velocity P-wave (km/s) = 5.84550 5.92725 5.88652
#
# Compressibility (1/GPa) = 0.03046244
#
# Stress axis : x y z
#
# Youngs Moduli (GPa) = 64.37196 64.40572 54.78059
#
# Poissons Ratio (x) = 0.25565 0.18044
# Poissons Ratio (y) = 0.25551 0.11852
# Poissons Ratio (z) = 0.21203 0.13935
#
# Static dielectric constant tensor:
#      x y z
#    x 3.344360 0.000000 0.000000 
#    y 0.000000 3.572520 0.000000 
#    z 0.000000 0.000000 3.540780 
# 
# 
# High freq. dielectric constant tensor:
#      x y z
#    x 1.731160 0.000000 0.000000 
#    y 0.000000 1.753660 0.000000 
#    z 0.000000 0.000000 1.742070 
# 
# From -- ./inp_files/31618.got.cif
#   From: 2010.03.12/outbox.cif.g09.slc.cpg/sg50_16_cif.got.tgz:31618.got - 2010.04.16 13:23:21.
