data_PCOD8205064
_publ_section_title
;
Structure prediction by ZEFSAII (Michael W. Deem and Ramdas Pophale) SiO2 
 PCOD8205064
Probable space group: P B A N
;
_chemical_formula_sum "Si O2"
_cell_formula_units_Z 40
_cell_length_a 22.712177
_cell_length_b 8.823279
_cell_length_c 10.304191
_cell_angle_alpha 90.000000
_cell_angle_beta 90.000000
_cell_angle_gamma 90.000000
_cell_volume 2064.917365
_symmetry_space_group_name_H-M "P B A N"
_symmetry_group_IT_number 50
_space_group.IT_coordinate_system_code '2'
_symmetry_cell_setting 'orthorhombic'
loop_
_space_group_symop_operation_xyz
x,y,z
1/2-x,1/2-y,z
x,1/2-y,-z
1/2-x,y,-z
-x,-y,-z
1/2+x,1/2+y,-z
-x,1/2+y,z
1/2+x,-y,z
loop_
_atom_site_type_symbol
_atom_site_label
_atom_site_fract_x
_atom_site_fract_y
_atom_site_fract_z
Si Si1 0.912835 0.767520 0.859341
Si Si2 0.572081 0.242984 0.350333
Si Si3 0.312619 0.184501 0.641652
Si Si4 0.504153 0.992699 0.776353
Si Si5 0.694759 0.326804 0.640314
O O1 0.864311 0.773632 0.744505
O O2 0.955503 0.621156 0.857742
O O3 0.955184 0.915836 0.858663
O O4 0.881110 0.750000 0.000000
O O5 0.585010 0.250000 0.500000
O O6 0.547476 0.397684 0.297891
O O7 0.635169 0.213808 0.281202
O O8 0.528817 0.103312 0.332350
O O9 0.250000 0.250000 0.689641
O O10 0.330761 0.250000 0.500000
O O11 0.301614 0.006805 0.628020
O O12 0.750000 0.250000 0.716837
O O13 0.694219 0.250000 0.500000
#
# Coordination Sequence:
#
# PCOD8205064 Si02
#       5
#     8   8   8   8   8
#     4  11  24  42  64  89 124 165 207 252 305 367
#     4  10  20  33  57  89 122 154 196 249 307 361
#     4  11  24  40  65  95 123 159 205 254 309 362
#     4  10  22  38  58  86 121 163 202 246 304 367
#     4  10  20  35  58  85 123 154 197 241 308 360
#
# _framework density 19.371237000000001
#
# number of rings (size 3 to 8) (size 9 to 14) (size 15 to 20)
#    0.000    1.600    2.000    3.600    8.400    3.600 
#    0.000    0.000    0.000    0.000    0.000    0.000 
#    0.000    0.000    0.000    0.000    0.000    0.000 
#
# Total GULP energy -495541.342413 kJ/mol
# GULP energy per Si atom -12388.533560 kJ/mol
# Density = 1.932715 g / cm^3
# Si number density = 19.371237 Si / 1000 Ang^3
#
#
#
# Elastic Constant Matrix: (Units=GPa)
#
#
# Indices 1 2 3 4 5 6 
#
# 1 149.4693 67.7605 51.1166 0.0000 0.0000 0.0000
# 2 67.7605 155.7496 35.6005 0.0000 0.0000 0.0000
# 3 51.1166 35.6005 91.3799 0.0000 0.0000 0.0000
# 4 0.0000 0.0000 0.0000 1.7026 0.0000 0.0000
# 5 0.0000 0.0000 0.0000 0.0000 19.9659 0.0000
# 6 0.0000 0.0000 0.0000 0.0000 0.0000 95.1061
#
#
#
# Elastic Compliance Matrix: (Units=1/GPa)
#
#
# Indices 1 2 3 4 5 6 
#
# 1 0.009547 -0.003220 -0.004086 0.000000 0.000000 0.000000
# 2 -0.003220 0.008134 -0.001368 0.000000 0.000000 0.000000
# 3 -0.004086 -0.001368 0.013762 0.000000 0.000000 0.000000
# 4 0.000000 0.000000 0.000000 0.587327 0.000000 0.000000
# 5 0.000000 0.000000 0.000000 0.000000 0.050086 0.000000
# 6 0.000000 0.000000 0.000000 0.000000 0.000000 0.010515
#
#
# Mechanical properties :
#
#
# Convention : Reuss Voigt Hill
#
# Bulk Modulus (GPa) = 70.94356 78.39490 74.66923
# Shear Modulus (GPa) = 7.12843 39.49632 23.31237
#
# Velocity S-wave (km/s) = 1.92039 4.52033 3.47285
# Velocity P-wave (km/s) = 6.45134 8.23421 7.39669
#
# Compressibility (1/GPa) = 0.01409571
#
# Stress axis : x y z
#
# Youngs Moduli (GPa) = 104.74036 122.94121 72.66346
#
# Poissons Ratio (x) = 0.39583 0.29693
# Poissons Ratio (y) = 0.33723 0.09939
# Poissons Ratio (z) = 0.42801 0.16817
#
# Static dielectric constant tensor:
#      x y z
#    x 4.213610 0.000000 0.000000 
#    y 0.000000 3.903330 0.000000 
#    z 0.000000 0.000000 2.983760 
# 
# 
# High freq. dielectric constant tensor:
#      x y z
#    x 1.775810 0.000000 0.000000 
#    y 0.000000 1.776710 0.000000 
#    z 0.000000 0.000000 1.710910 
# 
# From -- ./inp_files/15779.got.cif
#   From: 2010.03.12/outbox.cif.g09.slc.cpg/sg50_8_cif.got.tgz:15779.got - 2010.04.16 13:23:21.
