data_PCOD8205158
_publ_section_title
;
Structure prediction by ZEFSAII (Michael W. Deem and Ramdas Pophale) SiO2 
 PCOD8205158
Probable space group: P B A N
;
_chemical_formula_sum "Si O2"
_cell_formula_units_Z 34
_cell_length_a 11.135746
_cell_length_b 14.906366
_cell_length_c 8.540322
_cell_angle_alpha 90.000000
_cell_angle_beta 90.000000
_cell_angle_gamma 90.000000
_cell_volume 1417.637987
_symmetry_space_group_name_H-M "P B A N"
_symmetry_group_IT_number 50
_space_group.IT_coordinate_system_code '2'
_symmetry_cell_setting 'orthorhombic'
loop_
_space_group_symop_operation_xyz
x,y,z
1/2-x,1/2-y,z
x,1/2-y,-z
1/2-x,y,-z
-x,-y,-z
1/2+x,1/2+y,-z
-x,1/2+y,z
1/2+x,-y,z
loop_
_atom_site_type_symbol
_atom_site_label
_atom_site_fract_x
_atom_site_fract_y
_atom_site_fract_z
Si Si1 0.250000 0.750000 0.000000
Si Si2 0.950570 0.499004 0.673032
Si Si3 0.084419 0.330768 0.745623
Si Si4 0.250000 0.250000 0.000000
Si Si5 0.250000 0.418158 0.500000
Si Si6 0.750000 0.250000 0.500000
Si Si7 0.585890 0.169165 0.252289
O O1 0.336237 0.685941 0.098512
O O2 0.809701 0.522235 0.642245
O O3 0.000000 0.500000 0.500000
O O4 0.977268 0.405465 0.764425
O O5 0.025702 0.572671 0.768984
O O6 0.170410 0.319132 0.896432
O O7 0.155712 0.354422 0.587514
O O8 0.023813 0.235897 0.722137
O O9 0.671632 0.179665 0.401739
#
# Coordination Sequence:
#
# PCOD8205158 Si02
#       7
#     2   8   8   2   4   2   8
#     4  10  26  44  64  88 136 184 222 276 340 392
#     4  10  23  40  67 102 132 168 222 277 334 399
#     4  11  25  44  67  97 134 174 224 274 333 403
#     4  12  26  44  64  94 136 184 218 266 332 392
#     4  10  22  42  70 102 132 172 218 282 340 392
#     4  10  20  36  68  94 124 168 212 280 336 390
#     4  11  23  42  64  96 132 173 224 275 334 401
#
# _framework density 23.983557999999999
#
# number of rings (size 3 to 8) (size 9 to 14) (size 15 to 20)
#    0.000    1.412    0.000    4.941    0.000   18.353 
#    0.000    8.235    0.000    0.000    0.000    0.000 
#    0.000    0.000    0.000    0.000    0.000    0.000 
#
# Total GULP energy -421404.499698 kJ/mol
# GULP energy per Si atom -12394.249991 kJ/mol
# Density = 2.392897 g / cm^3
# Si number density = 23.983558 Si / 1000 Ang^3
#
#
#
# Elastic Constant Matrix: (Units=GPa)
#
#
# Indices 1 2 3 4 5 6 
#
# 1 111.2125 16.8835 39.2140 0.0000 0.0000 0.0000
# 2 16.8835 91.6227 23.3667 0.0000 0.0000 0.0000
# 3 39.2140 23.3667 103.4013 0.0000 0.0000 0.0000
# 4 0.0000 0.0000 0.0000 14.5930 0.0000 0.0000
# 5 0.0000 0.0000 0.0000 0.0000 43.3231 0.0000
# 6 0.0000 0.0000 0.0000 0.0000 0.0000 21.2923
#
#
#
# Elastic Compliance Matrix: (Units=1/GPa)
#
#
# Indices 1 2 3 4 5 6 
#
# 1 0.010461 -0.000972 -0.003748 0.000000 0.000000 0.000000
# 2 -0.000972 0.011672 -0.002269 0.000000 0.000000 0.000000
# 3 -0.003748 -0.002269 0.011605 0.000000 0.000000 0.000000
# 4 0.000000 0.000000 0.000000 0.068526 0.000000 0.000000
# 5 0.000000 0.000000 0.000000 0.000000 0.023082 0.000000
# 6 0.000000 0.000000 0.000000 0.000000 0.000000 0.046965
#
#
# Mechanical properties :
#
#
# Convention : Reuss Voigt Hill
#
# Bulk Modulus (GPa) = 50.60497 51.68498 51.14498
# Shear Modulus (GPa) = 25.92346 30.95985 28.44165
#
# Velocity S-wave (km/s) = 3.29125 3.59678 3.44740
# Velocity P-wave (km/s) = 5.96563 6.23266 6.10061
#
# Compressibility (1/GPa) = 0.01976090
#
# Stress axis : x y z
#
# Youngs Moduli (GPa) = 95.59566 85.67434 86.16951
#
# Poissons Ratio (x) = 0.08327 0.32292
# Poissons Ratio (y) = 0.09291 0.19553
# Poissons Ratio (z) = 0.35825 0.19440
#
# Static dielectric constant tensor:
#      x y z
#    x 4.757710 0.000000 0.000000 
#    y 0.000000 4.538150 0.000000 
#    z 0.000000 0.000000 4.212500 
# 
# 
# High freq. dielectric constant tensor:
#      x y z
#    x 1.973630 0.000000 0.000000 
#    y 0.000000 1.946950 0.000000 
#    z 0.000000 0.000000 1.933260 
# 
# From -- ./inp_files/10795.got.cif
#   From: 2010.03.12/outbox.cif.g09.slc.cpg/sg50_6_cif.got.tgz:10795.got - 2010.04.16 13:23:21.
