data_PCOD8205793
_publ_section_title
;
Structure prediction by ZEFSAII (Michael W. Deem and Ramdas Pophale) SiO2 
 PCOD8205793
Probable space group: P B A N
;
_chemical_formula_sum "Si O2"
_cell_formula_units_Z 40
_cell_length_a 13.906853
_cell_length_b 10.018120
_cell_length_c 12.820499
_cell_angle_alpha 90.000000
_cell_angle_beta 90.000000
_cell_angle_gamma 90.000000
_cell_volume 1786.158615
_symmetry_space_group_name_H-M "P B A N"
_symmetry_group_IT_number 50
_space_group.IT_coordinate_system_code '2'
_symmetry_cell_setting 'orthorhombic'
loop_
_space_group_symop_operation_xyz
x,y,z
1/2-x,1/2-y,z
x,1/2-y,-z
1/2-x,y,-z
-x,-y,-z
1/2+x,1/2+y,-z
-x,1/2+y,z
1/2+x,-y,z
loop_
_atom_site_type_symbol
_atom_site_label
_atom_site_fract_x
_atom_site_fract_y
_atom_site_fract_z
Si Si1 0.802576 0.050396 0.695835
Si Si2 0.698121 0.875422 0.109655
Si Si3 0.558107 0.612505 0.562249
Si Si4 0.984277 0.131764 0.067248
Si Si5 0.105339 0.832436 0.718009
O O1 0.871787 0.176707 0.707603
O O2 0.693233 0.087301 0.663771
O O3 0.797481 0.998585 0.813401
O O4 0.842625 0.948580 0.608380
O O5 0.750000 0.750000 0.162997
O O6 0.589831 0.822701 0.100450
O O7 0.750000 0.912933 0.000000
O O8 0.580038 0.750000 0.500000
O O9 0.500000 0.500000 0.500000
O O10 0.494043 0.647801 0.660538
O O11 0.912210 0.113485 0.164775
O O12 0.936646 0.250000 0.000000
O O13 0.000000 0.000000 0.000000
#
# Coordination Sequence:
#
# PCOD8205793 Si02
#       5
#     8   8   8   8   8
#     4  11  25  47  74 108 151 196 253 319 387 464
#     4  11  22  40  68 105 148 193 256 313 364 449
#     4  12  26  49  81 107 147 200 258 320 392 459
#     4  12  24  41  71 106 151 203 251 309 380 454
#     4  11  26  46  74 108 152 199 253 321 388 458
#
# _framework density 22.394428000000001
#
# number of rings (size 3 to 8) (size 9 to 14) (size 15 to 20)
#    0.000    0.600    6.000    2.400    0.000    2.400 
#    0.000    3.000    0.000    0.000    0.000    0.000 
#    0.000    0.000    0.000    0.000    0.000    0.000 
#
# Total GULP energy -495861.001742 kJ/mol
# GULP energy per Si atom -12396.525044 kJ/mol
# Density = 2.234346 g / cm^3
# Si number density = 22.394428 Si / 1000 Ang^3
#
#
#
# Elastic Constant Matrix: (Units=GPa)
#
#
# Indices 1 2 3 4 5 6 
#
# 1 114.5986 45.0143 41.7944 0.0000 0.0000 0.0000
# 2 45.0143 154.2340 65.6102 0.0000 0.0000 0.0000
# 3 41.7944 65.6102 114.9636 0.0000 0.0000 0.0000
# 4 0.0000 0.0000 0.0000 48.4601 0.0000 0.0000
# 5 0.0000 0.0000 0.0000 0.0000 72.6096 0.0000
# 6 0.0000 0.0000 0.0000 0.0000 0.0000 26.8256
#
#
#
# Elastic Compliance Matrix: (Units=1/GPa)
#
#
# Indices 1 2 3 4 5 6 
#
# 1 0.010464 -0.001896 -0.002722 0.000000 0.000000 0.000000
# 2 -0.001896 0.008906 -0.004393 0.000000 0.000000 0.000000
# 3 -0.002722 -0.004393 0.012195 0.000000 0.000000 0.000000
# 4 0.000000 0.000000 0.000000 0.020636 0.000000 0.000000
# 5 0.000000 0.000000 0.000000 0.000000 0.013772 0.000000
# 6 0.000000 0.000000 0.000000 0.000000 0.000000 0.037278
#
#
# Mechanical properties :
#
#
# Convention : Reuss Voigt Hill
#
# Bulk Modulus (GPa) = 73.84335 76.51490 75.17913
# Shear Modulus (GPa) = 39.74973 45.00421 42.37697
#
# Velocity S-wave (km/s) = 4.21763 4.48774 4.35478
# Velocity P-wave (km/s) = 7.53415 7.81628 7.67651
#
# Compressibility (1/GPa) = 0.01354218
#
# Stress axis : x y z
#
# Youngs Moduli (GPa) = 95.56994 112.28480 81.99897
#
# Poissons Ratio (x) = 0.21289 0.22320
# Poissons Ratio (y) = 0.18120 0.36025
# Poissons Ratio (z) = 0.26013 0.49331
#
# Static dielectric constant tensor:
#      x y z
#    x 4.502900 0.000000 0.000000 
#    y 0.000000 6.283490 0.000000 
#    z 0.000000 0.000000 4.084840 
# 
# 
# High freq. dielectric constant tensor:
#      x y z
#    x 1.891910 0.000000 0.000000 
#    y 0.000000 1.891460 0.000000 
#    z 0.000000 0.000000 1.880440 
# 
# From -- ./inp_files/26286.got.cif
#   From: 2010.03.12/outbox.cif.g09.slc.cpg/sg50_14_cif.got.tgz:26286.got - 2010.04.16 13:23:21.
