data_PCOD8205738
_publ_section_title
;
Structure prediction by ZEFSAII (Michael W. Deem and Ramdas Pophale) SiO2 
 PCOD8205738
Probable space group: P B A N
;
_chemical_formula_sum "Si O2"
_cell_formula_units_Z 44
_cell_length_a 24.806863
_cell_length_b 9.125716
_cell_length_c 9.139465
_cell_angle_alpha 90.000000
_cell_angle_beta 90.000000
_cell_angle_gamma 90.000000
_cell_volume 2068.995620
_symmetry_space_group_name_H-M "P B A N"
_symmetry_group_IT_number 50
_space_group.IT_coordinate_system_code '2'
_symmetry_cell_setting 'orthorhombic'
loop_
_space_group_symop_operation_xyz
x,y,z
1/2-x,1/2-y,z
x,1/2-y,-z
1/2-x,y,-z
-x,-y,-z
1/2+x,1/2+y,-z
-x,1/2+y,z
1/2+x,-y,z
loop_
_atom_site_type_symbol
_atom_site_label
_atom_site_fract_x
_atom_site_fract_y
_atom_site_fract_z
Si Si1 0.685337 0.185651 0.229962
Si Si2 0.188010 0.525489 0.063940
Si Si3 0.578578 0.592661 0.004229
Si Si4 0.999113 0.990943 0.767600
Si Si5 0.250000 0.250000 0.000000
Si Si6 0.429691 0.725105 0.341195
Si Si7 0.750000 0.250000 0.500000
O O1 0.703121 0.352309 0.185468
O O2 0.620196 0.179058 0.237372
O O3 0.712233 0.152739 0.389515
O O4 0.706562 0.075092 0.101670
O O5 0.123181 0.523024 0.056652
O O6 0.213172 0.363359 0.096756
O O7 0.528944 0.594940 0.116251
O O8 0.607346 0.750000 0.000000
O O9 0.554917 0.569848 0.842742
O O10 0.040711 0.871567 0.711635
O O11 0.975270 0.098519 0.643419
O O12 0.404473 0.750000 0.500000
#
# Coordination Sequence:
#
# PCOD8205738 Si02
#       7
#     8   8   8   8   2   8   2
#     4  11  24  42  70  95 119 165 221 271 309 381
#     4  11  23  41  67  98 124 157 215 268 321 384
#     4  11  20  35  63  94 128 161 196 261 315 375
#     4  11  23  36  62  94 131 165 210 250 312 380
#     4  12  24  38  64  94 124 158 196 270 352 372
#     4  12  23  40  60  94 131 179 213 251 310 384
#     4  12  24  46  64  86 124 158 216 278 328 348
#
# _framework density 21.266358
#
# number of rings (size 3 to 8) (size 9 to 14) (size 15 to 20)
#    0.000    0.727    7.273    1.636    0.000    1.455 
#    0.000    0.000    0.000    8.727    0.000    0.000 
#    0.000    0.000    0.000    0.000    0.000    0.000 
#
# Total GULP energy -545077.461300 kJ/mol
# GULP energy per Si atom -12388.124120 kJ/mol
# Density = 2.121796 g / cm^3
# Si number density = 21.266358 Si / 1000 Ang^3
#
#
#
# Elastic Constant Matrix: (Units=GPa)
#
#
# Indices 1 2 3 4 5 6 
#
# 1 68.2050 23.8967 17.7591 0.0000 0.0000 0.0000
# 2 23.8967 105.8251 26.3856 0.0000 0.0000 0.0000
# 3 17.7591 26.3856 94.6917 0.0000 0.0000 0.0000
# 4 0.0000 0.0000 0.0000 20.6598 0.0000 0.0000
# 5 0.0000 0.0000 0.0000 0.0000 29.7220 0.0000
# 6 0.0000 0.0000 0.0000 0.0000 0.0000 34.0963
#
#
#
# Elastic Compliance Matrix: (Units=1/GPa)
#
#
# Indices 1 2 3 4 5 6 
#
# 1 0.016332 -0.003143 -0.002187 0.000000 0.000000 0.000000
# 2 -0.003143 0.010760 -0.002409 0.000000 0.000000 0.000000
# 3 -0.002187 -0.002409 0.011642 0.000000 0.000000 0.000000
# 4 0.000000 0.000000 0.000000 0.048403 0.000000 0.000000
# 5 0.000000 0.000000 0.000000 0.000000 0.033645 0.000000
# 6 0.000000 0.000000 0.000000 0.000000 0.000000 0.029329
#
#
# Mechanical properties :
#
#
# Convention : Reuss Voigt Hill
#
# Bulk Modulus (GPa) = 42.99880 44.97830 43.98855
# Shear Modulus (GPa) = 28.84491 30.27433 29.55962
#
# Velocity S-wave (km/s) = 3.68688 3.77713 3.73228
# Velocity P-wave (km/s) = 6.19574 6.34178 6.26918
#
# Compressibility (1/GPa) = 0.02325646
#
# Stress axis : x y z
#
# Youngs Moduli (GPa) = 61.22829 92.93857 85.89573
#
# Poissons Ratio (x) = 0.29208 0.18789
# Poissons Ratio (y) = 0.19242 0.20690
# Poissons Ratio (z) = 0.13393 0.22387
#
# Static dielectric constant tensor:
#      x y z
#    x 4.027550 0.000000 0.000000 
#    y 0.000000 3.739220 0.000000 
#    z 0.000000 0.000000 3.575000 
# 
# 
# High freq. dielectric constant tensor:
#      x y z
#    x 1.872350 0.000000 0.000000 
#    y 0.000000 1.819400 0.000000 
#    z 0.000000 0.000000 1.803820 
# 
# From -- ./inp_files/9989.got.cif
#   From: 2010.03.12/outbox.cif.g09.slc.cpg/sg50_5_cif.got.tgz:9989.got - 2010.04.16 13:23:21.
