data_PCOD8205503
_publ_section_title
;
Structure prediction by ZEFSAII (Michael W. Deem and Ramdas Pophale) SiO2 
 PCOD8205503
Probable space group: P B A N
;
_chemical_formula_sum "Si O2"
_cell_formula_units_Z 26
_cell_length_a 5.029429
_cell_length_b 11.734379
_cell_length_c 17.848851
_cell_angle_alpha 90.000000
_cell_angle_beta 90.000000
_cell_angle_gamma 90.000000
_cell_volume 1053.389674
_symmetry_space_group_name_H-M "P B A N"
_symmetry_group_IT_number 50
_space_group.IT_coordinate_system_code '2'
_symmetry_cell_setting 'orthorhombic'
loop_
_space_group_symop_operation_xyz
x,y,z
1/2-x,1/2-y,z
x,1/2-y,-z
1/2-x,y,-z
-x,-y,-z
1/2+x,1/2+y,-z
-x,1/2+y,z
1/2+x,-y,z
loop_
_atom_site_type_symbol
_atom_site_label
_atom_site_fract_x
_atom_site_fract_y
_atom_site_fract_z
Si Si1 0.024343 0.075857 0.274916
Si Si2 0.750000 0.250000 0.371848
Si Si3 0.476984 0.072321 0.898328
Si Si4 0.250000 0.577948 0.500000
Si Si5 0.750000 0.250000 0.000000
O O1 0.981634 0.195067 0.319481
O O2 0.998976 0.108653 0.188012
O O3 0.806950 0.978895 0.295851
O O4 0.831879 0.351039 0.426791
O O5 0.177907 0.032068 0.916915
O O6 0.550454 0.179323 0.948250
O O7 0.500000 0.500000 0.500000
#
# Coordination Sequence:
#
# PCOD8205503 Si02
#       5
#     8   4   8   4   2
#     4  10  22  40  61  88 119 151 195 246 291 342
#     4  11  23  40  67  89 116 160 198 233 293 350
#     4  10  23  40  58  86 120 152 194 246 293 343
#     4  11  26  43  60  90 126 155 192 241 288 344
#     4  12  22  38  62  84 116 160 200 234 294 356
#
# _framework density 24.682226
#
# number of rings (size 3 to 8) (size 9 to 14) (size 15 to 20)
#    0.000    1.538    0.000    3.692    0.000    8.615 
#    0.000    9.231    0.000    0.000    0.000    0.000 
#    0.000    0.000    0.000    0.000    0.000    0.000 
#
# Total GULP energy -322266.644674 kJ/mol
# GULP energy per Si atom -12394.870949 kJ/mol
# Density = 2.462605 g / cm^3
# Si number density = 24.682226 Si / 1000 Ang^3
#
#
#
# Elastic Constant Matrix: (Units=GPa)
#
#
# Indices 1 2 3 4 5 6 
#
# 1 92.4770 18.7780 0.0829 0.0000 0.0000 0.0000
# 2 18.7780 120.4794 51.0384 0.0000 0.0000 0.0000
# 3 0.0829 51.0384 97.6272 0.0000 0.0000 0.0000
# 4 0.0000 0.0000 0.0000 57.6893 0.0000 0.0000
# 5 0.0000 0.0000 0.0000 0.0000 5.8218 0.0000
# 6 0.0000 0.0000 0.0000 0.0000 0.0000 -2.1415
#
#
#
# Elastic Compliance Matrix: (Units=1/GPa)
#
#
# Indices 1 2 3 4 5 6 
#
# 1 0.011270 -0.002251 0.001167 0.000000 0.000000 0.000000
# 2 -0.002251 0.011111 -0.005807 0.000000 0.000000 0.000000
# 3 0.001167 -0.005807 0.013278 0.000000 0.000000 0.000000
# 4 0.000000 0.000000 0.000000 0.017334 0.000000 0.000000
# 5 0.000000 0.000000 0.000000 0.000000 0.171769 0.000000
# 6 0.000000 0.000000 0.000000 0.000000 0.000000 -0.466972
#
#
# Mechanical properties :
#
#
# Convention : Reuss Voigt Hill
#
# Bulk Modulus (GPa) = 45.70968 50.04248 47.87608
# Shear Modulus (GPa) = -22.61046 28.31955 2.85455
#
# Velocity S-wave (km/s) = -3.02994 3.39095 1.07658
# Velocity P-wave (km/s) = 2.51372 5.97077 4.58088
#
# Compressibility (1/GPa) = 0.02187720
#
# Stress axis : x y z
#
# Youngs Moduli (GPa) = 88.73501 90.00176 75.31398
#
# Poissons Ratio (x) = 0.20259 -0.08791
# Poissons Ratio (y) = 0.19974 0.43733
# Poissons Ratio (z) = -0.10357 0.52262
#
# Static dielectric constant tensor:
#      x y z
#    x 4.088200 0.000000 0.000000 
#    y 0.000000 4.453600 0.000000 
#    z 0.000000 0.000000 4.979470 
# 
# 
# High freq. dielectric constant tensor:
#      x y z
#    x 1.974320 0.000000 0.000000 
#    y 0.000000 1.985350 0.000000 
#    z 0.000000 0.000000 2.011510 
# 
# From -- ./inp_files/27857.got.cif
#   From: 2010.03.12/outbox.cif.g09.slc.cpg/sg50_14_cif.got.tgz:27857.got - 2010.04.16 13:23:21.
