data_PCOD8205706
_publ_section_title
;
Structure prediction by ZEFSAII (Michael W. Deem and Ramdas Pophale) SiO2 
 PCOD8205706
Probable space group: P B A N
;
_chemical_formula_sum "Si O2"
_cell_formula_units_Z 32
_cell_length_a 8.971350
_cell_length_b 12.397595
_cell_length_c 10.736646
_cell_angle_alpha 90.000000
_cell_angle_beta 90.000000
_cell_angle_gamma 90.000000
_cell_volume 1194.163738
_symmetry_space_group_name_H-M "P B A N"
_symmetry_group_IT_number 50
_space_group.IT_coordinate_system_code '2'
_symmetry_cell_setting 'orthorhombic'
loop_
_space_group_symop_operation_xyz
x,y,z
1/2-x,1/2-y,z
x,1/2-y,-z
1/2-x,y,-z
-x,-y,-z
1/2+x,1/2+y,-z
-x,1/2+y,z
1/2+x,-y,z
loop_
_atom_site_type_symbol
_atom_site_label
_atom_site_fract_x
_atom_site_fract_y
_atom_site_fract_z
Si Si1 0.612266 0.433102 0.082833
Si Si2 0.402897 0.210976 0.789904
Si Si3 0.754825 0.522383 0.661854
Si Si4 0.521330 0.354725 0.587579
O O1 0.523105 0.323994 0.110172
O O2 0.661498 0.492240 0.209531
O O3 0.750000 0.399460 0.000000
O O4 0.500000 0.500000 0.000000
O O5 0.250000 0.250000 0.855759
O O6 0.473878 0.312926 0.722598
O O7 0.367661 0.114748 0.690410
O O8 0.678078 0.416077 0.602833
O O9 0.880666 0.562836 0.558801
O O10 0.537454 0.250000 0.500000
#
# Coordination Sequence:
#
# PCOD8205706 Si02
#       4
#     8   8   8   8
#     4  12  23  47  83 117 161 220 261 338 425 466
#     4  10  24  47  79 118 165 207 277 334 401 503
#     4  11  23  51  78 117 172 196 280 348 383 505
#     4  11  26  52  83 117 160 222 267 335 424 480
#
# _framework density 26.796991999999999
#
# number of rings (size 3 to 8) (size 9 to 14) (size 15 to 20)
#    0.000    1.000    5.000    0.000    0.000    6.500 
#    4.500   26.250    0.000    0.000    0.000    0.000 
#    0.000    0.000    0.000    0.000    0.000    0.000 
#
# Total GULP energy -396720.141392 kJ/mol
# GULP energy per Si atom -12397.504418 kJ/mol
# Density = 2.673600 g / cm^3
# Si number density = 26.796992 Si / 1000 Ang^3
#
#
#
# Elastic Constant Matrix: (Units=GPa)
#
#
# Indices 1 2 3 4 5 6 
#
# 1 191.1264 100.2625 82.5183 0.0000 0.0000 0.0000
# 2 100.2625 141.1781 56.1660 0.0000 0.0000 0.0000
# 3 82.5183 56.1660 77.9384 0.0000 0.0000 0.0000
# 4 0.0000 0.0000 0.0000 23.4897 0.0000 0.0000
# 5 0.0000 0.0000 0.0000 0.0000 30.6825 0.0000
# 6 0.0000 0.0000 0.0000 0.0000 0.0000 77.7169
#
#
#
# Elastic Compliance Matrix: (Units=1/GPa)
#
#
# Indices 1 2 3 4 5 6 
#
# 1 0.011464 -0.004644 -0.008791 0.000000 0.000000 0.000000
# 2 -0.004644 0.011812 -0.003595 0.000000 0.000000 0.000000
# 3 -0.008791 -0.003595 0.024729 0.000000 0.000000 0.000000
# 4 0.000000 0.000000 0.000000 0.042572 0.000000 0.000000
# 5 0.000000 0.000000 0.000000 0.000000 0.032592 0.000000
# 6 0.000000 0.000000 0.000000 0.000000 0.000000 0.012867
#
#
# Mechanical properties :
#
#
# Convention : Reuss Voigt Hill
#
# Bulk Modulus (GPa) = 71.71297 98.68183 85.19740
# Shear Modulus (GPa) = 28.61355 37.79757 33.20556
#
# Velocity S-wave (km/s) = 3.27125 3.75976 3.52398
# Velocity P-wave (km/s) = 6.40997 7.46682 6.95849
#
# Compressibility (1/GPa) = 0.01394448
#
# Stress axis : x y z
#
# Youngs Moduli (GPa) = 87.23185 84.66207 40.43912
#
# Poissons Ratio (x) = 0.39318 0.35548
# Poissons Ratio (y) = 0.40512 0.14538
# Poissons Ratio (z) = 0.76682 0.30436
#
# Static dielectric constant tensor:
#      x y z
#    x 5.013080 0.000000 0.000000 
#    y 0.000000 5.018520 0.000000 
#    z 0.000000 0.000000 4.827220 
# 
# 
# High freq. dielectric constant tensor:
#      x y z
#    x 2.092920 0.000000 0.000000 
#    y 0.000000 2.089460 0.000000 
#    z 0.000000 0.000000 2.077130 
# 
# From -- ./inp_files/18475.got.cif
#   From: 2010.03.12/outbox.cif.g09.slc.cpg/sg50_10_cif.got.tgz:18475.got - 2010.04.16 13:23:21.
