data_PCOD8205491
_publ_section_title
;
Structure prediction by ZEFSAII (Michael W. Deem and Ramdas Pophale) SiO2 
 PCOD8205491
Probable space group: P B A N
;
_chemical_formula_sum "Si O2"
_cell_formula_units_Z 60
_cell_length_a 21.894240
_cell_length_b 23.201343
_cell_length_c 6.197331
_cell_angle_alpha 90.000000
_cell_angle_beta 90.000000
_cell_angle_gamma 90.000000
_cell_volume 3148.093999
_symmetry_space_group_name_H-M "P B A N"
_symmetry_group_IT_number 50
_space_group.IT_coordinate_system_code '2'
_symmetry_cell_setting 'orthorhombic'
loop_
_space_group_symop_operation_xyz
x,y,z
1/2-x,1/2-y,z
x,1/2-y,-z
1/2-x,y,-z
-x,-y,-z
1/2+x,1/2+y,-z
-x,1/2+y,z
1/2+x,-y,z
loop_
_atom_site_type_symbol
_atom_site_label
_atom_site_fract_x
_atom_site_fract_y
_atom_site_fract_z
Si Si1 0.388631 0.506542 0.308206
Si Si2 0.484559 0.564257 0.063468
Si Si3 0.971821 0.691680 0.611048
Si Si4 0.929984 0.149595 0.283987
Si Si5 0.688231 0.081205 0.605160
Si Si6 0.312965 0.477826 0.908710
Si Si7 0.405007 0.086339 0.354982
Si Si8 0.968227 0.250000 0.000000
O O1 0.433553 0.559289 0.250839
O O2 0.332471 0.534220 0.431906
O O3 0.422676 0.457896 0.452875
O O4 0.364557 0.477267 0.091096
O O5 0.544192 0.591429 0.166692
O O6 0.500000 0.500000 0.000000
O O7 0.460279 0.598825 0.856742
O O8 0.952527 0.750000 0.500000
O O9 0.910285 0.652925 0.572900
O O10 0.990299 0.706297 0.858231
O O11 0.029661 0.660488 0.496773
O O12 0.861130 0.131359 0.350726
O O13 0.925812 0.209554 0.150591
O O14 0.750000 0.108400 0.500000
O O15 0.698302 0.043009 0.821342
O O16 0.338486 0.432553 0.731420
O O17 0.250000 0.452489 0.000000
#
# Coordination Sequence:
#
# PCOD8205491 Si02
#       8
#     8   8   8   8   8   8   8   4
#     4  11  21  35  55  84 127 153 188 239 293 374
#     4  12  19  33  55  90 125 148 183 239 311 372
#     4  10  22  39  61  87 118 152 200 252 305 362
#     4  11  22  37  60  89 119 160 198 257 307 358
#     4  11  22  36  58  85 115 163 207 235 290 357
#     4  11  22  38  55  84 124 161 196 233 291 369
#     4  11  22  34  57  89 120 156 192 239 306 371
#     4  10  22  42  62  81 121 156 204 252 318 358
#
# _framework density 19.059152999999998
#
# number of rings (size 3 to 8) (size 9 to 14) (size 15 to 20)
#    0.000    1.067    5.333    2.800    0.000    0.000 
#    0.000    0.000    0.000    4.400    0.000    7.000 
#    0.000    0.000    0.000    0.000    0.000    0.000 
#
# Total GULP energy -743559.771714 kJ/mol
# GULP energy per Si atom -12392.662862 kJ/mol
# Density = 1.901577 g / cm^3
# Si number density = 19.059153 Si / 1000 Ang^3
#
#
#
# Elastic Constant Matrix: (Units=GPa)
#
#
# Indices 1 2 3 4 5 6 
#
# 1 89.5637 40.4158 27.3601 0.0000 0.0000 0.0000
# 2 40.4158 103.9429 32.1380 0.0000 0.0000 0.0000
# 3 27.3601 32.1380 84.8319 0.0000 0.0000 0.0000
# 4 0.0000 0.0000 0.0000 32.5859 0.0000 0.0000
# 5 0.0000 0.0000 0.0000 0.0000 30.6429 0.0000
# 6 0.0000 0.0000 0.0000 0.0000 0.0000 21.7204
#
#
#
# Elastic Compliance Matrix: (Units=1/GPa)
#
#
# Indices 1 2 3 4 5 6 
#
# 1 0.014105 -0.004619 -0.002799 0.000000 0.000000 0.000000
# 2 -0.004619 0.012410 -0.003212 0.000000 0.000000 0.000000
# 3 -0.002799 -0.003212 0.013908 0.000000 0.000000 0.000000
# 4 0.000000 0.000000 0.000000 0.030688 0.000000 0.000000
# 5 0.000000 0.000000 0.000000 0.000000 0.032634 0.000000
# 6 0.000000 0.000000 0.000000 0.000000 0.000000 0.046040
#
#
# Mechanical properties :
#
#
# Convention : Reuss Voigt Hill
#
# Bulk Modulus (GPa) = 52.18546 53.12959 52.65753
# Shear Modulus (GPa) = 28.18009 28.88481 28.53245
#
# Velocity S-wave (km/s) = 3.84938 3.89721 3.87337
# Velocity P-wave (km/s) = 6.87002 6.94173 6.90597
#
# Compressibility (1/GPa) = 0.01916243
#
# Stress axis : x y z
#
# Youngs Moduli (GPa) = 70.89902 80.58300 71.90341
#
# Poissons Ratio (x) = 0.37219 0.20127
# Poissons Ratio (y) = 0.32746 0.23093
# Poissons Ratio (z) = 0.19846 0.25880
#
# Static dielectric constant tensor:
#      x y z
#    x 3.510050 0.000000 0.000000 
#    y 0.000000 -6.198610 0.000000 
#    z 0.000000 0.000000 3.707640 
# 
# 
# High freq. dielectric constant tensor:
#      x y z
#    x 1.714440 0.000000 0.000000 
#    y 0.000000 1.728460 0.000000 
#    z 0.000000 0.000000 1.762420 
# 
# From -- ./inp_files/5479.got.cif
#   From: 2010.03.12/outbox.cif.g09.slc.cpg/sg50_3_cif.got.tgz:5479.got - 2010.04.16 13:23:21.
