data_PCOD8205808
_publ_section_title
;
Structure prediction by ZEFSAII (Michael W. Deem and Ramdas Pophale) SiO2 
 PCOD8205808
Probable space group: P B A N
;
_chemical_formula_sum "Si O2"
_cell_formula_units_Z 32
_cell_length_a 16.466186
_cell_length_b 18.192413
_cell_length_c 5.002578
_cell_angle_alpha 90.000000
_cell_angle_beta 90.000000
_cell_angle_gamma 90.000000
_cell_volume 1498.570546
_symmetry_space_group_name_H-M "P B A N"
_symmetry_group_IT_number 50
_space_group.IT_coordinate_system_code '2'
_symmetry_cell_setting 'orthorhombic'
loop_
_space_group_symop_operation_xyz
x,y,z
1/2-x,1/2-y,z
x,1/2-y,-z
1/2-x,y,-z
-x,-y,-z
1/2+x,1/2+y,-z
-x,1/2+y,z
1/2+x,-y,z
loop_
_atom_site_type_symbol
_atom_site_label
_atom_site_fract_x
_atom_site_fract_y
_atom_site_fract_z
Si Si1 0.930973 0.552705 0.888421
Si Si2 0.332646 0.479608 0.382917
Si Si3 0.302415 0.646388 0.253959
Si Si4 0.483188 0.701956 0.248091
O O1 0.892248 0.511256 0.635244
O O2 0.966164 0.627325 0.768257
O O3 0.868531 0.567893 0.134937
O O4 0.000000 0.500000 0.000000
O O5 0.250000 0.442929 0.500000
O O6 0.315317 0.559294 0.261959
O O7 0.250000 0.675371 0.500000
O O8 0.387844 0.686851 0.250941
O O9 0.250000 0.668857 0.000000
O O10 0.510198 0.750000 0.500000
O O11 0.508669 0.750000 0.000000
#
# Coordination Sequence:
#
# PCOD8205808 Si02
#       4
#     8   8   8   8
#     4  12  24  42  70  96 133 175 223 280 333 389
#     4  11  23  40  69 101 131 164 225 284 339 385
#     4  11  23  39  64  96 137 175 216 260 326 408
#     4  12  27  42  63  95 138 180 222 265 333 400
#
# _framework density 21.353684000000001
#
# number of rings (size 3 to 8) (size 9 to 14) (size 15 to 20)
#    0.000    0.500    2.500    7.500    3.500    3.000 
#    0.000    0.000    0.000   11.250    0.000    0.000 
#    0.000    0.000    0.000    0.000    0.000    0.000 
#
# Total GULP energy -396867.844180 kJ/mol
# GULP energy per Si atom -12402.120131 kJ/mol
# Density = 2.130508 g / cm^3
# Si number density = 21.353684 Si / 1000 Ang^3
#
#
#
# Elastic Constant Matrix: (Units=GPa)
#
#
# Indices 1 2 3 4 5 6 
#
# 1 78.1560 34.0360 37.4922 0.0000 0.0000 0.0000
# 2 34.0360 90.0493 37.0980 0.0000 0.0000 0.0000
# 3 37.4922 37.0980 174.8511 0.0000 0.0000 0.0000
# 4 0.0000 0.0000 0.0000 36.8451 0.0000 0.0000
# 5 0.0000 0.0000 0.0000 0.0000 45.7509 0.0000
# 6 0.0000 0.0000 0.0000 0.0000 0.0000 31.4825
#
#
#
# Elastic Compliance Matrix: (Units=1/GPa)
#
#
# Indices 1 2 3 4 5 6 
#
# 1 0.016171 -0.005132 -0.002379 0.000000 0.000000 0.000000
# 2 -0.005132 0.013798 -0.001827 0.000000 0.000000 0.000000
# 3 -0.002379 -0.001827 0.006617 0.000000 0.000000 0.000000
# 4 0.000000 0.000000 0.000000 0.027141 0.000000 0.000000
# 5 0.000000 0.000000 0.000000 0.000000 0.021857 0.000000
# 6 0.000000 0.000000 0.000000 0.000000 0.000000 0.031764
#
#
# Mechanical properties :
#
#
# Convention : Reuss Voigt Hill
#
# Bulk Modulus (GPa) = 55.83524 62.25652 59.04588
# Shear Modulus (GPa) = 35.21314 38.44438 36.82876
#
# Velocity S-wave (km/s) = 4.06525 4.24767 4.15746
# Velocity P-wave (km/s) = 6.94547 7.29898 7.12442
#
# Compressibility (1/GPa) = 0.01790983
#
# Stress axis : x y z
#
# Youngs Moduli (GPa) = 61.83923 72.47683 151.13079
#
# Poissons Ratio (x) = 0.37197 0.35947
# Poissons Ratio (y) = 0.31737 0.27610
# Poissons Ratio (z) = 0.14709 0.13241
#
# Static dielectric constant tensor:
#      x y z
#    x 4.199630 0.000000 0.000000 
#    y 0.000000 3.632670 0.000000 
#    z 0.000000 0.000000 4.283140 
# 
# 
# High freq. dielectric constant tensor:
#      x y z
#    x 1.841480 0.000000 0.000000 
#    y 0.000000 1.818230 0.000000 
#    z 0.000000 0.000000 1.867780 
# 
# From -- ./inp_files/3023.got.cif
#   From: 2010.03.12/outbox.cif.g09.slc.cpg/sg50_2_cif.got.tgz:3023.got - 2010.04.16 13:23:21.
