data_PCOD8205311
_publ_section_title
;
Structure prediction by ZEFSAII (Michael W. Deem and Ramdas Pophale) SiO2 
 PCOD8205311
Probable space group: P B A N
;
_chemical_formula_sum "Si O2"
_cell_formula_units_Z 46
_cell_length_a 21.873024
_cell_length_b 15.998953
_cell_length_c 6.639556
_cell_angle_alpha 90.000000
_cell_angle_beta 90.000000
_cell_angle_gamma 90.000000
_cell_volume 2323.482631
_symmetry_space_group_name_H-M "P B A N"
_symmetry_group_IT_number 50
_space_group.IT_coordinate_system_code '2'
_symmetry_cell_setting 'orthorhombic'
loop_
_space_group_symop_operation_xyz
x,y,z
1/2-x,1/2-y,z
x,1/2-y,-z
1/2-x,y,-z
-x,-y,-z
1/2+x,1/2+y,-z
-x,1/2+y,z
1/2+x,-y,z
loop_
_atom_site_type_symbol
_atom_site_label
_atom_site_fract_x
_atom_site_fract_y
_atom_site_fract_z
Si Si1 0.561145 0.956864 0.084287
Si Si2 0.071338 0.584613 0.576751
Si Si3 0.446194 0.153223 0.554053
Si Si4 0.320623 0.821893 0.652186
Si Si5 0.634149 0.960114 0.687900
Si Si6 0.250000 0.750000 0.000000
Si Si7 0.750000 0.024777 0.500000
O O1 0.549935 0.868300 0.205428
O O2 0.587569 0.019561 0.248815
O O3 0.613861 0.941050 0.917707
O O4 0.500000 0.000000 0.000000
O O5 0.105886 0.671505 0.633600
O O6 0.097978 0.545500 0.369986
O O7 0.999949 0.602156 0.558081
O O8 0.452557 0.250000 0.500000
O O9 0.384431 0.118138 0.453736
O O10 0.296845 0.750000 0.500000
O O11 0.296841 0.804764 0.873649
O O12 0.297171 0.915084 0.611952
O O13 0.707997 0.970308 0.655593
#
# Coordination Sequence:
#
# PCOD8205311 Si02
#       7
#     8   8   8   8   8   2   4
#     4  11  19  38  63  88 120 162 213 254 303 384
#     4  10  21  36  59  85 120 163 200 250 310 372
#     4  11  22  39  58  89 124 159 200 262 328 366
#     4  11  22  38  53  84 125 159 198 257 304 375
#     4  10  21  39  60  86 119 156 210 255 303 381
#     4  12  22  36  52  82 128 160 208 244 306 370
#     4  10  21  40  61  78 114 166 202 260 319 364
#
# _framework density 19.797865999999999
#
# number of rings (size 3 to 8) (size 9 to 14) (size 15 to 20)
#    0.000    1.391    5.217    1.565    2.435    0.696 
#    3.130    0.435    0.000    0.000    0.000    7.304 
#    0.000    0.000    0.000    0.000    0.000    0.000 
#
# Total GULP energy -569899.804991 kJ/mol
# GULP energy per Si atom -12389.126195 kJ/mol
# Density = 1.975281 g / cm^3
# Si number density = 19.797866 Si / 1000 Ang^3
#
#
#
# Elastic Constant Matrix: (Units=GPa)
#
#
# Indices 1 2 3 4 5 6 
#
# 1 92.9394 26.8432 37.0237 0.0000 0.0000 0.0000
# 2 26.8432 90.2330 39.8059 0.0000 0.0000 0.0000
# 3 37.0237 39.8059 125.6056 0.0000 0.0000 0.0000
# 4 0.0000 0.0000 0.0000 24.2797 0.0000 0.0000
# 5 0.0000 0.0000 0.0000 0.0000 28.6387 0.0000
# 6 0.0000 0.0000 0.0000 0.0000 0.0000 209.9694
#
#
#
# Elastic Compliance Matrix: (Units=1/GPa)
#
#
# Indices 1 2 3 4 5 6 
#
# 1 0.012645 -0.002462 -0.002947 0.000000 0.000000 0.000000
# 2 -0.002462 0.013363 -0.003509 0.000000 0.000000 0.000000
# 3 -0.002947 -0.003509 0.009942 0.000000 0.000000 0.000000
# 4 0.000000 0.000000 0.000000 0.041187 0.000000 0.000000
# 5 0.000000 0.000000 0.000000 0.000000 0.034918 0.000000
# 6 0.000000 0.000000 0.000000 0.000000 0.000000 0.004763
#
#
# Mechanical properties :
#
#
# Convention : Reuss Voigt Hill
#
# Bulk Modulus (GPa) = 55.20607 57.34707 56.27657
# Shear Modulus (GPa) = 35.53903 66.25124 50.89514
#
# Velocity S-wave (km/s) = 4.24145 5.79107 5.07575
# Velocity P-wave (km/s) = 7.20638 8.58746 7.92706
#
# Compressibility (1/GPa) = 0.01811395
#
# Stress axis : x y z
#
# Youngs Moduli (GPa) = 79.08484 74.83473 100.58109
#
# Poissons Ratio (x) = 0.18421 0.29642
# Poissons Ratio (y) = 0.19467 0.35296
# Poissons Ratio (z) = 0.23307 0.26261
#
# Static dielectric constant tensor:
#      x y z
#    x 3.687100 0.000000 0.000000 
#    y 0.000000 3.500170 0.000000 
#    z 0.000000 0.000000 3.606920 
# 
# 
# High freq. dielectric constant tensor:
#      x y z
#    x 1.773950 0.000000 0.000000 
#    y 0.000000 1.746740 0.000000 
#    z 0.000000 0.000000 1.767340 
# 
# From -- ./inp_files/6011.got.cif
#   From: 2010.03.12/outbox.cif.g09.slc.cpg/sg50_4_cif.got.tgz:6011.got - 2010.04.16 13:23:21.
