data_PCOD8205636
_publ_section_title
;
Structure prediction by ZEFSAII (Michael W. Deem and Ramdas Pophale) SiO2 
 PCOD8205636
Probable space group: P B A N
;
_chemical_formula_sum "Si O2"
_cell_formula_units_Z 44
_cell_length_a 8.642382
_cell_length_b 15.789972
_cell_length_c 13.800496
_cell_angle_alpha 90.000000
_cell_angle_beta 90.000000
_cell_angle_gamma 90.000000
_cell_volume 1883.256669
_symmetry_space_group_name_H-M "P B A N"
_symmetry_group_IT_number 50
_space_group.IT_coordinate_system_code '2'
_symmetry_cell_setting 'orthorhombic'
loop_
_space_group_symop_operation_xyz
x,y,z
1/2-x,1/2-y,z
x,1/2-y,-z
1/2-x,y,-z
-x,-y,-z
1/2+x,1/2+y,-z
-x,1/2+y,z
1/2+x,-y,z
loop_
_atom_site_type_symbol
_atom_site_label
_atom_site_fract_x
_atom_site_fract_y
_atom_site_fract_z
Si Si1 0.209767 0.422538 0.189025
Si Si2 0.250000 0.250000 0.877964
Si Si3 0.271761 0.885470 0.607298
Si Si4 0.019529 0.021841 0.313828
Si Si5 0.936542 0.180179 0.068485
Si Si6 0.750000 0.473273 0.000000
Si Si7 0.750000 0.250000 0.241630
O O1 0.158336 0.323760 0.178955
O O2 0.348325 0.420622 0.266281
O O3 0.276818 0.468300 0.093138
O O4 0.059231 0.469845 0.226946
O O5 0.377192 0.193621 0.936340
O O6 0.250000 0.846965 0.500000
O O7 0.331220 0.816762 0.685678
O O8 0.101838 0.918670 0.633889
O O9 0.399385 0.959848 0.607997
O O10 0.871096 0.195446 0.177101
O O11 0.857519 0.250000 0.000000
O O12 0.897711 0.088102 0.022985
#
# Coordination Sequence:
#
# PCOD8205636 Si02
#       7
#     8   4   8   8   8   4   4
#     4  11  25  42  64  95 131 184 219 274 318 396
#     4  12  27  40  58  98 131 168 225 278 322 362
#     4  11  23  42  69 100 128 167 220 278 335 397
#     4  10  23  43  67  93 131 174 216 270 340 389
#     4  12  25  43  65  92 131 179 220 270 320 385
#     4  12  25  43  68  88 136 184 240 251 315 396
#     4  12  22  44  70  92 130 174 222 266 332 392
#
# _framework density 23.363785
#
# number of rings (size 3 to 8) (size 9 to 14) (size 15 to 20)
#    0.000    0.727    1.818    6.545    5.091    1.455 
#    0.000    0.000    0.000    0.000    0.000   14.000 
#    0.000    0.000    0.000    0.000    0.000    0.000 
#
# Total GULP energy -545345.202459 kJ/mol
# GULP energy per Si atom -12394.209147 kJ/mol
# Density = 2.331061 g / cm^3
# Si number density = 23.363785 Si / 1000 Ang^3
#
#
#
# Elastic Constant Matrix: (Units=GPa)
#
#
# Indices 1 2 3 4 5 6 
#
# 1 92.0996 6.3721 8.7686 0.0000 0.0000 0.0000
# 2 6.3721 118.9976 35.1542 0.0000 0.0000 0.0000
# 3 8.7686 35.1542 130.5340 0.0000 0.0000 0.0000
# 4 0.0000 0.0000 0.0000 24.2235 0.0000 0.0000
# 5 0.0000 0.0000 0.0000 0.0000 12.2771 0.0000
# 6 0.0000 0.0000 0.0000 0.0000 0.0000 14.6604
#
#
#
# Elastic Compliance Matrix: (Units=1/GPa)
#
#
# Indices 1 2 3 4 5 6 
#
# 1 0.010945 -0.000401 -0.000627 0.000000 0.000000 0.000000
# 2 -0.000401 0.009145 -0.002436 0.000000 0.000000 0.000000
# 3 -0.000627 -0.002436 0.008359 0.000000 0.000000 0.000000
# 4 0.000000 0.000000 0.000000 0.041282 0.000000 0.000000
# 5 0.000000 0.000000 0.000000 0.000000 0.081453 0.000000
# 6 0.000000 0.000000 0.000000 0.000000 0.000000 0.068211
#
#
# Mechanical properties :
#
#
# Convention : Reuss Voigt Hill
#
# Bulk Modulus (GPa) = 46.46622 49.13566 47.80094
# Shear Modulus (GPa) = 21.41366 29.65463 25.53414
#
# Velocity S-wave (km/s) = 3.03071 3.56653 3.30948
# Velocity P-wave (km/s) = 5.67259 6.16737 5.92515
#
# Compressibility (1/GPa) = 0.02152101
#
# Stress axis : x y z
#
# Youngs Moduli (GPa) = 91.36369 109.35443 119.63197
#
# Poissons Ratio (x) = 0.04383 0.07505
# Poissons Ratio (y) = 0.03662 0.29140
# Poissons Ratio (z) = 0.05731 0.26637
#
# Static dielectric constant tensor:
#      x y z
#    x 4.083720 0.000000 0.000000 
#    y 0.000000 4.554060 0.000000 
#    z 0.000000 0.000000 4.130510 
# 
# 
# High freq. dielectric constant tensor:
#      x y z
#    x 1.931560 0.000000 0.000000 
#    y 0.000000 1.933990 0.000000 
#    z 0.000000 0.000000 1.907720 
# 
# From -- ./inp_files/24917.got.cif
#   From: 2010.03.12/outbox.cif.g09.slc.cpg/sg50_13_cif.got.tgz:24917.got - 2010.04.16 13:23:21.
