data_PCOD8205066
_publ_section_title
;
Structure prediction by ZEFSAII (Michael W. Deem and Ramdas Pophale) SiO2 
 PCOD8205066
Probable space group: P B A N
;
_chemical_formula_sum "Si O2"
_cell_formula_units_Z 44
_cell_length_a 9.573496
_cell_length_b 14.383839
_cell_length_c 15.528512
_cell_angle_alpha 90.000000
_cell_angle_beta 90.000000
_cell_angle_gamma 90.000000
_cell_volume 2138.332395
_symmetry_space_group_name_H-M "P B A N"
_symmetry_group_IT_number 50
_space_group.IT_coordinate_system_code '2'
_symmetry_cell_setting 'orthorhombic'
loop_
_space_group_symop_operation_xyz
x,y,z
1/2-x,1/2-y,z
x,1/2-y,-z
1/2-x,y,-z
-x,-y,-z
1/2+x,1/2+y,-z
-x,1/2+y,z
1/2+x,-y,z
loop_
_atom_site_type_symbol
_atom_site_label
_atom_site_fract_x
_atom_site_fract_y
_atom_site_fract_z
Si Si1 0.329096 0.904717 0.610659
Si Si2 0.509584 0.396558 0.200002
Si Si3 0.177529 0.561931 0.811177
Si Si4 0.088281 0.730667 0.902523
Si Si5 0.010437 0.580883 0.400024
Si Si6 0.457859 0.750000 0.500000
O O1 0.342653 0.901793 0.713727
O O2 0.174367 0.930101 0.577169
O O3 0.366375 0.803244 0.573207
O O4 0.432767 0.985377 0.575412
O O5 0.379960 0.459287 0.170234
O O6 0.657737 0.438898 0.167510
O O7 0.492105 0.294872 0.158399
O O8 0.497461 0.390126 0.301673
O O9 0.077864 0.623785 0.873515
O O10 0.250000 0.750000 0.885784
O O11 0.041927 0.750000 0.000000
O O12 0.949985 0.669604 0.453620
#
# Coordination Sequence:
#
# PCOD8205066 Si02
#       6
#     8   8   8   8   8   4
#     4  10  20  34  51  72  97 126 162 200 238 283
#     4   9  18  33  52  72  96 127 161 197 237 282
#     4   9  18  33  52  72  96 127 161 197 237 282
#     4   9  17  30  50  75  99 125 160 197 234 283
#     4  10  20  34  51  72  97 126 162 200 238 283
#     4  12  21  32  53  74  95 128 165 200 239 284
#
# _framework density 20.576781
#
# number of rings (size 3 to 8) (size 9 to 14) (size 15 to 20)
#    0.000    2.364    0.000    3.273    0.000    3.636 
#    0.000    2.727    0.000    9.818    0.000    0.000 
#    0.000    0.000    0.000    0.000    0.000    0.000 
#
# Total GULP energy -545318.096422 kJ/mol
# GULP energy per Si atom -12393.593101 kJ/mol
# Density = 2.052995 g / cm^3
# Si number density = 20.576781 Si / 1000 Ang^3
#
#
#
# Elastic Constant Matrix: (Units=GPa)
#
#
# Indices 1 2 3 4 5 6 
#
# 1 33.1294 16.4658 6.2651 0.0000 0.0000 0.0000
# 2 16.4658 91.2751 23.0448 0.0000 0.0000 0.0000
# 3 6.2651 23.0448 37.3847 0.0000 0.0000 0.0000
# 4 0.0000 0.0000 0.0000 34.4111 0.0000 0.0000
# 5 0.0000 0.0000 0.0000 0.0000 14.4592 0.0000
# 6 0.0000 0.0000 0.0000 0.0000 0.0000 25.8298
#
#
#
# Elastic Compliance Matrix: (Units=1/GPa)
#
#
# Indices 1 2 3 4 5 6 
#
# 1 0.033313 -0.005448 -0.002225 0.000000 0.000000 0.000000
# 2 -0.005448 0.013866 -0.007634 0.000000 0.000000 0.000000
# 3 -0.002225 -0.007634 0.031828 0.000000 0.000000 0.000000
# 4 0.000000 0.000000 0.000000 0.029060 0.000000 0.000000
# 5 0.000000 0.000000 0.000000 0.000000 0.069160 0.000000
# 6 0.000000 0.000000 0.000000 0.000000 0.000000 0.038715
#
#
# Mechanical properties :
#
#
# Convention : Reuss Voigt Hill
#
# Bulk Modulus (GPa) = 20.66407 28.14895 24.40651
# Shear Modulus (GPa) = 19.03403 22.67426 20.85414
#
# Velocity S-wave (km/s) = 3.04472 3.32314 3.18697
# Velocity P-wave (km/s) = 4.73547 5.33235 5.04275
#
# Compressibility (1/GPa) = 0.04839317
#
# Stress axis : x y z
#
# Youngs Moduli (GPa) = 30.01824 72.11778 31.41913
#
# Poissons Ratio (x) = 0.39290 0.06989
# Poissons Ratio (y) = 0.16354 0.23987
# Poissons Ratio (z) = 0.06678 0.55058
#
# Static dielectric constant tensor:
#      x y z
#    x 3.475040 0.000000 0.000000 
#    y 0.000000 3.903870 0.000000 
#    z 0.000000 0.000000 3.771090 
# 
# 
# High freq. dielectric constant tensor:
#      x y z
#    x 1.763000 0.000000 0.000000 
#    y 0.000000 1.809380 0.000000 
#    z 0.000000 0.000000 1.814770 
# 
# From -- ./inp_files/28633.got.cif
#   From: 2010.03.12/outbox.cif.g09.slc.cpg/sg50_15_cif.got.tgz:28633.got - 2010.04.16 13:23:21.
