data_PCOD8205925
_publ_section_title
;
Structure prediction by ZEFSAII (Michael W. Deem and Ramdas Pophale) SiO2 
 PCOD8205925
Probable space group: P M M A
;
_chemical_formula_sum "Si O2"
_cell_formula_units_Z 40
_cell_length_a 8.720898
_cell_length_b 26.445195
_cell_length_c 9.180596
_cell_angle_alpha 90.000000
_cell_angle_beta 90.000000
_cell_angle_gamma 90.000000
_cell_volume 2117.282739
_symmetry_space_group_name_H-M "P M M A"
_symmetry_group_IT_number 51
_symmetry_cell_setting 'orthorhombic'
loop_
_space_group_symop_operation_xyz
x,y,z
1/2-x,-y,z
1/2+x,-y,-z
-x,y,-z
-x,-y,-z
1/2+x,y,-z
1/2-x,y,z
x,-y,z
loop_
_atom_site_type_symbol
_atom_site_label
_atom_site_fract_x
_atom_site_fract_y
_atom_site_fract_z
Si Si1 0.431642 0.096111 0.158381
Si Si2 0.568212 0.600615 0.337778
Si Si3 0.571201 0.810310 0.658128
Si Si4 0.432456 0.500000 0.337828
Si Si5 0.568850 0.000000 0.659058
Si Si6 0.429173 0.699422 0.341517
O O1 0.250000 0.096656 0.145148
O O2 0.494638 0.147763 0.231639
O O3 0.489612 0.049368 0.255431
O O4 0.500000 0.090285 0.000000
O O5 0.500000 0.603352 0.500000
O O6 0.750000 0.596204 0.339751
O O7 0.496497 0.550835 0.258854
O O8 0.513700 0.652684 0.257361
O O9 0.500000 0.817301 0.500000
O O10 0.750000 0.818578 0.634729
O O11 0.539822 0.754593 0.729710
O O12 0.250000 0.500000 0.339614
O O13 0.500000 0.500000 0.500000
O O14 0.500000 0.000000 0.500000
O O15 0.750000 0.000000 0.645292
O O16 0.500000 0.703858 0.500000
O O17 0.250000 0.686732 0.351149
#
# Coordination Sequence:
#
# PCOD8205925 Si02
#       6
#     8   8   8   4   4   8
#     4  10  21  36  52  75 103 133 165 202 243 291
#     4  10  16  22  31  46  69  99 137 181 225 274
#     4   9  18  31  48  69  94 122 160 202 243 289
#     4  10  16  22  30  42  64  98 139 180 223 274
#     4  10  21  36  56  80 106 132 167 206 244 288
#     4   9  15  24  37  54  76 105 140 184 230 276
#
# _framework density 18.892139
#
# number of rings (size 3 to 8) (size 9 to 14) (size 15 to 20)
#    0.000    2.400    0.000    6.600    0.000    2.400 
#    0.000    0.000    0.000    0.000    0.000    0.000 
#    0.000    0.000    0.000    0.900    0.000   11.800 
#
# Total GULP energy -495629.740489 kJ/mol
# GULP energy per Si atom -12390.743512 kJ/mol
# Density = 1.884914 g / cm^3
# Si number density = 18.892139 Si / 1000 Ang^3
#
#
#
# Elastic Constant Matrix: (Units=GPa)
#
#
# Indices 1 2 3 4 5 6 
#
# 1 101.7224 64.9100 23.4782 0.0000 0.0000 0.0000
# 2 64.9100 220.4572 59.1140 0.0000 0.0000 0.0000
# 3 23.4782 59.1140 73.1936 0.0000 0.0000 0.0000
# 4 0.0000 0.0000 0.0000 3.0070 0.0000 0.0000
# 5 0.0000 0.0000 0.0000 0.0000 17.7001 0.0000
# 6 0.0000 0.0000 0.0000 0.0000 0.0000 24.7920
#
#
#
# Elastic Compliance Matrix: (Units=1/GPa)
#
#
# Indices 1 2 3 4 5 6 
#
# 1 0.012200 -0.003246 -0.001292 0.000000 0.000000 0.000000
# 2 -0.003246 0.006653 -0.004332 0.000000 0.000000 0.000000
# 3 -0.001292 -0.004332 0.017576 0.000000 0.000000 0.000000
# 4 0.000000 0.000000 0.000000 0.332555 0.000000 0.000000
# 5 0.000000 0.000000 0.000000 0.000000 0.056497 0.000000
# 6 0.000000 0.000000 0.000000 0.000000 0.000000 0.040336
#
#
# Mechanical properties :
#
#
# Convention : Reuss Voigt Hill
#
# Bulk Modulus (GPa) = 53.50749 76.70862 65.10806
# Shear Modulus (GPa) = 10.20853 25.62456 17.91655
#
# Velocity S-wave (km/s) = 2.32708 3.68688 3.08289
# Velocity P-wave (km/s) = 5.96695 7.66914 6.87096
#
# Compressibility (1/GPa) = 0.01868897
#
# Stress axis : x y z
#
# Youngs Moduli (GPa) = 81.96752 150.30022 56.89617
#
# Poissons Ratio (x) = 0.48782 0.07351
# Poissons Ratio (y) = 0.26603 0.24650
# Poissons Ratio (z) = 0.10591 0.65116
#
# Static dielectric constant tensor:
#      x y z
#    x 3.418240 0.000000 0.000000 
#    y 0.000000 5.360430 0.000000 
#    z 0.000000 0.000000 2.823040 
# 
# 
# High freq. dielectric constant tensor:
#      x y z
#    x 1.737500 0.000000 0.000000 
#    y 0.000000 1.777080 0.000000 
#    z 0.000000 0.000000 1.652820 
# 
# From -- ./inp_files/5578.got.cif
#   From: 2010.03.12/outbox.cif.g09.slc.cpg/sg51_3_cif.got.tgz:5578.got - 2010.04.16 13:43:02.
