data_PCOD8205217
_publ_section_title
;
Structure prediction by ZEFSAII (Michael W. Deem and Ramdas Pophale) SiO2 
 PCOD8205217
Probable space group: P B A N
;
_chemical_formula_sum "Si O2"
_cell_formula_units_Z 40
_cell_length_a 8.216043
_cell_length_b 17.049315
_cell_length_c 12.002099
_cell_angle_alpha 90.000000
_cell_angle_beta 90.000000
_cell_angle_gamma 90.000000
_cell_volume 1681.228885
_symmetry_space_group_name_H-M "P B A N"
_symmetry_group_IT_number 50
_space_group.IT_coordinate_system_code '2'
_symmetry_cell_setting 'orthorhombic'
loop_
_space_group_symop_operation_xyz
x,y,z
1/2-x,1/2-y,z
x,1/2-y,-z
1/2-x,y,-z
-x,-y,-z
1/2+x,1/2+y,-z
-x,1/2+y,z
1/2+x,-y,z
loop_
_atom_site_type_symbol
_atom_site_label
_atom_site_fract_x
_atom_site_fract_y
_atom_site_fract_z
Si Si1 0.096806 0.557625 0.349110
Si Si2 0.016415 0.098630 0.913621
Si Si3 0.639192 0.325106 0.723140
Si Si4 0.875257 0.936764 0.859325
Si Si5 0.087596 0.111324 0.558942
O O1 0.266157 0.594587 0.307698
O O2 0.127564 0.465225 0.365672
O O3 0.958996 0.578704 0.258582
O O4 0.048755 0.593620 0.467033
O O5 0.183888 0.079007 0.848698
O O6 0.928240 0.170575 0.849796
O O7 0.047255 0.119560 0.043632
O O8 0.895918 0.024868 0.903743
O O9 0.750000 0.250000 0.706897
O O10 0.485633 0.320866 0.638640
O O11 0.250000 0.142944 0.500000
#
# Coordination Sequence:
#
# PCOD8205217 Si02
#       5
#     8   8   8   8   8
#     4  11  22  39  67 101 136 185 238 296 356 423
#     4  10  21  38  64 104 142 187 233 292 360 424
#     4  12  26  44  67 102 150 190 236 299 372 438
#     4  10  20  38  69 102 140 181 241 299 346 423
#     4  11  23  41  68  97 133 184 243 300 351 426
#
# _framework density 23.792119
#
# number of rings (size 3 to 8) (size 9 to 14) (size 15 to 20)
#    0.000    1.200    2.000    5.400    0.000    4.000 
#    0.000    7.000    0.000    2.400    0.000    0.000 
#    0.000    0.000    0.000    0.000    0.000    0.000 
#
# Total GULP energy -496057.105461 kJ/mol
# GULP energy per Si atom -12401.427637 kJ/mol
# Density = 2.373797 g / cm^3
# Si number density = 23.792119 Si / 1000 Ang^3
#
#
#
# Elastic Constant Matrix: (Units=GPa)
#
#
# Indices 1 2 3 4 5 6 
#
# 1 112.0743 45.1714 31.4375 0.0000 0.0000 0.0000
# 2 45.1714 69.3898 41.3111 0.0000 0.0000 0.0000
# 3 31.4375 41.3111 134.9271 0.0000 0.0000 0.0000
# 4 0.0000 0.0000 0.0000 16.1740 0.0000 0.0000
# 5 0.0000 0.0000 0.0000 0.0000 50.7070 0.0000
# 6 0.0000 0.0000 0.0000 0.0000 0.0000 34.7183
#
#
#
# Elastic Compliance Matrix: (Units=1/GPa)
#
#
# Indices 1 2 3 4 5 6 
#
# 1 0.012124 -0.007595 -0.000499 0.000000 0.000000 0.000000
# 2 -0.007595 0.022382 -0.005083 0.000000 0.000000 0.000000
# 3 -0.000499 -0.005083 0.009084 0.000000 0.000000 0.000000
# 4 0.000000 0.000000 0.000000 0.061828 0.000000 0.000000
# 5 0.000000 0.000000 0.000000 0.000000 0.019721 0.000000
# 6 0.000000 0.000000 0.000000 0.000000 0.000000 0.028803
#
#
# Mechanical properties :
#
#
# Convention : Reuss Voigt Hill
#
# Bulk Modulus (GPa) = 58.02279 61.35902 59.69090
# Shear Modulus (GPa) = 26.87566 33.55127 30.21347
#
# Velocity S-wave (km/s) = 3.36460 3.75932 3.56742
# Velocity P-wave (km/s) = 6.28764 6.68498 6.48935
#
# Compressibility (1/GPa) = 0.01723461
#
# Stress axis : x y z
#
# Youngs Moduli (GPa) = 82.48140 44.67909 110.08272
#
# Poissons Ratio (x) = 0.33934 0.05498
# Poissons Ratio (y) = 0.62646 0.55956
# Poissons Ratio (z) = 0.04119 0.22711
#
# Static dielectric constant tensor:
#      x y z
#    x 4.346090 0.000000 0.000000 
#    y 0.000000 3.568120 0.000000 
#    z 0.000000 0.000000 4.726590 
# 
# 
# High freq. dielectric constant tensor:
#      x y z
#    x 1.959590 0.000000 0.000000 
#    y 0.000000 1.870080 0.000000 
#    z 0.000000 0.000000 1.973650 
# 
# From -- ./inp_files/18706.got.cif
#   From: 2010.03.12/outbox.cif.g09.slc.cpg/sg50_10_cif.got.tgz:18706.got - 2010.04.16 13:23:21.
