data_PCOD8205185
_publ_section_title
;
Structure prediction by ZEFSAII (Michael W. Deem and Ramdas Pophale) SiO2 
 PCOD8205185
Probable space group: P B A N
;
_chemical_formula_sum "Si O2"
_cell_formula_units_Z 48
_cell_length_a 16.261269
_cell_length_b 9.185044
_cell_length_c 14.929783
_cell_angle_alpha 90.000000
_cell_angle_beta 90.000000
_cell_angle_gamma 90.000000
_cell_volume 2229.919425
_symmetry_space_group_name_H-M "P B A N"
_symmetry_group_IT_number 50
_space_group.IT_coordinate_system_code '2'
_symmetry_cell_setting 'orthorhombic'
loop_
_space_group_symop_operation_xyz
x,y,z
1/2-x,1/2-y,z
x,1/2-y,-z
1/2-x,y,-z
-x,-y,-z
1/2+x,1/2+y,-z
-x,1/2+y,z
1/2+x,-y,z
loop_
_atom_site_type_symbol
_atom_site_label
_atom_site_fract_x
_atom_site_fract_y
_atom_site_fract_z
Si Si1 0.902725 0.630147 0.692305
Si Si2 0.712482 0.108604 0.736845
Si Si3 0.952528 0.113536 0.559491
Si Si4 0.107465 0.719095 0.096785
Si Si5 0.005053 0.518749 0.838728
Si Si6 0.635716 0.561416 0.701143
O O1 0.852195 0.478681 0.672885
O O2 0.843806 0.769897 0.679343
O O3 0.981089 0.665760 0.631701
O O4 0.931251 0.613653 0.795520
O O5 0.750000 0.250000 0.685539
O O6 0.673385 0.168636 0.829376
O O7 0.788043 0.000623 0.758497
O O8 0.921116 0.250000 0.500000
O O9 0.876508 0.035477 0.610715
O O10 0.000000 0.000000 0.500000
O O11 0.070109 0.876736 0.116050
O O12 0.033982 0.599012 0.092788
O O13 0.148882 0.750000 0.000000
O O14 0.051274 0.435257 0.757717
#
# Coordination Sequence:
#
# PCOD8205185 Si02
#       6
#     8   8   8   8   8   8
#     4  10  22  39  66  88 123 170 213 258 312 389
#     4  11  24  39  62  90 123 171 215 255 325 398
#     4  11  23  39  67  99 126 160 213 271 325 368
#     4  11  22  39  63  92 125 162 214 274 327 373
#     4  10  20  37  63  92 118 164 215 261 310 382
#     4  11  21  40  63  89 130 168 211 259 315 398
#
# _framework density 21.525442000000002
#
# number of rings (size 3 to 8) (size 9 to 14) (size 15 to 20)
#    0.000    1.333    5.000    1.000    2.333    0.333 
#    0.000    0.833    0.000    0.000    4.333    0.000 
#    0.000    0.000    0.000    0.000    0.000    0.000 
#
# Total GULP energy -594700.152079 kJ/mol
# GULP energy per Si atom -12389.586502 kJ/mol
# Density = 2.147645 g / cm^3
# Si number density = 21.525442 Si / 1000 Ang^3
#
#
#
# Elastic Constant Matrix: (Units=GPa)
#
#
# Indices 1 2 3 4 5 6 
#
# 1 66.1421 20.7961 14.0865 0.0000 0.0000 0.0000
# 2 20.7961 123.0355 39.3866 0.0000 0.0000 0.0000
# 3 14.0865 39.3866 73.1440 0.0000 0.0000 0.0000
# 4 0.0000 0.0000 0.0000 32.7639 0.0000 0.0000
# 5 0.0000 0.0000 0.0000 0.0000 19.4068 0.0000
# 6 0.0000 0.0000 0.0000 0.0000 0.0000 43.2265
#
#
#
# Elastic Compliance Matrix: (Units=1/GPa)
#
#
# Indices 1 2 3 4 5 6 
#
# 1 0.016203 -0.002102 -0.001989 0.000000 0.000000 0.000000
# 2 -0.002102 0.010093 -0.005030 0.000000 0.000000 0.000000
# 3 -0.001989 -0.005030 0.016763 0.000000 0.000000 0.000000
# 4 0.000000 0.000000 0.000000 0.030521 0.000000 0.000000
# 5 0.000000 0.000000 0.000000 0.000000 0.051528 0.000000
# 6 0.000000 0.000000 0.000000 0.000000 0.000000 0.023134
#
#
# Mechanical properties :
#
#
# Convention : Reuss Voigt Hill
#
# Bulk Modulus (GPa) = 40.29310 45.65112 42.97211
# Shear Modulus (GPa) = 28.61094 31.61628 30.11361
#
# Velocity S-wave (km/s) = 3.64973 3.83663 3.74435
# Velocity P-wave (km/s) = 6.04319 6.39378 6.22095
#
# Compressibility (1/GPa) = 0.02481814
#
# Stress axis : x y z
#
# Youngs Moduli (GPa) = 61.71525 99.07509 59.65412
#
# Poissons Ratio (x) = 0.20828 0.11863
# Poissons Ratio (y) = 0.12974 0.30007
# Poissons Ratio (z) = 0.12272 0.49837
#
# Static dielectric constant tensor:
#      x y z
#    x 3.481400 0.000000 0.000000 
#    y 0.000000 4.252680 0.000000 
#    z 0.000000 0.000000 1.121720 
# 
# 
# High freq. dielectric constant tensor:
#      x y z
#    x 1.833900 0.000000 0.000000 
#    y 0.000000 1.868460 0.000000 
#    z 0.000000 0.000000 1.809040 
# 
# From -- ./inp_files/24965.got.cif
#   From: 2010.03.12/outbox.cif.g09.slc.cpg/sg50_13_cif.got.tgz:24965.got - 2010.04.16 13:23:21.
