data_PCOD8205741
_publ_section_title
;
Structure prediction by ZEFSAII (Michael W. Deem and Ramdas Pophale) SiO2 
 PCOD8205741
Probable space group: P B A N
;
_chemical_formula_sum "Si O2"
_cell_formula_units_Z 48
_cell_length_a 14.319820
_cell_length_b 15.161153
_cell_length_c 11.065076
_cell_angle_alpha 90.000000
_cell_angle_beta 90.000000
_cell_angle_gamma 90.000000
_cell_volume 2402.283125
_symmetry_space_group_name_H-M "P B A N"
_symmetry_group_IT_number 50
_space_group.IT_coordinate_system_code '2'
_symmetry_cell_setting 'orthorhombic'
loop_
_space_group_symop_operation_xyz
x,y,z
1/2-x,1/2-y,z
x,1/2-y,-z
1/2-x,y,-z
-x,-y,-z
1/2+x,1/2+y,-z
-x,1/2+y,z
1/2+x,-y,z
loop_
_atom_site_type_symbol
_atom_site_label
_atom_site_fract_x
_atom_site_fract_y
_atom_site_fract_z
Si Si1 0.513891 0.343570 0.017189
Si Si2 0.918445 0.575910 0.240720
Si Si3 0.771311 0.988279 0.144459
Si Si4 0.995867 0.235613 0.359823
Si Si5 0.033352 0.087207 0.775084
Si Si6 0.170811 0.679038 0.192926
O O1 0.457939 0.404742 0.107875
O O2 0.616100 0.321167 0.066999
O O3 0.459496 0.250000 0.000000
O O4 0.531114 0.392092 0.891162
O O5 0.810212 0.555243 0.223932
O O6 0.928448 0.658845 0.331386
O O7 0.981445 0.494320 0.291709
O O8 0.863931 0.932295 0.172948
O O9 0.783442 0.083309 0.206332
O O10 0.750000 0.990260 0.000000
O O11 0.979695 0.250000 0.500000
O O12 0.898572 0.203638 0.302358
O O13 0.035557 0.327627 0.309703
O O14 0.250000 0.750000 0.188600
#
# Coordination Sequence:
#
# PCOD8205741 Si02
#       6
#     8   8   8   8   8   8
#     4  11  20  38  63  95 139 173 205 266 335 413
#     4  11  23  42  63 101 135 172 219 271 342 399
#     4  12  24  35  68 105 138 173 209 271 346 421
#     4  11  26  48  70  87 128 187 231 284 329 382
#     4  12  22  43  65  98 140 173 222 272 332 410
#     4  11  24  39  64 104 132 167 224 272 345 401
#
# _framework density 19.980992000000001
#
# number of rings (size 3 to 8) (size 9 to 14) (size 15 to 20)
#    0.000    0.667    8.333    2.500    2.333    1.667 
#    0.000    3.333    0.000    0.000    0.000    0.000 
#    0.000    0.000    0.000    0.000    0.000    0.000 
#
# Total GULP energy -595059.407789 kJ/mol
# GULP energy per Si atom -12397.070996 kJ/mol
# Density = 1.993551 g / cm^3
# Si number density = 19.980992 Si / 1000 Ang^3
#
#
#
# Elastic Constant Matrix: (Units=GPa)
#
#
# Indices 1 2 3 4 5 6 
#
# 1 133.5121 61.4657 54.8714 0.0000 0.0000 0.0000
# 2 61.4657 166.0413 53.9714 0.0000 0.0000 0.0000
# 3 54.8714 53.9714 90.6305 0.0000 0.0000 0.0000
# 4 0.0000 0.0000 0.0000 13.8663 0.0000 0.0000
# 5 0.0000 0.0000 0.0000 0.0000 13.2060 0.0000
# 6 0.0000 0.0000 0.0000 0.0000 0.0000 34.3009
#
#
#
# Elastic Compliance Matrix: (Units=1/GPa)
#
#
# Indices 1 2 3 4 5 6 
#
# 1 0.010627 -0.002285 -0.005073 0.000000 0.000000 0.000000
# 2 -0.002285 0.007959 -0.003357 0.000000 0.000000 0.000000
# 3 -0.005073 -0.003357 0.016104 0.000000 0.000000 0.000000
# 4 0.000000 0.000000 0.000000 0.072117 0.000000 0.000000
# 5 0.000000 0.000000 0.000000 0.000000 0.075723 0.000000
# 6 0.000000 0.000000 0.000000 0.000000 0.000000 0.029154
#
#
# Mechanical properties :
#
#
# Convention : Reuss Voigt Hill
#
# Bulk Modulus (GPa) = 75.40824 81.20008 78.30416
# Shear Modulus (GPa) = 21.04955 26.93300 23.99128
#
# Velocity S-wave (km/s) = 3.24926 3.67540 3.46888
# Velocity P-wave (km/s) = 7.20408 7.66409 7.43764
#
# Compressibility (1/GPa) = 0.01326115
#
# Stress axis : x y z
#
# Youngs Moduli (GPa) = 94.10091 125.63659 62.09519
#
# Poissons Ratio (x) = 0.28706 0.31503
# Poissons Ratio (y) = 0.21500 0.20843
# Poissons Ratio (z) = 0.47740 0.42171
#
# Static dielectric constant tensor:
#      x y z
#    x 3.673460 0.000000 0.000000 
#    y 0.000000 4.147640 0.000000 
#    z 0.000000 0.000000 3.347010 
# 
# 
# High freq. dielectric constant tensor:
#      x y z
#    x 1.777490 0.000000 0.000000 
#    y 0.000000 1.810040 0.000000 
#    z 0.000000 0.000000 1.744710 
# 
# From -- ./inp_files/21077.got.cif
#   From: 2010.03.12/outbox.cif.g09.slc.cpg/sg50_11_cif.got.tgz:21077.got - 2010.04.16 13:23:21.
