data_PCOD8205172
_publ_section_title
;
Structure prediction by ZEFSAII (Michael W. Deem and Ramdas Pophale) SiO2 
 PCOD8205172
Probable space group: P B A N
;
_chemical_formula_sum "Si O2"
_cell_formula_units_Z 42
_cell_length_a 10.092625
_cell_length_b 15.030952
_cell_length_c 13.679279
_cell_angle_alpha 90.000000
_cell_angle_beta 90.000000
_cell_angle_gamma 90.000000
_cell_volume 2075.170726
_symmetry_space_group_name_H-M "P B A N"
_symmetry_group_IT_number 50
_space_group.IT_coordinate_system_code '2'
_symmetry_cell_setting 'orthorhombic'
loop_
_space_group_symop_operation_xyz
x,y,z
1/2-x,1/2-y,z
x,1/2-y,-z
1/2-x,y,-z
-x,-y,-z
1/2+x,1/2+y,-z
-x,1/2+y,z
1/2+x,-y,z
loop_
_atom_site_type_symbol
_atom_site_label
_atom_site_fract_x
_atom_site_fract_y
_atom_site_fract_z
Si Si1 0.710114 0.384251 0.352231
Si Si2 0.595393 0.764258 0.110100
Si Si3 0.965285 0.578748 0.236698
Si Si4 0.264883 0.084922 0.390413
Si Si5 0.011228 0.875335 0.261468
Si Si6 0.750000 0.250000 0.500000
O O1 0.610332 0.384968 0.262163
O O2 0.711683 0.480305 0.401899
O O3 0.853771 0.350707 0.316642
O O4 0.658745 0.314446 0.433446
O O5 0.750000 0.750000 0.120690
O O6 0.573744 0.867347 0.139784
O O7 0.513989 0.695791 0.176853
O O8 0.545465 0.750000 0.000000
O O9 0.865825 0.601927 0.325702
O O10 0.971360 0.473671 0.214104
O O11 0.250000 0.125013 0.500000
O O12 0.391095 0.129602 0.338553
#
# Coordination Sequence:
#
# PCOD8205172 Si02
#       6
#     8   8   8   8   8   2
#     4  10  22  34  57  84 126 159 204 246 301 360
#     4  11  23  43  68  94 120 157 211 260 315 374
#     4  10  22  41  63  91 126 161 203 258 309 364
#     4  10  20  37  60  87 122 167 208 244 293 361
#     4  10  22  41  63  91 126 161 203 258 309 364
#     4  12  20  32  48  82 122 166 204 242 300 348
#
# _framework density 20.239298999999999
#
# number of rings (size 3 to 8) (size 9 to 14) (size 15 to 20)
#    0.000    1.714    2.857    1.143    2.667    3.048 
#    0.000    2.857    0.000    0.000    0.000    0.000 
#    0.000    0.000    0.000    0.000    0.000    0.000 
#
# Total GULP energy -520735.948582 kJ/mol
# GULP energy per Si atom -12398.474966 kJ/mol
# Density = 2.019323 g / cm^3
# Si number density = 20.239299 Si / 1000 Ang^3
#
#
#
# Elastic Constant Matrix: (Units=GPa)
#
#
# Indices 1 2 3 4 5 6 
#
# 1 92.2084 14.6505 16.7233 0.0000 0.0000 0.0000
# 2 14.6505 92.6066 49.2765 0.0000 0.0000 0.0000
# 3 16.7233 49.2765 105.2368 0.0000 0.0000 0.0000
# 4 0.0000 0.0000 0.0000 8.8544 0.0000 0.0000
# 5 0.0000 0.0000 0.0000 0.0000 8.9241 0.0000
# 6 0.0000 0.0000 0.0000 0.0000 0.0000 21.1284
#
#
#
# Elastic Compliance Matrix: (Units=1/GPa)
#
#
# Indices 1 2 3 4 5 6 
#
# 1 0.011251 -0.001103 -0.001271 0.000000 0.000000 0.000000
# 2 -0.001103 0.014490 -0.006609 0.000000 0.000000 0.000000
# 3 -0.001271 -0.006609 0.012799 0.000000 0.000000 0.000000
# 4 0.000000 0.000000 0.000000 0.112939 0.000000 0.000000
# 5 0.000000 0.000000 0.000000 0.000000 0.112056 0.000000
# 6 0.000000 0.000000 0.000000 0.000000 0.000000 0.047330
#
#
# Mechanical properties :
#
#
# Convention : Reuss Voigt Hill
#
# Bulk Modulus (GPa) = 48.61043 50.15027 49.38035
# Shear Modulus (GPa) = 14.89469 21.74148 18.31809
#
# Velocity S-wave (km/s) = 2.71574 3.28109 3.01171
# Velocity P-wave (km/s) = 5.82269 6.25991 6.04525
#
# Compressibility (1/GPa) = 0.02057172
#
# Stress axis : x y z
#
# Youngs Moduli (GPa) = 88.88203 69.01378 78.12979
#
# Poissons Ratio (x) = 0.07616 0.09932
# Poissons Ratio (y) = 0.09808 0.51639
# Poissons Ratio (z) = 0.11298 0.45614
#
# Static dielectric constant tensor:
#      x y z
#    x 3.735730 0.000000 0.000000 
#    y 0.000000 3.791360 0.000000 
#    z 0.000000 0.000000 3.568470 
# 
# 
# High freq. dielectric constant tensor:
#      x y z
#    x 1.791430 0.000000 0.000000 
#    y 0.000000 1.800630 0.000000 
#    z 0.000000 0.000000 1.769210 
# 
# From -- ./inp_files/24741.got.cif
#   From: 2010.03.12/outbox.cif.g09.slc.cpg/sg50_13_cif.got.tgz:24741.got - 2010.04.16 13:23:21.
