data_PCOD8205680
_publ_section_title
;
Structure prediction by ZEFSAII (Michael W. Deem and Ramdas Pophale) SiO2 
 PCOD8205680
Probable space group: P B A N
;
_chemical_formula_sum "Si O2"
_cell_formula_units_Z 40
_cell_length_a 9.226251
_cell_length_b 23.756340
_cell_length_c 7.989635
_cell_angle_alpha 90.000000
_cell_angle_beta 90.000000
_cell_angle_gamma 90.000000
_cell_volume 1751.183824
_symmetry_space_group_name_H-M "P B A N"
_symmetry_group_IT_number 50
_space_group.IT_coordinate_system_code '2'
_symmetry_cell_setting 'orthorhombic'
loop_
_space_group_symop_operation_xyz
x,y,z
1/2-x,1/2-y,z
x,1/2-y,-z
1/2-x,y,-z
-x,-y,-z
1/2+x,1/2+y,-z
-x,1/2+y,z
1/2+x,-y,z
loop_
_atom_site_type_symbol
_atom_site_label
_atom_site_fract_x
_atom_site_fract_y
_atom_site_fract_z
Si Si1 0.451194 0.931762 0.681378
Si Si2 0.114075 0.385021 0.618561
Si Si3 0.243070 0.019550 0.806077
Si Si4 0.337145 0.677831 0.170968
Si Si5 0.934571 0.218700 0.326627
O O1 0.486159 0.914195 0.490609
O O2 0.577922 0.970778 0.754836
O O3 0.436075 0.876156 0.795380
O O4 0.303984 0.968071 0.693382
O O5 0.250000 0.372635 0.500000
O O6 0.160369 0.425106 0.770837
O O7 0.061559 0.326723 0.700385
O O8 0.250000 0.003172 0.000000
O O9 0.219530 0.685862 0.320506
O O10 0.437555 0.734267 0.177510
O O11 0.250000 0.671292 0.000000
O O12 0.958878 0.250000 0.500000
#
# Coordination Sequence:
#
# PCOD8205680 Si02
#       5
#     8   8   8   8   8
#     4  11  24  44  67  97 137 176 228 278 342 410
#     4  10  24  44  66  97 135 178 228 281 338 417
#     4  11  25  44  67 100 132 181 224 282 352 406
#     4  11  24  41  66 104 133 172 226 284 337 407
#     4  11  22  42  67  95 130 176 227 270 341 399
#
# _framework density 22.841688999999999
#
# number of rings (size 3 to 8) (size 9 to 14) (size 15 to 20)
#    0.000    1.200    2.000    4.200    5.600    0.400 
#    0.000    0.000    0.000    1.200    0.000    0.000 
#    0.000    0.000    0.000    0.000    0.000    0.000 
#
# Total GULP energy -495961.467221 kJ/mol
# GULP energy per Si atom -12399.036681 kJ/mol
# Density = 2.278970 g / cm^3
# Si number density = 22.841689 Si / 1000 Ang^3
#
#
#
# Elastic Constant Matrix: (Units=GPa)
#
#
# Indices 1 2 3 4 5 6 
#
# 1 83.4008 68.8703 21.3060 0.0000 0.0000 0.0000
# 2 68.8703 124.5307 11.7434 0.0000 0.0000 0.0000
# 3 21.3060 11.7434 60.5058 0.0000 0.0000 0.0000
# 4 0.0000 0.0000 0.0000 23.9387 0.0000 0.0000
# 5 0.0000 0.0000 0.0000 0.0000 27.1609 0.0000
# 6 0.0000 0.0000 0.0000 0.0000 0.0000 56.3414
#
#
#
# Elastic Compliance Matrix: (Units=1/GPa)
#
#
# Indices 1 2 3 4 5 6 
#
# 1 0.024027 -0.012723 -0.005991 0.000000 0.000000 0.000000
# 2 -0.012723 0.014917 0.001585 0.000000 0.000000 0.000000
# 3 -0.005991 0.001585 0.018329 0.000000 0.000000 0.000000
# 4 0.000000 0.000000 0.000000 0.041773 0.000000 0.000000
# 5 0.000000 0.000000 0.000000 0.000000 0.036818 0.000000
# 6 0.000000 0.000000 0.000000 0.000000 0.000000 0.017749
#
#
# Mechanical properties :
#
#
# Convention : Reuss Voigt Hill
#
# Bulk Modulus (GPa) = 43.45011 52.47519 47.96265
# Shear Modulus (GPa) = 25.56969 32.58937 29.07953
#
# Velocity S-wave (km/s) = 3.34942 3.78133 3.57191
# Velocity P-wave (km/s) = 5.83281 6.48752 6.16886
#
# Compressibility (1/GPa) = 0.02301490
#
# Stress axis : x y z
#
# Youngs Moduli (GPa) = 41.61951 67.03762 54.55694
#
# Poissons Ratio (x) = 0.85292 0.32687
# Poissons Ratio (y) = 0.52952 -0.08647
# Poissons Ratio (z) = 0.24936 -0.10625
#
# Static dielectric constant tensor:
#      x y z
#    x 4.138490 0.000000 0.000000 
#    y 0.000000 4.381450 0.000000 
#    z 0.000000 0.000000 3.924250 
# 
# 
# High freq. dielectric constant tensor:
#      x y z
#    x 1.889180 0.000000 0.000000 
#    y 0.000000 1.916930 0.000000 
#    z 0.000000 0.000000 1.888480 
# 
# From -- ./inp_files/9493.got.cif
#   From: 2010.03.12/outbox.cif.g09.slc.cpg/sg50_5_cif.got.tgz:9493.got - 2010.04.16 13:23:21.
