data_PCOD8205786
_publ_section_title
;
Structure prediction by ZEFSAII (Michael W. Deem and Ramdas Pophale) SiO2 
 PCOD8205786
Probable space group: P B A N
;
_chemical_formula_sum "Si O2"
_cell_formula_units_Z 48
_cell_length_a 8.595012
_cell_length_b 18.178344
_cell_length_c 13.909636
_cell_angle_alpha 90.000000
_cell_angle_beta 90.000000
_cell_angle_gamma 90.000000
_cell_volume 2173.284437
_symmetry_space_group_name_H-M "P B A N"
_symmetry_group_IT_number 50
_space_group.IT_coordinate_system_code '2'
_symmetry_cell_setting 'orthorhombic'
loop_
_space_group_symop_operation_xyz
x,y,z
1/2-x,1/2-y,z
x,1/2-y,-z
1/2-x,y,-z
-x,-y,-z
1/2+x,1/2+y,-z
-x,1/2+y,z
1/2+x,-y,z
loop_
_atom_site_type_symbol
_atom_site_label
_atom_site_fract_x
_atom_site_fract_y
_atom_site_fract_z
Si Si1 0.662335 0.416921 0.600099
Si Si2 0.573936 0.335071 0.021674
Si Si3 0.085519 0.387279 0.154347
Si Si4 0.584820 0.653198 0.781361
Si Si5 0.589541 0.284897 0.714204
Si Si6 0.557682 0.015665 0.704961
O O1 0.750000 0.427408 0.500000
O O2 0.612215 0.331055 0.614570
O O3 0.782329 0.443305 0.681302
O O4 0.505842 0.465836 0.615526
O O5 0.454703 0.385908 0.958980
O O6 0.541646 0.250000 0.000000
O O7 0.750000 0.358804 0.000000
O O8 0.539812 0.349065 0.132949
O O9 0.241978 0.341316 0.176800
O O10 0.089018 0.469240 0.197699
O O11 0.945216 0.343559 0.203461
O O12 0.544183 0.721751 0.709720
O O13 0.572821 0.577694 0.722120
O O14 0.750000 0.250000 0.746447
#
# Coordination Sequence:
#
# PCOD8205786 Si02
#       6
#     8   8   8   8   8   8
#     4  11  24  45  71  97 130 175 227 278 348 419
#     4  11  24  38  64  96 134 180 229 274 326 403
#     4  11  24  41  65  98 132 180 225 268 332 400
#     4  12  23  41  66  95 140 175 225 277 336 394
#     4  11  22  39  67  96 130 173 220 274 338 397
#     4  11  24  43  69  96 133 177 221 280 343 408
#
# _framework density 22.086387999999999
#
# number of rings (size 3 to 8) (size 9 to 14) (size 15 to 20)
#    0.000    0.833    5.000    2.500    2.333    1.667 
#    0.000    0.000    0.000    0.000    4.333    0.000 
#    0.000    0.000    0.000    0.000    0.000    0.000 
#
# Total GULP energy -595136.496323 kJ/mol
# GULP energy per Si atom -12398.677007 kJ/mol
# Density = 2.203612 g / cm^3
# Si number density = 22.086388 Si / 1000 Ang^3
#
#
#
# Elastic Constant Matrix: (Units=GPa)
#
#
# Indices 1 2 3 4 5 6 
#
# 1 100.7956 35.3970 15.5568 0.0000 0.0000 0.0000
# 2 35.3970 125.0378 44.7449 0.0000 0.0000 0.0000
# 3 15.5568 44.7449 74.8241 0.0000 0.0000 0.0000
# 4 0.0000 0.0000 0.0000 23.7215 0.0000 0.0000
# 5 0.0000 0.0000 0.0000 0.0000 30.6600 0.0000
# 6 0.0000 0.0000 0.0000 0.0000 0.0000 27.6598
#
#
#
# Elastic Compliance Matrix: (Units=1/GPa)
#
#
# Indices 1 2 3 4 5 6 
#
# 1 0.011033 -0.002929 -0.000542 0.000000 0.000000 0.000000
# 2 -0.002929 0.010953 -0.005941 0.000000 0.000000 0.000000
# 3 -0.000542 -0.005941 0.017030 0.000000 0.000000 0.000000
# 4 0.000000 0.000000 0.000000 0.042156 0.000000 0.000000
# 5 0.000000 0.000000 0.000000 0.000000 0.032616 0.000000
# 6 0.000000 0.000000 0.000000 0.000000 0.000000 0.036154
#
#
# Mechanical properties :
#
#
# Convention : Reuss Voigt Hill
#
# Bulk Modulus (GPa) = 49.52566 54.67277 52.09921
# Shear Modulus (GPa) = 28.49058 30.07219 29.28139
#
# Velocity S-wave (km/s) = 3.59550 3.69395 3.64506
# Velocity P-wave (km/s) = 6.30152 6.55755 6.43081
#
# Compressibility (1/GPa) = 0.02019155
#
# Stress axis : x y z
#
# Youngs Moduli (GPa) = 90.63309 91.30113 58.72013
#
# Poissons Ratio (x) = 0.26746 0.03184
# Poissons Ratio (y) = 0.26551 0.34884
# Poissons Ratio (z) = 0.04914 0.54239
#
# Static dielectric constant tensor:
#      x y z
#    x 3.975340 0.000000 0.000000 
#    y 0.000000 4.215580 0.000000 
#    z 0.000000 0.000000 3.739330 
# 
# 
# High freq. dielectric constant tensor:
#      x y z
#    x 1.878880 0.000000 0.000000 
#    y 0.000000 1.875180 0.000000 
#    z 0.000000 0.000000 1.836310 
# 
# From -- ./inp_files/24976.got.cif
#   From: 2010.03.12/outbox.cif.g09.slc.cpg/sg50_13_cif.got.tgz:24976.got - 2010.04.16 13:23:21.
