data_PCOD8205868
_publ_section_title
;
Structure prediction by ZEFSAII (Michael W. Deem and Ramdas Pophale) SiO2 
 PCOD8205868
Probable space group: P B A N
;
_chemical_formula_sum "Si O2"
_cell_formula_units_Z 34
_cell_length_a 10.653495
_cell_length_b 9.060927
_cell_length_c 14.958622
_cell_angle_alpha 90.000000
_cell_angle_beta 90.000000
_cell_angle_gamma 90.000000
_cell_volume 1443.963867
_symmetry_space_group_name_H-M "P B A N"
_symmetry_group_IT_number 50
_space_group.IT_coordinate_system_code '2'
_symmetry_cell_setting 'orthorhombic'
loop_
_space_group_symop_operation_xyz
x,y,z
1/2-x,1/2-y,z
x,1/2-y,-z
1/2-x,y,-z
-x,-y,-z
1/2+x,1/2+y,-z
-x,1/2+y,z
1/2+x,-y,z
loop_
_atom_site_type_symbol
_atom_site_label
_atom_site_fract_x
_atom_site_fract_y
_atom_site_fract_z
Si Si1 0.250000 0.250000 0.500000
Si Si2 0.118992 0.688728 0.900192
Si Si3 0.134590 0.348858 0.849437
Si Si4 0.897890 0.910730 0.654145
Si Si5 0.894771 0.229950 0.600034
O O1 0.172434 0.144636 0.434546
O O2 0.250000 0.750000 0.856195
O O3 0.119263 0.508426 0.898448
O O4 0.994668 0.754791 0.852789
O O5 0.113244 0.750000 0.000000
O O6 0.250000 0.250000 0.890206
O O7 0.174180 0.380273 0.746329
O O8 0.036951 0.845414 0.663160
O O9 0.932366 0.078094 0.642685
O O10 0.750000 0.250000 0.605017
O O11 0.946525 0.250000 0.500000
#
# Coordination Sequence:
#
# PCOD8205868 Si02
#       5
#     2   8   8   8   8
#     4  12  24  44  68  96 150 196 246 290 352 416
#     4  11  26  50  77 110 149 191 239 302 384 456
#     4  12  26  46  75 114 148 195 243 306 366 443
#     4  12  26  43  69  99 145 191 244 299 358 416
#     4  11  25  42  64  93 130 186 248 300 359 414
#
# _framework density 23.546295000000001
#
# number of rings (size 3 to 8) (size 9 to 14) (size 15 to 20)
#    0.000    0.471    2.353    5.647    3.294    8.000 
#    0.000    0.000    0.000    0.000    0.000    0.000 
#    0.000    0.000    0.000    0.000    0.000    0.000 
#
# Total GULP energy -421325.679488 kJ/mol
# GULP energy per Si atom -12391.931750 kJ/mol
# Density = 2.349270 g / cm^3
# Si number density = 23.546295 Si / 1000 Ang^3
#
#
#
# Elastic Constant Matrix: (Units=GPa)
#
#
# Indices 1 2 3 4 5 6 
#
# 1 116.4682 51.3764 19.5929 0.0000 0.0000 0.0000
# 2 51.3764 188.8977 36.5276 0.0000 0.0000 0.0000
# 3 19.5929 36.5276 110.5114 0.0000 0.0000 0.0000
# 4 0.0000 0.0000 0.0000 47.3460 0.0000 0.0000
# 5 0.0000 0.0000 0.0000 0.0000 37.3368 0.0000
# 6 0.0000 0.0000 0.0000 0.0000 0.0000 38.6187
#
#
#
# Elastic Compliance Matrix: (Units=1/GPa)
#
#
# Indices 1 2 3 4 5 6 
#
# 1 0.009843 -0.002499 -0.000919 0.000000 0.000000 0.000000
# 2 -0.002499 0.006290 -0.001636 0.000000 0.000000 0.000000
# 3 -0.000919 -0.001636 0.009752 0.000000 0.000000 0.000000
# 4 0.000000 0.000000 0.000000 0.021121 0.000000 0.000000
# 5 0.000000 0.000000 0.000000 0.000000 0.026783 0.000000
# 6 0.000000 0.000000 0.000000 0.000000 0.000000 0.025894
#
#
# Mechanical properties :
#
#
# Convention : Reuss Voigt Hill
#
# Bulk Modulus (GPa) = 63.38339 70.09679 66.74009
# Shear Modulus (GPa) = 43.45865 45.21899 44.33882
#
# Velocity S-wave (km/s) = 4.30078 4.38702 4.34412
# Velocity P-wave (km/s) = 7.18606 7.44954 7.31899
#
# Compressibility (1/GPa) = 0.01577700
#
# Stress axis : x y z
#
# Youngs Moduli (GPa) = 101.59316 158.98229 102.53788
#
# Poissons Ratio (x) = 0.39737 0.09423
# Poissons Ratio (y) = 0.25393 0.16774
# Poissons Ratio (z) = 0.09336 0.26008
#
# Static dielectric constant tensor:
#      x y z
#    x 4.396620 0.000000 0.000000 
#    y 0.000000 4.416320 0.000000 
#    z 0.000000 0.000000 4.260910 
# 
# 
# High freq. dielectric constant tensor:
#      x y z
#    x 1.946600 0.000000 0.000000 
#    y 0.000000 1.947980 0.000000 
#    z 0.000000 0.000000 1.930490 
# 
# From -- ./inp_files/25676.got.cif
#   From: 2010.03.12/outbox.cif.g09.slc.cpg/sg50_13_cif.got.tgz:25676.got - 2010.04.16 13:23:21.
