data_PCOD8205417
_publ_section_title
;
Structure prediction by ZEFSAII (Michael W. Deem and Ramdas Pophale) SiO2 
 PCOD8205417
Probable space group: P B A N
;
_chemical_formula_sum "Si O2"
_cell_formula_units_Z 64
_cell_length_a 29.678773
_cell_length_b 8.477938
_cell_length_c 12.088319
_cell_angle_alpha 90.000000
_cell_angle_beta 90.000000
_cell_angle_gamma 90.000000
_cell_volume 3041.599936
_symmetry_space_group_name_H-M "P B A N"
_symmetry_group_IT_number 50
_space_group.IT_coordinate_system_code '2'
_symmetry_cell_setting 'orthorhombic'
loop_
_space_group_symop_operation_xyz
x,y,z
1/2-x,1/2-y,z
x,1/2-y,-z
1/2-x,y,-z
-x,-y,-z
1/2+x,1/2+y,-z
-x,1/2+y,z
1/2+x,-y,z
loop_
_atom_site_type_symbol
_atom_site_label
_atom_site_fract_x
_atom_site_fract_y
_atom_site_fract_z
Si Si1 0.711326 0.362898 0.209465
Si Si2 0.388980 0.084371 0.873756
Si Si3 0.029684 0.129982 0.279305
Si Si4 0.654646 0.399473 0.685907
Si Si5 0.570228 0.086214 0.464696
Si Si6 0.633132 0.559553 0.118940
Si Si7 0.237695 0.431205 0.618226
Si Si8 0.560870 0.980422 0.701266
O O1 0.750000 0.250000 0.152021
O O2 0.682076 0.260069 0.294751
O O3 0.680440 0.462228 0.122866
O O4 0.735504 0.492519 0.282214
O O5 0.440141 0.087254 0.827879
O O6 0.362560 0.251796 0.862258
O O7 0.362459 0.953937 0.805447
O O8 0.390062 0.028974 0.000569
O O9 0.037706 0.311649 0.300502
O O10 0.040279 0.024660 0.387366
O O11 0.976678 0.106477 0.258607
O O12 0.615288 0.364466 0.599549
O O13 0.684604 0.540648 0.635570
O O14 0.544918 0.250000 0.500000
O O15 0.581279 0.998943 0.579016
O O16 0.601387 0.491752 0.214300
O O17 0.250000 0.250000 0.618449
O O18 0.250000 0.507804 0.500000
#
# Coordination Sequence:
#
# PCOD8205417 Si02
#       8
#     8   8   8   8   8   8   8   8
#     4  10  22  39  61  89 122 156 199 254 304 358
#     4   9  21  42  63  86 121 159 204 251 299 359
#     4  10  22  40  58  88 123 157 199 248 301 361
#     4  10  22  38  58  87 120 155 196 249 305 362
#     4  11  22  36  58  85 119 160 198 245 300 363
#     4  10  21  40  65  88 116 161 206 250 298 364
#     4  10  22  38  58  85 119 158 197 244 297 366
#     4  11  22  37  61  88 120 157 201 245 302 361
#
# _framework density 21.041558999999999
#
# number of rings (size 3 to 8) (size 9 to 14) (size 15 to 20)
#    0.000    1.875    0.000    3.000    3.500    3.750 
#    4.500    4.375    0.000    6.750    0.000    0.000 
#    0.000    0.000    0.000    0.000    0.000    0.000 
#
# Total GULP energy -793383.266529 kJ/mol
# GULP energy per Si atom -12396.613540 kJ/mol
# Density = 2.099367 g / cm^3
# Si number density = 21.041559 Si / 1000 Ang^3
#
#
#
# Elastic Constant Matrix: (Units=GPa)
#
#
# Indices 1 2 3 4 5 6 
#
# 1 71.9641 18.3725 29.6261 0.0000 0.0000 0.0000
# 2 18.3725 65.7995 24.3322 0.0000 0.0000 0.0000
# 3 29.6261 24.3322 134.5317 0.0000 0.0000 0.0000
# 4 0.0000 0.0000 0.0000 22.6663 0.0000 0.0000
# 5 0.0000 0.0000 0.0000 0.0000 17.5627 0.0000
# 6 0.0000 0.0000 0.0000 0.0000 0.0000 33.0173
#
#
#
# Elastic Compliance Matrix: (Units=1/GPa)
#
#
# Indices 1 2 3 4 5 6 
#
# 1 0.015954 -0.003382 -0.002902 0.000000 0.000000 0.000000
# 2 -0.003382 0.017004 -0.002331 0.000000 0.000000 0.000000
# 3 -0.002902 -0.002331 0.008494 0.000000 0.000000 0.000000
# 4 0.000000 0.000000 0.000000 0.044118 0.000000 0.000000
# 5 0.000000 0.000000 0.000000 0.000000 0.056939 0.000000
# 6 0.000000 0.000000 0.000000 0.000000 0.000000 0.030287
#
#
# Mechanical properties :
#
#
# Convention : Reuss Voigt Hill
#
# Bulk Modulus (GPa) = 41.28259 46.32855 43.80557
# Shear Modulus (GPa) = 25.24004 27.98022 26.61013
#
# Velocity S-wave (km/s) = 3.46718 3.65054 3.56004
# Velocity P-wave (km/s) = 5.97416 6.31142 6.14511
#
# Compressibility (1/GPa) = 0.02422329
#
# Stress axis : x y z
#
# Youngs Moduli (GPa) = 62.68146 58.81051 117.73393
#
# Poissons Ratio (x) = 0.19887 0.34162
# Poissons Ratio (y) = 0.21196 0.27440
# Poissons Ratio (z) = 0.18188 0.13707
#
# Static dielectric constant tensor:
#      x y z
#    x 3.931920 0.000000 0.000000 
#    y 0.000000 3.931120 0.000000 
#    z 0.000000 0.000000 3.777770 
# 
# 
# High freq. dielectric constant tensor:
#      x y z
#    x 1.823050 0.000000 0.000000 
#    y 0.000000 1.835400 0.000000 
#    z 0.000000 0.000000 1.819470 
# 
# From -- ./inp_files/23407.got.cif
#   From: 2010.03.12/outbox.cif.g09.slc.cpg/sg50_12_cif.got.tgz:23407.got - 2010.04.16 13:23:21.
