data_PCOD8205669
_publ_section_title
;
Structure prediction by ZEFSAII (Michael W. Deem and Ramdas Pophale) SiO2 
 PCOD8205669
Probable space group: P B A N
;
_chemical_formula_sum "Si O2"
_cell_formula_units_Z 48
_cell_length_a 9.187095
_cell_length_b 14.906717
_cell_length_c 16.191052
_cell_angle_alpha 90.000000
_cell_angle_beta 90.000000
_cell_angle_gamma 90.000000
_cell_volume 2217.355265
_symmetry_space_group_name_H-M "P B A N"
_symmetry_group_IT_number 50
_space_group.IT_coordinate_system_code '2'
_symmetry_cell_setting 'orthorhombic'
loop_
_space_group_symop_operation_xyz
x,y,z
1/2-x,1/2-y,z
x,1/2-y,-z
1/2-x,y,-z
-x,-y,-z
1/2+x,1/2+y,-z
-x,1/2+y,z
1/2+x,-y,z
loop_
_atom_site_type_symbol
_atom_site_label
_atom_site_fract_x
_atom_site_fract_y
_atom_site_fract_z
Si Si1 0.012159 0.426791 0.151988
Si Si2 0.682222 0.572992 0.911131
Si Si3 0.250000 0.250000 0.310284
Si Si4 0.898747 0.422334 0.332555
Si Si5 0.793616 0.925800 0.405558
Si Si6 0.014278 0.231378 0.176200
Si Si7 0.750000 0.250000 0.724820
O O1 0.925464 0.488013 0.086098
O O2 0.955148 0.451414 0.242572
O O3 0.984169 0.323295 0.125366
O O4 0.184701 0.447163 0.150728
O O5 0.591330 0.659126 0.881074
O O6 0.750000 0.594004 0.000000
O O7 0.275192 0.336538 0.366635
O O8 0.389406 0.234888 0.253146
O O9 0.771635 0.488689 0.359277
O O10 0.831943 0.322114 0.332008
O O11 0.031408 0.426037 0.397417
O O12 0.750000 0.929504 0.500000
O O13 0.863024 0.196251 0.215180
#
# Coordination Sequence:
#
# PCOD8205669 Si02
#       7
#     8   8   4   8   8   8   4
#     4  11  23  44  69 101 134 185 242 274 346 429
#     4  12  26  44  69 105 144 182 227 301 356 408
#     4  12  21  46  67  98 132 188 238 286 341 438
#     4  11  24  45  70 100 135 187 234 288 344 432
#     4  12  26  43  68 104 141 180 233 298 362 411
#     4  11  23  43  72  98 133 187 241 282 348 424
#     4  10  24  42  71 105 130 178 254 286 328 418
#
# _framework density 21.647411000000002
#
# number of rings (size 3 to 8) (size 9 to 14) (size 15 to 20)
#    0.000    0.667    5.000    3.250    9.333    1.333 
#    0.000    0.417    0.000    0.000    0.000    0.000 
#    0.000    0.000    0.000    0.000    0.000    0.000 
#
# Total GULP energy -595351.455113 kJ/mol
# GULP energy per Si atom -12403.155315 kJ/mol
# Density = 2.159814 g / cm^3
# Si number density = 21.647411 Si / 1000 Ang^3
#
#
#
# Elastic Constant Matrix: (Units=GPa)
#
#
# Indices 1 2 3 4 5 6 
#
# 1 151.2571 72.7337 53.3339 0.0000 0.0000 0.0000
# 2 72.7337 164.2366 60.6495 0.0000 0.0000 0.0000
# 3 53.3339 60.6495 111.3776 0.0000 0.0000 0.0000
# 4 0.0000 0.0000 0.0000 13.6655 0.0000 0.0000
# 5 0.0000 0.0000 0.0000 0.0000 25.2750 0.0000
# 6 0.0000 0.0000 0.0000 0.0000 0.0000 42.4276
#
#
#
# Elastic Compliance Matrix: (Units=1/GPa)
#
#
# Indices 1 2 3 4 5 6 
#
# 1 0.008995 -0.002995 -0.002676 0.000000 0.000000 0.000000
# 2 -0.002995 0.008619 -0.003259 0.000000 0.000000 0.000000
# 3 -0.002676 -0.003259 0.012035 0.000000 0.000000 0.000000
# 4 0.000000 0.000000 0.000000 0.073177 0.000000 0.000000
# 5 0.000000 0.000000 0.000000 0.000000 0.039565 0.000000
# 6 0.000000 0.000000 0.000000 0.000000 0.000000 0.023570
#
#
# Mechanical properties :
#
#
# Convention : Reuss Voigt Hill
#
# Bulk Modulus (GPa) = 84.83582 88.92284 86.87933
# Shear Modulus (GPa) = 26.63107 32.28390 29.45749
#
# Velocity S-wave (km/s) = 3.51125 3.86599 3.69288
# Velocity P-wave (km/s) = 7.46414 7.81632 7.64226
#
# Compressibility (1/GPa) = 0.01178747
#
# Stress axis : x y z
#
# Youngs Moduli (GPa) = 111.16914 116.02635 83.09323
#
# Poissons Ratio (x) = 0.34754 0.22239
# Poissons Ratio (y) = 0.33299 0.27079
# Poissons Ratio (z) = 0.29753 0.37812
#
# Static dielectric constant tensor:
#      x y z
#    x 4.299970 0.000000 0.000000 
#    y 0.000000 3.928030 0.000000 
#    z 0.000000 0.000000 3.654430 
# 
# 
# High freq. dielectric constant tensor:
#      x y z
#    x 1.871210 0.000000 0.000000 
#    y 0.000000 1.858890 0.000000 
#    z 0.000000 0.000000 1.828800 
# 
# From -- ./inp_files/28761.got.cif
#   From: 2010.03.12/outbox.cif.g09.slc.cpg/sg50_15_cif.got.tgz:28761.got - 2010.04.16 13:23:21.
