data_PCOD8205318
_publ_section_title
;
Structure prediction by ZEFSAII (Michael W. Deem and Ramdas Pophale) SiO2 
 PCOD8205318
Probable space group: P B A N
;
_chemical_formula_sum "Si O2"
_cell_formula_units_Z 40
_cell_length_a 4.885750
_cell_length_b 32.577380
_cell_length_c 11.866034
_cell_angle_alpha 90.000000
_cell_angle_beta 90.000000
_cell_angle_gamma 90.000000
_cell_volume 1888.656522
_symmetry_space_group_name_H-M "P B A N"
_symmetry_group_IT_number 50
_space_group.IT_coordinate_system_code '2'
_symmetry_cell_setting 'orthorhombic'
loop_
_space_group_symop_operation_xyz
x,y,z
1/2-x,1/2-y,z
x,1/2-y,-z
1/2-x,y,-z
-x,-y,-z
1/2+x,1/2+y,-z
-x,1/2+y,z
1/2+x,-y,z
loop_
_atom_site_type_symbol
_atom_site_label
_atom_site_fract_x
_atom_site_fract_y
_atom_site_fract_z
Si Si1 0.013379 0.222221 0.703677
Si Si2 0.987859 0.176283 0.923969
Si Si3 0.214926 0.611062 0.239697
Si Si4 0.254300 0.526205 0.868658
Si Si5 0.318844 0.136269 0.372957
O O1 0.250000 0.250000 0.655145
O O2 0.025139 0.180215 0.632721
O O3 0.750000 0.250000 0.683408
O O4 0.066951 0.211339 0.834757
O O5 0.855217 0.137171 0.860541
O O6 0.750000 0.195588 0.000000
O O7 0.250000 0.163239 0.000000
O O8 0.138436 0.566279 0.195845
O O9 0.447744 0.604335 0.334631
O O10 0.945845 0.633950 0.290138
O O11 0.452036 0.488486 0.835365
O O12 0.250000 0.536831 0.000000
O O13 0.250000 0.125043 0.500000
#
# Coordination Sequence:
#
# PCOD8205318 Si02
#       5
#     8   8   8   8   8
#     4  11  23  39  57  84 116 148 194 248 302 361
#     4  11  22  36  57  84 117 159 198 236 293 364
#     4  11  22  40  64  89 123 159 205 257 299 367
#     4  10  21  36  60  95 130 163 195 237 301 366
#     4  11  24  43  65  87 114 159 212 262 317 362
#
# _framework density 21.179075999999998
#
# number of rings (size 3 to 8) (size 9 to 14) (size 15 to 20)
#    0.000    1.200    0.000    8.400    0.000    5.200 
#    0.000    3.000    0.000   12.000    0.000    0.000 
#    0.000    0.000    0.000    0.000    0.000    0.000 
#
# Total GULP energy -495799.965045 kJ/mol
# GULP energy per Si atom -12394.999126 kJ/mol
# Density = 2.113087 g / cm^3
# Si number density = 21.179076 Si / 1000 Ang^3
#
#
#
# Elastic Constant Matrix: (Units=GPa)
#
#
# Indices 1 2 3 4 5 6 
#
# 1 140.2325 40.6546 30.6633 0.0000 0.0000 0.0000
# 2 40.6546 97.7315 24.2127 0.0000 0.0000 0.0000
# 3 30.6633 24.2127 59.5466 0.0000 0.0000 0.0000
# 4 0.0000 0.0000 0.0000 14.9600 0.0000 0.0000
# 5 0.0000 0.0000 0.0000 0.0000 33.7755 0.0000
# 6 0.0000 0.0000 0.0000 0.0000 0.0000 17.4172
#
#
#
# Elastic Compliance Matrix: (Units=1/GPa)
#
#
# Indices 1 2 3 4 5 6 
#
# 1 0.008665 -0.002779 -0.003332 0.000000 0.000000 0.000000
# 2 -0.002779 0.012270 -0.003558 0.000000 0.000000 0.000000
# 3 -0.003332 -0.003558 0.019956 0.000000 0.000000 0.000000
# 4 0.000000 0.000000 0.000000 0.066845 0.000000 0.000000
# 5 0.000000 0.000000 0.000000 0.000000 0.029607 0.000000
# 6 0.000000 0.000000 0.000000 0.000000 0.000000 0.057415
#
#
# Mechanical properties :
#
#
# Convention : Reuss Voigt Hill
#
# Bulk Modulus (GPa) = 46.39783 54.28575 50.34179
# Shear Modulus (GPa) = 22.59574 26.69586 24.64580
#
# Velocity S-wave (km/s) = 3.26987 3.55418 3.41499
# Velocity P-wave (km/s) = 6.01756 6.52153 6.27461
#
# Compressibility (1/GPa) = 0.02155273
#
# Stress axis : x y z
#
# Youngs Moduli (GPa) = 115.40269 81.50195 50.10979
#
# Poissons Ratio (x) = 0.22650 0.16697
# Poissons Ratio (y) = 0.32071 0.17829
# Poissons Ratio (z) = 0.38454 0.28998
#
# Static dielectric constant tensor:
#      x y z
#    x 4.075770 0.000000 0.000000 
#    y 0.000000 3.548480 0.000000 
#    z 0.000000 0.000000 3.852160 
# 
# 
# High freq. dielectric constant tensor:
#      x y z
#    x 1.853670 0.000000 0.000000 
#    y 0.000000 1.813390 0.000000 
#    z 0.000000 0.000000 1.816480 
# 
# From -- ./inp_files/17994.got.cif
#   From: 2010.03.12/outbox.cif.g09.slc.cpg/sg50_9_cif.got.tgz:17994.got - 2010.04.16 13:23:21.
