data_PCOD8205817
_publ_section_title
;
Structure prediction by ZEFSAII (Michael W. Deem and Ramdas Pophale) SiO2 
 PCOD8205817
Probable space group: P B A N
;
_chemical_formula_sum "Si O2"
_cell_formula_units_Z 34
_cell_length_a 13.028436
_cell_length_b 15.420434
_cell_length_c 7.355353
_cell_angle_alpha 90.000000
_cell_angle_beta 90.000000
_cell_angle_gamma 90.000000
_cell_volume 1477.720850
_symmetry_space_group_name_H-M "P B A N"
_symmetry_group_IT_number 50
_space_group.IT_coordinate_system_code '2'
_symmetry_cell_setting 'orthorhombic'
loop_
_space_group_symop_operation_xyz
x,y,z
1/2-x,1/2-y,z
x,1/2-y,-z
1/2-x,y,-z
-x,-y,-z
1/2+x,1/2+y,-z
-x,1/2+y,z
1/2+x,-y,z
loop_
_atom_site_type_symbol
_atom_site_label
_atom_site_fract_x
_atom_site_fract_y
_atom_site_fract_z
Si Si1 0.750000 0.750000 0.000000
Si Si2 0.243622 0.846690 0.713810
Si Si3 0.901173 0.775937 0.306389
Si Si4 0.019574 0.605375 0.187380
Si Si5 0.957349 0.422547 0.221045
O O1 0.820550 0.696498 0.854438
O O2 0.250000 0.750000 0.797438
O O3 0.250000 0.842011 0.500000
O O4 0.140246 0.892514 0.775758
O O5 0.336745 0.904024 0.786989
O O6 0.848475 0.750000 0.500000
O O7 0.965471 0.693267 0.243504
O O8 0.980591 0.854467 0.348208
O O9 0.974722 0.520778 0.291840
O O10 0.995003 0.591794 0.976838
#
# Coordination Sequence:
#
# PCOD8205817 Si02
#       5
#     2   8   8   8   8
#     4  12  26  48  68  96 144 190 234 284 356 432
#     4  11  23  40  69 104 136 180 237 285 344 419
#     4  12  25  46  74 101 137 186 237 293 350 417
#     4  11  24  44  71 103 142 184 233 290 353 420
#     4  11  24  44  71 103 142 184 233 290 353 420
#
# _framework density 23.008406000000001
#
# number of rings (size 3 to 8) (size 9 to 14) (size 15 to 20)
#    0.000    0.706    4.706    2.471    0.000    6.588 
#    0.000    0.000    0.000    0.000    0.000    0.000 
#    0.000    0.000    0.000    0.000    0.000    0.000 
#
# Total GULP energy -421456.551085 kJ/mol
# GULP energy per Si atom -12395.780914 kJ/mol
# Density = 2.295604 g / cm^3
# Si number density = 23.008406 Si / 1000 Ang^3
#
#
#
# Elastic Constant Matrix: (Units=GPa)
#
#
# Indices 1 2 3 4 5 6 
#
# 1 149.6207 65.2538 10.4525 0.0000 0.0000 0.0000
# 2 65.2538 168.7581 -4.7652 0.0000 0.0000 0.0000
# 3 10.4525 -4.7652 84.0768 0.0000 0.0000 0.0000
# 4 0.0000 0.0000 0.0000 16.1588 0.0000 0.0000
# 5 0.0000 0.0000 0.0000 0.0000 48.0283 0.0000
# 6 0.0000 0.0000 0.0000 0.0000 0.0000 39.3337
#
#
#
# Elastic Compliance Matrix: (Units=1/GPa)
#
#
# Indices 1 2 3 4 5 6 
#
# 1 0.008157 -0.003188 -0.001195 0.000000 0.000000 0.000000
# 2 -0.003188 0.007181 0.000803 0.000000 0.000000 0.000000
# 3 -0.001195 0.000803 0.012088 0.000000 0.000000 0.000000
# 4 0.000000 0.000000 0.000000 0.061886 0.000000 0.000000
# 5 0.000000 0.000000 0.000000 0.000000 0.020821 0.000000
# 6 0.000000 0.000000 0.000000 0.000000 0.000000 0.025423
#
#
# Mechanical properties :
#
#
# Convention : Reuss Voigt Hill
#
# Bulk Modulus (GPa) = 49.34014 60.48197 54.91106
# Shear Modulus (GPa) = 33.45119 42.80512 38.12816
#
# Velocity S-wave (km/s) = 3.81710 4.31793 4.07522
# Velocity P-wave (km/s) = 6.39671 7.15565 6.78680
#
# Compressibility (1/GPa) = 0.02026747
#
# Stress axis : x y z
#
# Youngs Moduli (GPa) = 122.58806 139.25603 82.72691
#
# Poissons Ratio (x) = 0.44394 0.09884
# Poissons Ratio (y) = 0.39081 -0.06646
# Poissons Ratio (z) = 0.14647 -0.11187
#
# Static dielectric constant tensor:
#      x y z
#    x 2.607790 0.000000 0.000000 
#    y 0.000000 4.308590 0.000000 
#    z 0.000000 0.000000 4.335440 
# 
# 
# High freq. dielectric constant tensor:
#      x y z
#    x 1.910880 0.000000 0.000000 
#    y 0.000000 1.898880 0.000000 
#    z 0.000000 0.000000 1.921170 
# 
# From -- ./inp_files/10724.got.cif
#   From: 2010.03.12/outbox.cif.g09.slc.cpg/sg50_6_cif.got.tgz:10724.got - 2010.04.16 13:23:21.
