data_PCOD8205968
_publ_section_title
;
Structure prediction by ZEFSAII (Michael W. Deem and Ramdas Pophale) SiO2 
 PCOD8205968
Probable space group: P M M A
;
_chemical_formula_sum "Si O2"
_cell_formula_units_Z 48
_cell_length_a 8.716483
_cell_length_b 20.830336
_cell_length_c 19.674700
_cell_angle_alpha 90.000000
_cell_angle_beta 90.000000
_cell_angle_gamma 90.000000
_cell_volume 3572.281560
_symmetry_space_group_name_H-M "P M M A"
_symmetry_group_IT_number 51
_symmetry_cell_setting 'orthorhombic'
loop_
_space_group_symop_operation_xyz
x,y,z
1/2-x,-y,z
1/2+x,-y,-z
-x,y,-z
-x,-y,-z
1/2+x,y,-z
1/2-x,y,z
x,-y,z
loop_
_atom_site_type_symbol
_atom_site_label
_atom_site_fract_x
_atom_site_fract_y
_atom_site_fract_z
Si Si1 0.430579 0.126347 0.847396
Si Si2 0.067164 0.500000 0.075800
Si Si3 0.431387 0.757731 0.074337
Si Si4 0.430506 0.000000 0.926249
Si Si5 0.429857 0.072254 0.704619
Si Si6 0.923283 0.076309 0.567794
Si Si7 0.432875 0.372110 0.924613
O O1 0.250000 0.139258 0.858324
O O2 0.529870 0.184822 0.875081
O O3 0.485748 0.062772 0.886372
O O4 0.471856 0.117326 0.768155
O O5 0.250000 0.500000 0.075011
O O6 0.002406 0.564442 0.112758
O O7 0.000000 0.500000 0.000000
O O8 0.250000 0.748778 0.067276
O O9 0.506498 0.693930 0.108660
O O10 0.500000 0.772659 0.000000
O O11 0.250000 0.000000 0.932195
O O12 0.500000 0.000000 0.000000
O O13 0.250000 0.068324 0.694608
O O14 0.499610 0.103452 0.636367
O O15 0.493905 0.000000 0.717274
O O16 0.750000 0.099554 0.567580
O O17 0.000000 0.105467 0.500000
O O18 0.940901 0.000000 0.567301
O O19 0.250000 0.375128 0.924410
O O20 0.500000 0.370563 0.000000
#
# Coordination Sequence:
#
# PCOD8205968 Si02
#       7
#     8   4   8   4   8   8   8
#     4  10  19  32  45  57  73  95 123 157 198 241
#     4  10  16  24  38  58  80  98 116 142 177 220
#     4  11  21  32  43  56  73  96 125 160 199 237
#     4  10  20  32  44  56  69  88 119 158 201 242
#     4   9  16  28  44  58  74  96 119 149 189 231
#     4   9  16  25  38  57  78  97 117 142 174 218
#     4  10  17  27  41  57  75  96 120 148 183 225
#
# _framework density 13.43679
#
# number of rings (size 3 to 8) (size 9 to 14) (size 15 to 20)
#    0.000    2.167    0.833    6.750    0.000    4.667 
#    0.000    0.000    0.000    0.000    0.000    0.000 
#    0.000    0.000    0.000    0.000    0.000    0.000 
#
# Total GULP energy -594984.160770 kJ/mol
# GULP energy per Si atom -12395.503349 kJ/mol
# Density = 1.340621 g / cm^3
# Si number density = 13.436790 Si / 1000 Ang^3
#
#
#
# Elastic Constant Matrix: (Units=GPa)
#
#
# Indices 1 2 3 4 5 6 
#
# 1 89.2221 40.0594 35.9521 0.0000 0.0000 0.0000
# 2 40.0594 92.2888 32.1124 0.0000 0.0000 0.0000
# 3 35.9521 32.1124 83.0583 0.0000 0.0000 0.0000
# 4 0.0000 0.0000 0.0000 0.9521 0.0000 0.0000
# 5 0.0000 0.0000 0.0000 0.0000 19.9218 0.0000
# 6 0.0000 0.0000 0.0000 0.0000 0.0000 20.7407
#
#
#
# Elastic Compliance Matrix: (Units=1/GPa)
#
#
# Indices 1 2 3 4 5 6 
#
# 1 0.015363 -0.005031 -0.004705 0.000000 0.000000 0.000000
# 2 -0.005031 0.014168 -0.003300 0.000000 0.000000 0.000000
# 3 -0.004705 -0.003300 0.015352 0.000000 0.000000 0.000000
# 4 0.000000 0.000000 0.000000 1.050317 0.000000 0.000000
# 5 0.000000 0.000000 0.000000 0.000000 0.050196 0.000000
# 6 0.000000 0.000000 0.000000 0.000000 0.000000 0.048214
#
#
# Mechanical properties :
#
#
# Convention : Reuss Voigt Hill
#
# Bulk Modulus (GPa) = 53.16067 53.42412 53.29239
# Shear Modulus (GPa) = 4.07847 18.75262 11.41554
#
# Velocity S-wave (km/s) = 1.74410 3.73985 2.91791
# Velocity P-wave (km/s) = 6.61100 7.64817 7.14842
#
# Compressibility (1/GPa) = 0.01881090
#
# Stress axis : x y z
#
# Youngs Moduli (GPa) = 65.09261 70.58320 65.13878
#
# Poissons Ratio (x) = 0.35514 0.30645
# Poissons Ratio (y) = 0.32751 0.21494
# Poissons Ratio (z) = 0.30623 0.23290
#
# Static dielectric constant tensor:
#      x y z
#    x 2.697110 0.000000 0.000000 
#    y 0.000000 3.186350 0.000000 
#    z 0.000000 0.000000 2.525430 
# 
# 
# High freq. dielectric constant tensor:
#      x y z
#    x 1.525530 0.000000 0.000000 
#    y 0.000000 1.489350 0.000000 
#    z 0.000000 0.000000 1.474050 
# 
# From -- ./inp_files/32484.got.cif
#   From: 2010.03.12/outbox.cif.g09.slc.cpg/sg51_17_cif.got.tgz:32484.got - 2010.04.16 13:43:02.
