data_PCOD8205105
_publ_section_title
;
Structure prediction by ZEFSAII (Michael W. Deem and Ramdas Pophale) SiO2 
 PCOD8205105
Probable space group: P B A N
;
_chemical_formula_sum "Si O2"
_cell_formula_units_Z 40
_cell_length_a 13.062146
_cell_length_b 11.215396
_cell_length_c 11.951817
_cell_angle_alpha 90.000000
_cell_angle_beta 90.000000
_cell_angle_gamma 90.000000
_cell_volume 1750.907008
_symmetry_space_group_name_H-M "P B A N"
_symmetry_group_IT_number 50
_space_group.IT_coordinate_system_code '2'
_symmetry_cell_setting 'orthorhombic'
loop_
_space_group_symop_operation_xyz
x,y,z
1/2-x,1/2-y,z
x,1/2-y,-z
1/2-x,y,-z
-x,-y,-z
1/2+x,1/2+y,-z
-x,1/2+y,z
1/2+x,-y,z
loop_
_atom_site_type_symbol
_atom_site_label
_atom_site_fract_x
_atom_site_fract_y
_atom_site_fract_z
Si Si1 0.861403 0.589732 0.495586
Si Si2 0.642517 0.501145 0.737037
Si Si3 0.004346 0.295648 0.313487
Si Si4 0.819855 0.362937 0.629914
Si Si5 0.135388 0.211675 0.116731
O O1 0.750000 0.650876 0.500000
O O2 0.892108 0.592308 0.364204
O O3 0.851571 0.447921 0.525430
O O4 0.942138 0.664595 0.569325
O O5 0.560842 0.399061 0.741484
O O6 0.757350 0.447014 0.717269
O O7 0.635375 0.569896 0.855438
O O8 0.928275 0.182587 0.323651
O O9 0.089905 0.279709 0.221387
O O10 0.750000 0.250000 0.592279
O O11 0.250000 0.250000 0.105285
O O12 0.079199 0.250000 0.000000
#
# Coordination Sequence:
#
# PCOD8205105 Si02
#       5
#     8   8   8   8   8
#     4  10  20  35  58  93 132 167 207 251 304 380
#     4  10  22  39  61  94 128 163 212 261 313 384
#     4  11  22  39  65  93 128 168 209 259 318 376
#     4   9  20  37  61  94 135 175 206 253 319 384
#     4  11  25  43  61  83 115 162 215 266 321 374
#
# _framework density 22.845302
#
# number of rings (size 3 to 8) (size 9 to 14) (size 15 to 20)
#    0.000    1.800    0.000    4.200    0.000   12.400 
#    0.000    6.000    0.000    4.200    0.000    0.000 
#    0.000    0.000    0.000    0.000    0.000    0.000 
#
# Total GULP energy -495615.477470 kJ/mol
# GULP energy per Si atom -12390.386937 kJ/mol
# Density = 2.279331 g / cm^3
# Si number density = 22.845302 Si / 1000 Ang^3
#
#
#
# Elastic Constant Matrix: (Units=GPa)
#
#
# Indices 1 2 3 4 5 6 
#
# 1 99.7814 35.1492 40.2807 0.0000 0.0000 0.0000
# 2 35.1492 116.5831 73.9785 0.0000 0.0000 0.0000
# 3 40.2807 73.9785 132.2022 0.0000 0.0000 0.0000
# 4 0.0000 0.0000 0.0000 24.5995 0.0000 0.0000
# 5 0.0000 0.0000 0.0000 0.0000 19.2192 0.0000
# 6 0.0000 0.0000 0.0000 0.0000 0.0000 22.6901
#
#
#
# Elastic Compliance Matrix: (Units=1/GPa)
#
#
# Indices 1 2 3 4 5 6 
#
# 1 0.011710 -0.001964 -0.002469 0.000000 0.000000 0.000000
# 2 -0.001964 0.013630 -0.007029 0.000000 0.000000 0.000000
# 3 -0.002469 -0.007029 0.012250 0.000000 0.000000 0.000000
# 4 0.000000 0.000000 0.000000 0.040651 0.000000 0.000000
# 5 0.000000 0.000000 0.000000 0.000000 0.052031 0.000000
# 6 0.000000 0.000000 0.000000 0.000000 0.000000 0.044072
#
#
# Mechanical properties :
#
#
# Convention : Reuss Voigt Hill
#
# Bulk Modulus (GPa) = 68.18221 71.93151 70.05686
# Shear Modulus (GPa) = 24.73332 26.57898 25.65615
#
# Velocity S-wave (km/s) = 3.29392 3.41461 3.35481
# Velocity P-wave (km/s) = 6.66157 6.86300 6.76304
#
# Compressibility (1/GPa) = 0.01466658
#
# Stress axis : x y z
#
# Youngs Moduli (GPa) = 85.39377 73.36903 81.63520
#
# Poissons Ratio (x) = 0.14409 0.20157
# Poissons Ratio (y) = 0.16770 0.57378
# Poissons Ratio (z) = 0.21085 0.51568
#
# Static dielectric constant tensor:
#      x y z
#    x 4.859280 0.000000 0.000000 
#    y 0.000000 4.789720 0.000000 
#    z 0.000000 0.000000 4.286610 
# 
# 
# High freq. dielectric constant tensor:
#      x y z
#    x 1.920160 0.000000 0.000000 
#    y 0.000000 1.928240 0.000000 
#    z 0.000000 0.000000 1.857090 
# 
# From -- ./inp_files/20908.got.cif
#   From: 2010.03.12/outbox.cif.g09.slc.cpg/sg50_11_cif.got.tgz:20908.got - 2010.04.16 13:23:21.
