data_PCOD8205730
_publ_section_title
;
Structure prediction by ZEFSAII (Michael W. Deem and Ramdas Pophale) SiO2 
 PCOD8205730
Probable space group: P B A N
;
_chemical_formula_sum "Si O2"
_cell_formula_units_Z 48
_cell_length_a 9.546782
_cell_length_b 14.962460
_cell_length_c 14.207833
_cell_angle_alpha 90.000000
_cell_angle_beta 90.000000
_cell_angle_gamma 90.000000
_cell_volume 2029.494374
_symmetry_space_group_name_H-M "P B A N"
_symmetry_group_IT_number 50
_space_group.IT_coordinate_system_code '2'
_symmetry_cell_setting 'orthorhombic'
loop_
_space_group_symop_operation_xyz
x,y,z
1/2-x,1/2-y,z
x,1/2-y,-z
1/2-x,y,-z
-x,-y,-z
1/2+x,1/2+y,-z
-x,1/2+y,z
1/2+x,-y,z
loop_
_atom_site_type_symbol
_atom_site_label
_atom_site_fract_x
_atom_site_fract_y
_atom_site_fract_z
Si Si1 0.321018 0.632255 0.344031
Si Si2 0.941053 0.016254 0.813023
Si Si3 0.202648 0.409338 0.101731
Si Si4 0.750000 0.750000 0.759755
Si Si5 0.511013 0.147323 0.679676
Si Si6 0.552656 0.842590 0.523694
Si Si7 0.250000 0.009991 0.500000
O O1 0.398675 0.600138 0.250713
O O2 0.174723 0.681862 0.315245
O O3 0.430865 0.692661 0.403816
O O4 0.311531 0.547924 0.415627
O O5 0.002139 0.934832 0.751573
O O6 0.806328 0.987837 0.870369
O O7 0.048899 0.047986 0.893404
O O8 0.202430 0.330736 0.176353
O O9 0.250000 0.372450 0.000000
O O10 0.612149 0.720945 0.699096
O O11 0.502854 0.111233 0.573019
O O12 0.632729 0.750000 0.500000
O O13 0.651932 0.921179 0.561879
#
# Coordination Sequence:
#
# PCOD8205730 Si02
#       7
#     8   8   8   4   8   8   4
#     4  12  23  42  67  97 144 191 246 291 352 402
#     4  11  23  41  73 106 133 179 234 299 350 434
#     4  11  24  47  74 105 135 175 228 297 374 442
#     4  10  27  44  73 102 140 182 228 291 373 442
#     4  11  23  43  64 102 141 185 244 287 349 426
#     4  12  27  38  63  96 142 196 244 293 342 412
#     4  12  23  42  65  96 138 200 250 294 335 418
#
# _framework density 23.651212000000001
#
# number of rings (size 3 to 8) (size 9 to 14) (size 15 to 20)
#    0.000    0.667    5.000    2.500    4.667    1.333 
#    0.000    0.000    0.000    0.000    4.333    0.000 
#    0.000    0.000    0.000    0.000    0.000    0.000 
#
# Total GULP energy -594713.479838 kJ/mol
# GULP energy per Si atom -12389.864163 kJ/mol
# Density = 2.359738 g / cm^3
# Si number density = 23.651212 Si / 1000 Ang^3
#
#
#
# Elastic Constant Matrix: (Units=GPa)
#
#
# Indices 1 2 3 4 5 6 
#
# 1 166.7675 44.8062 52.0957 0.0000 0.0000 0.0000
# 2 44.8062 52.3503 8.6938 0.0000 0.0000 0.0000
# 3 52.0957 8.6938 103.9173 0.0000 0.0000 0.0000
# 4 0.0000 0.0000 0.0000 341.1251 0.0000 0.0000
# 5 0.0000 0.0000 0.0000 0.0000 33.9308 0.0000
# 6 0.0000 0.0000 0.0000 0.0000 0.0000 38.1399
#
#
#
# Elastic Compliance Matrix: (Units=1/GPa)
#
#
# Indices 1 2 3 4 5 6 
#
# 1 0.009178 -0.007191 -0.003999 0.000000 0.000000 0.000000
# 2 -0.007191 0.025006 0.001513 0.000000 0.000000 0.000000
# 3 -0.003999 0.001513 0.011501 0.000000 0.000000 0.000000
# 4 0.000000 0.000000 0.000000 0.002931 0.000000 0.000000
# 5 0.000000 0.000000 0.000000 0.000000 0.029472 0.000000
# 6 0.000000 0.000000 0.000000 0.000000 0.000000 0.026219
#
#
# Mechanical properties :
#
#
# Convention : Reuss Voigt Hill
#
# Bulk Modulus (GPa) = 37.97953 59.35849 48.66901
# Shear Modulus (GPa) = 37.75333 97.13510 67.44421
#
# Velocity S-wave (km/s) = 3.99965 6.41553 5.34585
# Velocity P-wave (km/s) = 6.11740 8.94598 7.66333
#
# Compressibility (1/GPa) = 0.02632997
#
# Stress axis : x y z
#
# Youngs Moduli (GPa) = 108.95906 39.99113 86.94576
#
# Poissons Ratio (x) = 0.28758 0.34773
# Poissons Ratio (y) = 0.78352 -0.13155
# Poissons Ratio (z) = 0.43577 -0.06051
#
# Static dielectric constant tensor:
#      x y z
#    x 4.655530 0.000000 0.000000 
#    y 0.000000 4.142870 0.000000 
#    z 0.000000 0.000000 4.196700 
# 
# 
# High freq. dielectric constant tensor:
#      x y z
#    x 1.958680 0.000000 0.000000 
#    y 0.000000 1.948560 0.000000 
#    z 0.000000 0.000000 1.911390 
# 
# From -- ./inp_files/25035.got.cif
#   From: 2010.03.12/outbox.cif.g09.slc.cpg/sg50_13_cif.got.tgz:25035.got - 2010.04.16 13:23:21.
