data_PCOD8205387
_publ_section_title
;
Structure prediction by ZEFSAII (Michael W. Deem and Ramdas Pophale) SiO2 
 PCOD8205387
Probable space group: P B A N
;
_chemical_formula_sum "Si O2"
_cell_formula_units_Z 32
_cell_length_a 10.779016
_cell_length_b 8.349027
_cell_length_c 16.430655
_cell_angle_alpha 90.000000
_cell_angle_beta 90.000000
_cell_angle_gamma 90.000000
_cell_volume 1478.665223
_symmetry_space_group_name_H-M "P B A N"
_symmetry_group_IT_number 50
_space_group.IT_coordinate_system_code '2'
_symmetry_cell_setting 'orthorhombic'
loop_
_space_group_symop_operation_xyz
x,y,z
1/2-x,1/2-y,z
x,1/2-y,-z
1/2-x,y,-z
-x,-y,-z
1/2+x,1/2+y,-z
-x,1/2+y,z
1/2+x,-y,z
loop_
_atom_site_type_symbol
_atom_site_label
_atom_site_fract_x
_atom_site_fract_y
_atom_site_fract_z
Si Si1 0.879417 0.659119 0.344353
Si Si2 0.625752 0.843953 0.158022
Si Si3 0.434367 0.874304 0.941135
Si Si4 0.122338 0.816299 0.409173
O O1 0.750000 0.750000 0.356542
O O2 0.903206 0.612002 0.251016
O O3 0.874066 0.508241 0.404857
O O4 0.996950 0.767625 0.364596
O O5 0.750000 0.750000 0.148794
O O6 0.523152 0.733061 0.115924
O O7 0.650627 0.017297 0.116530
O O8 0.360400 0.750000 0.000000
O O9 0.500000 0.000000 0.000000
O O10 0.250000 0.750000 0.367601
O O11 0.117383 0.750000 0.500000
#
# Coordination Sequence:
#
# PCOD8205387 Si02
#       4
#     8   8   8   8
#     4  11  23  41  67  95 128 169 211 262 320 381
#     4  10  21  39  61  88 123 160 203 256 312 371
#     4   9  19  36  58  86 119 156 201 249 301 366
#     4  11  24  42  64  95 129 166 211 262 320 383
#
# _framework density 21.641141000000001
#
# number of rings (size 3 to 8) (size 9 to 14) (size 15 to 20)
#    0.000    1.750    0.000    3.750    0.000    9.000 
#    0.000    8.750    0.000    0.000    0.000    0.000 
#    0.000    0.000    0.000    0.000    0.000    0.000 
#
# Total GULP energy -396432.725967 kJ/mol
# GULP energy per Si atom -12388.522686 kJ/mol
# Density = 2.159188 g / cm^3
# Si number density = 21.641141 Si / 1000 Ang^3
#
#
#
# Elastic Constant Matrix: (Units=GPa)
#
#
# Indices 1 2 3 4 5 6 
#
# 1 102.8946 16.7796 44.8431 0.0000 0.0000 0.0000
# 2 16.7796 139.6283 80.1060 0.0000 0.0000 0.0000
# 3 44.8431 80.1060 138.0756 0.0000 0.0000 0.0000
# 4 0.0000 0.0000 0.0000 -4.7735 0.0000 0.0000
# 5 0.0000 0.0000 0.0000 0.0000 30.0440 0.0000
# 6 0.0000 0.0000 0.0000 0.0000 0.0000 10.1976
#
#
#
# Elastic Compliance Matrix: (Units=1/GPa)
#
#
# Indices 1 2 3 4 5 6 
#
# 1 0.011440 0.001134 -0.004373 0.000000 0.000000 0.000000
# 2 0.001134 0.010847 -0.006662 0.000000 0.000000 0.000000
# 3 -0.004373 -0.006662 0.012528 0.000000 0.000000 0.000000
# 4 0.000000 0.000000 0.000000 -0.209488 0.000000 0.000000
# 5 0.000000 0.000000 0.000000 0.000000 0.033284 0.000000
# 6 0.000000 0.000000 0.000000 0.000000 0.000000 0.098062
#
#
# Mechanical properties :
#
#
# Convention : Reuss Voigt Hill
#
# Bulk Modulus (GPa) = 66.60775 73.78399 70.19587
# Shear Modulus (GPa) = -269.95851 23.01828 -123.47011
#
# Velocity S-wave (km/s) = -11.18097 3.26488 -7.56157
# Velocity P-wave (km/s) = 11.65505 6.95564 6.61284
#
# Compressibility (1/GPa) = 0.01501327
#
# Stress axis : x y z
#
# Youngs Moduli (GPa) = 87.41500 92.18814 79.82404
#
# Poissons Ratio (x) = -0.10457 0.34910
# Poissons Ratio (y) = -0.09915 0.53176
# Poissons Ratio (z) = 0.38230 0.61412
#
# Static dielectric constant tensor:
#      x y z
#    x 3.966090 0.000000 0.000000 
#    y 0.000000 4.375550 0.000000 
#    z 0.000000 0.000000 3.505920 
# 
# 
# High freq. dielectric constant tensor:
#      x y z
#    x 1.844320 0.000000 0.000000 
#    y 0.000000 1.870640 0.000000 
#    z 0.000000 0.000000 1.860370 
# 
# From -- ./inp_files/24320.got.cif
#   From: 2010.03.12/outbox.cif.g09.slc.cpg/sg50_13_cif.got.tgz:24320.got - 2010.04.16 13:23:21.
