data_PCOD8205962
_publ_section_title
;
Structure prediction by ZEFSAII (Michael W. Deem and Ramdas Pophale) SiO2 
 PCOD8205962
Probable space group: P M M A
;
_chemical_formula_sum "Si O2"
_cell_formula_units_Z 40
_cell_length_a 8.670955
_cell_length_b 20.967347
_cell_length_c 14.284386
_cell_angle_alpha 90.000000
_cell_angle_beta 90.000000
_cell_angle_gamma 90.000000
_cell_volume 2597.000256
_symmetry_space_group_name_H-M "P M M A"
_symmetry_group_IT_number 51
_symmetry_cell_setting 'orthorhombic'
loop_
_space_group_symop_operation_xyz
x,y,z
1/2-x,-y,z
1/2+x,-y,-z
-x,y,-z
-x,-y,-z
1/2+x,y,-z
1/2-x,y,z
x,-y,z
loop_
_atom_site_type_symbol
_atom_site_label
_atom_site_fract_x
_atom_site_fract_y
_atom_site_fract_z
Si Si1 0.432408 0.000000 0.397670
Si Si2 0.067651 0.756242 0.397539
Si Si3 0.568448 0.072498 0.097260
Si Si4 0.566715 0.627338 0.395949
Si Si5 0.433278 0.500000 0.395485
Si Si6 0.431349 0.879564 0.280548
O O1 0.500000 0.000000 0.500000
O O2 0.493430 0.062260 0.343587
O O3 0.250000 0.000000 0.405455
O O4 0.250000 0.747463 0.406754
O O5 0.021380 0.814124 0.330398
O O6 0.000000 0.770187 0.500000
O O7 0.993276 0.692963 0.349424
O O8 0.750000 0.075650 0.090802
O O9 0.510641 0.118380 0.179552
O O10 0.510656 0.000000 0.115841
O O11 0.500000 0.098316 0.000000
O O12 0.500000 0.629237 0.500000
O O13 0.750000 0.623912 0.395842
O O14 0.497376 0.564171 0.344611
O O15 0.250000 0.500000 0.396466
O O16 0.500000 0.500000 0.500000
O O17 0.250000 0.885131 0.266016
#
# Coordination Sequence:
#
# PCOD8205962 Si02
#       6
#     4   8   8   8   4   8
#     4  10  20  32  45  62  85 114 147 186 222 256
#     4  10  19  30  43  61  85 118 152 185 221 260
#     4  10  20  33  51  71  88 108 136 176 224 274
#     4  10  17  26  39  56  79 109 144 182 218 257
#     4  10  16  24  38  56  78 104 139 182 219 256
#     4  10  20  33  48  64  87 115 146 183 224 265
#
# _framework density 15.402386999999999
#
# number of rings (size 3 to 8) (size 9 to 14) (size 15 to 20)
#    0.000    2.000    1.000    6.900    0.000    3.200 
#    0.000    0.000    0.000    0.000    0.000    0.000 
#    0.000    0.000    0.000    0.900    0.000   12.100 
#
# Total GULP energy -495919.296988 kJ/mol
# GULP energy per Si atom -12397.982425 kJ/mol
# Density = 1.536733 g / cm^3
# Si number density = 15.402387 Si / 1000 Ang^3
#
#
#
# Elastic Constant Matrix: (Units=GPa)
#
#
# Indices 1 2 3 4 5 6 
#
# 1 90.7249 57.6857 32.6503 0.0000 0.0000 0.0000
# 2 57.6857 145.8954 52.3537 0.0000 0.0000 0.0000
# 3 32.6503 52.3537 85.5111 0.0000 0.0000 0.0000
# 4 0.0000 0.0000 0.0000 4.9536 0.0000 0.0000
# 5 0.0000 0.0000 0.0000 0.0000 22.2918 0.0000
# 6 0.0000 0.0000 0.0000 0.0000 0.0000 25.2205
#
#
#
# Elastic Compliance Matrix: (Units=1/GPa)
#
#
# Indices 1 2 3 4 5 6 
#
# 1 0.015203 -0.005034 -0.002723 0.000000 0.000000 0.000000
# 2 -0.005034 0.010451 -0.004476 0.000000 0.000000 0.000000
# 3 -0.002723 -0.004476 0.015475 0.000000 0.000000 0.000000
# 4 0.000000 0.000000 0.000000 0.201874 0.000000 0.000000
# 5 0.000000 0.000000 0.000000 0.000000 0.044860 0.000000
# 6 0.000000 0.000000 0.000000 0.000000 0.000000 0.039650
#
#
# Mechanical properties :
#
#
# Convention : Reuss Voigt Hill
#
# Bulk Modulus (GPa) = 60.01649 67.50120 63.75885
# Shear Modulus (GPa) = 13.98470 22.45595 18.22032
#
# Velocity S-wave (km/s) = 3.01650 3.82246 3.44314
# Velocity P-wave (km/s) = 7.15421 7.96253 7.56917
#
# Compressibility (1/GPa) = 0.01666209
#
# Stress axis : x y z
#
# Youngs Moduli (GPa) = 65.77623 95.68470 64.62161
#
# Poissons Ratio (x) = 0.48168 0.17595
# Poissons Ratio (y) = 0.33112 0.28927
# Poissons Ratio (z) = 0.17910 0.42833
#
# Static dielectric constant tensor:
#      x y z
#    x 2.982680 0.000000 0.000000 
#    y 0.000000 3.853820 0.000000 
#    z 0.000000 0.000000 2.600150 
# 
# 
# High freq. dielectric constant tensor:
#      x y z
#    x 1.606270 0.000000 0.000000 
#    y 0.000000 1.597790 0.000000 
#    z 0.000000 0.000000 1.536020 
# 
# From -- ./inp_files/21329.got.cif
#   From: 2010.03.12/outbox.cif.g09.slc.cpg/sg51_11_cif.got.tgz:21329.got - 2010.04.16 13:43:02.
