data_PCOD8205347
_publ_section_title
;
Structure prediction by ZEFSAII (Michael W. Deem and Ramdas Pophale) SiO2 
 PCOD8205347
Probable space group: P B A N
;
_chemical_formula_sum "Si O2"
_cell_formula_units_Z 32
_cell_length_a 17.230919
_cell_length_b 16.946037
_cell_length_c 4.987638
_cell_angle_alpha 90.000000
_cell_angle_beta 90.000000
_cell_angle_gamma 90.000000
_cell_volume 1456.369303
_symmetry_space_group_name_H-M "P B A N"
_symmetry_group_IT_number 50
_space_group.IT_coordinate_system_code '2'
_symmetry_cell_setting 'orthorhombic'
loop_
_space_group_symop_operation_xyz
x,y,z
1/2-x,1/2-y,z
x,1/2-y,-z
1/2-x,y,-z
-x,-y,-z
1/2+x,1/2+y,-z
-x,1/2+y,z
1/2+x,-y,z
loop_
_atom_site_type_symbol
_atom_site_label
_atom_site_fract_x
_atom_site_fract_y
_atom_site_fract_z
Si Si1 0.582637 0.527731 0.110696
Si Si2 0.142014 0.699338 0.750683
Si Si3 0.459110 0.199193 0.245756
Si Si4 0.168605 0.526958 0.609480
O O1 0.582095 0.614628 0.238698
O O2 0.608574 0.471048 0.357250
O O3 0.500000 0.500000 0.000000
O O4 0.640738 0.526926 0.857427
O O5 0.167499 0.750000 0.500000
O O6 0.181740 0.614202 0.730087
O O7 0.050550 0.684192 0.767725
O O8 0.172899 0.750000 0.000000
O O9 0.433796 0.250000 0.500000
O O10 0.428979 0.250000 0.000000
O O11 0.250000 0.493088 0.500000
#
# Coordination Sequence:
#
# PCOD8205347 Si02
#       4
#     8   8   8   8
#     4  12  24  42  71  98 131 179 229 279 330 394
#     4  10  21  37  62  92 134 175 216 259 322 402
#     4  10  21  37  64  98 128 162 221 285 329 380
#     4  12  26  43  65  99 142 180 220 274 337 399
#
# _framework density 21.972451
#
# number of rings (size 3 to 8) (size 9 to 14) (size 15 to 20)
#    0.000    1.000    2.500    4.500    7.000    0.500 
#    0.000    1.250    0.000   11.250    0.000    0.000 
#    0.000    0.000    0.000    0.000    0.000    0.000 
#
# Total GULP energy -396885.898906 kJ/mol
# GULP energy per Si atom -12402.684341 kJ/mol
# Density = 2.192244 g / cm^3
# Si number density = 21.972451 Si / 1000 Ang^3
#
#
#
# Elastic Constant Matrix: (Units=GPa)
#
#
# Indices 1 2 3 4 5 6 
#
# 1 69.0939 42.0807 39.5439 0.0000 0.0000 0.0000
# 2 42.0807 123.8511 55.6667 0.0000 0.0000 0.0000
# 3 39.5439 55.6667 183.3926 0.0000 0.0000 0.0000
# 4 0.0000 0.0000 0.0000 36.5626 0.0000 0.0000
# 5 0.0000 0.0000 0.0000 0.0000 45.7442 0.0000
# 6 0.0000 0.0000 0.0000 0.0000 0.0000 24.3952
#
#
#
# Elastic Compliance Matrix: (Units=1/GPa)
#
#
# Indices 1 2 3 4 5 6 
#
# 1 0.019191 -0.005397 -0.002500 0.000000 0.000000 0.000000
# 2 -0.005397 0.010867 -0.002135 0.000000 0.000000 0.000000
# 3 -0.002500 -0.002135 0.006640 0.000000 0.000000 0.000000
# 4 0.000000 0.000000 0.000000 0.027350 0.000000 0.000000
# 5 0.000000 0.000000 0.000000 0.000000 0.021861 0.000000
# 6 0.000000 0.000000 0.000000 0.000000 0.000000 0.040992
#
#
# Mechanical properties :
#
#
# Convention : Reuss Voigt Hill
#
# Bulk Modulus (GPa) = 60.11531 72.32446 66.21988
# Shear Modulus (GPa) = 32.78499 37.27682 35.03090
#
# Velocity S-wave (km/s) = 3.86696 4.12336 3.99721
# Velocity P-wave (km/s) = 6.88161 7.46035 7.17682
#
# Compressibility (1/GPa) = 0.01663470
#
# Stress axis : x y z
#
# Youngs Moduli (GPa) = 52.10883 92.01764 150.60540
#
# Poissons Ratio (x) = 0.49660 0.37649
# Poissons Ratio (y) = 0.28122 0.32155
# Poissons Ratio (z) = 0.13026 0.19646
#
# Static dielectric constant tensor:
#      x y z
#    x 3.745150 0.000000 0.000000 
#    y 0.000000 3.882730 0.000000 
#    z 0.000000 0.000000 4.300810 
# 
# 
# High freq. dielectric constant tensor:
#      x y z
#    x 1.839490 0.000000 0.000000 
#    y 0.000000 1.860720 0.000000 
#    z 0.000000 0.000000 1.891060 
# 
# From -- ./inp_files/3017.got.cif
#   From: 2010.03.12/outbox.cif.g09.slc.cpg/sg50_2_cif.got.tgz:3017.got - 2010.04.16 13:23:21.
