data_PCOD8205061
_publ_section_title
;
Structure prediction by ZEFSAII (Michael W. Deem and Ramdas Pophale) SiO2 
 PCOD8205061
Probable space group: P B A N
;
_chemical_formula_sum "Si O2"
_cell_formula_units_Z 40
_cell_length_a 22.906311
_cell_length_b 10.496728
_cell_length_c 8.972643
_cell_angle_alpha 90.000000
_cell_angle_beta 90.000000
_cell_angle_gamma 90.000000
_cell_volume 2157.394091
_symmetry_space_group_name_H-M "P B A N"
_symmetry_group_IT_number 50
_space_group.IT_coordinate_system_code '2'
_symmetry_cell_setting 'orthorhombic'
loop_
_space_group_symop_operation_xyz
x,y,z
1/2-x,1/2-y,z
x,1/2-y,-z
1/2-x,y,-z
-x,-y,-z
1/2+x,1/2+y,-z
-x,1/2+y,z
1/2+x,-y,z
loop_
_atom_site_type_symbol
_atom_site_label
_atom_site_fract_x
_atom_site_fract_y
_atom_site_fract_z
Si Si1 0.124970 0.512329 0.309505
Si Si2 0.510855 0.125995 0.599090
Si Si3 0.238236 0.602365 0.162153
Si Si4 0.195718 0.050457 0.405522
Si Si5 0.602241 0.768147 0.326284
O O1 0.067848 0.599952 0.301184
O O2 0.171271 0.573237 0.198313
O O3 0.149670 0.510717 0.479039
O O4 0.108951 0.369801 0.250136
O O5 0.524095 0.250000 0.500000
O O6 0.456779 0.153250 0.716023
O O7 0.500000 0.000000 0.500000
O O8 0.250000 0.750000 0.154443
O O9 0.281179 0.552604 0.290053
O O10 0.250000 0.540073 0.000000
O O11 0.250000 0.109459 0.500000
O O12 0.163224 0.157016 0.305360
O O13 0.591189 0.750000 0.500000
#
# Coordination Sequence:
#
# PCOD8205061 Si02
#       5
#     8   8   8   8   8
#     4  10  20  33  55  84 111 142 182 231 270 338
#     4  11  18  30  51  86 119 146 179 227 285 326
#     4  10  23  39  52  75 108 147 185 231 289 334
#     4   9  18  31  53  78 105 138 180 227 277 331
#     4   9  17  31  49  83 119 140 171 226 288 325
#
# _framework density 18.540887000000001
#
# number of rings (size 3 to 8) (size 9 to 14) (size 15 to 20)
#    0.000    2.200    6.000    0.000    2.800   12.000 
#    0.000    2.000    0.000    1.200    0.000    0.000 
#    0.000    0.000    0.000    0.000    0.000    0.000 
#
# Total GULP energy -495624.857247 kJ/mol
# GULP energy per Si atom -12390.621431 kJ/mol
# Density = 1.849869 g / cm^3
# Si number density = 18.540887 Si / 1000 Ang^3
#
#
#
# Elastic Constant Matrix: (Units=GPa)
#
#
# Indices 1 2 3 4 5 6 
#
# 1 163.0405 64.4517 36.2955 0.0000 0.0000 0.0000
# 2 64.4517 112.1758 24.9233 0.0000 0.0000 0.0000
# 3 36.2955 24.9233 54.1253 0.0000 0.0000 0.0000
# 4 0.0000 0.0000 0.0000 9.4707 0.0000 0.0000
# 5 0.0000 0.0000 0.0000 0.0000 11.3475 0.0000
# 6 0.0000 0.0000 0.0000 0.0000 0.0000 40.5534
#
#
#
# Elastic Compliance Matrix: (Units=1/GPa)
#
#
# Indices 1 2 3 4 5 6 
#
# 1 0.008615 -0.004084 -0.003897 0.000000 0.000000 0.000000
# 2 -0.004084 0.011867 -0.002725 0.000000 0.000000 0.000000
# 3 -0.003897 -0.002725 0.022344 0.000000 0.000000 0.000000
# 4 0.000000 0.000000 0.000000 0.105589 0.000000 0.000000
# 5 0.000000 0.000000 0.000000 0.000000 0.088125 0.000000
# 6 0.000000 0.000000 0.000000 0.000000 0.000000 0.024659
#
#
# Mechanical properties :
#
#
# Convention : Reuss Voigt Hill
#
# Bulk Modulus (GPa) = 46.70053 64.52030 55.61041
# Shear Modulus (GPa) = 17.25628 25.85239 21.55433
#
# Velocity S-wave (km/s) = 3.05407 3.73814 3.41329
# Velocity P-wave (km/s) = 6.13832 7.31479 6.75223
#
# Compressibility (1/GPa) = 0.02141303
#
# Stress axis : x y z
#
# Youngs Moduli (GPa) = 116.07000 84.26851 44.75536
#
# Poissons Ratio (x) = 0.34418 0.17440
# Poissons Ratio (y) = 0.47407 0.12198
# Poissons Ratio (z) = 0.45228 0.22967
#
# Static dielectric constant tensor:
#      x y z
#    x 4.197450 0.000000 0.000000 
#    y 0.000000 3.686050 0.000000 
#    z 0.000000 0.000000 3.037310 
# 
# 
# High freq. dielectric constant tensor:
#      x y z
#    x 1.745920 0.000000 0.000000 
#    y 0.000000 1.723960 0.000000 
#    z 0.000000 0.000000 1.650600 
# 
# From -- ./inp_files/15125.got.cif
#   From: 2010.03.12/outbox.cif.g09.slc.cpg/sg50_8_cif.got.tgz:15125.got - 2010.04.16 13:23:21.
