data_PCOD8205262
_publ_section_title
;
Structure prediction by ZEFSAII (Michael W. Deem and Ramdas Pophale) SiO2 
 PCOD8205262
Probable space group: P B A N
;
_chemical_formula_sum "Si O2"
_cell_formula_units_Z 40
_cell_length_a 8.649147
_cell_length_b 22.691584
_cell_length_c 9.356670
_cell_angle_alpha 90.000000
_cell_angle_beta 90.000000
_cell_angle_gamma 90.000000
_cell_volume 1836.366680
_symmetry_space_group_name_H-M "P B A N"
_symmetry_group_IT_number 50
_space_group.IT_coordinate_system_code '2'
_symmetry_cell_setting 'orthorhombic'
loop_
_space_group_symop_operation_xyz
x,y,z
1/2-x,1/2-y,z
x,1/2-y,-z
1/2-x,y,-z
-x,-y,-z
1/2+x,1/2+y,-z
-x,1/2+y,z
1/2+x,-y,z
loop_
_atom_site_type_symbol
_atom_site_label
_atom_site_fract_x
_atom_site_fract_y
_atom_site_fract_z
Si Si1 0.931575 0.436409 0.973907
Si Si2 0.250000 0.250000 0.000000
Si Si3 0.500185 0.173374 0.150587
Si Si4 0.493903 0.076064 0.650623
Si Si5 0.250000 0.750000 0.000000
Si Si6 0.750000 0.998518 0.500000
Si Si7 0.567963 0.183735 0.474443
O O1 0.976955 0.414829 0.817026
O O2 0.750000 0.437218 0.000000
O O3 0.010779 0.391238 0.082843
O O4 0.000000 0.500000 0.000000
O O5 0.349882 0.209863 0.106050
O O6 0.651851 0.208239 0.101839
O O7 0.514366 0.163358 0.318639
O O8 0.634590 0.040042 0.584452
O O9 0.481339 0.141296 0.585343
O O10 0.335083 0.041632 0.618332
O O11 0.510505 0.250000 0.500000
O O12 0.750000 0.177921 0.500000
#
# Coordination Sequence:
#
# PCOD8205262 Si02
#       7
#     8   2   8   8   2   4   8
#     4  12  27  43  71 102 140 182 236 289 352 420
#     4  10  28  46  72  98 152 186 230 296 364 418
#     4  11  25  45  69 100 138 184 232 291 351 419
#     4  11  24  44  66  98 134 178 226 281 340 407
#     4  10  20  42  72  90 128 178 242 276 340 410
#     4  10  24  42  70  90 138 178 226 278 342 402
#     4  11  24  42  71  99 132 172 230 283 341 409
#
# _framework density 21.782143000000001
#
# number of rings (size 3 to 8) (size 9 to 14) (size 15 to 20)
#    0.000    1.000    2.000    3.600   12.600    1.600 
#    0.000    0.000    0.000    0.000    0.000    0.000 
#    0.000    0.000    0.000    0.000    0.000    0.000 
#
# Total GULP energy -496269.799239 kJ/mol
# GULP energy per Si atom -12406.744981 kJ/mol
# Density = 2.173257 g / cm^3
# Si number density = 21.782143 Si / 1000 Ang^3
#
#
#
# Elastic Constant Matrix: (Units=GPa)
#
#
# Indices 1 2 3 4 5 6 
#
# 1 100.2529 44.4282 40.3526 0.0000 0.0000 0.0000
# 2 44.4282 186.7346 77.2876 0.0000 0.0000 0.0000
# 3 40.3526 77.2876 197.2377 0.0000 0.0000 0.0000
# 4 0.0000 0.0000 0.0000 18.7688 0.0000 0.0000
# 5 0.0000 0.0000 0.0000 0.0000 30.5816 0.0000
# 6 0.0000 0.0000 0.0000 0.0000 0.0000 76.9011
#
#
#
# Elastic Compliance Matrix: (Units=1/GPa)
#
#
# Indices 1 2 3 4 5 6 
#
# 1 0.011526 -0.002108 -0.001532 0.000000 0.000000 0.000000
# 2 -0.002108 0.006777 -0.002224 0.000000 0.000000 0.000000
# 3 -0.001532 -0.002224 0.006255 0.000000 0.000000 0.000000
# 4 0.000000 0.000000 0.000000 0.053280 0.000000 0.000000
# 5 0.000000 0.000000 0.000000 0.000000 0.032699 0.000000
# 6 0.000000 0.000000 0.000000 0.000000 0.000000 0.013004
#
#
# Mechanical properties :
#
#
# Convention : Reuss Voigt Hill
#
# Bulk Modulus (GPa) = 77.94762 89.81799 83.88280
# Shear Modulus (GPa) = 35.83028 46.72740 41.27884
#
# Velocity S-wave (km/s) = 4.06018 4.63667 4.35797
# Velocity P-wave (km/s) = 7.60545 8.36595 7.99475
#
# Compressibility (1/GPa) = 0.01282913
#
# Stress axis : x y z
#
# Youngs Moduli (GPa) = 86.76304 147.54829 159.86985
#
# Poissons Ratio (x) = 0.31105 0.24491
# Poissons Ratio (y) = 0.18291 0.35562
# Poissons Ratio (z) = 0.13292 0.32821
#
# Static dielectric constant tensor:
#      x y z
#    x 3.872240 0.000000 0.000000 
#    y 0.000000 4.397520 0.000000 
#    z 0.000000 0.000000 3.925300 
# 
# 
# High freq. dielectric constant tensor:
#      x y z
#    x 1.854700 0.000000 0.000000 
#    y 0.000000 1.878620 0.000000 
#    z 0.000000 0.000000 1.863990 
# 
# From -- ./inp_files/9595.got.cif
#   From: 2010.03.12/outbox.cif.g09.slc.cpg/sg50_5_cif.got.tgz:9595.got - 2010.04.16 13:23:21.
