data_PCOD8205350
_publ_section_title
;
Structure prediction by ZEFSAII (Michael W. Deem and Ramdas Pophale) SiO2 
 PCOD8205350
Probable space group: P B A N
;
_chemical_formula_sum "Si O2"
_cell_formula_units_Z 40
_cell_length_a 4.989190
_cell_length_b 13.308582
_cell_length_c 28.496055
_cell_angle_alpha 90.000000
_cell_angle_beta 90.000000
_cell_angle_gamma 90.000000
_cell_volume 1892.110816
_symmetry_space_group_name_H-M "P B A N"
_symmetry_group_IT_number 50
_space_group.IT_coordinate_system_code '2'
_symmetry_cell_setting 'orthorhombic'
loop_
_space_group_symop_operation_xyz
x,y,z
1/2-x,1/2-y,z
x,1/2-y,-z
1/2-x,y,-z
-x,-y,-z
1/2+x,1/2+y,-z
-x,1/2+y,z
1/2+x,-y,z
loop_
_atom_site_type_symbol
_atom_site_label
_atom_site_fract_x
_atom_site_fract_y
_atom_site_fract_z
Si Si1 0.750000 0.750000 0.619408
Si Si2 0.326905 0.932518 0.952049
Si Si3 0.671335 0.430560 0.754229
Si Si4 0.269531 0.064980 0.553502
Si Si5 0.207842 0.565636 0.145889
Si Si6 0.750000 0.250000 0.316026
O O1 0.812913 0.655012 0.587131
O O2 0.500298 0.724976 0.651783
O O3 0.633739 0.968451 0.952714
O O4 0.270765 0.872917 0.902724
O O5 0.250000 0.870437 0.000000
O O6 0.377458 0.477380 0.748685
O O7 0.717393 0.377343 0.805547
O O8 0.699455 0.347505 0.714941
O O9 0.250000 0.103100 0.500000
O O10 0.570015 0.027731 0.563425
O O11 0.396571 0.465549 0.145665
#
# Coordination Sequence:
#
# PCOD8205350 Si02
#       6
#     4   8   8   8   8   4
#     4  12  25  40  60  88 120 148 185 232 272 320
#     4   8  12  18  31  55  85 113 149 199 251 309
#     4  10  21  38  56  75 106 143 184 232 272 322
#     4  10  22  41  65  91 119 153 188 222 268 323
#     4   8  14  25  42  62  87 125 165 206 261 313
#     4  12  26  38  57  86 111 150 192 224 280 326
#
# _framework density 21.140412000000001
#
# number of rings (size 3 to 8) (size 9 to 14) (size 15 to 20)
#    0.000    2.400    0.000    2.700    0.000    4.800 
#    0.000    4.000    0.000    0.000    0.000    0.700 
#    0.000    0.000    0.000   69.000    0.000    4.800 
#
# Total GULP energy -495578.027732 kJ/mol
# GULP energy per Si atom -12389.450693 kJ/mol
# Density = 2.109230 g / cm^3
# Si number density = 21.140412 Si / 1000 Ang^3
#
#
#
# Elastic Constant Matrix: (Units=GPa)
#
#
# Indices 1 2 3 4 5 6 
#
# 1 89.0856 -1.5847 14.4137 0.0000 0.0000 0.0000
# 2 -1.5847 43.2737 44.5626 0.0000 0.0000 0.0000
# 3 14.4137 44.5626 147.5326 0.0000 0.0000 0.0000
# 4 0.0000 0.0000 0.0000 -16.7150 0.0000 0.0000
# 5 0.0000 0.0000 0.0000 0.0000 34.6536 0.0000
# 6 0.0000 0.0000 0.0000 0.0000 0.0000 14.3060
#
#
#
# Elastic Compliance Matrix: (Units=1/GPa)
#
#
# Indices 1 2 3 4 5 6 
#
# 1 0.011561 0.002303 -0.001825 0.000000 0.000000 0.000000
# 2 0.002303 0.034001 -0.010495 0.000000 0.000000 0.000000
# 3 -0.001825 -0.010495 0.010126 0.000000 0.000000 0.000000
# 4 0.000000 0.000000 0.000000 -0.059827 0.000000 0.000000
# 5 0.000000 0.000000 0.000000 0.000000 0.028857 0.000000
# 6 0.000000 0.000000 0.000000 0.000000 0.000000 0.069901
#
#
# Mechanical properties :
#
#
# Convention : Reuss Voigt Hill
#
# Bulk Modulus (GPa) = 28.04727 43.85279 35.95003
# Shear Modulus (GPa) = 39.51366 21.28229 30.39798
#
# Velocity S-wave (km/s) = 4.32801 3.17631 3.79609
# Velocity P-wave (km/s) = 6.18639 5.85154 6.02130
#
# Compressibility (1/GPa) = 0.03565409
#
# Stress axis : x y z
#
# Youngs Moduli (GPa) = 86.49457 29.41128 98.75086
#
# Poissons Ratio (x) = -0.06773 0.18023
# Poissons Ratio (y) = -0.19919 1.03638
# Poissons Ratio (z) = 0.15786 0.30867
#
# Static dielectric constant tensor:
#      x y z
#    x 3.878720 0.000000 0.000000 
#    y 0.000000 3.017860 0.000000 
#    z 0.000000 0.000000 4.583430 
# 
# 
# High freq. dielectric constant tensor:
#      x y z
#    x 1.850250 0.000000 0.000000 
#    y 0.000000 1.745430 0.000000 
#    z 0.000000 0.000000 1.868370 
# 
# From -- ./inp_files/31949.got.cif
#   From: 2010.03.12/outbox.cif.g09.slc.cpg/sg50_16_cif.got.tgz:31949.got - 2010.04.16 13:23:21.
