data_PCOD8205115
_publ_section_title
;
Structure prediction by ZEFSAII (Michael W. Deem and Ramdas Pophale) SiO2 
 PCOD8205115
Probable space group: P B A N
;
_chemical_formula_sum "Si O2"
_cell_formula_units_Z 56
_cell_length_a 14.083704
_cell_length_b 9.084696
_cell_length_c 20.538287
_cell_angle_alpha 90.000000
_cell_angle_beta 90.000000
_cell_angle_gamma 90.000000
_cell_volume 2627.795148
_symmetry_space_group_name_H-M "P B A N"
_symmetry_group_IT_number 50
_space_group.IT_coordinate_system_code '2'
_symmetry_cell_setting 'orthorhombic'
loop_
_space_group_symop_operation_xyz
x,y,z
1/2-x,1/2-y,z
x,1/2-y,-z
1/2-x,y,-z
-x,-y,-z
1/2+x,1/2+y,-z
-x,1/2+y,z
1/2+x,-y,z
loop_
_atom_site_type_symbol
_atom_site_label
_atom_site_fract_x
_atom_site_fract_y
_atom_site_fract_z
Si Si1 0.750274 0.926566 0.593231
Si Si2 0.385639 0.994873 0.828178
Si Si3 0.943495 0.213746 0.928840
Si Si4 0.396231 0.929981 0.499596
Si Si5 0.408041 0.954456 0.180518
Si Si6 0.651014 0.785506 0.892452
Si Si7 0.740310 0.407573 0.279651
O O1 0.750000 0.750000 0.580803
O O2 0.657178 0.005710 0.563830
O O3 0.842522 0.004318 0.562431
O O4 0.752215 0.958039 0.670324
O O5 0.387751 0.929434 0.902493
O O6 0.316111 0.914259 0.778748
O O7 0.492438 0.968692 0.801015
O O8 0.363119 0.165561 0.835613
O O9 0.924689 0.332343 0.873745
O O10 0.058001 0.193053 0.937638
O O11 0.901467 0.250000 0.000000
O O12 0.397637 0.750000 0.500000
O O13 0.500000 0.000000 0.500000
O O14 0.364216 0.901389 0.248177
O O15 0.332450 0.066050 0.148440
O O16 0.750000 0.750000 0.931142
O O17 0.750000 0.250000 0.316083
#
# Coordination Sequence:
#
# PCOD8205115 Si02
#       7
#     8   8   8   8   8   8   8
#     4  11  25  42  67 106 140 182 229 282 328 385
#     4  10  22  39  61  86 120 160 204 268 328 393
#     4  10  22  42  60  82 117 161 206 262 336 413
#     4  11  22  45  74 104 152 185 224 271 322 384
#     4  10  22  39  61  86 120 160 204 268 328 393
#     4  10  20  35  61  85 118 148 199 262 337 384
#     4  12  23  41  64  90 126 172 223 261 325 397
#
# _framework density 21.310641
#
# number of rings (size 3 to 8) (size 9 to 14) (size 15 to 20)
#    0.000    1.429    2.857    3.429    2.000    6.571 
#    0.000    4.286    0.000    0.000    0.000    0.000 
#    0.000    0.000    0.000    0.000    0.000    0.000 
#
# Total GULP energy -693891.822907 kJ/mol
# GULP energy per Si atom -12390.925409 kJ/mol
# Density = 2.126214 g / cm^3
# Si number density = 21.310641 Si / 1000 Ang^3
#
#
#
# Elastic Constant Matrix: (Units=GPa)
#
#
# Indices 1 2 3 4 5 6 
#
# 1 106.3135 22.7979 43.3591 0.0000 0.0000 0.0000
# 2 22.7979 128.4536 28.6748 0.0000 0.0000 0.0000
# 3 43.3591 28.6748 115.6032 0.0000 0.0000 0.0000
# 4 0.0000 0.0000 0.0000 26.8774 0.0000 0.0000
# 5 0.0000 0.0000 0.0000 0.0000 8.8568 0.0000
# 6 0.0000 0.0000 0.0000 0.0000 0.0000 25.1586
#
#
#
# Elastic Compliance Matrix: (Units=1/GPa)
#
#
# Indices 1 2 3 4 5 6 
#
# 1 0.011254 -0.001117 -0.003944 0.000000 0.000000 0.000000
# 2 -0.001117 0.008352 -0.001653 0.000000 0.000000 0.000000
# 3 -0.003944 -0.001653 0.010540 0.000000 0.000000 0.000000
# 4 0.000000 0.000000 0.000000 0.037206 0.000000 0.000000
# 5 0.000000 0.000000 0.000000 0.000000 0.112907 0.000000
# 6 0.000000 0.000000 0.000000 0.000000 0.000000 0.039748
#
#
# Mechanical properties :
#
#
# Convention : Reuss Voigt Hill
#
# Bulk Modulus (GPa) = 59.81465 60.00375 59.90920
# Shear Modulus (GPa) = 20.91987 29.21448 25.06717
#
# Velocity S-wave (km/s) = 3.13655 3.70657 3.43341
# Velocity P-wave (km/s) = 6.42232 6.82173 6.62503
#
# Compressibility (1/GPa) = 0.01671831
#
# Stress axis : x y z
#
# Youngs Moduli (GPa) = 88.85561 119.73042 94.88098
#
# Poissons Ratio (x) = 0.13373 0.37421
# Poissons Ratio (y) = 0.09925 0.15682
# Poissons Ratio (z) = 0.35045 0.19789
#
# Static dielectric constant tensor:
#      x y z
#    x 4.113220 0.000000 0.000000 
#    y 0.000000 4.195460 0.000000 
#    z 0.000000 0.000000 3.482410 
# 
# 
# High freq. dielectric constant tensor:
#      x y z
#    x 1.844540 0.000000 0.000000 
#    y 0.000000 1.855770 0.000000 
#    z 0.000000 0.000000 1.805340 
# 
# From -- ./inp_files/30980.got.cif
#   From: 2010.03.12/outbox.cif.g09.slc.cpg/sg50_16_cif.got.tgz:30980.got - 2010.04.16 13:23:21.
