data_PCOD8205439
_publ_section_title
;
Structure prediction by ZEFSAII (Michael W. Deem and Ramdas Pophale) SiO2 
 PCOD8205439
Probable space group: P B A N
;
_chemical_formula_sum "Si O2"
_cell_formula_units_Z 48
_cell_length_a 9.736531
_cell_length_b 22.360435
_cell_length_c 11.502825
_cell_angle_alpha 90.000000
_cell_angle_beta 90.000000
_cell_angle_gamma 90.000000
_cell_volume 2504.315328
_symmetry_space_group_name_H-M "P B A N"
_symmetry_group_IT_number 50
_space_group.IT_coordinate_system_code '2'
_symmetry_cell_setting 'orthorhombic'
loop_
_space_group_symop_operation_xyz
x,y,z
1/2-x,1/2-y,z
x,1/2-y,-z
1/2-x,y,-z
-x,-y,-z
1/2+x,1/2+y,-z
-x,1/2+y,z
1/2+x,-y,z
loop_
_atom_site_type_symbol
_atom_site_label
_atom_site_fract_x
_atom_site_fract_y
_atom_site_fract_z
Si Si1 0.167865 0.302048 0.379143
Si Si2 0.970319 0.370038 0.839647
Si Si3 0.713092 0.609604 0.190130
Si Si4 0.405920 0.748065 0.713064
Si Si5 0.373655 0.510755 0.914464
Si Si6 0.015349 0.192558 0.937351
O O1 0.250000 0.250000 0.306002
O O2 0.250000 0.307171 0.500000
O O3 0.177710 0.366726 0.319615
O O4 0.009641 0.277457 0.383109
O O5 0.127281 0.390327 0.834977
O O6 0.940422 0.321842 0.738279
O O7 0.886415 0.431845 0.828753
O O8 0.928936 0.343891 0.966416
O O9 0.649718 0.544130 0.173679
O O10 0.645029 0.654520 0.100148
O O11 0.250000 0.750000 0.665700
O O12 0.417426 0.788309 0.830087
O O13 0.250000 0.521136 0.000000
O O14 0.500000 0.500000 0.000000
O O15 0.079315 0.250000 0.000000
#
# Coordination Sequence:
#
# PCOD8205439 Si02
#       6
#     8   8   8   8   8   8
#     4  10  21  41  69  93 110 150 209 266 326 377
#     4  11  21  34  53  84 128 166 206 238 296 370
#     4  11  20  37  56  84 119 164 214 254 303 363
#     4  10  22  36  57  95 123 154 190 256 322 370
#     4  12  23  35  53  85 123 173 210 240 286 361
#     4   9  19  29  51  81 124 160 198 239 297 373
#
# _framework density 19.166914999999999
#
# number of rings (size 3 to 8) (size 9 to 14) (size 15 to 20)
#    0.000    1.500    5.000    0.500    2.333    4.333 
#    0.000    1.667    0.000    1.000    0.000    0.000 
#    0.000    0.000    0.000    0.000    0.000    0.000 
#
# Total GULP energy -594722.586574 kJ/mol
# GULP energy per Si atom -12390.053887 kJ/mol
# Density = 1.912329 g / cm^3
# Si number density = 19.166915 Si / 1000 Ang^3
#
#
#
# Elastic Constant Matrix: (Units=GPa)
#
#
# Indices 1 2 3 4 5 6 
#
# 1 125.2564 45.2895 30.1644 0.0000 0.0000 0.0000
# 2 45.2895 151.6777 44.6866 0.0000 0.0000 0.0000
# 3 30.1644 44.6866 75.8052 0.0000 0.0000 0.0000
# 4 0.0000 0.0000 0.0000 22.4687 0.0000 0.0000
# 5 0.0000 0.0000 0.0000 0.0000 15.9409 0.0000
# 6 0.0000 0.0000 0.0000 0.0000 0.0000 31.2627
#
#
#
# Elastic Compliance Matrix: (Units=1/GPa)
#
#
# Indices 1 2 3 4 5 6 
#
# 1 0.009327 -0.002047 -0.002505 0.000000 0.000000 0.000000
# 2 -0.002047 0.008428 -0.004154 0.000000 0.000000 0.000000
# 3 -0.002505 -0.004154 0.016637 0.000000 0.000000 0.000000
# 4 0.000000 0.000000 0.000000 0.044506 0.000000 0.000000
# 5 0.000000 0.000000 0.000000 0.000000 0.062732 0.000000
# 6 0.000000 0.000000 0.000000 0.000000 0.000000 0.031987
#
#
# Mechanical properties :
#
#
# Convention : Reuss Voigt Hill
#
# Bulk Modulus (GPa) = 58.88902 65.89113 62.39008
# Shear Modulus (GPa) = 25.42101 29.44105 27.43103
#
# Velocity S-wave (km/s) = 3.64579 3.92348 3.78718
# Velocity P-wave (km/s) = 6.96515 7.41465 7.19342
#
# Compressibility (1/GPa) = 0.01698109
#
# Stress axis : x y z
#
# Youngs Moduli (GPa) = 107.21618 118.65405 60.10741
#
# Poissons Ratio (x) = 0.24289 0.15055
# Poissons Ratio (y) = 0.21947 0.24966
# Poissons Ratio (z) = 0.26854 0.49284
#
# Static dielectric constant tensor:
#      x y z
#    x 3.421490 0.000000 0.000000 
#    y 0.000000 3.952710 0.000000 
#    z 0.000000 0.000000 3.253280 
# 
# 
# High freq. dielectric constant tensor:
#      x y z
#    x 1.747950 0.000000 0.000000 
#    y 0.000000 1.751180 0.000000 
#    z 0.000000 0.000000 1.704610 
# 
# From -- ./inp_files/19154.got.cif
#   From: 2010.03.12/outbox.cif.g09.slc.cpg/sg50_10_cif.got.tgz:19154.got - 2010.04.16 13:23:21.
