data_PCOD8205489
_publ_section_title
;
Structure prediction by ZEFSAII (Michael W. Deem and Ramdas Pophale) SiO2 
 PCOD8205489
Probable space group: P B A N
;
_chemical_formula_sum "Si O2"
_cell_formula_units_Z 52
_cell_length_a 9.727646
_cell_length_b 26.433951
_cell_length_c 10.179539
_cell_angle_alpha 90.000000
_cell_angle_beta 90.000000
_cell_angle_gamma 90.000000
_cell_volume 2617.567857
_symmetry_space_group_name_H-M "P B A N"
_symmetry_group_IT_number 50
_space_group.IT_coordinate_system_code '2'
_symmetry_cell_setting 'orthorhombic'
loop_
_space_group_symop_operation_xyz
x,y,z
1/2-x,1/2-y,z
x,1/2-y,-z
1/2-x,y,-z
-x,-y,-z
1/2+x,1/2+y,-z
-x,1/2+y,z
1/2+x,-y,z
loop_
_atom_site_type_symbol
_atom_site_label
_atom_site_fract_x
_atom_site_fract_y
_atom_site_fract_z
Si Si1 0.250000 0.883979 0.500000
Si Si2 0.913118 0.050127 0.694425
Si Si3 0.562657 0.143266 0.142859
Si Si4 0.253815 0.132458 0.147751
Si Si5 0.269765 0.454502 0.653841
Si Si6 0.009579 0.298709 0.907898
Si Si7 0.710830 0.198006 0.695773
O O1 0.133193 0.917688 0.432704
O O2 0.332659 0.847257 0.400797
O O3 0.897404 0.084827 0.825366
O O4 0.070226 0.033167 0.677291
O O5 0.815643 0.002171 0.705796
O O6 0.404487 0.153040 0.185475
O O7 0.657176 0.181492 0.221271
O O8 0.570153 0.156364 0.988028
O O9 0.212870 0.091657 0.258412
O O10 0.153450 0.180717 0.148448
O O11 0.250000 0.108017 0.000000
O O12 0.250000 0.443094 0.500000
O O13 0.915329 0.285762 0.786193
O O14 0.034291 0.250000 0.000000
O O15 0.750000 0.250000 0.620252
#
# Coordination Sequence:
#
# PCOD8205489 Si02
#       7
#     4   8   8   8   8   8   8
#     4  10  23  38  58  84 124 160 198 247 308 358
#     4  10  22  39  60  88 117 159 203 251 303 365
#     4   9  20  38  56  85 123 150 194 250 296 357
#     4   9  22  41  58  89 122 160 197 252 306 355
#     4  11  22  38  65  86 122 155 207 251 304 365
#     4  11  21  37  63  89 116 155 206 241 298 365
#     4  11  21  36  58  86 121 154 202 247 299 352
#
# _framework density 19.865767999999999
#
# number of rings (size 3 to 8) (size 9 to 14) (size 15 to 20)
#    0.000    1.846    2.308    1.154    2.154    4.000 
#    0.000   10.000    0.000    0.000    0.000    6.462 
#    0.000    0.000    0.000    0.000    0.000    0.000 
#
# Total GULP energy -644481.708243 kJ/mol
# GULP energy per Si atom -12393.879005 kJ/mol
# Density = 1.982055 g / cm^3
# Si number density = 19.865768 Si / 1000 Ang^3
#
#
#
# Elastic Constant Matrix: (Units=GPa)
#
#
# Indices 1 2 3 4 5 6 
#
# 1 94.6966 54.7393 24.6334 0.0000 0.0000 0.0000
# 2 54.7393 105.7043 37.1366 0.0000 0.0000 0.0000
# 3 24.6334 37.1366 62.8531 0.0000 0.0000 0.0000
# 4 0.0000 0.0000 0.0000 33.2773 0.0000 0.0000
# 5 0.0000 0.0000 0.0000 0.0000 23.3769 0.0000
# 6 0.0000 0.0000 0.0000 0.0000 0.0000 30.6749
#
#
#
# Elastic Compliance Matrix: (Units=1/GPa)
#
#
# Indices 1 2 3 4 5 6 
#
# 1 0.015206 -0.007295 -0.001649 0.000000 0.000000 0.000000
# 2 -0.007295 0.015438 -0.006263 0.000000 0.000000 0.000000
# 3 -0.001649 -0.006263 0.020257 0.000000 0.000000 0.000000
# 4 0.000000 0.000000 0.000000 0.030051 0.000000 0.000000
# 5 0.000000 0.000000 0.000000 0.000000 0.042777 0.000000
# 6 0.000000 0.000000 0.000000 0.000000 0.000000 0.032600
#
#
# Mechanical properties :
#
#
# Convention : Reuss Voigt Hill
#
# Bulk Modulus (GPa) = 48.81101 55.14141 51.97621
# Shear Modulus (GPa) = 25.83023 27.24880 26.53951
#
# Velocity S-wave (km/s) = 3.60979 3.70759 3.65902
# Velocity P-wave (km/s) = 6.48058 6.79305 6.63865
#
# Compressibility (1/GPa) = 0.02048718
#
# Stress axis : x y z
#
# Youngs Moduli (GPa) = 65.76378 64.77397 49.36625
#
# Poissons Ratio (x) = 0.47253 0.08142
# Poissons Ratio (y) = 0.47975 0.30916
# Poissons Ratio (z) = 0.10846 0.40565
#
# Static dielectric constant tensor:
#      x y z
#    x 3.625280 0.000000 0.000000 
#    y 0.000000 3.733490 0.000000 
#    z 0.000000 0.000000 3.741090 
# 
# 
# High freq. dielectric constant tensor:
#      x y z
#    x 1.778800 0.000000 0.000000 
#    y 0.000000 1.778520 0.000000 
#    z 0.000000 0.000000 1.764210 
# 
# From -- ./inp_files/19366.got.cif
#   From: 2010.03.12/outbox.cif.g09.slc.cpg/sg50_10_cif.got.tgz:19366.got - 2010.04.16 13:23:21.
