data_PCOD8205525
_publ_section_title
;
Structure prediction by ZEFSAII (Michael W. Deem and Ramdas Pophale) SiO2 
 PCOD8205525
Probable space group: P B A N
;
_chemical_formula_sum "Si O2"
_cell_formula_units_Z 44
_cell_length_a 18.021712
_cell_length_b 8.232405
_cell_length_c 14.381046
_cell_angle_alpha 90.000000
_cell_angle_beta 90.000000
_cell_angle_gamma 90.000000
_cell_volume 2133.601207
_symmetry_space_group_name_H-M "P B A N"
_symmetry_group_IT_number 50
_space_group.IT_coordinate_system_code '2'
_symmetry_cell_setting 'orthorhombic'
loop_
_space_group_symop_operation_xyz
x,y,z
1/2-x,1/2-y,z
x,1/2-y,-z
1/2-x,y,-z
-x,-y,-z
1/2+x,1/2+y,-z
-x,1/2+y,z
1/2+x,-y,z
loop_
_atom_site_type_symbol
_atom_site_label
_atom_site_fract_x
_atom_site_fract_y
_atom_site_fract_z
Si Si1 0.554391 0.494993 0.632051
Si Si2 0.287831 0.412919 0.098115
Si Si3 0.821823 0.169451 0.747644
Si Si4 0.013740 0.250000 0.500000
Si Si5 0.057243 0.936406 0.788039
Si Si6 0.940722 0.749177 0.900877
O O1 0.630726 0.456013 0.685894
O O2 0.543671 0.369197 0.549465
O O3 0.564621 0.667404 0.579800
O O4 0.478876 0.490199 0.694226
O O5 0.250000 0.250000 0.142181
O O6 0.287721 0.569005 0.165356
O O7 0.372274 0.366613 0.078382
O O8 0.250000 0.459981 0.000000
O O9 0.750000 0.250000 0.696476
O O10 0.872646 0.321759 0.774388
O O11 0.991437 0.824948 0.823440
O O12 0.082256 0.072240 0.862245
O O13 0.983924 0.750000 0.000000
#
# Coordination Sequence:
#
# PCOD8205525 Si02
#       6
#     8   8   8   4   8   8
#     4  11  21  44  73 107 138 179 225 297 358 438
#     4  11  23  44  62  91 141 189 235 291 355 411
#     4  12  26  44  68 103 138 190 234 293 363 433
#     4  10  22  40  79 109 134 170 236 286 364 438
#     4  12  23  43  69 101 139 183 240 290 359 424
#     4  12  22  39  64  94 133 186 243 296 334 414
#
# _framework density 20.622412000000001
#
# number of rings (size 3 to 8) (size 9 to 14) (size 15 to 20)
#    0.000    0.545    7.273    1.636    0.000    0.364 
#    0.000    0.455    0.000    1.091    0.000    0.000 
#    0.000    0.000    0.000    0.000    0.000    0.000 
#
# Total GULP energy -545306.710630 kJ/mol
# GULP energy per Si atom -12393.334333 kJ/mol
# Density = 2.057547 g / cm^3
# Si number density = 20.622412 Si / 1000 Ang^3
#
#
#
# Elastic Constant Matrix: (Units=GPa)
#
#
# Indices 1 2 3 4 5 6 
#
# 1 122.9583 38.6653 37.8689 0.0000 0.0000 0.0000
# 2 38.6653 87.5098 42.7324 0.0000 0.0000 0.0000
# 3 37.8689 42.7324 98.8873 0.0000 0.0000 0.0000
# 4 0.0000 0.0000 0.0000 47.6488 0.0000 0.0000
# 5 0.0000 0.0000 0.0000 0.0000 32.4468 0.0000
# 6 0.0000 0.0000 0.0000 0.0000 0.0000 50.9496
#
#
#
# Elastic Compliance Matrix: (Units=1/GPa)
#
#
# Indices 1 2 3 4 5 6 
#
# 1 0.009876 -0.003190 -0.002404 0.000000 0.000000 0.000000
# 2 -0.003190 0.015514 -0.005482 0.000000 0.000000 0.000000
# 3 -0.002404 -0.005482 0.013402 0.000000 0.000000 0.000000
# 4 0.000000 0.000000 0.000000 0.020987 0.000000 0.000000
# 5 0.000000 0.000000 0.000000 0.000000 0.030820 0.000000
# 6 0.000000 0.000000 0.000000 0.000000 0.000000 0.019627
#
#
# Mechanical properties :
#
#
# Convention : Reuss Voigt Hill
#
# Bulk Modulus (GPa) = 60.09555 60.87653 60.48604
# Shear Modulus (GPa) = 36.25160 38.88162 37.56661
#
# Velocity S-wave (km/s) = 4.19725 4.34684 4.27270
# Velocity P-wave (km/s) = 7.25902 7.40115 7.33043
#
# Compressibility (1/GPa) = 0.01664017
#
# Stress axis : x y z
#
# Youngs Moduli (GPa) = 101.25324 64.45820 74.61497
#
# Poissons Ratio (x) = 0.20562 0.17934
# Poissons Ratio (y) = 0.32300 0.40907
# Poissons Ratio (z) = 0.24337 0.35339
#
# Static dielectric constant tensor:
#      x y z
#    x 4.916530 0.000000 0.000000 
#    y 0.000000 4.018720 0.000000 
#    z 0.000000 0.000000 4.204530 
# 
# 
# High freq. dielectric constant tensor:
#      x y z
#    x 1.792080 0.000000 0.000000 
#    y 0.000000 1.825690 0.000000 
#    z 0.000000 0.000000 1.802140 
# 
# From -- ./inp_files/24916.got.cif
#   From: 2010.03.12/outbox.cif.g09.slc.cpg/sg50_13_cif.got.tgz:24916.got - 2010.04.16 13:23:21.
