data_PCOD8205442
_publ_section_title
;
Structure prediction by ZEFSAII (Michael W. Deem and Ramdas Pophale) SiO2 
 PCOD8205442
Probable space group: P B A N
;
_chemical_formula_sum "Si O2"
_cell_formula_units_Z 36
_cell_length_a 5.185402
_cell_length_b 12.794860
_cell_length_c 23.001065
_cell_angle_alpha 90.000000
_cell_angle_beta 90.000000
_cell_angle_gamma 90.000000
_cell_volume 1526.039990
_symmetry_space_group_name_H-M "P B A N"
_symmetry_group_IT_number 50
_space_group.IT_coordinate_system_code '2'
_symmetry_cell_setting 'orthorhombic'
loop_
_space_group_symop_operation_xyz
x,y,z
1/2-x,1/2-y,z
x,1/2-y,-z
1/2-x,y,-z
-x,-y,-z
1/2+x,1/2+y,-z
-x,1/2+y,z
1/2+x,-y,z
loop_
_atom_site_type_symbol
_atom_site_label
_atom_site_fract_x
_atom_site_fract_y
_atom_site_fract_z
Si Si1 0.557006 0.566869 0.790946
Si Si2 0.993282 0.814197 0.678902
Si Si3 0.433819 0.564646 0.570605
Si Si4 0.931033 0.930617 0.924026
Si Si5 0.250000 0.250000 0.000000
Si Si6 0.750000 0.250000 0.500000
O O1 0.302609 0.502486 0.777501
O O2 0.558139 0.663057 0.746811
O O3 0.562602 0.606676 0.857222
O O4 0.250000 0.750000 0.671765
O O5 0.030387 0.918364 0.640060
O O6 0.750000 0.750000 0.654392
O O7 0.668024 0.490915 0.551185
O O8 0.435705 0.678374 0.540158
O O9 0.676529 0.997996 0.939255
O O10 0.933393 0.823728 0.960793
#
# Coordination Sequence:
#
# PCOD8205442 Si02
#       6
#     8   8   8   8   2   2
#     4  10  21  42  65  94 135 178 221 282 345 407
#     4  12  24  42  70 104 141 178 231 288 338 414
#     4  12  27  48  74 105 141 188 230 285 353 408
#     4  10  24  43  65  98 135 173 229 281 335 405
#     4  12  24  42  72  96 132 190 220 284 336 404
#     4  12  28  50  76 108 144 182 244 292 328 416
#
# _framework density 23.590471000000001
#
# number of rings (size 3 to 8) (size 9 to 14) (size 15 to 20)
#    0.000    0.889    1.111    5.333    1.556    2.667 
#    0.000    0.000    0.000    0.000    0.000    0.000 
#    0.000    0.000    0.000    0.000    0.000    0.000 
#
# Total GULP energy -446570.158356 kJ/mol
# GULP energy per Si atom -12404.726621 kJ/mol
# Density = 2.353678 g / cm^3
# Si number density = 23.590471 Si / 1000 Ang^3
#
#
#
# Elastic Constant Matrix: (Units=GPa)
#
#
# Indices 1 2 3 4 5 6 
#
# 1 199.0986 62.6140 36.5839 0.0000 0.0000 0.0000
# 2 62.6140 124.2335 63.9404 0.0000 0.0000 0.0000
# 3 36.5839 63.9404 108.5202 0.0000 0.0000 0.0000
# 4 0.0000 0.0000 0.0000 66.7153 0.0000 0.0000
# 5 0.0000 0.0000 0.0000 0.0000 35.8740 0.0000
# 6 0.0000 0.0000 0.0000 0.0000 0.0000 22.7814
#
#
#
# Elastic Compliance Matrix: (Units=1/GPa)
#
#
# Indices 1 2 3 4 5 6 
#
# 1 0.005978 -0.002835 -0.000345 0.000000 0.000000 0.000000
# 2 -0.002835 0.012898 -0.006643 0.000000 0.000000 0.000000
# 3 -0.000345 -0.006643 0.013245 0.000000 0.000000 0.000000
# 4 0.000000 0.000000 0.000000 0.014989 0.000000 0.000000
# 5 0.000000 0.000000 0.000000 0.000000 0.027875 0.000000
# 6 0.000000 0.000000 0.000000 0.000000 0.000000 0.043896
#
#
# Mechanical properties :
#
#
# Convention : Reuss Voigt Hill
#
# Bulk Modulus (GPa) = 80.16774 84.23654 82.20214
# Shear Modulus (GPa) = 35.04211 42.98840 39.01525
#
# Velocity S-wave (km/s) = 3.85832 4.27345 4.07118
# Velocity P-wave (km/s) = 7.34205 7.75469 7.55119
#
# Compressibility (1/GPa) = 0.01247385
#
# Stress axis : x y z
#
# Youngs Moduli (GPa) = 167.28982 77.53318 75.49797
#
# Poissons Ratio (x) = 0.21984 0.02601
# Poissons Ratio (y) = 0.47434 0.50157
# Poissons Ratio (z) = 0.05763 0.51509
#
# Static dielectric constant tensor:
#      x y z
#    x 4.242960 0.000000 0.000000 
#    y 0.000000 4.035330 0.000000 
#    z 0.000000 0.000000 4.689940 
# 
# 
# High freq. dielectric constant tensor:
#      x y z
#    x 1.942880 0.000000 0.000000 
#    y 0.000000 1.921770 0.000000 
#    z 0.000000 0.000000 1.964700 
# 
# From -- ./inp_files/31362.got.cif
#   From: 2010.03.12/outbox.cif.g09.slc.cpg/sg50_16_cif.got.tgz:31362.got - 2010.04.16 13:23:21.
