data_PCOD8205228
_publ_section_title
;
Structure prediction by ZEFSAII (Michael W. Deem and Ramdas Pophale) SiO2 
 PCOD8205228
Probable space group: P B A N
;
_chemical_formula_sum "Si O2"
_cell_formula_units_Z 26
_cell_length_a 18.926307
_cell_length_b 5.437684
_cell_length_c 11.280390
_cell_angle_alpha 90.000000
_cell_angle_beta 90.000000
_cell_angle_gamma 90.000000
_cell_volume 1160.924459
_symmetry_space_group_name_H-M "P B A N"
_symmetry_group_IT_number 50
_space_group.IT_coordinate_system_code '2'
_symmetry_cell_setting 'orthorhombic'
loop_
_space_group_symop_operation_xyz
x,y,z
1/2-x,1/2-y,z
x,1/2-y,-z
1/2-x,y,-z
-x,-y,-z
1/2+x,1/2+y,-z
-x,1/2+y,z
1/2+x,-y,z
loop_
_atom_site_type_symbol
_atom_site_label
_atom_site_fract_x
_atom_site_fract_y
_atom_site_fract_z
Si Si1 0.170436 0.496204 0.547890
Si Si2 0.750000 0.750000 0.000000
Si Si3 0.031899 0.743767 0.136367
Si Si4 0.181524 0.591481 0.813054
O O1 0.133828 0.750000 0.500000
O O2 0.250000 0.498007 0.500000
O O3 0.165561 0.461355 0.688937
O O4 0.131411 0.250000 0.500000
O O5 0.803805 0.596914 0.080944
O O6 0.116395 0.735253 0.150556
O O7 0.999234 0.495836 0.195666
O O8 0.008744 0.750000 0.000000
O O9 0.250000 0.750000 0.791361
#
# Coordination Sequence:
#
# PCOD8205228 Si02
#       4
#     8   2   8   8
#     4  10  20  39  62  94 123 173 217 272 323 396
#     4  12  26  36  62 110 140 156 220 302 350 376
#     4  10  24  43  64  91 138 185 221 259 338 424
#     4  12  25  41  68 102 137 170 230 287 337 400
#
# _framework density 22.395942999999999
#
# number of rings (size 3 to 8) (size 9 to 14) (size 15 to 20)
#    0.000    1.231    3.077    4.154   10.769    0.000 
#    0.000    0.000    0.000    5.538    0.000    0.000 
#    0.000    0.000    0.000    0.000    0.000    0.000 
#
# Total GULP energy -322283.964715 kJ/mol
# GULP energy per Si atom -12395.537104 kJ/mol
# Density = 2.234497 g / cm^3
# Si number density = 22.395943 Si / 1000 Ang^3
#
#
#
# Elastic Constant Matrix: (Units=GPa)
#
#
# Indices 1 2 3 4 5 6 
#
# 1 96.1167 43.6583 -1.0685 0.0000 0.0000 0.0000
# 2 43.6583 206.5003 52.3238 0.0000 0.0000 0.0000
# 3 -1.0685 52.3238 137.1683 0.0000 0.0000 0.0000
# 4 0.0000 0.0000 0.0000 29.0986 0.0000 0.0000
# 5 0.0000 0.0000 0.0000 0.0000 -29.4855 0.0000
# 6 0.0000 0.0000 0.0000 0.0000 0.0000 4.0179
#
#
#
# Elastic Compliance Matrix: (Units=1/GPa)
#
#
# Indices 1 2 3 4 5 6 
#
# 1 0.011669 -0.002756 0.001142 0.000000 0.000000 0.000000
# 2 -0.002756 0.006012 -0.002315 0.000000 0.000000 0.000000
# 3 0.001142 -0.002315 0.008182 0.000000 0.000000 0.000000
# 4 0.000000 0.000000 0.000000 0.034366 0.000000 0.000000
# 5 0.000000 0.000000 0.000000 0.000000 -0.033915 0.000000
# 6 0.000000 0.000000 0.000000 0.000000 0.000000 0.248883
#
#
# Mechanical properties :
#
#
# Convention : Reuss Voigt Hill
#
# Bulk Modulus (GPa) = 55.53967 69.95698 62.74832
# Shear Modulus (GPa) = 17.29765 23.71766 20.50766
#
# Velocity S-wave (km/s) = 2.78215 3.25778 3.02931
# Velocity P-wave (km/s) = 5.93071 6.74204 6.34935
#
# Compressibility (1/GPa) = 0.01800515
#
# Stress axis : x y z
#
# Youngs Moduli (GPa) = 85.69882 166.33673 122.21666
#
# Poissons Ratio (x) = 0.45850 -0.13962
# Poissons Ratio (y) = 0.23623 0.28290
# Poissons Ratio (z) = -0.09790 0.38503
#
# Static dielectric constant tensor:
#      x y z
#    x 3.587670 0.000000 0.000000 
#    y 0.000000 5.559930 0.000000 
#    z 0.000000 0.000000 4.153520 
# 
# 
# High freq. dielectric constant tensor:
#      x y z
#    x 1.840350 0.000000 0.000000 
#    y 0.000000 1.903290 0.000000 
#    z 0.000000 0.000000 1.870900 
# 
# From -- ./inp_files/21468.got.cif
#   From: 2010.03.12/outbox.cif.g09.slc.cpg/sg50_11_cif.got.tgz:21468.got - 2010.04.16 13:23:21.
