data_PCOD8205443
_publ_section_title
;
Structure prediction by ZEFSAII (Michael W. Deem and Ramdas Pophale) SiO2 
 PCOD8205443
Probable space group: P B A N
;
_chemical_formula_sum "Si O2"
_cell_formula_units_Z 46
_cell_length_a 8.034992
_cell_length_b 16.494660
_cell_length_c 16.749539
_cell_angle_alpha 90.000000
_cell_angle_beta 90.000000
_cell_angle_gamma 90.000000
_cell_volume 2219.891126
_symmetry_space_group_name_H-M "P B A N"
_symmetry_group_IT_number 50
_space_group.IT_coordinate_system_code '2'
_symmetry_cell_setting 'orthorhombic'
loop_
_space_group_symop_operation_xyz
x,y,z
1/2-x,1/2-y,z
x,1/2-y,-z
1/2-x,y,-z
-x,-y,-z
1/2+x,1/2+y,-z
-x,1/2+y,z
1/2+x,-y,z
loop_
_atom_site_type_symbol
_atom_site_label
_atom_site_fract_x
_atom_site_fract_y
_atom_site_fract_z
Si Si1 0.412891 0.636035 0.446132
Si Si2 0.750000 0.250000 0.334722
Si Si3 0.944497 0.894335 0.920629
Si Si4 0.250000 0.974236 0.000000
Si Si5 0.077360 0.899448 0.742875
Si Si6 0.750000 0.597346 0.500000
Si Si7 0.816474 0.508602 0.346981
Si Si8 0.250000 0.250000 0.000000
O O1 0.250000 0.621729 0.500000
O O2 0.393672 0.716107 0.392772
O O3 0.576208 0.647518 0.502651
O O4 0.431830 0.562481 0.382920
O O5 0.834615 0.184161 0.278579
O O6 0.866027 0.807059 0.944118
O O7 0.096614 0.915891 0.979395
O O8 0.020678 0.893022 0.833290
O O9 0.804882 0.965337 0.927590
O O10 0.917732 0.915691 0.688156
O O11 0.201702 0.974255 0.724738
O O12 0.716756 0.543264 0.422183
#
# Coordination Sequence:
#
# PCOD8205443 Si02
#       8
#     8   4   8   4   8   4   8   2
#     4  11  22  40  63  84 125 163 222 284 323 379
#     4  10  25  42  52  89 134 166 202 272 336 389
#     4  10  21  42  66 100 129 172 206 271 316 397
#     4   9  20  40  72  99 126 156 228 257 320 386
#     4  11  23  41  64  89 130 162 207 267 334 372
#     4  12  20  38  67  89 114 172 228 274 318 391
#     4  11  21  38  63  93 115 160 224 270 316 378
#     4  10  24  42  64  98 140 170 216 242 324 418
#
# _framework density 20.721738999999999
#
# number of rings (size 3 to 8) (size 9 to 14) (size 15 to 20)
#    0.000    1.391    2.609    3.913    0.000    1.739 
#    3.130    9.565    0.000    0.000    0.000    0.000 
#    0.000    0.000    0.000    0.000    0.000    0.000 
#
# Total GULP energy -570004.191926 kJ/mol
# GULP energy per Si atom -12391.395477 kJ/mol
# Density = 2.067458 g / cm^3
# Si number density = 20.721739 Si / 1000 Ang^3
#
#
#
# Elastic Constant Matrix: (Units=GPa)
#
#
# Indices 1 2 3 4 5 6 
#
# 1 142.3843 58.8978 60.0676 0.0000 0.0000 0.0000
# 2 58.8978 114.9924 60.7224 0.0000 0.0000 0.0000
# 3 60.0676 60.7224 130.0498 0.0000 0.0000 0.0000
# 4 0.0000 0.0000 0.0000 8.9675 0.0000 0.0000
# 5 0.0000 0.0000 0.0000 0.0000 41.0101 0.0000
# 6 0.0000 0.0000 0.0000 0.0000 0.0000 22.3341
#
#
#
# Elastic Compliance Matrix: (Units=1/GPa)
#
#
# Indices 1 2 3 4 5 6 
#
# 1 0.009647 -0.003435 -0.002852 0.000000 0.000000 0.000000
# 2 -0.003435 0.012765 -0.004374 0.000000 0.000000 0.000000
# 3 -0.002852 -0.004374 0.011049 0.000000 0.000000 0.000000
# 4 0.000000 0.000000 0.000000 0.111513 0.000000 0.000000
# 5 0.000000 0.000000 0.000000 0.000000 0.024384 0.000000
# 6 0.000000 0.000000 0.000000 0.000000 0.000000 0.044775
#
#
# Mechanical properties :
#
#
# Convention : Reuss Voigt Hill
#
# Bulk Modulus (GPa) = 82.37454 82.97800 82.67627
# Shear Modulus (GPa) = 20.87668 28.31161 24.59415
#
# Velocity S-wave (km/s) = 3.17752 3.70033 3.44884
# Velocity P-wave (km/s) = 7.30077 7.64117 7.47291
#
# Compressibility (1/GPa) = 0.01213967
#
# Stress axis : x y z
#
# Youngs Moduli (GPa) = 103.65447 78.33766 90.50805
#
# Poissons Ratio (x) = 0.26911 0.25813
# Poissons Ratio (y) = 0.35608 0.39585
# Poissons Ratio (z) = 0.29562 0.34262
#
# Static dielectric constant tensor:
#      x y z
#    x 4.013390 0.000000 0.000000 
#    y 0.000000 3.812290 0.000000 
#    z 0.000000 0.000000 3.537980 
# 
# 
# High freq. dielectric constant tensor:
#      x y z
#    x 1.822070 0.000000 0.000000 
#    y 0.000000 1.806750 0.000000 
#    z 0.000000 0.000000 1.798210 
# 
# From -- ./inp_files/28841.got.cif
#   From: 2010.03.12/outbox.cif.g09.slc.cpg/sg50_15_cif.got.tgz:28841.got - 2010.04.16 13:23:21.
