data_PCOD8205099
_publ_section_title
;
Structure prediction by ZEFSAII (Michael W. Deem and Ramdas Pophale) SiO2 
 PCOD8205099
Probable space group: P B A N
;
_chemical_formula_sum "Si O2"
_cell_formula_units_Z 56
_cell_length_a 8.754032
_cell_length_b 18.436948
_cell_length_c 18.370982
_cell_angle_alpha 90.000000
_cell_angle_beta 90.000000
_cell_angle_gamma 90.000000
_cell_volume 2965.033007
_symmetry_space_group_name_H-M "P B A N"
_symmetry_group_IT_number 50
_space_group.IT_coordinate_system_code '2'
_symmetry_cell_setting 'orthorhombic'
loop_
_space_group_symop_operation_xyz
x,y,z
1/2-x,1/2-y,z
x,1/2-y,-z
1/2-x,y,-z
-x,-y,-z
1/2+x,1/2+y,-z
-x,1/2+y,z
1/2+x,-y,z
loop_
_atom_site_type_symbol
_atom_site_label
_atom_site_fract_x
_atom_site_fract_y
_atom_site_fract_z
Si Si1 0.924642 0.164046 0.647756
Si Si2 0.571126 0.079015 0.921197
Si Si3 0.429789 0.420466 0.777469
Si Si4 0.429789 0.420465 0.222530
Si Si5 0.071127 0.579015 0.921197
Si Si6 0.075357 0.835953 0.647756
Si Si7 0.577667 0.663758 0.500000
O O1 0.939482 0.249999 0.652828
O O2 0.749999 0.138576 0.655293
O O3 0.025377 0.130326 0.711106
O O4 0.989198 0.135019 0.571003
O O5 0.491630 0.118006 0.852161
O O6 0.749999 0.073052 0.905417
O O7 0.499999 0.000000 0.925616
O O8 0.541840 0.118175 0.000000
O O9 0.250000 0.427609 0.781757
O O10 0.499999 0.500001 0.766927
O O11 0.491632 0.381995 0.852160
O O12 0.474622 0.369671 0.288893
O O13 0.010799 0.864981 0.571004
O O14 0.579237 0.750000 0.500000
O O15 0.750000 0.633035 0.500000
#
# Coordination Sequence:
#
# PCOD8205099 Si02
#       7
#     8   8   8   8   8   8   8
#     4  10  20  35  55  77 102 133 169 207 249 298
#     4   9  16  27  45  69  97 129 166 206 247 293
#     4  11  21  33  51  75 105 136 168 208 253 299
#     4  11  21  33  51  75 105 136 168 208 253 299
#     4   9  16  27  45  69  97 129 166 206 247 293
#     4  10  20  35  55  77 102 133 169 207 249 298
#     4   9  17  31  52  77 102 129 166 207 245 291
#
# _framework density 18.886806
#
# number of rings (size 3 to 8) (size 9 to 14) (size 15 to 20)
#    0.000    2.143    0.000    6.429    0.000    5.143 
#    0.000    0.714    0.000    0.857    0.000    6.000 
#    0.000    0.000    0.000    0.000    0.000    0.000 
#
# Total GULP energy -694076.447617 kJ/mol
# GULP energy per Si atom -12394.222279 kJ/mol
# Density = 1.884382 g / cm^3
# Si number density = 18.886806 Si / 1000 Ang^3
#
#
#
# Elastic Constant Matrix: (Units=GPa)
#
#
# Indices 1 2 3 4 5 6 
#
# 1 162.6752 22.2425 75.2193 0.0000 0.0000 0.0000
# 2 22.2425 16.7051 26.5512 0.0000 0.0000 0.0000
# 3 75.2193 26.5512 191.4049 0.0000 0.0000 0.0000
# 4 0.0000 0.0000 0.0000 39.5716 0.0000 0.0000
# 5 0.0000 0.0000 0.0000 0.0000 38.1184 0.0000
# 6 0.0000 0.0000 0.0000 0.0000 0.0000 21.3561
#
#
#
# Elastic Compliance Matrix: (Units=1/GPa)
#
#
# Indices 1 2 3 4 5 6 
#
# 1 0.008169 -0.007408 -0.002183 0.000000 0.000000 0.000000
# 2 -0.007408 0.083510 -0.008673 0.000000 0.000000 0.000000
# 3 -0.002183 -0.008673 0.007285 0.000000 0.000000 0.000000
# 4 0.000000 0.000000 0.000000 0.025271 0.000000 0.000000
# 5 0.000000 0.000000 0.000000 0.000000 0.026234 0.000000
# 6 0.000000 0.000000 0.000000 0.000000 0.000000 0.046825
#
#
# Mechanical properties :
#
#
# Convention : Reuss Voigt Hill
#
# Bulk Modulus (GPa) = 16.01604 68.75681 42.38642
# Shear Modulus (GPa) = 19.63593 36.26072 27.94832
#
# Velocity S-wave (km/s) = 3.22788 4.38642 3.85096
# Velocity P-wave (km/s) = 4.73188 7.88276 6.50110
#
# Compressibility (1/GPa) = 0.06243740
#
# Stress axis : x y z
#
# Youngs Moduli (GPa) = 122.40743 11.97456 137.25954
#
# Poissons Ratio (x) = 0.08871 0.29962
# Poissons Ratio (y) = 0.90679 1.19047
# Poissons Ratio (z) = 0.26720 0.10386
#
# Static dielectric constant tensor:
#      x y z
#    x 3.712590 0.000000 0.000000 
#    y 0.000000 2.848880 0.000000 
#    z 0.000000 0.000000 4.360210 
# 
# 
# High freq. dielectric constant tensor:
#      x y z
#    x 1.756360 0.000000 0.000000 
#    y 0.000000 1.663220 0.000000 
#    z 0.000000 0.000000 1.765660 
# 
# From -- ./inp_files/28981.got.cif
#   From: 2010.03.12/outbox.cif.g09.slc.cpg/sg50_15_cif.got.tgz:28981.got - 2010.04.16 13:23:21.
