data_PCOD8205326
_publ_section_title
;
Structure prediction by ZEFSAII (Michael W. Deem and Ramdas Pophale) SiO2 
 PCOD8205326
Probable space group: P B A N
;
_chemical_formula_sum "Si O2"
_cell_formula_units_Z 56
_cell_length_a 9.473959
_cell_length_b 22.202362
_cell_length_c 13.167994
_cell_angle_alpha 90.000000
_cell_angle_beta 90.000000
_cell_angle_gamma 90.000000
_cell_volume 2769.812050
_symmetry_space_group_name_H-M "P B A N"
_symmetry_group_IT_number 50
_space_group.IT_coordinate_system_code '2'
_symmetry_cell_setting 'orthorhombic'
loop_
_space_group_symop_operation_xyz
x,y,z
1/2-x,1/2-y,z
x,1/2-y,-z
1/2-x,y,-z
-x,-y,-z
1/2+x,1/2+y,-z
-x,1/2+y,z
1/2+x,-y,z
loop_
_atom_site_type_symbol
_atom_site_label
_atom_site_fract_x
_atom_site_fract_y
_atom_site_fract_z
Si Si1 0.603095 0.335256 0.956756
Si Si2 0.588910 0.764332 0.799306
Si Si3 0.290763 0.916740 0.785548
Si Si4 0.094984 0.056114 0.474026
Si Si5 0.205918 0.055485 0.261387
Si Si6 0.498815 0.362439 0.170866
Si Si7 0.962634 0.625772 0.661833
O O1 0.508122 0.289572 0.890979
O O2 0.640430 0.394479 0.890925
O O3 0.750000 0.306023 0.000000
O O4 0.509979 0.354946 0.050776
O O5 0.750000 0.750000 0.833639
O O6 0.518226 0.700912 0.770048
O O7 0.585537 0.808059 0.700296
O O8 0.130545 0.895397 0.777259
O O9 0.376028 0.887047 0.692076
O O10 0.296516 0.988121 0.778812
O O11 0.250000 0.033058 0.500000
O O12 0.096639 0.069073 0.354351
O O13 0.053336 0.116174 0.539733
O O14 0.000000 0.000000 0.500000
O O15 0.365851 0.074549 0.285400
O O16 0.143827 0.098488 0.175246
#
# Coordination Sequence:
#
# PCOD8205326 Si02
#       7
#     8   8   8   8   8   8   8
#     4   9  22  40  61  89 121 165 213 259 310 369
#     4  11  22  42  65  89 124 164 218 261 310 376
#     4  10  21  37  61  89 125 162 205 259 311 374
#     4  10  21  36  63  92 121 159 201 253 313 382
#     4  11  21  38  61  92 126 161 206 254 325 381
#     4  11  23  38  61  88 124 166 211 255 315 373
#     4  10  21  39  59  93 123 158 207 261 314 371
#
# _framework density 20.217979
#
# number of rings (size 3 to 8) (size 9 to 14) (size 15 to 20)
#    0.000    1.714    2.857    1.286    2.000    8.571 
#    0.000    5.000    0.000    0.000    0.000    6.000 
#    0.000    0.000    0.000    0.000    0.000    0.000 
#
# Total GULP energy -694085.441146 kJ/mol
# GULP energy per Si atom -12394.382878 kJ/mol
# Density = 2.017196 g / cm^3
# Si number density = 20.217979 Si / 1000 Ang^3
#
#
#
# Elastic Constant Matrix: (Units=GPa)
#
#
# Indices 1 2 3 4 5 6 
#
# 1 66.1711 36.2549 35.3487 0.0000 0.0000 0.0000
# 2 36.2549 149.8133 51.1122 0.0000 0.0000 0.0000
# 3 35.3487 51.1122 74.3132 0.0000 0.0000 0.0000
# 4 0.0000 0.0000 0.0000 23.0796 0.0000 0.0000
# 5 0.0000 0.0000 0.0000 0.0000 28.8341 0.0000
# 6 0.0000 0.0000 0.0000 0.0000 0.0000 33.7526
#
#
#
# Elastic Compliance Matrix: (Units=1/GPa)
#
#
# Indices 1 2 3 4 5 6 
#
# 1 0.020784 -0.002165 -0.008398 0.000000 0.000000 0.000000
# 2 -0.002165 0.008947 -0.005124 0.000000 0.000000 0.000000
# 3 -0.008398 -0.005124 0.020975 0.000000 0.000000 0.000000
# 4 0.000000 0.000000 0.000000 0.043328 0.000000 0.000000
# 5 0.000000 0.000000 0.000000 0.000000 0.034681 0.000000
# 6 0.000000 0.000000 0.000000 0.000000 0.000000 0.029627
#
#
# Mechanical properties :
#
#
# Convention : Reuss Voigt Hill
#
# Bulk Modulus (GPa) = 51.72247 59.52547 55.62397
# Shear Modulus (GPa) = 25.48924 28.30536 26.89730
#
# Velocity S-wave (km/s) = 3.55452 3.74573 3.65137
# Velocity P-wave (km/s) = 6.51798 6.94356 6.73413
#
# Compressibility (1/GPa) = 0.01933396
#
# Stress axis : x y z
#
# Youngs Moduli (GPa) = 48.11285 111.76913 47.67512
#
# Poissons Ratio (x) = 0.24196 0.40036
# Poissons Ratio (y) = 0.10416 0.24429
# Poissons Ratio (z) = 0.40403 0.57270
#
# Static dielectric constant tensor:
#      x y z
#    x 3.556370 0.000000 0.000000 
#    y 0.000000 3.681170 0.000000 
#    z 0.000000 0.000000 3.716530 
# 
# 
# High freq. dielectric constant tensor:
#      x y z
#    x 1.805190 0.000000 0.000000 
#    y 0.000000 1.785660 0.000000 
#    z 0.000000 0.000000 1.775760 
# 
# From -- ./inp_files/25222.got.cif
#   From: 2010.03.12/outbox.cif.g09.slc.cpg/sg50_13_cif.got.tgz:25222.got - 2010.04.16 13:23:21.
