data_PCOD8205645
_publ_section_title
;
Structure prediction by ZEFSAII (Michael W. Deem and Ramdas Pophale) SiO2 
 PCOD8205645
Probable space group: P B A N
;
_chemical_formula_sum "Si O2"
_cell_formula_units_Z 48
_cell_length_a 11.142742
_cell_length_b 22.310612
_cell_length_c 8.440321
_cell_angle_alpha 90.000000
_cell_angle_beta 90.000000
_cell_angle_gamma 90.000000
_cell_volume 2098.275561
_symmetry_space_group_name_H-M "P B A N"
_symmetry_group_IT_number 50
_space_group.IT_coordinate_system_code '2'
_symmetry_cell_setting 'orthorhombic'
loop_
_space_group_symop_operation_xyz
x,y,z
1/2-x,1/2-y,z
x,1/2-y,-z
1/2-x,y,-z
-x,-y,-z
1/2+x,1/2+y,-z
-x,1/2+y,z
1/2+x,-y,z
loop_
_atom_site_type_symbol
_atom_site_label
_atom_site_fract_x
_atom_site_fract_y
_atom_site_fract_z
Si Si1 0.776445 0.584327 0.322494
Si Si2 0.021699 0.341953 0.767856
Si Si3 0.229570 0.863911 0.681444
Si Si4 0.344198 0.530567 0.142081
Si Si5 0.393456 0.726138 0.176486
Si Si6 0.546147 0.884026 0.886069
O O1 0.750000 0.561278 0.500000
O O2 0.866578 0.640915 0.344455
O O3 0.850094 0.533611 0.226665
O O4 0.661721 0.602611 0.219807
O O5 0.905639 0.382653 0.729320
O O6 0.973720 0.274788 0.728612
O O7 0.074477 0.353886 0.944092
O O8 0.250000 0.850419 0.500000
O O9 0.307655 0.920493 0.728789
O O10 0.260851 0.799040 0.767257
O O11 0.476395 0.552603 0.085469
O O12 0.250000 0.529142 0.000000
O O13 0.465384 0.664439 0.203582
O O14 0.381065 0.750000 0.000000
#
# Coordination Sequence:
#
# PCOD8205645 Si02
#       6
#     8   8   8   8   8   8
#     4  12  29  44  64  99 141 187 234 286 346 417
#     4  11  23  43  69  97 138 183 228 276 348 420
#     4  11  24  41  69 112 141 173 225 291 362 405
#     4  11  23  44  75 100 136 178 230 291 350 419
#     4   9  22  42  73 101 137 177 224 287 334 411
#     4  10  23  45  69 101 130 178 234 279 345 416
#
# _framework density 22.875926
#
# number of rings (size 3 to 8) (size 9 to 14) (size 15 to 20)
#    0.000    1.333    1.667    2.500    7.000    6.000 
#    0.000    3.333    0.000    0.000    0.000    0.000 
#    0.000    0.000    0.000    0.000    0.000    0.000 
#
# Total GULP energy -594867.266721 kJ/mol
# GULP energy per Si atom -12393.068057 kJ/mol
# Density = 2.282386 g / cm^3
# Si number density = 22.875926 Si / 1000 Ang^3
#
#
#
# Elastic Constant Matrix: (Units=GPa)
#
#
# Indices 1 2 3 4 5 6 
#
# 1 120.8781 52.7948 26.2760 0.0000 0.0000 0.0000
# 2 52.7948 99.8330 29.4434 0.0000 0.0000 0.0000
# 3 26.2760 29.4434 82.2459 0.0000 0.0000 0.0000
# 4 0.0000 0.0000 0.0000 30.9926 0.0000 0.0000
# 5 0.0000 0.0000 0.0000 0.0000 28.9627 0.0000
# 6 0.0000 0.0000 0.0000 0.0000 0.0000 224.9136
#
#
#
# Elastic Compliance Matrix: (Units=1/GPa)
#
#
# Indices 1 2 3 4 5 6 
#
# 1 0.010941 -0.005316 -0.001592 0.000000 0.000000 0.000000
# 2 -0.005316 0.013782 -0.003236 0.000000 0.000000 0.000000
# 3 -0.001592 -0.003236 0.013826 0.000000 0.000000 0.000000
# 4 0.000000 0.000000 0.000000 0.032266 0.000000 0.000000
# 5 0.000000 0.000000 0.000000 0.000000 0.034527 0.000000
# 6 0.000000 0.000000 0.000000 0.000000 0.000000 0.004446
#
#
# Mechanical properties :
#
#
# Convention : Reuss Voigt Hill
#
# Bulk Modulus (GPa) = 54.76203 57.77615 56.26909
# Shear Modulus (GPa) = 36.72070 69.93662 53.32866
#
# Velocity S-wave (km/s) = 4.01086 5.53521 4.83350
# Velocity P-wave (km/s) = 6.74092 8.13403 7.47002
#
# Compressibility (1/GPa) = 0.01826083
#
# Stress axis : x y z
#
# Youngs Moduli (GPa) = 91.40068 72.55642 72.32935
#
# Poissons Ratio (x) = 0.38573 0.11516
# Poissons Ratio (y) = 0.48591 0.23402
# Poissons Ratio (z) = 0.14553 0.23476
#
# Static dielectric constant tensor:
#      x y z
#    x 4.218520 0.000000 0.000000 
#    y 0.000000 4.465110 0.000000 
#    z 0.000000 0.000000 3.851980 
# 
# 
# High freq. dielectric constant tensor:
#      x y z
#    x 1.911740 0.000000 0.000000 
#    y 0.000000 1.919210 0.000000 
#    z 0.000000 0.000000 1.884610 
# 
# From -- ./inp_files/11529.got.cif
#   From: 2010.03.12/outbox.cif.g09.slc.cpg/sg50_6_cif.got.tgz:11529.got - 2010.04.16 13:23:21.
