data_PCOD8205630
_publ_section_title
;
Structure prediction by ZEFSAII (Michael W. Deem and Ramdas Pophale) SiO2 
 PCOD8205630
Probable space group: P B A N
;
_chemical_formula_sum "Si O2"
_cell_formula_units_Z 34
_cell_length_a 7.848375
_cell_length_b 22.667711
_cell_length_c 8.805581
_cell_angle_alpha 90.000000
_cell_angle_beta 90.000000
_cell_angle_gamma 90.000000
_cell_volume 1566.554214
_symmetry_space_group_name_H-M "P B A N"
_symmetry_group_IT_number 50
_space_group.IT_coordinate_system_code '2'
_symmetry_cell_setting 'orthorhombic'
loop_
_space_group_symop_operation_xyz
x,y,z
1/2-x,1/2-y,z
x,1/2-y,-z
1/2-x,y,-z
-x,-y,-z
1/2+x,1/2+y,-z
-x,1/2+y,z
1/2+x,-y,z
loop_
_atom_site_type_symbol
_atom_site_label
_atom_site_fract_x
_atom_site_fract_y
_atom_site_fract_z
Si Si1 0.250000 0.250000 0.000000
Si Si2 0.274542 0.531591 0.821415
Si Si3 0.080889 0.606368 0.594276
Si Si4 0.324867 0.191158 0.283321
Si Si5 0.613648 0.575712 0.687515
O O1 0.366739 0.291704 0.892235
O O2 0.122973 0.570698 0.747779
O O3 0.456272 0.562067 0.798845
O O4 0.266065 0.469026 0.731889
O O5 0.250000 0.523011 0.000000
O O6 0.250000 0.620438 0.500000
O O7 0.996954 0.668827 0.638041
O O8 0.946953 0.569655 0.488756
O O9 0.250000 0.250000 0.366099
O O10 0.177562 0.141853 0.287214
#
# Coordination Sequence:
#
# PCOD8205630 Si02
#       5
#     2   8   8   8   8
#     4   8  24  40  70  98 128 164 220 276 318 392
#     4  11  24  37  65  94 133 170 216 271 326 392
#     4  10  23  43  64  93 131 170 213 267 325 395
#     4  10  23  42  70  91 126 168 218 263 328 385
#     4  11  23  40  62  95 130 170 215 265 330 394
#
# _framework density 21.703685
#
# number of rings (size 3 to 8) (size 9 to 14) (size 15 to 20)
#    0.706    0.941    0.000    3.529    4.941    5.647 
#    0.000    8.235    0.000    7.059    0.000    0.000 
#    0.000    0.000    0.000    0.000    0.000    0.000 
#
# Total GULP energy -421353.927615 kJ/mol
# GULP energy per Si atom -12392.762577 kJ/mol
# Density = 2.165429 g / cm^3
# Si number density = 21.703685 Si / 1000 Ang^3
#
#
#
# Elastic Constant Matrix: (Units=GPa)
#
#
# Indices 1 2 3 4 5 6 
#
# 1 102.0766 64.2186 42.3123 0.0000 0.0000 0.0000
# 2 64.2186 167.7958 47.9544 0.0000 0.0000 0.0000
# 3 42.3123 47.9544 158.4547 0.0000 0.0000 0.0000
# 4 0.0000 0.0000 0.0000 211.1880 0.0000 0.0000
# 5 0.0000 0.0000 0.0000 0.0000 18.7270 0.0000
# 6 0.0000 0.0000 0.0000 0.0000 0.0000 32.2812
#
#
#
# Elastic Compliance Matrix: (Units=1/GPa)
#
#
# Indices 1 2 3 4 5 6 
#
# 1 0.013599 -0.004561 -0.002251 0.000000 0.000000 0.000000
# 2 -0.004561 0.008054 -0.001219 0.000000 0.000000 0.000000
# 3 -0.002251 -0.001219 0.007281 0.000000 0.000000 0.000000
# 4 0.000000 0.000000 0.000000 0.004735 0.000000 0.000000
# 5 0.000000 0.000000 0.000000 0.000000 0.053399 0.000000
# 6 0.000000 0.000000 0.000000 0.000000 0.000000 0.030978
#
#
# Mechanical properties :
#
#
# Convention : Reuss Voigt Hill
#
# Bulk Modulus (GPa) = 77.69577 81.92197 79.80887
# Shear Modulus (GPa) = 36.12729 70.69537 53.41133
#
# Velocity S-wave (km/s) = 4.08434 5.71347 4.96616
# Velocity P-wave (km/s) = 7.62355 9.01956 8.35078
#
# Compressibility (1/GPa) = 0.01287071
#
# Stress axis : x y z
#
# Youngs Moduli (GPa) = 73.53322 124.16440 137.34266
#
# Poissons Ratio (x) = 0.56636 0.30916
# Poissons Ratio (y) = 0.33541 0.16747
# Poissons Ratio (z) = 0.16552 0.15140
#
# Static dielectric constant tensor:
#      x y z
#    x 4.001210 0.000000 0.000000 
#    y 0.000000 3.838390 0.000000 
#    z 0.000000 0.000000 3.994810 
# 
# 
# High freq. dielectric constant tensor:
#      x y z
#    x 1.849000 0.000000 0.000000 
#    y 0.000000 1.845720 0.000000 
#    z 0.000000 0.000000 1.865810 
# 
# From -- ./inp_files/9226.got.cif
#   From: 2010.03.12/outbox.cif.g09.slc.cpg/sg50_5_cif.got.tgz:9226.got - 2010.04.16 13:23:21.
