data_PCOD8205183
_publ_section_title
;
Structure prediction by ZEFSAII (Michael W. Deem and Ramdas Pophale) SiO2 
 PCOD8205183
Probable space group: P B A N
;
_chemical_formula_sum "Si O2"
_cell_formula_units_Z 38
_cell_length_a 12.967778
_cell_length_b 19.595812
_cell_length_c 7.473954
_cell_angle_alpha 90.000000
_cell_angle_beta 90.000000
_cell_angle_gamma 90.000000
_cell_volume 1899.237391
_symmetry_space_group_name_H-M "P B A N"
_symmetry_group_IT_number 50
_space_group.IT_coordinate_system_code '2'
_symmetry_cell_setting 'orthorhombic'
loop_
_space_group_symop_operation_xyz
x,y,z
1/2-x,1/2-y,z
x,1/2-y,-z
1/2-x,y,-z
-x,-y,-z
1/2+x,1/2+y,-z
-x,1/2+y,z
1/2+x,-y,z
loop_
_atom_site_type_symbol
_atom_site_label
_atom_site_fract_x
_atom_site_fract_y
_atom_site_fract_z
Si Si1 0.402543 0.862880 0.968838
Si Si2 0.241614 0.412591 0.698029
Si Si3 0.565025 0.822913 0.698289
Si Si4 0.462607 0.332235 0.294193
Si Si5 0.750000 0.018174 0.000000
Si Si6 0.750000 0.250000 0.000000
O O1 0.437033 0.850216 0.175144
O O2 0.348617 0.935755 0.955643
O O3 0.326186 0.802354 0.894882
O O4 0.501230 0.865781 0.842546
O O5 0.250000 0.444703 0.500000
O O6 0.318167 0.348357 0.703194
O O7 0.128647 0.385243 0.751009
O O8 0.276451 0.471719 0.830777
O O9 0.571543 0.744228 0.754408
O O10 0.511523 0.835378 0.505276
#
# Coordination Sequence:
#
# PCOD8205183 Si02
#       6
#     8   8   8   8   4   2
#     4  11  22  39  59  82 117 153 198 239 276 340
#     4  10  22  39  59  87 122 150 187 236 287 350
#     4  10  20  37  63  91 114 146 189 242 297 339
#     4  10  20  37  63  91 114 146 189 242 297 339
#     4  11  26  39  55  80 119 166 198 226 283 334
#     4  10  20  40  58  78 114 150 186 248 276 314
#
# _framework density 20.008030000000002
#
# number of rings (size 3 to 8) (size 9 to 14) (size 15 to 20)
#    0.000    1.684    2.105    1.895    0.000    7.579 
#    0.000   11.579    0.000    0.000    0.000    0.000 
#    0.000    0.000    0.000    0.000    0.000    0.000 
#
# Total GULP energy -471147.719409 kJ/mol
# GULP energy per Si atom -12398.624195 kJ/mol
# Density = 1.996249 g / cm^3
# Si number density = 20.008030 Si / 1000 Ang^3
#
#
#
# Elastic Constant Matrix: (Units=GPa)
#
#
# Indices 1 2 3 4 5 6 
#
# 1 59.2309 13.5583 25.1813 0.0000 0.0000 0.0000
# 2 13.5583 95.5038 38.1369 0.0000 0.0000 0.0000
# 3 25.1813 38.1369 98.3148 0.0000 0.0000 0.0000
# 4 0.0000 0.0000 0.0000 12.1512 0.0000 0.0000
# 5 0.0000 0.0000 0.0000 0.0000 21.7403 0.0000
# 6 0.0000 0.0000 0.0000 0.0000 0.0000 21.8251
#
#
#
# Elastic Compliance Matrix: (Units=1/GPa)
#
#
# Indices 1 2 3 4 5 6 
#
# 1 0.019010 -0.000893 -0.004523 0.000000 0.000000 0.000000
# 2 -0.000893 0.012432 -0.004594 0.000000 0.000000 0.000000
# 3 -0.004523 -0.004594 0.013112 0.000000 0.000000 0.000000
# 4 0.000000 0.000000 0.000000 0.082296 0.000000 0.000000
# 5 0.000000 0.000000 0.000000 0.000000 0.045998 0.000000
# 6 0.000000 0.000000 0.000000 0.000000 0.000000 0.045819
#
#
# Mechanical properties :
#
#
# Convention : Reuss Voigt Hill
#
# Bulk Modulus (GPa) = 40.75753 45.20029 42.97891
# Shear Modulus (GPa) = 20.25409 22.88818 21.57114
#
# Velocity S-wave (km/s) = 3.18512 3.38590 3.28704
# Velocity P-wave (km/s) = 5.82593 6.15840 5.99447
#
# Compressibility (1/GPa) = 0.02453534
#
# Stress axis : x y z
#
# Youngs Moduli (GPa) = 52.60327 80.43815 76.26741
#
# Poissons Ratio (x) = 0.07181 0.34494
# Poissons Ratio (y) = 0.04696 0.35035
# Poissons Ratio (z) = 0.23791 0.36951
#
# Static dielectric constant tensor:
#      x y z
#    x 3.634330 0.000000 0.000000 
#    y 0.000000 3.566910 0.000000 
#    z 0.000000 0.000000 3.694200 
# 
# 
# High freq. dielectric constant tensor:
#      x y z
#    x 1.779610 0.000000 0.000000 
#    y 0.000000 1.781010 0.000000 
#    z 0.000000 0.000000 1.776250 
# 
# From -- ./inp_files/11076.got.cif
#   From: 2010.03.12/outbox.cif.g09.slc.cpg/sg50_6_cif.got.tgz:11076.got - 2010.04.16 13:23:21.
