data_PCOD8205338
_publ_section_title
;
Structure prediction by ZEFSAII (Michael W. Deem and Ramdas Pophale) SiO2 
 PCOD8205338
Probable space group: P B A N
;
_chemical_formula_sum "Si O2"
_cell_formula_units_Z 56
_cell_length_a 9.601748
_cell_length_b 21.410565
_cell_length_c 14.626718
_cell_angle_alpha 90.000000
_cell_angle_beta 90.000000
_cell_angle_gamma 90.000000
_cell_volume 3006.943861
_symmetry_space_group_name_H-M "P B A N"
_symmetry_group_IT_number 50
_space_group.IT_coordinate_system_code '2'
_symmetry_cell_setting 'orthorhombic'
loop_
_space_group_symop_operation_xyz
x,y,z
1/2-x,1/2-y,z
x,1/2-y,-z
1/2-x,y,-z
-x,-y,-z
1/2+x,1/2+y,-z
-x,1/2+y,z
1/2+x,-y,z
loop_
_atom_site_type_symbol
_atom_site_label
_atom_site_fract_x
_atom_site_fract_y
_atom_site_fract_z
Si Si1 0.106349 0.856139 0.470021
Si Si2 0.089862 0.770704 0.301518
Si Si3 0.019774 0.863248 0.667006
Si Si4 0.119441 0.973104 0.062075
Si Si5 0.291815 0.560182 0.330315
Si Si6 0.498180 0.616215 0.196015
Si Si7 0.712483 0.558618 0.769150
O O1 0.250000 0.821903 0.500000
O O2 0.045228 0.812011 0.390322
O O3 0.151205 0.925430 0.432422
O O4 0.002062 0.865511 0.555797
O O5 0.250000 0.750000 0.298796
O O6 0.044104 0.811509 0.213207
O O7 0.999701 0.707914 0.301179
O O8 0.907719 0.902416 0.721225
O O9 0.172252 0.889252 0.693406
O O10 0.061104 0.906864 0.098868
O O11 0.158738 0.022988 0.140750
O O12 0.250000 0.956728 0.000000
O O13 0.000000 0.000000 0.000000
O O14 0.425507 0.570640 0.267850
O O15 0.236247 0.490663 0.309268
O O16 0.663815 0.605271 0.203230
#
# Coordination Sequence:
#
# PCOD8205338 Si02
#       7
#     8   8   8   8   8   8   8
#     4   9  17  31  57  86 109 158 221 256 289 341
#     4  11  19  35  61  83 115 163 213 259 287 353
#     4  11  21  33  59  86 114 166 209 249 301 352
#     4  11  22  40  69  94 117 154 194 246 303 382
#     4   9  18  34  56  82 116 158 203 250 296 357
#     4  10  21  37  57  89 121 152 197 246 309 357
#     4  11  23  37  55  90 128 149 192 250 319 378
#
# _framework density 18.623560000000001
#
# number of rings (size 3 to 8) (size 9 to 14) (size 15 to 20)
#    0.000    1.714    5.714    2.143    2.000    1.143 
#    0.000    7.143    0.000    6.429    0.000    0.000 
#    0.000    0.000    0.000    0.000    0.000    0.000 
#
# Total GULP energy -693771.456080 kJ/mol
# GULP energy per Si atom -12388.776001 kJ/mol
# Density = 1.858117 g / cm^3
# Si number density = 18.623560 Si / 1000 Ang^3
#
#
#
# Elastic Constant Matrix: (Units=GPa)
#
#
# Indices 1 2 3 4 5 6 
#
# 1 80.4205 30.4599 49.2458 0.0000 0.0000 0.0000
# 2 30.4599 116.1867 67.0184 0.0000 0.0000 0.0000
# 3 49.2458 67.0184 107.1894 0.0000 0.0000 0.0000
# 4 0.0000 0.0000 0.0000 31.3722 0.0000 0.0000
# 5 0.0000 0.0000 0.0000 0.0000 33.4061 0.0000
# 6 0.0000 0.0000 0.0000 0.0000 0.0000 15.9673
#
#
#
# Elastic Compliance Matrix: (Units=1/GPa)
#
#
# Indices 1 2 3 4 5 6 
#
# 1 0.017303 0.000077 -0.007997 0.000000 0.000000 0.000000
# 2 0.000077 0.013462 -0.008452 0.000000 0.000000 0.000000
# 3 -0.007997 -0.008452 0.018288 0.000000 0.000000 0.000000
# 4 0.000000 0.000000 0.000000 0.031875 0.000000 0.000000
# 5 0.000000 0.000000 0.000000 0.000000 0.029935 0.000000
# 6 0.000000 0.000000 0.000000 0.000000 0.000000 0.062628
#
#
# Mechanical properties :
#
#
# Convention : Reuss Voigt Hill
#
# Bulk Modulus (GPa) = 61.32192 66.36053 63.84123
# Shear Modulus (GPa) = 23.62140 26.62062 25.12101
#
# Velocity S-wave (km/s) = 3.56527 3.78485 3.67670
# Velocity P-wave (km/s) = 7.06730 7.40338 7.23729
#
# Compressibility (1/GPa) = 0.01630738
#
# Stress axis : x y z
#
# Youngs Moduli (GPa) = 57.79418 74.28267 54.68007
#
# Poissons Ratio (x) = -0.00571 0.43730
# Poissons Ratio (y) = -0.00445 0.46217
# Poissons Ratio (z) = 0.46221 0.62786
#
# Static dielectric constant tensor:
#      x y z
#    x 3.188320 0.000000 0.000000 
#    y 0.000000 3.658730 0.000000 
#    z 0.000000 0.000000 3.698860 
# 
# 
# High freq. dielectric constant tensor:
#      x y z
#    x 1.708360 0.000000 0.000000 
#    y 0.000000 1.716410 0.000000 
#    z 0.000000 0.000000 1.713790 
# 
# From -- ./inp_files/25223.got.cif
#   From: 2010.03.12/outbox.cif.g09.slc.cpg/sg50_13_cif.got.tgz:25223.got - 2010.04.16 13:23:21.
