data_PCOD8205712
_publ_section_title
;
Structure prediction by ZEFSAII (Michael W. Deem and Ramdas Pophale) SiO2 
 PCOD8205712
Probable space group: P B A N
;
_chemical_formula_sum "Si O2"
_cell_formula_units_Z 64
_cell_length_a 14.117896
_cell_length_b 17.888613
_cell_length_c 11.439215
_cell_angle_alpha 90.000000
_cell_angle_beta 90.000000
_cell_angle_gamma 90.000000
_cell_volume 2888.968920
_symmetry_space_group_name_H-M "P B A N"
_symmetry_group_IT_number 50
_space_group.IT_coordinate_system_code '2'
_symmetry_cell_setting 'orthorhombic'
loop_
_space_group_symop_operation_xyz
x,y,z
1/2-x,1/2-y,z
x,1/2-y,-z
1/2-x,y,-z
-x,-y,-z
1/2+x,1/2+y,-z
-x,1/2+y,z
1/2+x,-y,z
loop_
_atom_site_type_symbol
_atom_site_label
_atom_site_fract_x
_atom_site_fract_y
_atom_site_fract_z
Si Si1 0.853766 0.235725 0.634298
Si Si2 0.327476 0.573944 0.304936
Si Si3 0.630198 0.015468 0.687533
Si Si4 0.357057 0.434074 0.459704
Si Si5 0.990604 0.855314 0.704643
Si Si6 0.147856 0.893095 0.036880
Si Si7 0.036902 0.328947 0.964215
Si Si8 0.155520 0.045040 0.928223
O O1 0.750000 0.250000 0.695138
O O2 0.844323 0.250000 0.500000
O O3 0.878866 0.148033 0.646567
O O4 0.937118 0.286526 0.686643
O O5 0.215858 0.573505 0.340225
O O6 0.367052 0.498224 0.361319
O O7 0.347142 0.575122 0.167482
O O8 0.542086 0.065838 0.722508
O O9 0.595608 0.966094 0.577408
O O10 0.667504 0.958176 0.787641
O O11 0.250000 0.411778 0.500000
O O12 0.414358 0.363409 0.402897
O O13 0.939465 0.840326 0.827833
O O14 0.250000 0.861396 0.000000
O O15 0.073526 0.828454 0.004316
O O16 0.116312 0.963567 0.959517
O O17 0.081767 0.250000 0.000000
O O18 0.080378 0.392390 0.044571
O O19 0.250000 0.063464 0.000000
#
# Coordination Sequence:
#
# PCOD8205712 Si02
#       8
#     8   8   8   8   8   8   8   8
#     4  11  24  39  65  97 143 186 220 275 358 434
#     4  11  20  40  65 101 140 179 233 284 357 423
#     4  11  21  39  67 105 134 180 236 294 347 420
#     4  10  25  40  70 101 135 182 240 298 347 409
#     4  12  23  44  66  99 147 182 232 294 353 430
#     4  11  21  40  67 101 134 179 223 284 352 420
#     4  12  27  43  64 102 138 184 236 286 358 433
#     4  11  23  43  72  95 133 183 238 294 350 408
#
# _framework density 22.153231999999999
#
# number of rings (size 3 to 8) (size 9 to 14) (size 15 to 20)
#    0.000    0.875    5.000    3.000    7.000    0.500 
#    2.250    0.000    0.000    0.375    0.000    0.000 
#    0.000    0.000    0.000    0.000    0.000    0.000 
#
# Total GULP energy -793258.754069 kJ/mol
# GULP energy per Si atom -12394.668032 kJ/mol
# Density = 2.210281 g / cm^3
# Si number density = 22.153232 Si / 1000 Ang^3
#
#
#
# Elastic Constant Matrix: (Units=GPa)
#
#
# Indices 1 2 3 4 5 6 
#
# 1 80.8544 48.4842 30.5975 0.0000 0.0000 0.0000
# 2 48.4842 66.2663 24.7402 0.0000 0.0000 0.0000
# 3 30.5975 24.7402 150.3866 0.0000 0.0000 0.0000
# 4 0.0000 0.0000 0.0000 23.4017 0.0000 0.0000
# 5 0.0000 0.0000 0.0000 0.0000 52.1337 0.0000
# 6 0.0000 0.0000 0.0000 0.0000 0.0000 26.0422
#
#
#
# Elastic Compliance Matrix: (Units=1/GPa)
#
#
# Indices 1 2 3 4 5 6 
#
# 1 0.022587 -0.015779 -0.002000 0.000000 0.000000 0.000000
# 2 -0.015779 0.027101 -0.001248 0.000000 0.000000 0.000000
# 3 -0.002000 -0.001248 0.007262 0.000000 0.000000 0.000000
# 4 0.000000 0.000000 0.000000 0.042732 0.000000 0.000000
# 5 0.000000 0.000000 0.000000 0.000000 0.019181 0.000000
# 6 0.000000 0.000000 0.000000 0.000000 0.000000 0.038399
#
#
# Mechanical properties :
#
#
# Convention : Reuss Voigt Hill
#
# Bulk Modulus (GPa) = 52.92077 56.12789 54.52433
# Shear Modulus (GPa) = 24.79980 33.22787 29.01384
#
# Velocity S-wave (km/s) = 3.34947 3.87707 3.62289
# Velocity P-wave (km/s) = 6.23691 6.74043 6.49355
#
# Compressibility (1/GPa) = 0.01889617
#
# Stress axis : x y z
#
# Youngs Moduli (GPa) = 44.27422 36.89838 137.70893
#
# Poissons Ratio (x) = 0.58222 0.27536
# Poissons Ratio (y) = 0.69860 0.17187
# Poissons Ratio (z) = 0.08853 0.04605
#
# Static dielectric constant tensor:
#      x y z
#    x 4.082380 0.000000 0.000000 
#    y 0.000000 3.569410 0.000000 
#    z 0.000000 0.000000 4.135300 
# 
# 
# High freq. dielectric constant tensor:
#      x y z
#    x 1.860120 0.000000 0.000000 
#    y 0.000000 1.849930 0.000000 
#    z 0.000000 0.000000 1.887200 
# 
# From -- ./inp_files/21358.got.cif
#   From: 2010.03.12/outbox.cif.g09.slc.cpg/sg50_11_cif.got.tgz:21358.got - 2010.04.16 13:23:21.
