data_PCOD8205281
_publ_section_title
;
Structure prediction by ZEFSAII (Michael W. Deem and Ramdas Pophale) SiO2 
 PCOD8205281
Probable space group: P B A N
;
_chemical_formula_sum "Si O2"
_cell_formula_units_Z 64
_cell_length_a 25.318610
_cell_length_b 14.380780
_cell_length_c 8.145191
_cell_angle_alpha 90.000000
_cell_angle_beta 90.000000
_cell_angle_gamma 90.000000
_cell_volume 2965.675123
_symmetry_space_group_name_H-M "P B A N"
_symmetry_group_IT_number 50
_space_group.IT_coordinate_system_code '2'
_symmetry_cell_setting 'orthorhombic'
loop_
_space_group_symop_operation_xyz
x,y,z
1/2-x,1/2-y,z
x,1/2-y,-z
1/2-x,y,-z
-x,-y,-z
1/2+x,1/2+y,-z
-x,1/2+y,z
1/2+x,-y,z
loop_
_atom_site_type_symbol
_atom_site_label
_atom_site_fract_x
_atom_site_fract_y
_atom_site_fract_z
Si Si1 0.303674 0.282776 0.686477
Si Si2 0.349316 0.922239 0.298250
Si Si3 0.160337 0.541039 0.679479
Si Si4 0.551920 0.955090 0.699420
Si Si5 0.809587 0.261460 0.192539
Si Si6 0.052839 0.448042 0.691313
Si Si7 0.582026 0.751552 0.696190
Si Si8 0.262325 0.039476 0.184715
O O1 0.250000 0.250000 0.780500
O O2 0.300802 0.250000 0.500000
O O3 0.357783 0.244506 0.764749
O O4 0.301612 0.393454 0.711129
O O5 0.340192 0.946009 0.486398
O O6 0.351389 0.810694 0.275907
O O7 0.401540 0.976819 0.235791
O O8 0.297526 0.946081 0.186758
O O9 0.168418 0.637281 0.770386
O O10 0.106488 0.496863 0.750250
O O11 0.207389 0.469696 0.719485
O O12 0.551179 0.951865 0.504161
O O13 0.557100 0.848193 0.763275
O O14 0.497074 0.997471 0.767172
O O15 0.750000 0.250000 0.264343
O O16 0.809614 0.250000 0.000000
O O17 0.050762 0.340453 0.755281
O O18 0.584365 0.750000 0.500000
O O19 0.250000 0.071343 0.000000
#
# Coordination Sequence:
#
# PCOD8205281 Si02
#       8
#     8   8   8   8   8   8   8   8
#     4  10  21  33  58  84 117 161 213 247 300 362
#     4  11  22  37  63  92 120 161 213 257 309 369
#     4  11  23  37  62  93 123 159 213 261 305 372
#     4   9  18  34  56  89 124 161 203 257 313 357
#     4  11  23  40  59  86 126 168 203 255 320 374
#     4   9  19  33  56  90 124 160 202 261 310 356
#     4   9  16  31  51  81 120 158 199 247 305 358
#     4  12  24  38  58  90 130 165 198 253 318 378
#
# _framework density 21.580247
#
# number of rings (size 3 to 8) (size 9 to 14) (size 15 to 20)
#    0.000    1.750    2.500    2.250    5.250    1.750 
#    0.000    3.750    0.000    3.000    0.000    0.000 
#    0.000    0.000    0.000    0.000    0.000    0.000 
#
# Total GULP energy -793224.348574 kJ/mol
# GULP energy per Si atom -12394.130446 kJ/mol
# Density = 2.153113 g / cm^3
# Si number density = 21.580247 Si / 1000 Ang^3
#
#
#
# Elastic Constant Matrix: (Units=GPa)
#
#
# Indices 1 2 3 4 5 6 
#
# 1 164.1773 72.0149 11.8586 0.0000 0.0000 0.0000
# 2 72.0149 147.9779 19.6494 0.0000 0.0000 0.0000
# 3 11.8586 19.6494 48.9680 0.0000 0.0000 0.0000
# 4 0.0000 0.0000 0.0000 19.1778 0.0000 0.0000
# 5 0.0000 0.0000 0.0000 0.0000 6.6246 0.0000
# 6 0.0000 0.0000 0.0000 0.0000 0.0000 38.5760
#
#
#
# Elastic Compliance Matrix: (Units=1/GPa)
#
#
# Indices 1 2 3 4 5 6 
#
# 1 0.007751 -0.003721 -0.000384 0.000000 0.000000 0.000000
# 2 -0.003721 0.008925 -0.002680 0.000000 0.000000 0.000000
# 3 -0.000384 -0.002680 0.021590 0.000000 0.000000 0.000000
# 4 0.000000 0.000000 0.000000 0.052143 0.000000 0.000000
# 5 0.000000 0.000000 0.000000 0.000000 0.150953 0.000000
# 6 0.000000 0.000000 0.000000 0.000000 0.000000 0.025923
#
#
# Mechanical properties :
#
#
# Convention : Reuss Voigt Hill
#
# Bulk Modulus (GPa) = 40.49340 63.12987 51.81163
# Shear Modulus (GPa) = 17.29584 30.04903 23.67243
#
# Velocity S-wave (km/s) = 2.83409 3.73558 3.31562
# Velocity P-wave (km/s) = 5.43270 6.92265 6.22243
#
# Compressibility (1/GPa) = 0.02469538
#
# Stress axis : x y z
#
# Youngs Moduli (GPa) = 129.01688 112.05060 46.31797
#
# Poissons Ratio (x) = 0.41695 0.01778
# Poissons Ratio (y) = 0.48008 0.12413
# Poissons Ratio (z) = 0.04953 0.30030
#
# Static dielectric constant tensor:
#      x y z
#    x 4.298080 0.000000 0.000000 
#    y 0.000000 4.429280 0.000000 
#    z 0.000000 0.000000 3.349960 
# 
# 
# High freq. dielectric constant tensor:
#      x y z
#    x 1.844270 0.000000 0.000000 
#    y 0.000000 1.866880 0.000000 
#    z 0.000000 0.000000 1.800600 
# 
# From -- ./inp_files/16132.got.cif
#   From: 2010.03.12/outbox.cif.g09.slc.cpg/sg50_9_cif.got.tgz:16132.got - 2010.04.16 13:23:21.
