data_PCOD8205480
_publ_section_title
;
Structure prediction by ZEFSAII (Michael W. Deem and Ramdas Pophale) SiO2 
 PCOD8205480
Probable space group: P B A N
;
_chemical_formula_sum "Si O2"
_cell_formula_units_Z 34
_cell_length_a 4.993489
_cell_length_b 11.905595
_cell_length_c 23.200125
_cell_angle_alpha 90.000000
_cell_angle_beta 90.000000
_cell_angle_gamma 90.000000
_cell_volume 1379.258049
_symmetry_space_group_name_H-M "P B A N"
_symmetry_group_IT_number 50
_space_group.IT_coordinate_system_code '2'
_symmetry_cell_setting 'orthorhombic'
loop_
_space_group_symop_operation_xyz
x,y,z
1/2-x,1/2-y,z
x,1/2-y,-z
1/2-x,y,-z
-x,-y,-z
1/2+x,1/2+y,-z
-x,1/2+y,z
1/2+x,-y,z
loop_
_atom_site_type_symbol
_atom_site_label
_atom_site_fract_x
_atom_site_fract_y
_atom_site_fract_z
Si Si1 0.250000 0.420160 0.500000
Si Si2 0.250000 0.250000 0.000000
Si Si3 0.515589 0.074421 0.788803
Si Si4 0.750000 0.750000 0.712362
Si Si5 0.516098 0.427388 0.078356
Si Si6 0.105014 0.077570 0.618506
O O1 0.500000 0.500000 0.500000
O O2 0.304722 0.352379 0.559924
O O3 0.448726 0.178619 0.960384
O O4 0.468602 0.187035 0.752016
O O5 0.488763 0.109733 0.855367
O O6 0.804866 0.024251 0.773682
O O7 0.893722 0.658674 0.672813
O O8 0.815648 0.469137 0.064348
O O9 0.305249 0.971152 0.620799
#
# Coordination Sequence:
#
# PCOD8205480 Si02
#       6
#     4   2   8   4   8   8
#     4   8  16  35  56  75 110 150 180 225 284 337
#     4  12  22  38  64  92 118 150 192 236 288 332
#     4  10  23  42  60  83 117 154 192 233 281 339
#     4  12  23  37  62  87 113 150 192 238 288 330
#     4  10  23  41  60  86 119 153 191 234 281 338
#     4  10  22  38  57  84 115 147 188 235 283 340
#
# _framework density 24.650933999999999
#
# number of rings (size 3 to 8) (size 9 to 14) (size 15 to 20)
#    0.000    1.882    0.000    2.824    0.000    6.118 
#    0.000    7.059    0.000    8.471    0.000    0.000 
#    0.000    0.000    0.000    0.000    0.000    0.000 
#
# Total GULP energy -421382.025308 kJ/mol
# GULP energy per Si atom -12393.588980 kJ/mol
# Density = 2.459483 g / cm^3
# Si number density = 24.650934 Si / 1000 Ang^3
#
#
#
# Elastic Constant Matrix: (Units=GPa)
#
#
# Indices 1 2 3 4 5 6 
#
# 1 78.2983 -7.8561 -9.4868 0.0000 0.0000 0.0000
# 2 -7.8561 73.6022 46.1053 0.0000 0.0000 0.0000
# 3 -9.4868 46.1053 117.0975 0.0000 0.0000 0.0000
# 4 0.0000 0.0000 0.0000 1537.4616 0.0000 0.0000
# 5 0.0000 0.0000 0.0000 0.0000 7.8972 0.0000
# 6 0.0000 0.0000 0.0000 0.0000 0.0000 -0.2153
#
#
#
# Elastic Compliance Matrix: (Units=1/GPa)
#
#
# Indices 1 2 3 4 5 6 
#
# 1 0.012949 0.000962 0.000670 0.000000 0.000000 0.000000
# 2 0.000962 0.018106 -0.007051 0.000000 0.000000 0.000000
# 3 0.000670 -0.007051 0.011370 0.000000 0.000000 0.000000
# 4 0.000000 0.000000 0.000000 0.000650 0.000000 0.000000
# 5 0.000000 0.000000 0.000000 0.000000 0.126628 0.000000
# 6 0.000000 0.000000 0.000000 0.000000 0.000000 -4.644580
#
#
# Mechanical properties :
#
#
# Convention : Reuss Voigt Hill
#
# Bulk Modulus (GPa) = 31.65655 36.28031 33.96843
# Shear Modulus (GPa) = -1.12271 325.04439 161.96084
#
# Velocity S-wave (km/s) = -0.67560 11.49544 8.11445
# Velocity P-wave (km/s) = 3.50160 13.81821 10.07979
#
# Compressibility (1/GPa) = 0.03158904
#
# Stress axis : x y z
#
# Youngs Moduli (GPa) = 77.22345 55.22996 87.94742
#
# Poissons Ratio (x) = -0.05315 -0.05894
# Poissons Ratio (y) = -0.07432 0.62012
# Poissons Ratio (z) = -0.05176 0.38943
#
# Static dielectric constant tensor:
#      x y z
#    x 4.332100 0.000000 0.000000 
#    y 0.000000 3.935430 0.000000 
#    z 0.000000 0.000000 5.459800 
# 
# 
# High freq. dielectric constant tensor:
#      x y z
#    x 1.983860 0.000000 0.000000 
#    y 0.000000 1.953650 0.000000 
#    z 0.000000 0.000000 2.017940 
# 
# From -- ./inp_files/31359.got.cif
#   From: 2010.03.12/outbox.cif.g09.slc.cpg/sg50_16_cif.got.tgz:31359.got - 2010.04.16 13:23:21.
