data_PCOD8205949
_publ_section_title
;
Structure prediction by ZEFSAII (Michael W. Deem and Ramdas Pophale) SiO2 
 PCOD8205949
Probable space group: P M M A
;
_chemical_formula_sum "Si O2"
_cell_formula_units_Z 40
_cell_length_a 8.786192
_cell_length_b 20.794298
_cell_length_c 14.291424
_cell_angle_alpha 90.000000
_cell_angle_beta 90.000000
_cell_angle_gamma 90.000000
_cell_volume 2611.081676
_symmetry_space_group_name_H-M "P M M A"
_symmetry_group_IT_number 51
_symmetry_cell_setting 'orthorhombic'
loop_
_space_group_symop_operation_xyz
x,y,z
1/2-x,-y,z
1/2+x,-y,-z
-x,y,-z
-x,-y,-z
1/2+x,y,-z
1/2-x,y,z
x,-y,z
loop_
_atom_site_type_symbol
_atom_site_label
_atom_site_fract_x
_atom_site_fract_y
_atom_site_fract_z
Si Si1 0.570364 0.500000 0.601599
Si Si2 0.426967 0.733489 0.602060
Si Si3 0.074693 0.124016 0.600269
Si Si4 0.930222 0.377558 0.719163
Si Si5 0.570192 0.000000 0.604294
Si Si6 0.570686 0.426083 0.097187
O O1 0.750000 0.500000 0.591426
O O2 0.500000 0.500000 0.500000
O O3 0.512645 0.562785 0.656497
O O4 0.500000 0.726566 0.500000
O O5 0.250000 0.714543 0.593639
O O6 0.445016 0.805452 0.646031
O O7 0.513121 0.687950 0.673616
O O8 0.250000 0.105055 0.589660
O O9 0.000000 0.130420 0.500000
O O10 0.990208 0.065394 0.655617
O O11 0.750000 0.377133 0.728469
O O12 0.002265 0.382217 0.821526
O O13 0.500000 0.000000 0.500000
O O14 0.750000 0.000000 0.602789
O O15 0.750000 0.417166 0.093099
O O16 0.523702 0.500000 0.115662
O O17 0.500000 0.401824 0.000000
#
# Coordination Sequence:
#
# PCOD8205949 Si02
#       6
#     4   8   8   8   4   8
#     4  10  22  34  45  62  85 114 149 186 222 260
#     4  10  20  32  45  63  87 119 156 189 225 268
#     4   9  16  26  39  55  79 109 144 183 220 259
#     4  11  21  34  49  66  89 117 149 186 226 271
#     4  10  16  22  36  56  78 104 141 182 219 258
#     4  10  20  34  53  73  91 112 139 179 226 275
#
# _framework density 15.319322
#
# number of rings (size 3 to 8) (size 9 to 14) (size 15 to 20)
#    0.000    2.000    1.000    5.100    0.000    6.400 
#    0.000    0.000    0.000    0.000    0.000    0.000 
#    0.000    0.000    0.000    0.900    0.000   11.900 
#
# Total GULP energy -495859.477344 kJ/mol
# GULP energy per Si atom -12396.486934 kJ/mol
# Density = 1.528445 g / cm^3
# Si number density = 15.319322 Si / 1000 Ang^3
#
#
#
# Elastic Constant Matrix: (Units=GPa)
#
#
# Indices 1 2 3 4 5 6 
#
# 1 93.2819 44.0173 33.4680 0.0000 0.0000 0.0000
# 2 44.0173 108.0857 42.2088 0.0000 0.0000 0.0000
# 3 33.4680 42.2088 84.5723 0.0000 0.0000 0.0000
# 4 0.0000 0.0000 0.0000 5.5901 0.0000 0.0000
# 5 0.0000 0.0000 0.0000 0.0000 23.8444 0.0000
# 6 0.0000 0.0000 0.0000 0.0000 0.0000 27.1450
#
#
#
# Elastic Compliance Matrix: (Units=1/GPa)
#
#
# Indices 1 2 3 4 5 6 
#
# 1 0.013993 -0.004392 -0.003345 0.000000 0.000000 0.000000
# 2 -0.004392 0.012870 -0.004685 0.000000 0.000000 0.000000
# 3 -0.003345 -0.004685 0.015486 0.000000 0.000000 0.000000
# 4 0.000000 0.000000 0.000000 0.178888 0.000000 0.000000
# 5 0.000000 0.000000 0.000000 0.000000 0.041939 0.000000
# 6 0.000000 0.000000 0.000000 0.000000 0.000000 0.036839
#
#
# Mechanical properties :
#
#
# Convention : Reuss Voigt Hill
#
# Bulk Modulus (GPa) = 57.12960 58.36978 57.74969
# Shear Modulus (GPa) = 15.11966 22.39895 18.75930
#
# Velocity S-wave (km/s) = 3.14501 3.82794 3.50316
# Velocity P-wave (km/s) = 7.11067 7.59752 7.35812
#
# Compressibility (1/GPa) = 0.01750406
#
# Stress axis : x y z
#
# Youngs Moduli (GPa) = 71.46423 77.69870 64.57266
#
# Poissons Ratio (x) = 0.34126 0.21602
# Poissons Ratio (y) = 0.31388 0.30254
# Poissons Ratio (z) = 0.23908 0.36404
#
# Static dielectric constant tensor:
#      x y z
#    x 3.074680 0.000000 0.000000 
#    y 0.000000 3.715810 0.000000 
#    z 0.000000 0.000000 2.583280 
# 
# 
# High freq. dielectric constant tensor:
#      x y z
#    x 1.609180 0.000000 0.000000 
#    y 0.000000 1.592880 0.000000 
#    z 0.000000 0.000000 1.533690 
# 
# From -- ./inp_files/14276.got.cif
#   From: 2010.03.12/outbox.cif.g09.slc.cpg/sg51_8_cif.got.tgz:14276.got - 2010.04.16 13:43:02.
