data_PCOD8205304
_publ_section_title
;
Structure prediction by ZEFSAII (Michael W. Deem and Ramdas Pophale) SiO2 
 PCOD8205304
Probable space group: P B A N
;
_chemical_formula_sum "Si O2"
_cell_formula_units_Z 44
_cell_length_a 8.496966
_cell_length_b 13.378019
_cell_length_c 19.198263
_cell_angle_alpha 90.000000
_cell_angle_beta 90.000000
_cell_angle_gamma 90.000000
_cell_volume 2182.315944
_symmetry_space_group_name_H-M "P B A N"
_symmetry_group_IT_number 50
_space_group.IT_coordinate_system_code '2'
_symmetry_cell_setting 'orthorhombic'
loop_
_space_group_symop_operation_xyz
x,y,z
1/2-x,1/2-y,z
x,1/2-y,-z
1/2-x,y,-z
-x,-y,-z
1/2+x,1/2+y,-z
-x,1/2+y,z
1/2+x,-y,z
loop_
_atom_site_type_symbol
_atom_site_label
_atom_site_fract_x
_atom_site_fract_y
_atom_site_fract_z
Si Si1 0.501767 0.652590 0.448399
Si Si2 0.566939 0.764496 0.924519
Si Si3 0.563880 0.911234 0.812706
Si Si4 0.431316 0.376304 0.199768
Si Si5 0.068810 0.772848 0.299961
Si Si6 0.250000 0.997725 0.500000
O O1 0.503047 0.750000 0.500000
O O2 0.513117 0.697391 0.371742
O O3 0.349665 0.580455 0.453648
O O4 0.645593 0.574856 0.455530
O O5 0.750000 0.750000 0.936616
O O6 0.527644 0.873049 0.891495
O O7 0.509957 0.686167 0.866797
O O8 0.481935 0.750000 0.000000
O O9 0.744968 0.888583 0.795700
O O10 0.450076 0.860347 0.756446
O O11 0.532828 0.026296 0.809478
O O12 0.480904 0.325462 0.272014
O O13 0.250000 0.750000 0.313596
#
# Coordination Sequence:
#
# PCOD8205304 Si02
#       6
#     8   8   8   8   8   4
#     4  11  24  43  64  90 123 158 199 251 303 360
#     4   8  16  33  55  80 112 150 193 242 294 351
#     4  10  21  36  57  84 117 153 195 244 294 361
#     4  10  21  37  57  84 116 153 196 241 299 359
#     4  11  23  39  61  85 116 155 196 247 299 352
#     4  10  24  42  64  92 120 156 204 246 302 370
#
# _framework density 20.162067
#
# number of rings (size 3 to 8) (size 9 to 14) (size 15 to 20)
#    0.000    2.000    0.000    4.364    0.000    9.455 
#    0.000    0.000    0.000   18.545    0.000    0.000 
#    0.000    0.000    0.000    0.000    0.000    0.000 
#
# Total GULP energy -545207.159076 kJ/mol
# GULP energy per Si atom -12391.071797 kJ/mol
# Density = 2.011618 g / cm^3
# Si number density = 20.162067 Si / 1000 Ang^3
#
#
#
# Elastic Constant Matrix: (Units=GPa)
#
#
# Indices 1 2 3 4 5 6 
#
# 1 68.5630 39.4290 31.9578 0.0000 0.0000 0.0000
# 2 39.4290 161.4975 72.3715 0.0000 0.0000 0.0000
# 3 31.9578 72.3715 168.5094 0.0000 0.0000 0.0000
# 4 0.0000 0.0000 0.0000 19.4104 0.0000 0.0000
# 5 0.0000 0.0000 0.0000 0.0000 16.3454 0.0000
# 6 0.0000 0.0000 0.0000 0.0000 0.0000 48.3236
#
#
#
# Elastic Compliance Matrix: (Units=1/GPa)
#
#
# Indices 1 2 3 4 5 6 
#
# 1 0.017411 -0.003431 -0.001828 0.000000 0.000000 0.000000
# 2 -0.003431 0.008344 -0.002933 0.000000 0.000000 0.000000
# 3 -0.001828 -0.002933 0.007541 0.000000 0.000000 0.000000
# 4 0.000000 0.000000 0.000000 0.051519 0.000000 0.000000
# 5 0.000000 0.000000 0.000000 0.000000 0.061179 0.000000
# 6 0.000000 0.000000 0.000000 0.000000 0.000000 0.020694
#
#
# Mechanical properties :
#
#
# Convention : Reuss Voigt Hill
#
# Bulk Modulus (GPa) = 59.13514 76.23185 67.68350
# Shear Modulus (GPa) = 26.49578 33.80331 30.14955
#
# Velocity S-wave (km/s) = 3.62904 4.09905 3.87118
# Velocity P-wave (km/s) = 6.85226 7.76496 7.32284
#
# Compressibility (1/GPa) = 0.01691042
#
# Stress axis : x y z
#
# Youngs Moduli (GPa) = 57.43625 119.84482 132.61354
#
# Poissons Ratio (x) = 0.41124 0.24244
# Poissons Ratio (y) = 0.19709 0.38894
# Poissons Ratio (z) = 0.10500 0.35149
#
# Static dielectric constant tensor:
#      x y z
#    x 3.612210 0.000000 0.000000 
#    y 0.000000 2.721650 0.000000 
#    z 0.000000 0.000000 3.839820 
# 
# 
# High freq. dielectric constant tensor:
#      x y z
#    x 1.781220 0.000000 0.000000 
#    y 0.000000 1.801740 0.000000 
#    z 0.000000 0.000000 1.786890 
# 
# From -- ./inp_files/28631.got.cif
#   From: 2010.03.12/outbox.cif.g09.slc.cpg/sg50_15_cif.got.tgz:28631.got - 2010.04.16 13:23:21.
