data_PCOD8205497
_publ_section_title
;
Structure prediction by ZEFSAII (Michael W. Deem and Ramdas Pophale) SiO2 
 PCOD8205497
Probable space group: P B A N
;
_chemical_formula_sum "Si O2"
_cell_formula_units_Z 60
_cell_length_a 26.569068
_cell_length_b 5.283742
_cell_length_c 19.736488
_cell_angle_alpha 90.000000
_cell_angle_beta 90.000000
_cell_angle_gamma 90.000000
_cell_volume 2770.689115
_symmetry_space_group_name_H-M "P B A N"
_symmetry_group_IT_number 50
_space_group.IT_coordinate_system_code '2'
_symmetry_cell_setting 'orthorhombic'
loop_
_space_group_symop_operation_xyz
x,y,z
1/2-x,1/2-y,z
x,1/2-y,-z
1/2-x,y,-z
-x,-y,-z
1/2+x,1/2+y,-z
-x,1/2+y,z
1/2+x,-y,z
loop_
_atom_site_type_symbol
_atom_site_label
_atom_site_fract_x
_atom_site_fract_y
_atom_site_fract_z
Si Si1 0.193854 0.181880 0.791912
Si Si2 0.358797 0.250000 0.000000
Si Si3 0.192458 0.244026 0.633696
Si Si4 0.968056 0.199053 0.636960
Si Si5 0.140854 0.751545 0.420972
Si Si6 0.695268 0.354024 0.087041
Si Si7 0.381884 0.487572 0.125265
Si Si8 0.030252 0.786655 0.207322
O O1 0.250000 0.250000 0.816599
O O2 0.191261 0.163082 0.711793
O O3 0.149224 0.371530 0.812409
O O4 0.185179 0.924077 0.833093
O O5 0.317329 0.437740 0.967940
O O6 0.397859 0.200256 0.936142
O O7 0.250000 0.250000 0.607425
O O8 0.169050 0.519384 0.617849
O O9 0.160404 0.023787 0.599832
O O10 0.918499 0.223109 0.591813
O O11 0.951056 0.196385 0.715373
O O12 0.004067 0.436043 0.619747
O O13 0.151893 0.750000 0.500000
O O14 0.750000 0.250000 0.073738
O O15 0.655495 0.134908 0.075588
O O16 0.425576 0.660242 0.155074
O O17 0.012013 0.500507 0.193830
#
# Coordination Sequence:
#
# PCOD8205497 Si02
#       8
#     8   4   8   8   8   8   8   8
#     4  10  22  39  62  99 128 164 224 276 340 389
#     4  10  26  41  58  96 130 180 224 258 335 404
#     4  11  26  43  68  98 140 186 232 285 329 391
#     4  10  22  42  68 101 133 168 218 285 354 410
#     4  12  26  44  68 101 138 186 232 270 336 414
#     4  11  23  40  65  93 135 176 219 273 333 409
#     4  11  23  41  65  90 131 173 216 276 330 398
#     4  10  24  43  68  97 126 166 223 281 340 392
#
# _framework density 21.655260999999999
#
# number of rings (size 3 to 8) (size 9 to 14) (size 15 to 20)
#    0.000    1.333    1.333    2.800    7.467    4.800 
#    0.000    0.667    0.000    0.000    0.000    0.000 
#    0.000    0.000    0.000    0.000    0.000    0.000 
#
# Total GULP energy -743284.139932 kJ/mol
# GULP energy per Si atom -12388.068999 kJ/mol
# Density = 2.160597 g / cm^3
# Si number density = 21.655261 Si / 1000 Ang^3
#
#
#
# Elastic Constant Matrix: (Units=GPa)
#
#
# Indices 1 2 3 4 5 6 
#
# 1 70.0165 5.7148 10.7547 0.0000 0.0000 0.0000
# 2 5.7148 77.0196 -0.7059 0.0000 0.0000 0.0000
# 3 10.7547 -0.7059 85.0504 0.0000 0.0000 0.0000
# 4 0.0000 0.0000 0.0000 27.4695 0.0000 0.0000
# 5 0.0000 0.0000 0.0000 0.0000 10.5182 0.0000
# 6 0.0000 0.0000 0.0000 0.0000 0.0000 33.8412
#
#
#
# Elastic Compliance Matrix: (Units=1/GPa)
#
#
# Indices 1 2 3 4 5 6 
#
# 1 0.014659 -0.001105 -0.001863 0.000000 0.000000 0.000000
# 2 -0.001105 0.013068 0.000248 0.000000 0.000000 0.000000
# 3 -0.001863 0.000248 0.011995 0.000000 0.000000 0.000000
# 4 0.000000 0.000000 0.000000 0.036404 0.000000 0.000000
# 5 0.000000 0.000000 0.000000 0.000000 0.095073 0.000000
# 6 0.000000 0.000000 0.000000 0.000000 0.000000 0.029550
#
#
# Mechanical properties :
#
#
# Convention : Reuss Voigt Hill
#
# Bulk Modulus (GPa) = 29.16878 29.29042 29.22960
# Shear Modulus (GPa) = 22.97631 28.78731 25.88181
#
# Velocity S-wave (km/s) = 3.26084 3.64997 3.46088
# Velocity P-wave (km/s) = 5.26082 5.59627 5.43114
#
# Compressibility (1/GPa) = 0.03428323
#
# Stress axis : x y z
#
# Youngs Moduli (GPa) = 68.21914 76.52313 83.36572
#
# Poissons Ratio (x) = 0.08454 0.15529
# Poissons Ratio (y) = 0.07536 -0.02069
# Poissons Ratio (z) = 0.12708 -0.01899
#
# Static dielectric constant tensor:
#      x y z
#    x 3.756710 0.000000 0.000000 
#    y 0.000000 4.189200 0.000000 
#    z 0.000000 0.000000 4.001390 
# 
# 
# High freq. dielectric constant tensor:
#      x y z
#    x 1.841210 0.000000 0.000000 
#    y 0.000000 1.864920 0.000000 
#    z 0.000000 0.000000 1.863540 
# 
# From -- ./inp_files/31262.got.cif
#   From: 2010.03.12/outbox.cif.g09.slc.cpg/sg50_16_cif.got.tgz:31262.got - 2010.04.16 13:23:21.
