data_PCOD8205508
_publ_section_title
;
Structure prediction by ZEFSAII (Michael W. Deem and Ramdas Pophale) SiO2 
 PCOD8205508
Probable space group: P B A N
;
_chemical_formula_sum "Si O2"
_cell_formula_units_Z 64
_cell_length_a 11.784759
_cell_length_b 8.788803
_cell_length_c 27.847731
_cell_angle_alpha 90.000000
_cell_angle_beta 90.000000
_cell_angle_gamma 90.000000
_cell_volume 2884.298809
_symmetry_space_group_name_H-M "P B A N"
_symmetry_group_IT_number 50
_space_group.IT_coordinate_system_code '2'
_symmetry_cell_setting 'orthorhombic'
loop_
_space_group_symop_operation_xyz
x,y,z
1/2-x,1/2-y,z
x,1/2-y,-z
1/2-x,y,-z
-x,-y,-z
1/2+x,1/2+y,-z
-x,1/2+y,z
1/2+x,-y,z
loop_
_atom_site_type_symbol
_atom_site_label
_atom_site_fract_x
_atom_site_fract_y
_atom_site_fract_z
Si Si1 0.365980 0.318966 0.065595
Si Si2 0.082443 0.396015 0.829330
Si Si3 0.002654 0.570865 0.675811
Si Si4 0.621160 0.080104 0.516988
Si Si5 0.871238 0.269365 0.151504
Si Si6 0.371876 0.821195 0.375667
Si Si7 0.866880 0.814695 0.725417
Si Si8 0.591801 0.165987 0.046213
O O1 0.250000 0.250000 0.045887
O O2 0.361378 0.321855 0.123632
O O3 0.457418 0.198099 0.047006
O O4 0.388726 0.485685 0.043841
O O5 0.075322 0.574487 0.832851
O O6 0.147487 0.342164 0.782083
O O7 0.949189 0.360651 0.826760
O O8 0.901918 0.455568 0.661436
O O9 0.961439 0.684971 0.717335
O O10 0.042934 0.676320 0.630597
O O11 0.105460 0.471180 0.697471
O O12 0.612349 0.250000 0.500000
O O13 0.750000 0.014480 0.500000
O O14 0.619847 0.090956 0.574098
O O15 0.500000 0.000000 0.500000
O O16 0.750000 0.250000 0.176163
O O17 0.856992 0.256589 0.093842
O O18 0.250000 0.750000 0.365308
O O19 0.750000 0.750000 0.704148
O O20 0.647004 0.250000 0.000000
#
# Coordination Sequence:
#
# PCOD8205508 Si02
#       8
#     8   8   8   8   8   8   8   8
#     4  10  22  40  64  95 125 165 207 252 328 373
#     4  10  22  40  65  92 127 161 207 269 303 378
#     4  10  24  39  62  96 128 171 218 260 324 386
#     4  11  23  42  66 101 132 172 226 276 332 390
#     4  10  23  41  62  91 122 164 205 249 329 372
#     4  11  21  41  65  89 132 174 212 273 323 380
#     4  11  22  41  63  94 128 165 217 258 317 383
#     4  10  22  41  63  90 126 158 208 263 305 387
#
# _framework density 22.189101999999998
#
# number of rings (size 3 to 8) (size 9 to 14) (size 15 to 20)
#    0.000    1.625    1.250    3.000    0.000   10.750 
#    0.000    6.875    0.000    0.000    0.000    0.000 
#    0.000    0.000    0.000    0.000    0.000    0.000 
#
# Total GULP energy -792971.060195 kJ/mol
# GULP energy per Si atom -12390.172816 kJ/mol
# Density = 2.213860 g / cm^3
# Si number density = 22.189102 Si / 1000 Ang^3
#
#
#
# Elastic Constant Matrix: (Units=GPa)
#
#
# Indices 1 2 3 4 5 6 
#
# 1 124.7004 24.9408 5.4688 0.0000 0.0000 0.0000
# 2 24.9408 58.3654 24.7575 0.0000 0.0000 0.0000
# 3 5.4688 24.7575 105.1645 0.0000 0.0000 0.0000
# 4 0.0000 0.0000 0.0000 100.8107 0.0000 0.0000
# 5 0.0000 0.0000 0.0000 0.0000 61.0683 0.0000
# 6 0.0000 0.0000 0.0000 0.0000 0.0000 36.1249
#
#
#
# Elastic Compliance Matrix: (Units=1/GPa)
#
#
# Indices 1 2 3 4 5 6 
#
# 1 0.008790 -0.003957 0.000475 0.000000 0.000000 0.000000
# 2 -0.003957 0.020816 -0.004695 0.000000 0.000000 0.000000
# 3 0.000475 -0.004695 0.010589 0.000000 0.000000 0.000000
# 4 0.000000 0.000000 0.000000 0.009920 0.000000 0.000000
# 5 0.000000 0.000000 0.000000 0.000000 0.016375 0.000000
# 6 0.000000 0.000000 0.000000 0.000000 0.000000 0.027682
#
#
# Mechanical properties :
#
#
# Convention : Reuss Voigt Hill
#
# Bulk Modulus (GPa) = 41.94583 44.28493 43.11538
# Shear Modulus (GPa) = 42.20355 55.13832 48.67093
#
# Velocity S-wave (km/s) = 4.36592 4.99031 4.68852
# Velocity P-wave (km/s) = 6.66032 7.29422 6.98446
#
# Compressibility (1/GPa) = 0.02384027
#
# Stress axis : x y z
#
# Youngs Moduli (GPa) = 113.76671 48.04018 94.43381
#
# Poissons Ratio (x) = 0.19011 -0.04481
# Poissons Ratio (y) = 0.45022 0.44333
# Poissons Ratio (z) = -0.05399 0.22553
#
# Static dielectric constant tensor:
#      x y z
#    x 4.298070 0.000000 0.000000 
#    y 0.000000 3.989430 0.000000 
#    z 0.000000 0.000000 2.945850 
# 
# 
# High freq. dielectric constant tensor:
#      x y z
#    x 1.879470 0.000000 0.000000 
#    y 0.000000 1.877220 0.000000 
#    z 0.000000 0.000000 1.868560 
# 
# From -- ./inp_files/32478.got.cif
#   From: 2010.03.12/outbox.cif.g09.slc.cpg/sg50_17_cif.got.tgz:32478.got - 2010.04.16 13:23:21.
