data_PCOD8205451
_publ_section_title
;
Structure prediction by ZEFSAII (Michael W. Deem and Ramdas Pophale) SiO2 
 PCOD8205451
Probable space group: P B A N
;
_chemical_formula_sum "Si O2"
_cell_formula_units_Z 38
_cell_length_a 14.965621
_cell_length_b 18.699264
_cell_length_c 6.330039
_cell_angle_alpha 90.000000
_cell_angle_beta 90.000000
_cell_angle_gamma 90.000000
_cell_volume 1771.436714
_symmetry_space_group_name_H-M "P B A N"
_symmetry_group_IT_number 50
_space_group.IT_coordinate_system_code '2'
_symmetry_cell_setting 'orthorhombic'
loop_
_space_group_symop_operation_xyz
x,y,z
1/2-x,1/2-y,z
x,1/2-y,-z
1/2-x,y,-z
-x,-y,-z
1/2+x,1/2+y,-z
-x,1/2+y,z
1/2+x,-y,z
loop_
_atom_site_type_symbol
_atom_site_label
_atom_site_fract_x
_atom_site_fract_y
_atom_site_fract_z
Si Si1 0.625579 0.858442 0.734997
Si Si2 0.894807 0.460313 0.242940
Si Si3 0.250000 0.039388 0.000000
Si Si4 0.502878 0.414393 0.384306
Si Si5 0.250000 0.250000 0.500000
Si Si6 0.038099 0.827404 0.994897
O O1 0.676463 0.914308 0.881962
O O2 0.579126 0.901067 0.544259
O O3 0.691675 0.798793 0.651426
O O4 0.553149 0.817622 0.875928
O O5 0.905886 0.433472 0.486664
O O6 0.905429 0.392699 0.088769
O O7 0.973373 0.521072 0.225197
O O8 0.798681 0.492467 0.181933
O O9 0.520291 0.343535 0.250846
O O10 0.087832 0.750000 0.000000
#
# Coordination Sequence:
#
# PCOD8205451 Si02
#       6
#     8   8   4   8   2   8
#     4  11  25  38  62  92 136 166 211 258 330 397
#     4  10  23  39  65  93 128 164 224 265 321 378
#     4  12  24  41  61  98 126 172 216 288 322 376
#     4  10  21  43  64  91 126 175 216 265 313 402
#     4  12  24  38  56 100 138 176 200 270 348 404
#     4  11  23  42  66  93 127 174 212 261 320 400
#
# _framework density 21.451514
#
# number of rings (size 3 to 8) (size 9 to 14) (size 15 to 20)
#    0.000    1.263    2.105    3.158    8.842    2.526 
#    0.000    0.526    0.000    0.000    5.474    0.000 
#    0.000    0.000    0.000    0.000    0.000    0.000 
#
# Total GULP energy -471004.441362 kJ/mol
# GULP energy per Si atom -12394.853720 kJ/mol
# Density = 2.140269 g / cm^3
# Si number density = 21.451514 Si / 1000 Ang^3
#
#
#
# Elastic Constant Matrix: (Units=GPa)
#
#
# Indices 1 2 3 4 5 6 
#
# 1 41.2708 13.2886 12.2677 0.0000 0.0000 0.0000
# 2 13.2886 128.3872 38.6823 0.0000 0.0000 0.0000
# 3 12.2677 38.6823 88.4084 0.0000 0.0000 0.0000
# 4 0.0000 0.0000 0.0000 20.8010 0.0000 0.0000
# 5 0.0000 0.0000 0.0000 0.0000 31.9696 0.0000
# 6 0.0000 0.0000 0.0000 0.0000 0.0000 33.2272
#
#
#
# Elastic Compliance Matrix: (Units=1/GPa)
#
#
# Indices 1 2 3 4 5 6 
#
# 1 0.025637 -0.001822 -0.002760 0.000000 0.000000 0.000000
# 2 -0.001822 0.009101 -0.003729 0.000000 0.000000 0.000000
# 3 -0.002760 -0.003729 0.013326 0.000000 0.000000 0.000000
# 4 0.000000 0.000000 0.000000 0.048075 0.000000 0.000000
# 5 0.000000 0.000000 0.000000 0.000000 0.031280 0.000000
# 6 0.000000 0.000000 0.000000 0.000000 0.000000 0.030096
#
#
# Mechanical properties :
#
#
# Convention : Reuss Voigt Hill
#
# Bulk Modulus (GPa) = 31.80530 42.94930 37.37730
# Shear Modulus (GPa) = 27.08293 30.12140 28.60216
#
# Velocity S-wave (km/s) = 3.55705 3.75128 3.65545
# Velocity P-wave (km/s) = 5.63284 6.23120 5.93956
#
# Compressibility (1/GPa) = 0.03144130
#
# Stress axis : x y z
#
# Youngs Moduli (GPa) = 39.00559 109.87641 75.04180
#
# Poissons Ratio (x) = 0.20018 0.20714
# Poissons Ratio (y) = 0.07106 0.27985
# Poissons Ratio (z) = 0.10767 0.40976
#
# Static dielectric constant tensor:
#      x y z
#    x 3.586010 0.000000 0.000000 
#    y 0.000000 4.091160 0.000000 
#    z 0.000000 0.000000 4.049690 
# 
# 
# High freq. dielectric constant tensor:
#      x y z
#    x 1.801530 0.000000 0.000000 
#    y 0.000000 1.855730 0.000000 
#    z 0.000000 0.000000 1.856780 
# 
# From -- ./inp_files/3401.got.cif
#   From: 2010.03.12/outbox.cif.g09.slc.cpg/sg50_2_cif.got.tgz:3401.got - 2010.04.16 13:23:21.
