data_PCOD8205531
_publ_section_title
;
Structure prediction by ZEFSAII (Michael W. Deem and Ramdas Pophale) SiO2 
 PCOD8205531
Probable space group: P B A N
;
_chemical_formula_sum "Si O2"
_cell_formula_units_Z 60
_cell_length_a 20.450578
_cell_length_b 13.494538
_cell_length_c 10.706181
_cell_angle_alpha 90.000000
_cell_angle_beta 90.000000
_cell_angle_gamma 90.000000
_cell_volume 2954.596568
_symmetry_space_group_name_H-M "P B A N"
_symmetry_group_IT_number 50
_space_group.IT_coordinate_system_code '2'
_symmetry_cell_setting 'orthorhombic'
loop_
_space_group_symop_operation_xyz
x,y,z
1/2-x,1/2-y,z
x,1/2-y,-z
1/2-x,y,-z
-x,-y,-z
1/2+x,1/2+y,-z
-x,1/2+y,z
1/2+x,-y,z
loop_
_atom_site_type_symbol
_atom_site_label
_atom_site_fract_x
_atom_site_fract_y
_atom_site_fract_z
Si Si1 0.253427 0.640507 0.795386
Si Si2 0.250000 0.013495 0.000000
Si Si3 0.913004 0.948398 0.734171
Si Si4 0.686656 0.058984 0.430277
Si Si5 0.622857 0.632441 0.999541
Si Si6 0.535022 0.920956 0.775472
Si Si7 0.885654 0.400420 0.674834
Si Si8 0.004215 0.223281 0.358887
O O1 0.250000 0.750000 0.854860
O O2 0.212994 0.643196 0.665124
O O3 0.328328 0.610935 0.773993
O O4 0.224148 0.558407 0.889112
O O5 0.190470 0.082608 0.954397
O O6 0.889770 0.895785 0.858165
O O7 0.948288 0.870425 0.644752
O O8 0.850346 0.979340 0.653803
O O9 0.960655 0.039035 0.773355
O O10 0.750000 0.010201 0.500000
O O11 0.638051 0.106637 0.531173
O O12 0.629788 0.750000 0.000000
O O13 0.563035 0.592386 0.084533
O O14 0.536163 0.813226 0.714711
O O15 0.580997 0.992950 0.695003
O O16 0.935496 0.310569 0.702173
O O17 0.990948 0.250000 0.500000
#
# Coordination Sequence:
#
# PCOD8205531 Si02
#       8
#     8   4   8   8   8   8   8   8
#     4  11  24  40  65  97 128 173 213 268 323 390
#     4  12  24  46  68  90 128 170 222 274 326 380
#     4  11  23  42  65  96 129 172 215 271 333 384
#     4  10  22  41  65  94 133 173 213 268 327 393
#     4  12  24  45  69  93 123 170 224 276 328 385
#     4  11  23  42  66  95 133 170 217 271 326 388
#     4  10  23  40  63  96 132 168 215 259 331 389
#     4  11  23  38  66  94 130 171 213 267 319 399
#
# _framework density 20.307341000000001
#
# number of rings (size 3 to 8) (size 9 to 14) (size 15 to 20)
#    0.000    1.067    4.000    2.400    3.733    4.000 
#    0.000    0.000    0.000    2.400    0.000    0.000 
#    0.000    0.000    0.000    0.000    0.000    0.000 
#
# Total GULP energy -744071.437576 kJ/mol
# GULP energy per Si atom -12401.190626 kJ/mol
# Density = 2.026112 g / cm^3
# Si number density = 20.307341 Si / 1000 Ang^3
#
#
#
# Elastic Constant Matrix: (Units=GPa)
#
#
# Indices 1 2 3 4 5 6 
#
# 1 103.0747 50.3187 30.9654 0.0000 0.0000 0.0000
# 2 50.3187 119.2222 31.0489 0.0000 0.0000 0.0000
# 3 30.9654 31.0489 78.9151 0.0000 0.0000 0.0000
# 4 0.0000 0.0000 0.0000 30.3633 0.0000 0.0000
# 5 0.0000 0.0000 0.0000 0.0000 30.9524 0.0000
# 6 0.0000 0.0000 0.0000 0.0000 0.0000 22.0652
#
#
#
# Elastic Compliance Matrix: (Units=1/GPa)
#
#
# Indices 1 2 3 4 5 6 
#
# 1 0.012931 -0.004608 -0.003261 0.000000 0.000000 0.000000
# 2 -0.004608 0.010988 -0.002515 0.000000 0.000000 0.000000
# 3 -0.003261 -0.002515 0.014941 0.000000 0.000000 0.000000
# 4 0.000000 0.000000 0.000000 0.032934 0.000000 0.000000
# 5 0.000000 0.000000 0.000000 0.000000 0.032308 0.000000
# 6 0.000000 0.000000 0.000000 0.000000 0.000000 0.045320
#
#
# Mechanical properties :
#
#
# Convention : Reuss Voigt Hill
#
# Bulk Modulus (GPa) = 55.27477 58.43089 56.85283
# Shear Modulus (GPa) = 28.37356 29.26812 28.82084
#
# Velocity S-wave (km/s) = 3.74198 3.80051 3.77136
# Velocity P-wave (km/s) = 6.77850 6.93500 6.85720
#
# Compressibility (1/GPa) = 0.01809144
#
# Stress axis : x y z
#
# Youngs Moduli (GPa) = 77.33328 91.01130 66.93087
#
# Poissons Ratio (x) = 0.41942 0.21825
# Poissons Ratio (y) = 0.35639 0.16831
# Poissons Ratio (z) = 0.25217 0.22887
#
# Static dielectric constant tensor:
#      x y z
#    x 3.845560 0.000000 0.000000 
#    y 0.000000 3.684730 0.000000 
#    z 0.000000 0.000000 3.750010 
# 
# 
# High freq. dielectric constant tensor:
#      x y z
#    x 1.802530 0.000000 0.000000 
#    y 0.000000 1.793420 0.000000 
#    z 0.000000 0.000000 1.796210 
# 
# From -- ./inp_files/22433.got.cif
#   From: 2010.03.12/outbox.cif.g09.slc.cpg/sg50_12_cif.got.tgz:22433.got - 2010.04.16 13:23:21.
