data_PCOD8205355
_publ_section_title
;
Structure prediction by ZEFSAII (Michael W. Deem and Ramdas Pophale) SiO2 
 PCOD8205355
Probable space group: P B A N
;
_chemical_formula_sum "Si O2"
_cell_formula_units_Z 40
_cell_length_a 25.263077
_cell_length_b 15.542059
_cell_length_c 5.030505
_cell_angle_alpha 90.000000
_cell_angle_beta 90.000000
_cell_angle_gamma 90.000000
_cell_volume 1975.178657
_symmetry_space_group_name_H-M "P B A N"
_symmetry_group_IT_number 50
_space_group.IT_coordinate_system_code '2'
_symmetry_cell_setting 'orthorhombic'
loop_
_space_group_symop_operation_xyz
x,y,z
1/2-x,1/2-y,z
x,1/2-y,-z
1/2-x,y,-z
-x,-y,-z
1/2+x,1/2+y,-z
-x,1/2+y,z
1/2+x,-y,z
loop_
_atom_site_type_symbol
_atom_site_label
_atom_site_fract_x
_atom_site_fract_y
_atom_site_fract_z
Si Si1 0.859968 0.848668 0.947690
Si Si2 0.036114 0.068001 0.853376
Si Si3 0.810647 0.926636 0.441649
Si Si4 0.398058 0.556919 0.597110
Si Si5 0.566716 0.155845 0.108326
O O1 0.913983 0.902582 0.971735
O O2 0.816315 0.880876 0.157793
O O3 0.873293 0.750000 0.000000
O O4 0.836284 0.862432 0.656433
O O5 0.995942 0.148179 0.815991
O O6 0.059465 0.023906 0.579864
O O7 0.000000 0.000000 0.000000
O O8 0.750000 0.945291 0.500000
O O9 0.839237 0.019613 0.437618
O O10 0.404695 0.633178 0.385631
O O11 0.408758 0.590827 0.894194
O O12 0.579422 0.250000 0.000000
#
# Coordination Sequence:
#
# PCOD8205355 Si02
#       5
#     8   8   8   8   8
#     4  11  23  37  56  86 118 144 182 234 279 323
#     4   9  19  36  57  82 115 154 188 220 267 334
#     4  11  23  40  61  80 106 150 192 229 278 334
#     4  10  21  38  57  81 112 147 190 232 270 330
#     4  11  21  35  58  86 116 147 182 228 282 333
#
# _framework density 20.251334
#
# number of rings (size 3 to 8) (size 9 to 14) (size 15 to 20)
#    0.000    1.600    0.000    6.600    0.000    7.200 
#    0.000    8.000    0.000    3.600    0.000    0.000 
#    0.000    0.000    0.000    0.000    0.000    0.000 
#
# Total GULP energy -495684.289417 kJ/mol
# GULP energy per Si atom -12392.107235 kJ/mol
# Density = 2.020524 g / cm^3
# Si number density = 20.251334 Si / 1000 Ang^3
#
#
#
# Elastic Constant Matrix: (Units=GPa)
#
#
# Indices 1 2 3 4 5 6 
#
# 1 134.5172 49.4440 16.4682 0.0000 0.0000 0.0000
# 2 49.4440 99.2444 19.8945 0.0000 0.0000 0.0000
# 3 16.4682 19.8945 75.0602 0.0000 0.0000 0.0000
# 4 0.0000 0.0000 0.0000 38.1010 0.0000 0.0000
# 5 0.0000 0.0000 0.0000 0.0000 24.8438 0.0000
# 6 0.0000 0.0000 0.0000 0.0000 0.0000 13.6972
#
#
#
# Elastic Compliance Matrix: (Units=1/GPa)
#
#
# Indices 1 2 3 4 5 6 
#
# 1 0.009151 -0.004390 -0.000844 0.000000 0.000000 0.000000
# 2 -0.004390 0.012747 -0.002416 0.000000 0.000000 0.000000
# 3 -0.000844 -0.002416 0.014148 0.000000 0.000000 0.000000
# 4 0.000000 0.000000 0.000000 0.026246 0.000000 0.000000
# 5 0.000000 0.000000 0.000000 0.000000 0.040251 0.000000
# 6 0.000000 0.000000 0.000000 0.000000 0.000000 0.073008
#
#
# Mechanical properties :
#
#
# Convention : Reuss Voigt Hill
#
# Bulk Modulus (GPa) = 48.19906 53.38168 50.79037
# Shear Modulus (GPa) = 25.28238 30.19609 27.73923
#
# Velocity S-wave (km/s) = 3.53715 3.86562 3.70503
# Velocity P-wave (km/s) = 6.36663 6.80741 6.59071
#
# Compressibility (1/GPa) = 0.02074729
#
# Stress axis : x y z
#
# Youngs Moduli (GPa) = 109.27911 78.44761 70.68094
#
# Poissons Ratio (x) = 0.34437 0.05967
# Poissons Ratio (y) = 0.47971 0.17073
# Poissons Ratio (z) = 0.09225 0.18949
#
# Static dielectric constant tensor:
#      x y z
#    x 3.829350 0.000000 0.000000 
#    y 0.000000 3.791710 0.000000 
#    z 0.000000 0.000000 3.718680 
# 
# 
# High freq. dielectric constant tensor:
#      x y z
#    x 1.779840 0.000000 0.000000 
#    y 0.000000 1.783710 0.000000 
#    z 0.000000 0.000000 1.797780 
# 
# From -- ./inp_files/5893.got.cif
#   From: 2010.03.12/outbox.cif.g09.slc.cpg/sg50_3_cif.got.tgz:5893.got - 2010.04.16 13:23:21.
