data_PCOD8205687
_publ_section_title
;
Structure prediction by ZEFSAII (Michael W. Deem and Ramdas Pophale) SiO2 
 PCOD8205687
Probable space group: P B A N
;
_chemical_formula_sum "Si O2"
_cell_formula_units_Z 32
_cell_length_a 8.876301
_cell_length_b 10.447029
_cell_length_c 15.058913
_cell_angle_alpha 90.000000
_cell_angle_beta 90.000000
_cell_angle_gamma 90.000000
_cell_volume 1396.427669
_symmetry_space_group_name_H-M "P B A N"
_symmetry_group_IT_number 50
_space_group.IT_coordinate_system_code '2'
_symmetry_cell_setting 'orthorhombic'
loop_
_space_group_symop_operation_xyz
x,y,z
1/2-x,1/2-y,z
x,1/2-y,-z
1/2-x,y,-z
-x,-y,-z
1/2+x,1/2+y,-z
-x,1/2+y,z
1/2+x,-y,z
loop_
_atom_site_type_symbol
_atom_site_label
_atom_site_fract_x
_atom_site_fract_y
_atom_site_fract_z
Si Si1 0.496911 0.563037 0.625135
Si Si2 0.539327 0.847746 0.925356
Si Si3 0.750000 0.493874 0.500000
Si Si4 0.583724 0.703806 0.277191
Si Si5 0.250000 0.552587 0.000000
O O1 0.659866 0.573274 0.576067
O O2 0.373359 0.591127 0.549782
O O3 0.476233 0.680341 0.692296
O O4 0.467665 0.428335 0.676075
O O5 0.568583 0.796971 0.828080
O O6 0.358911 0.865355 0.936200
O O7 0.599382 0.750000 0.000000
O O8 0.636723 0.975967 0.935974
O O9 0.750000 0.750000 0.302986
#
# Coordination Sequence:
#
# PCOD8205687 Si02
#       5
#     8   8   4   8   4
#     4  11  26  47  78 108 146 198 239 318 362 458
#     4  11  25  46  71 103 146 196 236 298 360 434
#     4  10  24  50  74 108 146 194 252 292 400 438
#     4  12  27  47  74 116 150 188 252 308 367 427
#     4  10  24  44  72 102 136 204 240 286 362 430
#
# _framework density 22.915614000000001
#
# number of rings (size 3 to 8) (size 9 to 14) (size 15 to 20)
#    0.000    1.000    2.500    2.250   10.500    7.000 
#    4.500    0.000    0.000    0.000    0.000    0.000 
#    0.000    0.000    0.000    0.000    0.000    0.000 
#
# Total GULP energy -396590.886994 kJ/mol
# GULP energy per Si atom -12393.465219 kJ/mol
# Density = 2.286346 g / cm^3
# Si number density = 22.915614 Si / 1000 Ang^3
#
#
#
# Elastic Constant Matrix: (Units=GPa)
#
#
# Indices 1 2 3 4 5 6 
#
# 1 104.0573 21.5072 24.0789 0.0000 0.0000 0.0000
# 2 21.5072 130.4392 59.7653 0.0000 0.0000 0.0000
# 3 24.0789 59.7653 156.7083 0.0000 0.0000 0.0000
# 4 0.0000 0.0000 0.0000 26.0783 0.0000 0.0000
# 5 0.0000 0.0000 0.0000 0.0000 36.4550 0.0000
# 6 0.0000 0.0000 0.0000 0.0000 0.0000 -23.6446
#
#
#
# Elastic Compliance Matrix: (Units=1/GPa)
#
#
# Indices 1 2 3 4 5 6 
#
# 1 0.010106 -0.001157 -0.001112 0.000000 0.000000 0.000000
# 2 -0.001157 0.009422 -0.003416 0.000000 0.000000 0.000000
# 3 -0.001112 -0.003416 0.007855 0.000000 0.000000 0.000000
# 4 0.000000 0.000000 0.000000 0.038346 0.000000 0.000000
# 5 0.000000 0.000000 0.000000 0.000000 0.027431 0.000000
# 6 0.000000 0.000000 0.000000 0.000000 0.000000 -0.042293
#
#
# Mechanical properties :
#
#
# Convention : Reuss Voigt Hill
#
# Bulk Modulus (GPa) = 62.44241 66.87862 64.66051
# Shear Modulus (GPa) = 73.99246 26.83464 50.41355
#
# Velocity S-wave (km/s) = 5.68851 3.42573 4.69547
# Velocity P-wave (km/s) = 8.39366 6.70042 7.59438
#
# Compressibility (1/GPa) = 0.01601476
#
# Stress axis : x y z
#
# Youngs Moduli (GPa) = 98.94658 106.13257 127.31164
#
# Poissons Ratio (x) = 0.12280 0.14152
# Poissons Ratio (y) = 0.11449 0.43485
# Poissons Ratio (z) = 0.10999 0.36251
#
# Static dielectric constant tensor:
#      x y z
#    x 4.449140 0.000000 0.000000 
#    y 0.000000 4.031950 0.000000 
#    z 0.000000 0.000000 4.098040 
# 
# 
# High freq. dielectric constant tensor:
#      x y z
#    x 1.924030 0.000000 0.000000 
#    y 0.000000 1.892800 0.000000 
#    z 0.000000 0.000000 1.912330 
# 
# From -- ./inp_files/24437.got.cif
#   From: 2010.03.12/outbox.cif.g09.slc.cpg/sg50_13_cif.got.tgz:24437.got - 2010.04.16 13:23:21.
