data_PCOD8205745
_publ_section_title
;
Structure prediction by ZEFSAII (Michael W. Deem and Ramdas Pophale) SiO2 
 PCOD8205745
Probable space group: P B A N
;
_chemical_formula_sum "Si O2"
_cell_formula_units_Z 64
_cell_length_a 16.034893
_cell_length_b 20.551031
_cell_length_c 9.796339
_cell_angle_alpha 90.000000
_cell_angle_beta 90.000000
_cell_angle_gamma 90.000000
_cell_volume 3228.222692
_symmetry_space_group_name_H-M "P B A N"
_symmetry_group_IT_number 50
_space_group.IT_coordinate_system_code '2'
_symmetry_cell_setting 'orthorhombic'
loop_
_space_group_symop_operation_xyz
x,y,z
1/2-x,1/2-y,z
x,1/2-y,-z
1/2-x,y,-z
-x,-y,-z
1/2+x,1/2+y,-z
-x,1/2+y,z
1/2+x,-y,z
loop_
_atom_site_type_symbol
_atom_site_label
_atom_site_fract_x
_atom_site_fract_y
_atom_site_fract_z
Si Si1 0.944856 0.091341 0.220746
Si Si2 0.842607 0.773714 0.352667
Si Si3 0.841733 0.045133 0.963537
Si Si4 0.662125 0.038158 0.553728
Si Si5 0.544964 0.793103 0.131319
Si Si6 0.556572 0.471875 0.709880
Si Si7 0.882672 0.585455 0.698673
Si Si8 0.659595 0.898429 0.004740
O O1 0.900466 0.061965 0.088595
O O2 0.884488 0.091915 0.353217
O O3 0.967098 0.167554 0.196296
O O4 0.023519 0.042883 0.241483
O O5 0.750000 0.750000 0.312244
O O6 0.871123 0.750000 0.500000
O O7 0.910541 0.753143 0.240606
O O8 0.843712 0.851078 0.369114
O O9 0.831505 0.969027 0.928450
O O10 0.750000 0.075056 0.000000
O O11 0.887777 0.067636 0.823250
O O12 0.750000 0.066010 0.500000
O O13 0.609208 0.015984 0.424733
O O14 0.674780 0.974473 0.648853
O O15 0.518080 0.750000 0.000000
O O16 0.606290 0.851002 0.095489
O O17 0.479443 0.426496 0.663131
O O18 0.881854 0.592227 0.859790
O O19 0.750000 0.864682 0.000000
#
# Coordination Sequence:
#
# PCOD8205745 Si02
#       8
#     8   8   8   8   8   8   8   8
#     4  11  22  41  60  91 128 156 210 266 314 374
#     4  11  27  41  58  88 129 176 211 247 303 375
#     4  11  21  36  62  93 120 158 201 258 324 370
#     4  11  25  39  64  92 127 163 205 260 329 377
#     4  12  25  39  62  88 123 172 220 254 305 371
#     4  11  22  36  61  90 123 162 199 260 317 368
#     4  11  22  40  59  87 127 162 208 251 305 378
#     4  11  21  35  60  88 126 162 204 251 305 367
#
# _framework density 19.825151000000002
#
# number of rings (size 3 to 8) (size 9 to 14) (size 15 to 20)
#    0.000    0.875    5.000    4.125    7.000    0.000 
#    0.000    0.000    0.000    0.375    0.000    0.875 
#    0.000    0.000    0.000    0.000    0.000    0.000 
#
# Total GULP energy -793329.913694 kJ/mol
# GULP energy per Si atom -12395.779901 kJ/mol
# Density = 1.978003 g / cm^3
# Si number density = 19.825151 Si / 1000 Ang^3
#
#
#
# Elastic Constant Matrix: (Units=GPa)
#
#
# Indices 1 2 3 4 5 6 
#
# 1 96.2448 36.0415 31.9654 0.0000 0.0000 0.0000
# 2 36.0415 80.7951 19.4607 0.0000 0.0000 0.0000
# 3 31.9654 19.4607 102.3923 0.0000 0.0000 0.0000
# 4 0.0000 0.0000 0.0000 8.0333 0.0000 0.0000
# 5 0.0000 0.0000 0.0000 0.0000 32.1905 0.0000
# 6 0.0000 0.0000 0.0000 0.0000 0.0000 18.5533
#
#
#
# Elastic Compliance Matrix: (Units=1/GPa)
#
#
# Indices 1 2 3 4 5 6 
#
# 1 0.013402 -0.005209 -0.003194 0.000000 0.000000 0.000000
# 2 -0.005209 0.014995 -0.001224 0.000000 0.000000 0.000000
# 3 -0.003194 -0.001224 0.010996 0.000000 0.000000 0.000000
# 4 0.000000 0.000000 0.000000 0.124482 0.000000 0.000000
# 5 0.000000 0.000000 0.000000 0.000000 0.031065 0.000000
# 6 0.000000 0.000000 0.000000 0.000000 0.000000 0.053899
#
#
# Mechanical properties :
#
#
# Convention : Reuss Voigt Hill
#
# Bulk Modulus (GPa) = 49.65294 50.48527 50.06911
# Shear Modulus (GPa) = 18.19473 24.55306 21.37390
#
# Velocity S-wave (km/s) = 3.03274 3.52302 3.28704
# Velocity P-wave (km/s) = 6.11254 6.48610 6.30209
#
# Compressibility (1/GPa) = 0.02013979
#
# Stress axis : x y z
#
# Youngs Moduli (GPa) = 74.61835 66.68704 90.94206
#
# Poissons Ratio (x) = 0.34737 0.29045
# Poissons Ratio (y) = 0.38868 0.11130
# Poissons Ratio (z) = 0.23831 0.08162
#
# Static dielectric constant tensor:
#      x y z
#    x 3.838130 0.000000 0.000000 
#    y 0.000000 3.799200 0.000000 
#    z 0.000000 0.000000 3.828210 
# 
# 
# High freq. dielectric constant tensor:
#      x y z
#    x 1.770960 0.000000 0.000000 
#    y 0.000000 1.737570 0.000000 
#    z 0.000000 0.000000 1.791400 
# 
# From -- ./inp_files/14608.got.cif
#   From: 2010.03.12/outbox.cif.g09.slc.cpg/sg50_8_cif.got.tgz:14608.got - 2010.04.16 13:23:21.
