data_PCOD8205096
_publ_section_title
;
Structure prediction by ZEFSAII (Michael W. Deem and Ramdas Pophale) SiO2 
 PCOD8205096
Probable space group: P B A N
;
_chemical_formula_sum "Si O2"
_cell_formula_units_Z 60
_cell_length_a 22.888757
_cell_length_b 26.347863
_cell_length_c 5.198673
_cell_angle_alpha 90.000000
_cell_angle_beta 90.000000
_cell_angle_gamma 90.000000
_cell_volume 3135.162861
_symmetry_space_group_name_H-M "P B A N"
_symmetry_group_IT_number 50
_space_group.IT_coordinate_system_code '2'
_symmetry_cell_setting 'orthorhombic'
loop_
_space_group_symop_operation_xyz
x,y,z
1/2-x,1/2-y,z
x,1/2-y,-z
1/2-x,y,-z
-x,-y,-z
1/2+x,1/2+y,-z
-x,1/2+y,z
1/2+x,-y,z
loop_
_atom_site_type_symbol
_atom_site_label
_atom_site_fract_x
_atom_site_fract_y
_atom_site_fract_z
Si Si1 0.750000 0.883377 0.500000
Si Si2 0.663622 0.696308 0.593176
Si Si3 0.180574 0.896680 0.501946
Si Si4 0.819093 0.455960 0.999295
Si Si5 0.979580 0.308769 0.990237
Si Si6 0.906144 0.191483 0.512626
Si Si7 0.183885 0.069359 0.905217
Si Si8 0.105759 0.338212 0.068770
O O1 0.784999 0.842858 0.678530
O O2 0.802185 0.919744 0.395115
O O3 0.689732 0.750000 0.500000
O O4 0.624889 0.702714 0.850544
O O5 0.623875 0.676648 0.356275
O O6 0.250000 0.889733 0.500000
O O7 0.157605 0.925087 0.755504
O O8 0.152763 0.841103 0.505173
O O9 0.158086 0.929965 0.260063
O O10 0.840555 0.513959 0.972927
O O11 0.750000 0.456649 0.000000
O O12 0.951227 0.322250 0.715164
O O13 0.036007 0.343423 0.044579
O O14 0.998469 0.250000 0.000000
O O15 0.933866 0.321363 0.213292
O O16 0.886834 0.250000 0.500000
O O17 0.250000 0.080806 0.000000
O O18 0.134821 0.107721 0.007685
#
# Coordination Sequence:
#
# PCOD8205096 Si02
#       8
#     4   8   8   8   8   8   8   8
#     4  10  21  32  48  74 108 140 187 232 280 344
#     4  11  21  33  48  72 106 145 181 235 291 327
#     4  10  20  37  57  90 114 139 173 210 274 332
#     4   9  20  32  57  80 113 148 176 224 264 331
#     4  10  20  36  56  80 106 147 192 224 266 321
#     4  10  21  37  61  84 112 144 175 217 265 330
#     4  10  20  35  54  78 110 144 196 236 287 323
#     4  11  22  35  55  77 106 146 196 240 272 323
#
# _framework density 19.137763
#
# number of rings (size 3 to 8) (size 9 to 14) (size 15 to 20)
#    0.000    1.867    1.333    3.000    4.667    1.333 
#    0.000    1.333    0.000    9.600    0.000    0.000 
#    0.000    0.000    0.000    0.000    0.000    0.000 
#
# Total GULP energy -743422.179545 kJ/mol
# GULP energy per Si atom -12390.369659 kJ/mol
# Density = 1.909420 g / cm^3
# Si number density = 19.137763 Si / 1000 Ang^3
#
#
#
# Elastic Constant Matrix: (Units=GPa)
#
#
# Indices 1 2 3 4 5 6 
#
# 1 64.8286 53.2104 21.4250 0.0000 0.0000 0.0000
# 2 53.2104 118.8671 39.6805 0.0000 0.0000 0.0000
# 3 21.4250 39.6805 111.3399 0.0000 0.0000 0.0000
# 4 0.0000 0.0000 0.0000 21.5130 0.0000 0.0000
# 5 0.0000 0.0000 0.0000 0.0000 18.0646 0.0000
# 6 0.0000 0.0000 0.0000 0.0000 0.0000 32.8423
#
#
#
# Elastic Compliance Matrix: (Units=1/GPa)
#
#
# Indices 1 2 3 4 5 6 
#
# 1 0.024466 -0.010647 -0.000913 0.000000 0.000000 0.000000
# 2 -0.010647 0.014182 -0.003006 0.000000 0.000000 0.000000
# 3 -0.000913 -0.003006 0.010228 0.000000 0.000000 0.000000
# 4 0.000000 0.000000 0.000000 0.046483 0.000000 0.000000
# 5 0.000000 0.000000 0.000000 0.000000 0.055357 0.000000
# 6 0.000000 0.000000 0.000000 0.000000 0.000000 0.030449
#
#
# Mechanical properties :
#
#
# Convention : Reuss Voigt Hill
#
# Bulk Modulus (GPa) = 50.64724 58.18525 54.41624
# Shear Modulus (GPa) = 23.05420 26.53197 24.79308
#
# Velocity S-wave (km/s) = 3.47456 3.72743 3.60322
# Velocity P-wave (km/s) = 6.52831 6.99960 6.76806
#
# Compressibility (1/GPa) = 0.01974441
#
# Stress axis : x y z
#
# Youngs Moduli (GPa) = 40.87247 70.51024 97.76664
#
# Poissons Ratio (x) = 0.75075 0.08930
# Poissons Ratio (y) = 0.43518 0.29385
# Poissons Ratio (z) = 0.03733 0.21193
#
# Static dielectric constant tensor:
#      x y z
#    x 3.216070 0.000000 0.000000 
#    y 0.000000 3.470780 0.000000 
#    z 0.000000 0.000000 7.082810 
# 
# 
# High freq. dielectric constant tensor:
#      x y z
#    x 1.709480 0.000000 0.000000 
#    y 0.000000 1.734500 0.000000 
#    z 0.000000 0.000000 1.762720 
# 
# From -- ./inp_files/5488.got.cif
#   From: 2010.03.12/outbox.cif.g09.slc.cpg/sg50_3_cif.got.tgz:5488.got - 2010.04.16 13:23:21.
