data_PCOD8205437
_publ_section_title
;
Structure prediction by ZEFSAII (Michael W. Deem and Ramdas Pophale) SiO2 
 PCOD8205437
Probable space group: P B A N
;
_chemical_formula_sum "Si O2"
_cell_formula_units_Z 40
_cell_length_a 13.155569
_cell_length_b 11.201720
_cell_length_c 12.069416
_cell_angle_alpha 90.000000
_cell_angle_beta 90.000000
_cell_angle_gamma 90.000000
_cell_volume 1778.609493
_symmetry_space_group_name_H-M "P B A N"
_symmetry_group_IT_number 50
_space_group.IT_coordinate_system_code '2'
_symmetry_cell_setting 'orthorhombic'
loop_
_space_group_symop_operation_xyz
x,y,z
1/2-x,1/2-y,z
x,1/2-y,-z
1/2-x,y,-z
-x,-y,-z
1/2+x,1/2+y,-z
-x,1/2+y,z
1/2+x,-y,z
loop_
_atom_site_type_symbol
_atom_site_label
_atom_site_fract_x
_atom_site_fract_y
_atom_site_fract_z
Si Si1 0.824344 0.649800 0.262602
Si Si2 0.186909 0.496169 0.112022
Si Si3 0.359122 0.793644 0.253020
Si Si4 0.972245 0.796173 0.117355
Si Si5 0.493497 0.124067 0.566693
O O1 0.750000 0.750000 0.311743
O O2 0.757206 0.543060 0.214562
O O3 0.890242 0.701500 0.161527
O O4 0.891974 0.604282 0.363125
O O5 0.153226 0.628839 0.141682
O O6 0.082889 0.422240 0.101901
O O7 0.250000 0.491323 0.000000
O O8 0.250000 0.750000 0.295970
O O9 0.435966 0.689800 0.207994
O O10 0.408443 0.867122 0.353934
O O11 0.013951 0.750000 0.000000
O O12 0.487183 0.250000 0.500000
O O13 0.500000 0.000000 0.500000
#
# Coordination Sequence:
#
# PCOD8205437 Si02
#       5
#     8   8   8   8   8
#     4   9  21  42  72 105 137 178 248 299 348 437
#     4  11  23  42  75 108 142 191 234 289 366 436
#     4  11  29  45  68 105 149 187 242 296 362 443
#     4  10  21  41  68 101 146 187 231 288 349 433
#     4  11  28  52  76 104 142 193 249 314 376 420
#
# _framework density 22.489477999999998
#
# number of rings (size 3 to 8) (size 9 to 14) (size 15 to 20)
#    0.000    1.600    2.000    0.000   14.000    3.200 
#    0.000    0.000    0.000    0.000    0.000    0.000 
#    0.000    0.000    0.000    0.000    0.000    0.000 
#
# Total GULP energy -495870.419136 kJ/mol
# GULP energy per Si atom -12396.760478 kJ/mol
# Density = 2.243829 g / cm^3
# Si number density = 22.489478 Si / 1000 Ang^3
#
#
#
# Elastic Constant Matrix: (Units=GPa)
#
#
# Indices 1 2 3 4 5 6 
#
# 1 152.3363 39.7822 68.3627 0.0000 0.0000 0.0000
# 2 39.7822 100.2841 58.3388 0.0000 0.0000 0.0000
# 3 68.3627 58.3388 116.5970 0.0000 0.0000 0.0000
# 4 0.0000 0.0000 0.0000 14.7939 0.0000 0.0000
# 5 0.0000 0.0000 0.0000 0.0000 8.1916 0.0000
# 6 0.0000 0.0000 0.0000 0.0000 0.0000 25.7569
#
#
#
# Elastic Compliance Matrix: (Units=1/GPa)
#
#
# Indices 1 2 3 4 5 6 
#
# 1 0.008943 -0.000702 -0.004893 0.000000 0.000000 0.000000
# 2 -0.000702 0.014121 -0.006654 0.000000 0.000000 0.000000
# 3 -0.004893 -0.006654 0.014774 0.000000 0.000000 0.000000
# 4 0.000000 0.000000 0.000000 0.067595 0.000000 0.000000
# 5 0.000000 0.000000 0.000000 0.000000 0.122076 0.000000
# 6 0.000000 0.000000 0.000000 0.000000 0.000000 0.038825
#
#
# Mechanical properties :
#
#
# Convention : Reuss Voigt Hill
#
# Bulk Modulus (GPa) = 74.94939 78.02052 76.48495
# Shear Modulus (GPa) = 16.93320 23.26407 20.09864
#
# Velocity S-wave (km/s) = 2.74695 3.21976 2.99271
# Velocity P-wave (km/s) = 6.59240 6.97064 6.78416
#
# Compressibility (1/GPa) = 0.01334234
#
# Stress axis : x y z
#
# Youngs Moduli (GPa) = 111.81666 70.81744 67.68473
#
# Poissons Ratio (x) = 0.04968 0.33115
# Poissons Ratio (y) = 0.07845 0.45037
# Poissons Ratio (z) = 0.54706 0.47122
#
# Static dielectric constant tensor:
#      x y z
#    x 4.522470 0.000000 0.000000 
#    y 0.000000 3.895870 0.000000 
#    z 0.000000 0.000000 3.932960 
# 
# 
# High freq. dielectric constant tensor:
#      x y z
#    x 1.903940 0.000000 0.000000 
#    y 0.000000 1.876620 0.000000 
#    z 0.000000 0.000000 1.883130 
# 
# From -- ./inp_files/20920.got.cif
#   From: 2010.03.12/outbox.cif.g09.slc.cpg/sg50_11_cif.got.tgz:20920.got - 2010.04.16 13:23:21.
