data_PCOD8205972
_publ_section_title
;
Structure prediction by ZEFSAII (Michael W. Deem and Ramdas Pophale) SiO2 
 PCOD8205972
Probable space group: P M M A
;
_chemical_formula_sum "Si O2"
_cell_formula_units_Z 44
_cell_length_a 8.646934
_cell_length_b 28.353556
_cell_length_c 9.270781
_cell_angle_alpha 90.000000
_cell_angle_beta 90.000000
_cell_angle_gamma 90.000000
_cell_volume 2272.929684
_symmetry_space_group_name_H-M "P M M A"
_symmetry_group_IT_number 51
_symmetry_cell_setting 'orthorhombic'
loop_
_space_group_symop_operation_xyz
x,y,z
1/2-x,-y,z
1/2+x,-y,-z
-x,y,-z
-x,-y,-z
1/2+x,y,-z
1/2-x,y,z
x,-y,z
loop_
_atom_site_type_symbol
_atom_site_label
_atom_site_fract_x
_atom_site_fract_y
_atom_site_fract_z
Si Si1 0.066208 0.905652 0.160606
Si Si2 0.933692 0.000000 0.161199
Si Si3 0.566395 0.810083 0.158764
Si Si4 0.931358 0.445547 0.651366
Si Si5 0.932368 0.279449 0.342022
Si Si6 0.432979 0.367692 0.843265
O O1 0.250000 0.907634 0.161043
O O2 0.004911 0.857369 0.233144
O O3 0.997905 0.952545 0.239634
O O4 0.000000 0.904556 0.000000
O O5 0.750000 0.000000 0.160092
O O6 0.000000 0.000000 0.000000
O O7 0.750000 0.814932 0.148958
O O8 0.511740 0.766865 0.257354
O O9 0.500000 0.801365 0.000000
O O10 0.750000 0.436712 0.648754
O O11 0.974001 0.500000 0.676662
O O12 0.000000 0.427467 0.500000
O O13 0.006552 0.417146 0.782096
O O14 0.750000 0.280530 0.353007
O O15 0.993284 0.325495 0.258321
O O16 0.000000 0.279006 0.500000
O O17 0.250000 0.369037 0.852856
O O18 0.500000 0.358695 0.000000
#
# Coordination Sequence:
#
# PCOD8205972 Si02
#       6
#     8   4   8   8   8   8
#     4  10  17  26  41  65  96 132 170 211 258 310
#     4  10  16  24  38  60  93 132 169 210 257 308
#     4  10  19  33  51  75 104 136 173 215 263 315
#     4  10  21  38  60  86 116 151 189 229 273 323
#     4  10  23  39  57  80 107 139 178 221 268 322
#     4  11  23  39  59  85 114 147 185 228 277 327
#
# _framework density 19.358276
#
# number of rings (size 3 to 8) (size 9 to 14) (size 15 to 20)
#    0.000    1.818    0.000    7.364    0.000    5.818 
#    0.000    0.000    0.000    0.000    0.000    0.636 
#    0.000    0.000    0.000    0.000    0.000    0.000 
#
# Total GULP energy -545600.078142 kJ/mol
# GULP energy per Si atom -12400.001776 kJ/mol
# Density = 1.931422 g / cm^3
# Si number density = 19.358276 Si / 1000 Ang^3
#
#
#
# Elastic Constant Matrix: (Units=GPa)
#
#
# Indices 1 2 3 4 5 6 
#
# 1 114.0385 59.4079 37.0449 0.0000 0.0000 0.0000
# 2 59.4079 156.6367 69.4076 0.0000 0.0000 0.0000
# 3 37.0449 69.4076 105.7671 0.0000 0.0000 0.0000
# 4 0.0000 0.0000 0.0000 14.4771 0.0000 0.0000
# 5 0.0000 0.0000 0.0000 0.0000 28.9692 0.0000
# 6 0.0000 0.0000 0.0000 0.0000 0.0000 23.2535
#
#
#
# Elastic Compliance Matrix: (Units=1/GPa)
#
#
# Indices 1 2 3 4 5 6 
#
# 1 0.011114 -0.003511 -0.001588 0.000000 0.000000 0.000000
# 2 -0.003511 0.010111 -0.005405 0.000000 0.000000 0.000000
# 3 -0.001588 -0.005405 0.013558 0.000000 0.000000 0.000000
# 4 0.000000 0.000000 0.000000 0.069075 0.000000 0.000000
# 5 0.000000 0.000000 0.000000 0.000000 0.034519 0.000000
# 6 0.000000 0.000000 0.000000 0.000000 0.000000 0.043004
#
#
# Mechanical properties :
#
#
# Convention : Reuss Voigt Hill
#
# Bulk Modulus (GPa) = 72.60507 78.68477 75.64492
# Shear Modulus (GPa) = 24.15651 27.37875 25.76763
#
# Velocity S-wave (km/s) = 3.53635 3.76482 3.65237
# Velocity P-wave (km/s) = 7.36625 7.72226 7.54636
#
# Compressibility (1/GPa) = 0.01377314
#
# Stress axis : x y z
#
# Youngs Moduli (GPa) = 89.97456 98.90036 73.75585
#
# Poissons Ratio (x) = 0.34729 0.11716
# Poissons Ratio (y) = 0.31594 0.39868
# Poissons Ratio (z) = 0.14292 0.53459
#
# Static dielectric constant tensor:
#      x y z
#    x 3.561480 0.000000 0.000000 
#    y 0.000000 4.527240 0.000000 
#    z 0.000000 0.000000 3.158440 
# 
# 
# High freq. dielectric constant tensor:
#      x y z
#    x 1.766430 0.000000 0.000000 
#    y 0.000000 1.782380 0.000000 
#    z 0.000000 0.000000 1.710600 
# 
# From -- ./inp_files/5805.got.cif
#   From: 2010.03.12/outbox.cif.g09.slc.cpg/sg51_3_cif.got.tgz:5805.got - 2010.04.16 13:43:02.
