data_PCOD8205494
_publ_section_title
;
Structure prediction by ZEFSAII (Michael W. Deem and Ramdas Pophale) SiO2 
 PCOD8205494
Probable space group: P B A N
;
_chemical_formula_sum "Si O2"
_cell_formula_units_Z 32
_cell_length_a 18.560364
_cell_length_b 8.994681
_cell_length_c 7.983596
_cell_angle_alpha 90.000000
_cell_angle_beta 90.000000
_cell_angle_gamma 90.000000
_cell_volume 1332.817869
_symmetry_space_group_name_H-M "P B A N"
_symmetry_group_IT_number 50
_space_group.IT_coordinate_system_code '2'
_symmetry_cell_setting 'orthorhombic'
loop_
_space_group_symop_operation_xyz
x,y,z
1/2-x,1/2-y,z
x,1/2-y,-z
1/2-x,y,-z
-x,-y,-z
1/2+x,1/2+y,-z
-x,1/2+y,z
1/2+x,-y,z
loop_
_atom_site_type_symbol
_atom_site_label
_atom_site_fract_x
_atom_site_fract_y
_atom_site_fract_z
Si Si1 0.758814 0.587565 0.303663
Si Si2 0.581768 0.955879 0.332739
Si Si3 0.363396 0.623103 0.631941
Si Si4 0.488048 0.774072 0.809980
O O1 0.750000 0.750000 0.215672
O O2 0.750000 0.611529 0.500000
O O3 0.837916 0.529421 0.254880
O O4 0.699222 0.461440 0.262165
O O5 0.551285 0.788295 0.312847
O O6 0.586502 0.007276 0.526552
O O7 0.524060 0.052602 0.227489
O O8 0.334401 0.750000 0.500000
O O9 0.411805 0.695877 0.773949
O O10 0.512387 0.750000 0.000000
#
# Coordination Sequence:
#
# PCOD8205494 Si02
#       4
#     8   8   8   8
#     4   9  19  37  63  90 119 155 206 262 308 357
#     4  10  22  39  62  91 118 164 207 255 314 366
#     4   9  20  39  64  91 119 160 211 263 309 369
#     4  11  23  39  61  88 129 164 202 254 314 378
#
# _framework density 24.009281000000001
#
# number of rings (size 3 to 8) (size 9 to 14) (size 15 to 20)
#    0.000    2.250    0.000    1.500    3.500   11.500 
#    9.000    2.500    0.000    0.000    0.000    0.000 
#    0.000    0.000    0.000    0.000    0.000    0.000 
#
# Total GULP energy -396523.071578 kJ/mol
# GULP energy per Si atom -12391.345987 kJ/mol
# Density = 2.395464 g / cm^3
# Si number density = 24.009281 Si / 1000 Ang^3
#
#
#
# Elastic Constant Matrix: (Units=GPa)
#
#
# Indices 1 2 3 4 5 6 
#
# 1 89.9679 41.4957 6.4696 0.0000 0.0000 0.0000
# 2 41.4957 103.2454 12.8167 0.0000 0.0000 0.0000
# 3 6.4696 12.8167 40.9738 0.0000 0.0000 0.0000
# 4 0.0000 0.0000 0.0000 16.2378 0.0000 0.0000
# 5 0.0000 0.0000 0.0000 0.0000 11.8579 0.0000
# 6 0.0000 0.0000 0.0000 0.0000 0.0000 48.2438
#
#
#
# Elastic Compliance Matrix: (Units=1/GPa)
#
#
# Indices 1 2 3 4 5 6 
#
# 1 0.013653 -0.005430 -0.000457 0.000000 0.000000 0.000000
# 2 -0.005430 0.012237 -0.002970 0.000000 0.000000 0.000000
# 3 -0.000457 -0.002970 0.025407 0.000000 0.000000 0.000000
# 4 0.000000 0.000000 0.000000 0.061585 0.000000 0.000000
# 5 0.000000 0.000000 0.000000 0.000000 0.084332 0.000000
# 6 0.000000 0.000000 0.000000 0.000000 0.000000 0.020728
#
#
# Mechanical properties :
#
#
# Convention : Reuss Voigt Hill
#
# Bulk Modulus (GPa) = 29.77863 39.52790 34.65326
# Shear Modulus (GPa) = 20.25517 26.82825 23.54171
#
# Velocity S-wave (km/s) = 2.90770 3.34640 3.13473
# Velocity P-wave (km/s) = 4.86856 5.60629 5.25040
#
# Compressibility (1/GPa) = 0.03358113
#
# Stress axis : x y z
#
# Youngs Moduli (GPa) = 73.24609 81.71973 39.35907
#
# Poissons Ratio (x) = 0.44377 0.01799
# Poissons Ratio (y) = 0.39776 0.11691
# Poissons Ratio (z) = 0.03348 0.24273
#
# Static dielectric constant tensor:
#      x y z
#    x 4.436740 0.000000 0.000000 
#    y 0.000000 4.808860 0.000000 
#    z 0.000000 0.000000 3.529550 
# 
# 
# High freq. dielectric constant tensor:
#      x y z
#    x 1.957110 0.000000 0.000000 
#    y 0.000000 1.974810 0.000000 
#    z 0.000000 0.000000 1.879830 
# 
# From -- ./inp_files/14822.got.cif
#   From: 2010.03.12/outbox.cif.g09.slc.cpg/sg50_8_cif.got.tgz:14822.got - 2010.04.16 13:23:21.
