data_PCOD8205415
_publ_section_title
;
Structure prediction by ZEFSAII (Michael W. Deem and Ramdas Pophale) SiO2 
 PCOD8205415
Probable space group: P B A N
;
_chemical_formula_sum "Si O2"
_cell_formula_units_Z 52
_cell_length_a 17.652304
_cell_length_b 9.304033
_cell_length_c 14.636836
_cell_angle_alpha 90.000000
_cell_angle_beta 90.000000
_cell_angle_gamma 90.000000
_cell_volume 2403.919093
_symmetry_space_group_name_H-M "P B A N"
_symmetry_group_IT_number 50
_space_group.IT_coordinate_system_code '2'
_symmetry_cell_setting 'orthorhombic'
loop_
_space_group_symop_operation_xyz
x,y,z
1/2-x,1/2-y,z
x,1/2-y,-z
1/2-x,y,-z
-x,-y,-z
1/2+x,1/2+y,-z
-x,1/2+y,z
1/2+x,-y,z
loop_
_atom_site_type_symbol
_atom_site_label
_atom_site_fract_x
_atom_site_fract_y
_atom_site_fract_z
Si Si1 0.398138 0.033556 0.854650
Si Si2 0.166695 0.734614 0.106338
Si Si3 0.096969 0.250000 0.000000
Si Si4 0.151668 0.095659 0.664487
Si Si5 0.840241 0.087517 0.503634
Si Si6 0.177539 0.412327 0.670234
Si Si7 0.933563 0.968856 0.153429
O O1 0.384194 0.863771 0.856211
O O2 0.488414 0.056956 0.848073
O O3 0.363163 0.100917 0.765870
O O4 0.361237 0.123927 0.940888
O O5 0.250000 0.750000 0.151676
O O6 0.132451 0.579642 0.127701
O O7 0.174006 0.750000 0.000000
O O8 0.053604 0.340256 0.079235
O O9 0.165484 0.255566 0.625978
O O10 0.235829 0.041608 0.692597
O O11 0.090732 0.090840 0.747060
O O12 0.121578 0.997523 0.580743
O O13 0.869277 0.250000 0.500000
O O14 0.750000 0.073088 0.500000
O O15 0.864037 0.022999 0.601779
#
# Coordination Sequence:
#
# PCOD8205415 Si02
#       7
#     8   8   4   8   8   8   8
#     4  12  25  42  67  94 130 176 225 272 331 399
#     4  11  25  43  62  92 130 171 218 278 337 384
#     4  12  24  44  63  92 125 174 226 264 320 402
#     4  10  21  40  64  95 128 167 215 269 326 389
#     4   9  19  37  64  95 130 169 210 260 330 403
#     4  10  21  40  64  95 128 167 215 269 326 389
#     4  12  25  42  67  94 130 176 225 272 331 399
#
# _framework density 21.631343999999999
#
# number of rings (size 3 to 8) (size 9 to 14) (size 15 to 20)
#    0.000    1.231    3.077    2.769    4.308    1.846 
#    0.000    3.846    0.000    0.000    0.000    0.000 
#    0.000    0.000    0.000    0.000    0.000    0.000 
#
# Total GULP energy -644272.024660 kJ/mol
# GULP energy per Si atom -12389.846628 kJ/mol
# Density = 2.158211 g / cm^3
# Si number density = 21.631344 Si / 1000 Ang^3
#
#
#
# Elastic Constant Matrix: (Units=GPa)
#
#
# Indices 1 2 3 4 5 6 
#
# 1 70.9731 18.1870 24.2126 0.0000 0.0000 0.0000
# 2 18.1870 113.3546 43.6061 0.0000 0.0000 0.0000
# 3 24.2126 43.6061 144.4688 0.0000 0.0000 0.0000
# 4 0.0000 0.0000 0.0000 37.3641 0.0000 0.0000
# 5 0.0000 0.0000 0.0000 0.0000 -2.3552 0.0000
# 6 0.0000 0.0000 0.0000 0.0000 0.0000 23.6417
#
#
#
# Elastic Compliance Matrix: (Units=1/GPa)
#
#
# Indices 1 2 3 4 5 6 
#
# 1 0.015213 -0.001652 -0.002051 0.000000 0.000000 0.000000
# 2 -0.001652 0.010160 -0.002790 0.000000 0.000000 0.000000
# 3 -0.002051 -0.002790 0.008108 0.000000 0.000000 0.000000
# 4 0.000000 0.000000 0.000000 0.026764 0.000000 0.000000
# 5 0.000000 0.000000 0.000000 0.000000 -0.424584 0.000000
# 6 0.000000 0.000000 0.000000 0.000000 0.000000 0.042298
#
#
# Mechanical properties :
#
#
# Convention : Reuss Voigt Hill
#
# Bulk Modulus (GPa) = 48.79173 55.64532 52.21853
# Shear Modulus (GPa) = -16.54401 27.91616 5.68607
#
# Velocity S-wave (km/s) = -2.76853 3.59631 1.62306
# Velocity P-wave (km/s) = 3.51928 6.55933 5.26356
#
# Compressibility (1/GPa) = 0.02049528
#
# Stress axis : x y z
#
# Youngs Moduli (GPa) = 65.73395 98.42401 123.33875
#
# Poissons Ratio (x) = 0.16258 0.25297
# Poissons Ratio (y) = 0.10858 0.34410
# Poissons Ratio (z) = 0.13482 0.27459
#
# Static dielectric constant tensor:
#      x y z
#    x 3.573210 0.000000 0.000000 
#    y 0.000000 3.327790 0.000000 
#    z 0.000000 0.000000 3.892970 
# 
# 
# High freq. dielectric constant tensor:
#      x y z
#    x 1.805070 0.000000 0.000000 
#    y 0.000000 1.870940 0.000000 
#    z 0.000000 0.000000 1.853780 
# 
# From -- ./inp_files/27187.got.cif
#   From: 2010.03.12/outbox.cif.g09.slc.cpg/sg50_14_cif.got.tgz:27187.got - 2010.04.16 13:23:21.
