data_PCOD8205914
_publ_section_title
;
Structure prediction by ZEFSAII (Michael W. Deem and Ramdas Pophale) SiO2 
 PCOD8205914
Probable space group: P B A N
;
_chemical_formula_sum "Si O2"
_cell_formula_units_Z 14
_cell_length_a 4.954284
_cell_length_b 21.457894
_cell_length_c 5.103930
_cell_angle_alpha 90.000000
_cell_angle_beta 90.000000
_cell_angle_gamma 90.000000
_cell_volume 542.591147
_symmetry_space_group_name_H-M "P B A N"
_symmetry_group_IT_number 50
_space_group.IT_coordinate_system_code '2'
_symmetry_cell_setting 'orthorhombic'
loop_
_space_group_symop_operation_xyz
x,y,z
1/2-x,1/2-y,z
x,1/2-y,-z
1/2-x,y,-z
-x,-y,-z
1/2+x,1/2+y,-z
-x,1/2+y,z
1/2+x,-y,z
loop_
_atom_site_type_symbol
_atom_site_label
_atom_site_fract_x
_atom_site_fract_y
_atom_site_fract_z
Si Si1 0.750000 0.045360 0.000000
Si Si2 0.432897 0.358511 0.260981
Si Si3 0.250000 0.750000 0.500000
O O1 0.683616 0.092789 0.760761
O O2 0.500000 0.000000 0.000000
O O3 0.250000 0.381480 0.500000
O O4 0.558971 0.290733 0.312409
O O5 0.250000 0.357311 0.000000
#
# Coordination Sequence:
#
# PCOD8205914 Si02
#       3
#     4   8   2
#     4  12  28  55  86 123 170 220 284 342 416 506
#     4  12  29  54  83 122 169 221 278 351 420 496
#     4  12  30  50  88 124 172 212 292 338 428 496
#
# _framework density 25.802112999999999
#
# number of rings (size 3 to 8) (size 9 to 14) (size 15 to 20)
#    0.000    0.000    2.857    4.286    0.000   19.429 
#    0.000    0.000    0.000    0.000    0.000    0.000 
#    0.000    0.000    0.000    0.000    0.000    0.000 
#
# Total GULP energy -173436.712806 kJ/mol
# GULP energy per Si atom -12388.336629 kJ/mol
# Density = 2.574339 g / cm^3
# Si number density = 25.802113 Si / 1000 Ang^3
#
#
#
# Elastic Constant Matrix: (Units=GPa)
#
#
# Indices 1 2 3 4 5 6 
#
# 1 208.6709 108.1219 93.5157 0.0000 0.0000 0.0000
# 2 108.1219 220.7188 72.6505 0.0000 0.0000 0.0000
# 3 93.5157 72.6505 185.8076 0.0000 0.0000 0.0000
# 4 0.0000 0.0000 0.0000 -77.9296 0.0000 0.0000
# 5 0.0000 0.0000 0.0000 0.0000 40.3448 0.0000
# 6 0.0000 0.0000 0.0000 0.0000 0.0000 215.2994
#
#
#
# Elastic Compliance Matrix: (Units=1/GPa)
#
#
# Indices 1 2 3 4 5 6 
#
# 1 0.007409 -0.002757 -0.002651 0.000000 0.000000 0.000000
# 2 -0.002757 0.006226 -0.001047 0.000000 0.000000 0.000000
# 3 -0.002651 -0.001047 0.007125 0.000000 0.000000 0.000000
# 4 0.000000 0.000000 0.000000 -0.012832 0.000000 0.000000
# 5 0.000000 0.000000 0.000000 0.000000 0.024786 0.000000
# 6 0.000000 0.000000 0.000000 0.000000 0.000000 0.004645
#
#
# Mechanical properties :
#
#
# Convention : Reuss Voigt Hill
#
# Bulk Modulus (GPa) = 127.37308 129.30815 128.34062
# Shear Modulus (GPa) = 94.54674 58.27020 76.40847
#
# Velocity S-wave (km/s) = 6.05992 4.75737 5.44771
# Velocity P-wave (km/s) = 9.92149 8.96665 9.45613
#
# Compressibility (1/GPa) = 0.00785095
#
# Stress axis : x y z
#
# Youngs Moduli (GPa) = 134.97938 160.62749 140.34396
#
# Poissons Ratio (x) = 0.44279 0.37203
# Poissons Ratio (y) = 0.37209 0.14691
# Poissons Ratio (z) = 0.35781 0.16814
#
# Static dielectric constant tensor:
#      x y z
#    x 5.184070 0.000000 0.000000 
#    y 0.000000 5.628090 0.000000 
#    z 0.000000 0.000000 4.685980 
# 
# 
# High freq. dielectric constant tensor:
#      x y z
#    x 2.065870 0.000000 0.000000 
#    y 0.000000 2.053520 0.000000 
#    z 0.000000 0.000000 2.022720 
# 
# From -- ./inp_files/177.got.cif
#   From: 2010.03.12/outbox.cif.g09.slc.cpg/sg50_1_cif.got.tgz:177.got - 2010.04.16 13:23:21.
