data_PCOD8205639
_publ_section_title
;
Structure prediction by ZEFSAII (Michael W. Deem and Ramdas Pophale) SiO2 
 PCOD8205639
Probable space group: P B A N
;
_chemical_formula_sum "Si O2"
_cell_formula_units_Z 56
_cell_length_a 9.067253
_cell_length_b 13.454280
_cell_length_c 21.545010
_cell_angle_alpha 90.000000
_cell_angle_beta 90.000000
_cell_angle_gamma 90.000000
_cell_volume 2628.348176
_symmetry_space_group_name_H-M "P B A N"
_symmetry_group_IT_number 50
_space_group.IT_coordinate_system_code '2'
_symmetry_cell_setting 'orthorhombic'
loop_
_space_group_symop_operation_xyz
x,y,z
1/2-x,1/2-y,z
x,1/2-y,-z
1/2-x,y,-z
-x,-y,-z
1/2+x,1/2+y,-z
-x,1/2+y,z
1/2+x,-y,z
loop_
_atom_site_type_symbol
_atom_site_label
_atom_site_fract_x
_atom_site_fract_y
_atom_site_fract_z
Si Si1 0.999103 0.620496 0.218452
Si Si2 0.497676 0.116952 0.636346
Si Si3 0.742586 0.001771 0.165975
Si Si4 0.183614 0.347679 0.068509
Si Si5 0.777456 0.484981 0.428754
Si Si6 0.083695 0.713474 0.563441
Si Si7 0.101187 0.798408 0.131294
O O1 0.100475 0.532010 0.192727
O O2 0.032523 0.724933 0.183770
O O3 0.026579 0.622975 0.291122
O O4 0.831668 0.584566 0.207453
O O5 0.629804 0.058911 0.601659
O O6 0.495014 0.233582 0.618498
O O7 0.339996 0.072334 0.615144
O O8 0.770336 0.951824 0.098949
O O9 0.638912 0.098146 0.164327
O O10 0.250000 0.250000 0.102467
O O11 0.007850 0.326072 0.074279
O O12 0.250000 0.352893 0.000000
O O13 0.750000 0.519836 0.500000
O O14 0.912458 0.405022 0.429600
O O15 0.250000 0.750000 0.563121
O O16 0.006174 0.750000 0.500000
O O17 0.250000 0.750000 0.102792
#
# Coordination Sequence:
#
# PCOD8205639 Si02
#       7
#     8   8   8   8   8   8   8
#     4  11  23  40  65  98 133 175 224 275 336 408
#     4  11  23  37  64  95 121 167 219 264 326 400
#     4  11  22  42  68  94 139 178 216 278 335 388
#     4  11  23  43  71 100 134 183 223 270 337 393
#     4  11  21  39  63  88 123 163 215 273 327 388
#     4   9  17  35  58  81 114 162 199 250 321 385
#     4  10  23  43  69  99 137 180 222 274 332 396
#
# _framework density 21.306156000000001
#
# number of rings (size 3 to 8) (size 9 to 14) (size 15 to 20)
#    0.000    1.429    5.714    1.286    0.000    6.857 
#    0.000    2.143    0.000    0.000    0.000    0.000 
#    0.000    0.000    0.000    0.000    0.000    0.000 
#
# Total GULP energy -693793.827834 kJ/mol
# GULP energy per Si atom -12389.175497 kJ/mol
# Density = 2.125766 g / cm^3
# Si number density = 21.306156 Si / 1000 Ang^3
#
#
#
# Elastic Constant Matrix: (Units=GPa)
#
#
# Indices 1 2 3 4 5 6 
#
# 1 54.9131 24.1230 31.6668 0.0000 0.0000 0.0000
# 2 24.1230 110.0353 39.7983 0.0000 0.0000 0.0000
# 3 31.6668 39.7983 138.7916 0.0000 0.0000 0.0000
# 4 0.0000 0.0000 0.0000 27.2922 0.0000 0.0000
# 5 0.0000 0.0000 0.0000 0.0000 19.4218 0.0000
# 6 0.0000 0.0000 0.0000 0.0000 0.0000 31.8738
#
#
#
# Elastic Compliance Matrix: (Units=1/GPa)
#
#
# Indices 1 2 3 4 5 6 
#
# 1 0.022030 -0.003360 -0.004063 0.000000 0.000000 0.000000
# 2 -0.003360 0.010652 -0.002288 0.000000 0.000000 0.000000
# 3 -0.004063 -0.002288 0.008788 0.000000 0.000000 0.000000
# 4 0.000000 0.000000 0.000000 0.036641 0.000000 0.000000
# 5 0.000000 0.000000 0.000000 0.000000 0.051489 0.000000
# 6 0.000000 0.000000 0.000000 0.000000 0.000000 0.031374
#
#
# Mechanical properties :
#
#
# Convention : Reuss Voigt Hill
#
# Bulk Modulus (GPa) = 45.35498 54.99071 50.17285
# Shear Modulus (GPa) = 26.63210 29.59434 28.11322
#
# Velocity S-wave (km/s) = 3.53933 3.73098 3.63642
# Velocity P-wave (km/s) = 6.16733 6.66529 6.42114
#
# Compressibility (1/GPa) = 0.02204829
#
# Stress axis : x y z
#
# Youngs Moduli (GPa) = 45.39361 93.87822 113.79088
#
# Poissons Ratio (x) = 0.31544 0.46231
# Poissons Ratio (y) = 0.15253 0.26034
# Poissons Ratio (z) = 0.18442 0.21478
#
# Static dielectric constant tensor:
#      x y z
#    x 3.894610 0.000000 0.000000 
#    y 0.000000 4.467970 0.000000 
#    z 0.000000 0.000000 3.576860 
# 
# 
# High freq. dielectric constant tensor:
#      x y z
#    x 1.832510 0.000000 0.000000 
#    y 0.000000 1.847550 0.000000 
#    z 0.000000 0.000000 1.814170 
# 
# From -- ./inp_files/30632.got.cif
#   From: 2010.03.12/outbox.cif.g09.slc.cpg/sg50_16_cif.got.tgz:30632.got - 2010.04.16 13:23:21.
