data_PCOD8205150
_publ_section_title
;
Structure prediction by ZEFSAII (Michael W. Deem and Ramdas Pophale) SiO2 
 PCOD8205150
Probable space group: P B A N
;
_chemical_formula_sum "Si O2"
_cell_formula_units_Z 64
_cell_length_a 9.047218
_cell_length_b 19.538794
_cell_length_c 17.077437
_cell_angle_alpha 90.000000
_cell_angle_beta 90.000000
_cell_angle_gamma 90.000000
_cell_volume 3018.808062
_symmetry_space_group_name_H-M "P B A N"
_symmetry_group_IT_number 50
_space_group.IT_coordinate_system_code '2'
_symmetry_cell_setting 'orthorhombic'
loop_
_space_group_symop_operation_xyz
x,y,z
1/2-x,1/2-y,z
x,1/2-y,-z
1/2-x,y,-z
-x,-y,-z
1/2+x,1/2+y,-z
-x,1/2+y,z
1/2+x,-y,z
loop_
_atom_site_type_symbol
_atom_site_label
_atom_site_fract_x
_atom_site_fract_y
_atom_site_fract_z
Si Si1 0.861176 0.688377 0.131602
Si Si2 0.809366 0.175192 0.079755
Si Si3 0.408943 0.721214 0.421935
Si Si4 0.861848 0.075124 0.820101
Si Si5 0.265049 0.438165 0.347131
Si Si6 0.570173 0.072680 0.363071
Si Si7 0.198042 0.442704 0.164476
Si Si8 0.385368 0.297456 0.314507
O O1 0.750000 0.750000 0.105210
O O2 0.774580 0.618075 0.116911
O O3 0.905932 0.695633 0.222006
O O4 0.012087 0.680815 0.082633
O O5 0.750000 0.250000 0.079150
O O6 0.728467 0.141649 0.154193
O O7 0.750000 0.138281 0.000000
O O8 0.250000 0.750000 0.430132
O O9 0.495462 0.750000 0.500000
O O10 0.389477 0.639089 0.414128
O O11 0.475132 0.755326 0.344454
O O12 0.881379 0.081715 0.727011
O O13 0.025266 0.064702 0.854660
O O14 0.761162 0.016053 0.859469
O O15 0.347880 0.502319 0.387891
O O16 0.241516 0.440864 0.254905
O O17 0.363067 0.369664 0.360100
O O18 0.102313 0.435534 0.382655
O O19 0.250000 0.250000 0.336345
#
# Coordination Sequence:
#
# PCOD8205150 Si02
#       8
#     8   8   8   8   8   8   8   8
#     4  10  21  37  65  93 122 159 214 262 310 365
#     4  11  25  41  57  88 126 160 205 258 316 381
#     4  11  26  42  59  89 131 162 208 257 315 377
#     4  10  20  36  63  88 125 161 208 252 313 375
#     4   9  19  35  58  96 126 150 209 262 309 365
#     4  10  21  37  64  92 120 166 206 256 315 373
#     4   9  18  35  57  94 123 153 202 266 303 358
#     4  10  20  38  65  93 123 160 213 262 307 377
#
# _framework density 21.200419
#
# number of rings (size 3 to 8) (size 9 to 14) (size 15 to 20)
#    0.000    2.000    1.250    1.500    7.000    2.250 
#    0.000    7.500    0.000    0.000    0.000    0.000 
#    0.000    0.000    0.000    0.000    0.000    0.000 
#
# Total GULP energy -792850.014939 kJ/mol
# GULP energy per Si atom -12388.281483 kJ/mol
# Density = 2.115217 g / cm^3
# Si number density = 21.200419 Si / 1000 Ang^3
#
#
#
# Elastic Constant Matrix: (Units=GPa)
#
#
# Indices 1 2 3 4 5 6 
#
# 1 118.8569 37.0892 29.5207 0.0000 0.0000 0.0000
# 2 37.0892 139.6172 32.1197 0.0000 0.0000 0.0000
# 3 29.5207 32.1197 42.7807 0.0000 0.0000 0.0000
# 4 0.0000 0.0000 0.0000 20.7709 0.0000 0.0000
# 5 0.0000 0.0000 0.0000 0.0000 25.7675 0.0000
# 6 0.0000 0.0000 0.0000 0.0000 0.0000 43.4358
#
#
#
# Elastic Compliance Matrix: (Units=1/GPa)
#
#
# Indices 1 2 3 4 5 6 
#
# 1 0.010357 -0.001338 -0.006142 0.000000 0.000000 0.000000
# 2 -0.001338 0.008831 -0.005707 0.000000 0.000000 0.000000
# 3 -0.006142 -0.005707 0.031898 0.000000 0.000000 0.000000
# 4 0.000000 0.000000 0.000000 0.048144 0.000000 0.000000
# 5 0.000000 0.000000 0.000000 0.000000 0.038809 0.000000
# 6 0.000000 0.000000 0.000000 0.000000 0.000000 0.023023
#
#
# Mechanical properties :
#
#
# Convention : Reuss Voigt Hill
#
# Bulk Modulus (GPa) = 40.46673 55.41268 47.93971
# Shear Modulus (GPa) = 25.55309 31.49650 28.52480
#
# Velocity S-wave (km/s) = 3.47552 3.85860 3.67206
# Velocity P-wave (km/s) = 5.93589 6.78572 6.37498
#
# Compressibility (1/GPa) = 0.02471166
#
# Stress axis : x y z
#
# Youngs Moduli (GPa) = 96.55757 113.23992 31.35021
#
# Poissons Ratio (x) = 0.15154 0.19254
# Poissons Ratio (y) = 0.12922 0.17891
# Poissons Ratio (z) = 0.59303 0.64623
#
# Static dielectric constant tensor:
#      x y z
#    x 3.768950 0.000000 0.000000 
#    y 0.000000 4.217850 0.000000 
#    z 0.000000 0.000000 4.314700 
# 
# 
# High freq. dielectric constant tensor:
#      x y z
#    x 1.839760 0.000000 0.000000 
#    y 0.000000 1.847100 0.000000 
#    z 0.000000 0.000000 1.794170 
# 
# From -- ./inp_files/28966.got.cif
#   From: 2010.03.12/outbox.cif.g09.slc.cpg/sg50_15_cif.got.tgz:28966.got - 2010.04.16 13:23:21.
