data_PCOD8205050
_publ_section_title
;
Structure prediction by ZEFSAII (Michael W. Deem and Ramdas Pophale) SiO2 
 PCOD8205050
Probable space group: P B A N
;
_chemical_formula_sum "Si O2"
_cell_formula_units_Z 64
_cell_length_a 16.018226
_cell_length_b 18.655565
_cell_length_c 11.104420
_cell_angle_alpha 90.000000
_cell_angle_beta 90.000000
_cell_angle_gamma 90.000000
_cell_volume 3318.323350
_symmetry_space_group_name_H-M "P B A N"
_symmetry_group_IT_number 50
_space_group.IT_coordinate_system_code '2'
_symmetry_cell_setting 'orthorhombic'
loop_
_space_group_symop_operation_xyz
x,y,z
1/2-x,1/2-y,z
x,1/2-y,-z
1/2-x,y,-z
-x,-y,-z
1/2+x,1/2+y,-z
-x,1/2+y,z
1/2+x,-y,z
loop_
_atom_site_type_symbol
_atom_site_label
_atom_site_fract_x
_atom_site_fract_y
_atom_site_fract_z
Si Si1 0.409579 0.518683 0.338074
Si Si2 0.488261 0.732602 0.868195
Si Si3 0.527439 0.576951 0.853329
Si Si4 0.037826 0.371981 0.275750
Si Si5 0.298201 0.814418 0.127063
Si Si6 0.766639 0.463899 0.768347
Si Si7 0.165609 0.057998 0.561456
Si Si8 0.607099 0.974177 0.925240
O O1 0.468962 0.461054 0.274976
O O2 0.458769 0.593863 0.346402
O O3 0.331398 0.530946 0.249989
O O4 0.390408 0.484704 0.466396
O O5 0.532763 0.660529 0.824245
O O6 0.512424 0.792265 0.767777
O O7 0.391246 0.715367 0.887445
O O8 0.525539 0.750000 0.000000
O O9 0.441845 0.551073 0.919069
O O10 0.605780 0.554971 0.938803
O O11 0.115982 0.377276 0.370566
O O12 0.058930 0.416325 0.156311
O O13 0.250000 0.750000 0.193844
O O14 0.294874 0.882261 0.214282
O O15 0.250000 0.830604 0.000000
O O16 0.813174 0.494311 0.652297
O O17 0.797815 0.511188 0.883149
O O18 0.250000 0.090110 0.500000
#
# Coordination Sequence:
#
# PCOD8205050 Si02
#       8
#     8   8   8   8   8   8   8   8
#     4  10  21  35  60  86 113 152 206 256 298 358
#     4  12  21  36  53  85 131 163 192 242 310 375
#     4  10  20  32  53  82 119 151 199 250 302 357
#     4  10  20  35  60  85 116 158 199 246 305 367
#     4  11  22  32  52  86 131 167 193 225 295 384
#     4  10  20  34  58  84 118 152 199 254 305 357
#     4   9  20  41  63  86 110 151 212 269 305 345
#     4   9  18  32  52  82 112 154 196 246 299 356
#
# _framework density 19.286847999999999
#
# number of rings (size 3 to 8) (size 9 to 14) (size 15 to 20)
#    0.000    1.875    3.750    1.125    1.750    0.000 
#    0.000    0.625    0.000   16.875    0.000    0.000 
#    0.000    0.000    0.000    0.000    0.000    0.000 
#
# Total GULP energy -793017.144682 kJ/mol
# GULP energy per Si atom -12390.892886 kJ/mol
# Density = 1.924295 g / cm^3
# Si number density = 19.286848 Si / 1000 Ang^3
#
#
#
# Elastic Constant Matrix: (Units=GPa)
#
#
# Indices 1 2 3 4 5 6 
#
# 1 84.3227 39.5508 40.0865 0.0000 0.0000 0.0000
# 2 39.5508 132.2650 44.4365 0.0000 0.0000 0.0000
# 3 40.0865 44.4365 86.2968 0.0000 0.0000 0.0000
# 4 0.0000 0.0000 0.0000 23.6370 0.0000 0.0000
# 5 0.0000 0.0000 0.0000 0.0000 27.5560 0.0000
# 6 0.0000 0.0000 0.0000 0.0000 0.0000 14.5769
#
#
#
# Elastic Compliance Matrix: (Units=1/GPa)
#
#
# Indices 1 2 3 4 5 6 
#
# 1 0.016017 -0.002769 -0.006015 0.000000 0.000000 0.000000
# 2 -0.002769 0.009621 -0.003668 0.000000 0.000000 0.000000
# 3 -0.006015 -0.003668 0.016270 0.000000 0.000000 0.000000
# 4 0.000000 0.000000 0.000000 0.042307 0.000000 0.000000
# 5 0.000000 0.000000 0.000000 0.000000 0.036290 0.000000
# 6 0.000000 0.000000 0.000000 0.000000 0.000000 0.068602
#
#
# Mechanical properties :
#
#
# Convention : Reuss Voigt Hill
#
# Bulk Modulus (GPa) = 58.80281 61.22580 60.01430
# Shear Modulus (GPa) = 22.76062 25.07468 23.91765
#
# Velocity S-wave (km/s) = 3.43900 3.60959 3.52533
# Velocity P-wave (km/s) = 6.80615 7.01327 6.91049
#
# Compressibility (1/GPa) = 0.01700599
#
# Stress axis : x y z
#
# Youngs Moduli (GPa) = 62.43286 103.94139 61.46117
#
# Poissons Ratio (x) = 0.28780 0.36966
# Poissons Ratio (y) = 0.17287 0.22543
# Poissons Ratio (z) = 0.37550 0.38124
#
# Static dielectric constant tensor:
#      x y z
#    x 3.657250 0.000000 0.000000 
#    y 0.000000 3.446720 0.000000 
#    z 0.000000 0.000000 3.468490 
# 
# 
# High freq. dielectric constant tensor:
#      x y z
#    x 1.751610 0.000000 0.000000 
#    y 0.000000 1.733230 0.000000 
#    z 0.000000 0.000000 1.741910 
# 
# From -- ./inp_files/21349.got.cif
#   From: 2010.03.12/outbox.cif.g09.slc.cpg/sg50_11_cif.got.tgz:21349.got - 2010.04.16 13:23:21.
