data_PCOD8205752
_publ_section_title
;
Structure prediction by ZEFSAII (Michael W. Deem and Ramdas Pophale) SiO2 
 PCOD8205752
Probable space group: P B A N
;
_chemical_formula_sum "Si O2"
_cell_formula_units_Z 56
_cell_length_a 14.839101
_cell_length_b 9.625067
_cell_length_c 20.235955
_cell_angle_alpha 90.000000
_cell_angle_beta 90.000000
_cell_angle_gamma 90.000000
_cell_volume 2890.247652
_symmetry_space_group_name_H-M "P B A N"
_symmetry_group_IT_number 50
_space_group.IT_coordinate_system_code '2'
_symmetry_cell_setting 'orthorhombic'
loop_
_space_group_symop_operation_xyz
x,y,z
1/2-x,1/2-y,z
x,1/2-y,-z
1/2-x,y,-z
-x,-y,-z
1/2+x,1/2+y,-z
-x,1/2+y,z
1/2+x,-y,z
loop_
_atom_site_type_symbol
_atom_site_label
_atom_site_fract_x
_atom_site_fract_y
_atom_site_fract_z
Si Si1 0.750048 0.913794 0.597824
Si Si2 0.403066 0.029727 0.844903
Si Si3 0.854338 0.223852 0.927518
Si Si4 0.405297 0.084112 0.499946
Si Si5 0.398064 0.976051 0.156310
Si Si6 0.644987 0.777924 0.927525
Si Si7 0.750326 0.583481 0.252004
O O1 0.750000 0.750000 0.594848
O O2 0.656769 0.961773 0.562716
O O3 0.843157 0.961833 0.562541
O O4 0.750229 0.968100 0.672663
O O5 0.370907 0.933838 0.905548
O O6 0.501593 0.989557 0.819196
O O7 0.406300 0.184795 0.874073
O O8 0.338339 0.019539 0.782008
O O9 0.750000 0.250000 0.934336
O O10 0.893100 0.317807 0.868144
O O11 0.899454 0.250000 0.000000
O O12 0.425923 0.250000 0.500000
O O13 0.500000 0.000000 0.500000
O O14 0.372216 0.063078 0.091047
O O15 0.335594 0.013919 0.217821
O O16 0.750000 0.750000 0.923245
O O17 0.605879 0.750000 0.000000
O O18 0.750000 0.750000 0.244681
#
# Coordination Sequence:
#
# PCOD8205752 Si02
#       7
#     8   8   8   8   8   8   8
#     4   8  18  35  61  86 118 161 192 224 273 329
#     4  12  23  37  58  81 108 145 190 237 294 344
#     4  11  23  39  57  78 111 147 180 240 311 355
#     4   9  17  35  64  96 122 151 191 231 270 322
#     4  12  23  37  58  81 108 145 190 237 294 344
#     4  11  21  39  61  80 103 139 192 244 287 347
#     4  11  21  41  59  81 115 154 199 233 269 334
#
# _framework density 19.375501
#
# number of rings (size 3 to 8) (size 9 to 14) (size 15 to 20)
#    0.000    1.429    4.286    2.571    0.000    6.857 
#    0.000    1.429    6.286    0.000    0.000    0.000 
#    0.000    0.000    0.000    0.000    0.000    0.000 
#
# Total GULP energy -694251.641654 kJ/mol
# GULP energy per Si atom -12397.350744 kJ/mol
# Density = 1.933140 g / cm^3
# Si number density = 19.375501 Si / 1000 Ang^3
#
#
#
# Elastic Constant Matrix: (Units=GPa)
#
#
# Indices 1 2 3 4 5 6 
#
# 1 164.6077 21.5372 65.7456 0.0000 0.0000 0.0000
# 2 21.5372 51.1989 23.5114 0.0000 0.0000 0.0000
# 3 65.7456 23.5114 160.3874 0.0000 0.0000 0.0000
# 4 0.0000 0.0000 0.0000 3.7506 0.0000 0.0000
# 5 0.0000 0.0000 0.0000 0.0000 -12.0736 0.0000
# 6 0.0000 0.0000 0.0000 0.0000 0.0000 28.1692
#
#
#
# Elastic Compliance Matrix: (Units=1/GPa)
#
#
# Indices 1 2 3 4 5 6 
#
# 1 0.007424 -0.001850 -0.002772 0.000000 0.000000 0.000000
# 2 -0.001850 0.021402 -0.002379 0.000000 0.000000 0.000000
# 3 -0.002772 -0.002379 0.007720 0.000000 0.000000 0.000000
# 4 0.000000 0.000000 0.000000 0.266623 0.000000 0.000000
# 5 0.000000 0.000000 0.000000 0.000000 -0.082825 0.000000
# 6 0.000000 0.000000 0.000000 0.000000 0.000000 0.035500
#
#
# Mechanical properties :
#
#
# Convention : Reuss Voigt Hill
#
# Bulk Modulus (GPa) = 44.35728 66.42026 55.38877
# Shear Modulus (GPa) = 18.02698 21.66256 19.84477
#
# Velocity S-wave (km/s) = 3.05356 3.34734 3.20381
# Velocity P-wave (km/s) = 5.94773 7.02100 6.50653
#
# Compressibility (1/GPa) = 0.02254422
#
# Stress axis : x y z
#
# Youngs Moduli (GPa) = 134.69216 46.72374 129.53356
#
# Poissons Ratio (x) = 0.08644 0.35909
# Poissons Ratio (y) = 0.24919 0.30816
# Poissons Ratio (z) = 0.37339 0.11116
#
# Static dielectric constant tensor:
#      x y z
#    x 3.644350 0.000000 0.000000 
#    y 0.000000 2.662320 0.000000 
#    z 0.000000 0.000000 3.863420 
# 
# 
# High freq. dielectric constant tensor:
#      x y z
#    x 1.766120 0.000000 0.000000 
#    y 0.000000 1.740050 0.000000 
#    z 0.000000 0.000000 1.741510 
# 
# From -- ./inp_files/30982.got.cif
#   From: 2010.03.12/outbox.cif.g09.slc.cpg/sg50_16_cif.got.tgz:30982.got - 2010.04.16 13:23:21.
