data_PCOD8205024
_publ_section_title
;
Structure prediction by ZEFSAII (Michael W. Deem and Ramdas Pophale) SiO2 
 PCOD8205024
Probable space group: P B A N
;
_chemical_formula_sum "Si O2"
_cell_formula_units_Z 64
_cell_length_a 19.737448
_cell_length_b 14.682146
_cell_length_c 10.813508
_cell_angle_alpha 90.000000
_cell_angle_beta 90.000000
_cell_angle_gamma 90.000000
_cell_volume 3133.625864
_symmetry_space_group_name_H-M "P B A N"
_symmetry_group_IT_number 50
_space_group.IT_coordinate_system_code '2'
_symmetry_cell_setting 'orthorhombic'
loop_
_space_group_symop_operation_xyz
x,y,z
1/2-x,1/2-y,z
x,1/2-y,-z
1/2-x,y,-z
-x,-y,-z
1/2+x,1/2+y,-z
-x,1/2+y,z
1/2+x,-y,z
loop_
_atom_site_type_symbol
_atom_site_label
_atom_site_fract_x
_atom_site_fract_y
_atom_site_fract_z
Si Si1 0.067451 0.033615 0.936925
Si Si2 0.373597 0.320660 0.102532
Si Si3 0.279156 0.898830 0.640592
Si Si4 0.350880 0.389869 0.594230
Si Si5 0.638772 0.427011 0.265657
Si Si6 0.039592 0.309396 0.246698
Si Si7 0.098901 0.739018 0.642541
Si Si8 0.801204 0.602641 0.332076
O O1 0.043391 0.100517 0.831955
O O2 0.114400 0.957215 0.871252
O O3 0.112333 0.082882 0.039831
O O4 0.000000 0.000000 0.000000
O O5 0.442327 0.278242 0.161982
O O6 0.320533 0.341972 0.210056
O O7 0.343602 0.250000 0.000000
O O8 0.250000 0.895989 0.500000
O O9 0.216585 0.892242 0.736047
O O10 0.331256 0.816335 0.664845
O O11 0.314866 0.994245 0.672157
O O12 0.371402 0.494018 0.630090
O O13 0.404368 0.317091 0.645415
O O14 0.277344 0.372813 0.653092
O O15 0.346944 0.368052 0.448773
O O16 0.595634 0.339341 0.300812
O O17 0.964082 0.312169 0.297661
O O18 0.084901 0.750000 0.500000
#
# Coordination Sequence:
#
# PCOD8205024 Si02
#       8
#     8   8   8   8   8   8   8   8
#     4  10  22  44  66  85 127 179 218 269 322 379
#     4  10  23  42  64  93 125 172 224 274 315 389
#     4  11  20  40  63  98 132 163 209 259 333 394
#     4   9  19  40  62  95 129 162 200 268 337 394
#     4  10  20  40  64  93 126 169 213 264 324 392
#     4  10  24  40  58  97 132 159 222 267 328 399
#     4  12  23  35  63 102 129 168 204 266 332 401
#     4  10  19  38  69  88 127 169 209 263 334 392
#
# _framework density 20.423625000000001
#
# number of rings (size 3 to 8) (size 9 to 14) (size 15 to 20)
#    0.000    1.750    3.750    1.125    3.500    0.500 
#    0.000   17.500    0.000    0.000    6.500    0.000 
#    0.000    0.000    0.000    0.000    0.000    0.000 
#
# Total GULP energy -793242.620497 kJ/mol
# GULP energy per Si atom -12394.415945 kJ/mol
# Density = 2.037714 g / cm^3
# Si number density = 20.423625 Si / 1000 Ang^3
#
#
#
# Elastic Constant Matrix: (Units=GPa)
#
#
# Indices 1 2 3 4 5 6 
#
# 1 103.2791 40.6802 67.0414 0.0000 0.0000 0.0000
# 2 40.6802 81.7607 54.0300 0.0000 0.0000 0.0000
# 3 67.0414 54.0300 124.1764 0.0000 0.0000 0.0000
# 4 0.0000 0.0000 0.0000 30.3521 0.0000 0.0000
# 5 0.0000 0.0000 0.0000 0.0000 44.7750 0.0000
# 6 0.0000 0.0000 0.0000 0.0000 0.0000 30.4411
#
#
#
# Elastic Compliance Matrix: (Units=1/GPa)
#
#
# Indices 1 2 3 4 5 6 
#
# 1 0.015430 -0.003049 -0.007004 0.000000 0.000000 0.000000
# 2 -0.003049 0.017769 -0.006086 0.000000 0.000000 0.000000
# 3 -0.007004 -0.006086 0.014482 0.000000 0.000000 0.000000
# 4 0.000000 0.000000 0.000000 0.032947 0.000000 0.000000
# 5 0.000000 0.000000 0.000000 0.000000 0.022334 0.000000
# 6 0.000000 0.000000 0.000000 0.000000 0.000000 0.032850
#
#
# Mechanical properties :
#
#
# Convention : Reuss Voigt Hill
#
# Bulk Modulus (GPa) = 64.91408 70.30216 67.60812
# Shear Modulus (GPa) = 28.86451 30.94462 29.90456
#
# Velocity S-wave (km/s) = 3.76345 3.89670 3.83066
# Velocity P-wave (km/s) = 7.12303 7.39881 7.26223
#
# Compressibility (1/GPa) = 0.01540498
#
# Stress axis : x y z
#
# Youngs Moduli (GPa) = 64.80995 56.27705 69.05044
#
# Poissons Ratio (x) = 0.17158 0.48361
# Poissons Ratio (y) = 0.19759 0.42021
# Poissons Ratio (z) = 0.45392 0.34247
#
# Static dielectric constant tensor:
#      x y z
#    x 3.540330 0.000000 0.000000 
#    y 0.000000 4.170160 0.000000 
#    z 0.000000 0.000000 3.685380 
# 
# 
# High freq. dielectric constant tensor:
#      x y z
#    x 1.787240 0.000000 0.000000 
#    y 0.000000 1.807340 0.000000 
#    z 0.000000 0.000000 1.792330 
# 
# From -- ./inp_files/21941.got.cif
#   From: 2010.03.12/outbox.cif.g09.slc.cpg/sg50_11_cif.got.tgz:21941.got - 2010.04.16 13:23:21.
