data_PCOD8205409
_publ_section_title
;
Structure prediction by ZEFSAII (Michael W. Deem and Ramdas Pophale) SiO2 
 PCOD8205409
Probable space group: P B A N
;
_chemical_formula_sum "Si O2"
_cell_formula_units_Z 48
_cell_length_a 5.053269
_cell_length_b 28.595348
_cell_length_c 14.830905
_cell_angle_alpha 90.000000
_cell_angle_beta 90.000000
_cell_angle_gamma 90.000000
_cell_volume 2143.065559
_symmetry_space_group_name_H-M "P B A N"
_symmetry_group_IT_number 50
_space_group.IT_coordinate_system_code '2'
_symmetry_cell_setting 'orthorhombic'
loop_
_space_group_symop_operation_xyz
x,y,z
1/2-x,1/2-y,z
x,1/2-y,-z
1/2-x,y,-z
-x,-y,-z
1/2+x,1/2+y,-z
-x,1/2+y,z
1/2+x,-y,z
loop_
_atom_site_type_symbol
_atom_site_label
_atom_site_fract_x
_atom_site_fract_y
_atom_site_fract_z
Si Si1 0.750000 0.836316 0.500000
Si Si2 0.012033 0.876713 0.942163
Si Si3 0.980587 0.028914 0.156809
Si Si4 0.250000 0.602672 0.500000
Si Si5 0.252927 0.196887 0.303216
Si Si6 0.236126 0.693934 0.197648
Si Si7 0.452306 0.972774 0.369102
O O1 0.496821 0.866253 0.527101
O O2 0.767425 0.804942 0.588883
O O3 0.939793 0.919475 0.876579
O O4 0.150628 0.831437 0.895001
O O5 0.750000 0.861807 0.000000
O O6 0.250000 0.898052 0.000000
O O7 0.956034 0.034348 0.263349
O O8 0.702678 0.007778 0.123018
O O9 0.151748 0.574127 0.413791
O O10 0.250000 0.250000 0.273849
O O11 0.496877 0.174450 0.246337
O O12 0.982218 0.175319 0.267674
O O13 0.250000 0.750000 0.181469
O O14 0.748196 0.986262 0.400453
#
# Coordination Sequence:
#
# PCOD8205409 Si02
#       7
#     4   8   8   4   8   8   8
#     4  12  25  35  60 100 131 166 213 268 316 375
#     4  12  26  43  68 102 130 168 215 275 340 399
#     4  10  23  41  64  94 129 174 216 265 325 393
#     4  12  24  37  57  98 127 168 215 270 323 369
#     4  10  22  42  65  91 129 174 213 259 320 386
#     4  10  23  45  70  95 129 174 216 267 331 397
#     4  10  21  40  61  84 124 173 216 261 319 380
#
# _framework density 22.397822999999999
#
# number of rings (size 3 to 8) (size 9 to 14) (size 15 to 20)
#    0.000    1.333    0.000    4.750    4.667    2.333 
#    0.000    4.167    0.000    0.000    0.000    0.000 
#    0.000    0.000    0.000    0.000    0.000    0.000 
#
# Total GULP energy -594712.455707 kJ/mol
# GULP energy per Si atom -12389.842827 kJ/mol
# Density = 2.234684 g / cm^3
# Si number density = 22.397823 Si / 1000 Ang^3
#
#
#
# Elastic Constant Matrix: (Units=GPa)
#
#
# Indices 1 2 3 4 5 6 
#
# 1 143.6465 30.7237 48.8948 0.0000 0.0000 0.0000
# 2 30.7237 74.2393 34.0998 0.0000 0.0000 0.0000
# 3 48.8948 34.0998 88.2567 0.0000 0.0000 0.0000
# 4 0.0000 0.0000 0.0000 24.5284 0.0000 0.0000
# 5 0.0000 0.0000 0.0000 0.0000 36.7253 0.0000
# 6 0.0000 0.0000 0.0000 0.0000 0.0000 20.0325
#
#
#
# Elastic Compliance Matrix: (Units=1/GPa)
#
#
# Indices 1 2 3 4 5 6 
#
# 1 0.008752 -0.001696 -0.004193 0.000000 0.000000 0.000000
# 2 -0.001696 0.016705 -0.005515 0.000000 0.000000 0.000000
# 3 -0.004193 -0.005515 0.015784 0.000000 0.000000 0.000000
# 4 0.000000 0.000000 0.000000 0.040769 0.000000 0.000000
# 5 0.000000 0.000000 0.000000 0.000000 0.027229 0.000000
# 6 0.000000 0.000000 0.000000 0.000000 0.000000 0.049919
#
#
# Mechanical properties :
#
#
# Convention : Reuss Voigt Hill
#
# Bulk Modulus (GPa) = 54.24987 59.28658 56.76823
# Shear Modulus (GPa) = 26.58021 29.08550 27.83285
#
# Velocity S-wave (km/s) = 3.44863 3.60750 3.52896
# Velocity P-wave (km/s) = 6.33491 6.62415 6.48114
#
# Compressibility (1/GPa) = 0.01843322
#
# Stress axis : x y z
#
# Youngs Moduli (GPa) = 114.26574 59.86304 63.35366
#
# Poissons Ratio (x) = 0.10151 0.26566
# Poissons Ratio (y) = 0.19377 0.34938
# Poissons Ratio (z) = 0.47914 0.33013
#
# Static dielectric constant tensor:
#      x y z
#    x 4.683940 0.000000 0.000000 
#    y 0.000000 3.804680 0.000000 
#    z 0.000000 0.000000 3.996520 
# 
# 
# High freq. dielectric constant tensor:
#      x y z
#    x 1.906370 0.000000 0.000000 
#    y 0.000000 1.867970 0.000000 
#    z 0.000000 0.000000 1.886890 
# 
# From -- ./inp_files/24095.got.cif
#   From: 2010.03.12/outbox.cif.g09.slc.cpg/sg50_13_cif.got.tgz:24095.got - 2010.04.16 13:23:21.
