data_PCOD8205683
_publ_section_title
;
Structure prediction by ZEFSAII (Michael W. Deem and Ramdas Pophale) SiO2 
 PCOD8205683
Probable space group: P B A N
;
_chemical_formula_sum "Si O2"
_cell_formula_units_Z 56
_cell_length_a 9.152544
_cell_length_b 19.878542
_cell_length_c 15.431601
_cell_angle_alpha 90.000000
_cell_angle_beta 90.000000
_cell_angle_gamma 90.000000
_cell_volume 2807.613608
_symmetry_space_group_name_H-M "P B A N"
_symmetry_group_IT_number 50
_space_group.IT_coordinate_system_code '2'
_symmetry_cell_setting 'orthorhombic'
loop_
_space_group_symop_operation_xyz
x,y,z
1/2-x,1/2-y,z
x,1/2-y,-z
1/2-x,y,-z
-x,-y,-z
1/2+x,1/2+y,-z
-x,1/2+y,z
1/2+x,-y,z
loop_
_atom_site_type_symbol
_atom_site_label
_atom_site_fract_x
_atom_site_fract_y
_atom_site_fract_z
Si Si1 0.579552 0.245520 0.757844
Si Si2 0.576066 0.571057 0.501976
Si Si3 0.804925 0.940593 0.906020
Si Si4 0.927646 0.119874 0.665641
Si Si5 0.038998 0.488848 0.204111
Si Si6 0.112860 0.215121 0.092131
Si Si7 0.908894 0.388544 0.668220
O O1 0.750000 0.250000 0.762909
O O2 0.518979 0.311395 0.710193
O O3 0.529102 0.237287 0.856147
O O4 0.527495 0.179237 0.708679
O O5 0.750000 0.562947 0.500000
O O6 0.500000 0.500000 0.500000
O O7 0.527466 0.613625 0.418970
O O8 0.521322 0.604010 0.589972
O O9 0.676665 0.948680 0.835085
O O10 0.862829 0.864582 0.913972
O O11 0.750000 0.965605 0.000000
O O12 0.938328 0.987688 0.875833
O O13 0.757980 0.120414 0.636258
O O14 0.949277 0.059867 0.733234
O O15 0.088083 0.552234 0.261392
O O16 0.250000 0.250000 0.140330
O O17 0.094784 0.250000 0.000000
#
# Coordination Sequence:
#
# PCOD8205683 Si02
#       7
#     8   8   8   8   8   8   8
#     4  10  24  44  68  97 131 177 225 270 333 402
#     4  12  26  41  67 101 135 173 222 277 337 400
#     4  12  25  44  66  97 135 178 224 286 334 401
#     4  11  24  43  68  98 132 177 219 274 333 399
#     4  12  24  41  69  96 133 176 225 274 340 396
#     4  11  22  41  66  94 133 176 223 277 340 401
#     4  11  23  44  67  97 136 173 221 274 331 400
#
# _framework density 19.945764
#
# number of rings (size 3 to 8) (size 9 to 14) (size 15 to 20)
#    0.000    0.714    5.714    2.571    2.000    2.000 
#    0.000    2.857    0.000    0.000    0.000    0.000 
#    0.000    0.000    0.000    0.000    0.000    0.000 
#
# Total GULP energy -694400.180405 kJ/mol
# GULP energy per Si atom -12400.003222 kJ/mol
# Density = 1.990037 g / cm^3
# Si number density = 19.945764 Si / 1000 Ang^3
#
#
#
# Elastic Constant Matrix: (Units=GPa)
#
#
# Indices 1 2 3 4 5 6 
#
# 1 85.6829 41.6018 57.6858 0.0000 0.0000 0.0000
# 2 41.6018 96.8603 46.0137 0.0000 0.0000 0.0000
# 3 57.6858 46.0137 131.0344 0.0000 0.0000 0.0000
# 4 0.0000 0.0000 0.0000 19.7460 0.0000 0.0000
# 5 0.0000 0.0000 0.0000 0.0000 43.0088 0.0000
# 6 0.0000 0.0000 0.0000 0.0000 0.0000 24.4077
#
#
#
# Elastic Compliance Matrix: (Units=1/GPa)
#
#
# Indices 1 2 3 4 5 6 
#
# 1 0.018301 -0.004840 -0.006357 0.000000 0.000000 0.000000
# 2 -0.004840 0.013671 -0.002670 0.000000 0.000000 0.000000
# 3 -0.006357 -0.002670 0.011368 0.000000 0.000000 0.000000
# 4 0.000000 0.000000 0.000000 0.050643 0.000000 0.000000
# 5 0.000000 0.000000 0.000000 0.000000 0.023251 0.000000
# 6 0.000000 0.000000 0.000000 0.000000 0.000000 0.040971
#
#
# Mechanical properties :
#
#
# Convention : Reuss Voigt Hill
#
# Bulk Modulus (GPa) = 64.07991 67.13114 65.60553
# Shear Modulus (GPa) = 26.15866 28.65093 27.40480
#
# Velocity S-wave (km/s) = 3.62538 3.79415 3.71073
# Velocity P-wave (km/s) = 7.05133 7.27489 7.16398
#
# Compressibility (1/GPa) = 0.01560552
#
# Stress axis : x y z
#
# Youngs Moduli (GPa) = 54.64209 73.14499 87.96860
#
# Poissons Ratio (x) = 0.35405 0.55921
# Poissons Ratio (y) = 0.26449 0.23487
# Poissons Ratio (z) = 0.34736 0.19529
#
# Static dielectric constant tensor:
#      x y z
#    x 3.743210 0.000000 0.000000 
#    y 0.000000 4.126850 0.000000 
#    z 0.000000 0.000000 3.683370 
# 
# 
# High freq. dielectric constant tensor:
#      x y z
#    x 1.783630 0.000000 0.000000 
#    y 0.000000 1.788680 0.000000 
#    z 0.000000 0.000000 1.786460 
# 
# From -- ./inp_files/25262.got.cif
#   From: 2010.03.12/outbox.cif.g09.slc.cpg/sg50_13_cif.got.tgz:25262.got - 2010.04.16 13:23:21.
