data_PCOD8205190
_publ_section_title
;
Structure prediction by ZEFSAII (Michael W. Deem and Ramdas Pophale) SiO2 
 PCOD8205190
Probable space group: P B A N
;
_chemical_formula_sum "Si O2"
_cell_formula_units_Z 64
_cell_length_a 12.444670
_cell_length_b 8.969997
_cell_length_c 26.062526
_cell_angle_alpha 90.000000
_cell_angle_beta 90.000000
_cell_angle_gamma 90.000000
_cell_volume 2909.324660
_symmetry_space_group_name_H-M "P B A N"
_symmetry_group_IT_number 50
_space_group.IT_coordinate_system_code '2'
_symmetry_cell_setting 'orthorhombic'
loop_
_space_group_symop_operation_xyz
x,y,z
1/2-x,1/2-y,z
x,1/2-y,-z
1/2-x,y,-z
-x,-y,-z
1/2+x,1/2+y,-z
-x,1/2+y,z
1/2+x,-y,z
loop_
_atom_site_type_symbol
_atom_site_label
_atom_site_fract_x
_atom_site_fract_y
_atom_site_fract_z
Si Si1 0.208974 0.089347 0.878269
Si Si2 0.370145 0.727334 0.786096
Si Si3 0.075195 0.091965 0.773810
Si Si4 0.506091 0.987287 0.382514
Si Si5 0.949696 0.620348 0.963814
Si Si6 0.873374 0.262780 0.439695
Si Si7 0.370863 0.239062 0.327297
Si Si8 0.350031 0.680117 0.103954
O O1 0.250000 0.250000 0.893409
O O2 0.138658 0.106119 0.827015
O O3 0.137286 0.041276 0.927362
O O4 0.313937 0.982469 0.874069
O O5 0.250000 0.750000 0.763275
O O6 0.419006 0.582025 0.758080
O O7 0.448679 0.867268 0.776553
O O8 0.364610 0.705080 0.847815
O O9 0.130714 0.202592 0.733257
O O10 0.437696 0.873032 0.415509
O O11 0.572183 0.896465 0.339343
O O12 0.585561 0.076926 0.420123
O O13 0.428627 0.102596 0.354909
O O14 0.043222 0.686581 0.928319
O O15 0.900442 0.750000 0.000000
O O16 0.000000 0.500000 0.000000
O O17 0.750000 0.250000 0.423291
O O18 0.889403 0.250000 0.500000
O O19 0.250000 0.250000 0.348004
O O20 0.250000 0.750000 0.071771
#
# Coordination Sequence:
#
# PCOD8205190 Si02
#       8
#     8   8   8   8   8   8   8   8
#     4  12  26  42  69  96 128 163 213 272 323 389
#     4  11  25  44  69  98 127 163 212 272 332 386
#     4  12  25  43  70  96 129 171 225 273 324 403
#     4  10  22  41  62  96 142 185 224 292 344 408
#     4  12  27  43  66  94 126 163 207 258 326 411
#     4  10  20  37  66  98 133 184 242 292 343 400
#     4  11  24  43  65  97 136 183 227 275 348 408
#     4  11  23  45  66  90 126 166 199 260 332 385
#
# _framework density 21.998232999999999
#
# number of rings (size 3 to 8) (size 9 to 14) (size 15 to 20)
#    0.000    0.875    3.750    3.750    1.750    5.000 
#    0.000    3.125    0.000    6.000    0.000    0.000 
#    0.000    0.000    0.000    0.000    0.000    0.000 
#
# Total GULP energy -793538.051002 kJ/mol
# GULP energy per Si atom -12399.032047 kJ/mol
# Density = 2.194816 g / cm^3
# Si number density = 21.998233 Si / 1000 Ang^3
#
#
#
# Elastic Constant Matrix: (Units=GPa)
#
#
# Indices 1 2 3 4 5 6 
#
# 1 133.7368 47.6428 40.9441 0.0000 0.0000 0.0000
# 2 47.6428 114.5018 47.8398 0.0000 0.0000 0.0000
# 3 40.9441 47.8398 98.2054 0.0000 0.0000 0.0000
# 4 0.0000 0.0000 0.0000 29.9348 0.0000 0.0000
# 5 0.0000 0.0000 0.0000 0.0000 32.8360 0.0000
# 6 0.0000 0.0000 0.0000 0.0000 0.0000 39.7598
#
#
#
# Elastic Compliance Matrix: (Units=1/GPa)
#
#
# Indices 1 2 3 4 5 6 
#
# 1 0.009238 -0.002805 -0.002485 0.000000 0.000000 0.000000
# 2 -0.002805 0.011817 -0.004587 0.000000 0.000000 0.000000
# 3 -0.002485 -0.004587 0.013453 0.000000 0.000000 0.000000
# 4 0.000000 0.000000 0.000000 0.033406 0.000000 0.000000
# 5 0.000000 0.000000 0.000000 0.000000 0.030454 0.000000
# 6 0.000000 0.000000 0.000000 0.000000 0.000000 0.025151
#
#
# Mechanical properties :
#
#
# Convention : Reuss Voigt Hill
#
# Bulk Modulus (GPa) = 67.77984 68.81081 68.29532
# Shear Modulus (GPa) = 33.74011 34.50727 34.12369
#
# Velocity S-wave (km/s) = 3.92058 3.96490 3.94280
# Velocity P-wave (km/s) = 7.16749 7.23247 7.20006
#
# Compressibility (1/GPa) = 0.01475365
#
# Stress axis : x y z
#
# Youngs Moduli (GPa) = 108.25434 84.62163 74.33192
#
# Poissons Ratio (x) = 0.23741 0.18469
# Poissons Ratio (y) = 0.30371 0.34096
# Poissons Ratio (z) = 0.26898 0.38816
#
# Static dielectric constant tensor:
#      x y z
#    x 3.883140 0.000000 0.000000 
#    y 0.000000 4.281230 0.000000 
#    z 0.000000 0.000000 3.951980 
# 
# 
# High freq. dielectric constant tensor:
#      x y z
#    x 1.874860 0.000000 0.000000 
#    y 0.000000 1.882570 0.000000 
#    z 0.000000 0.000000 1.853250 
# 
# From -- ./inp_files/32475.got.cif
#   From: 2010.03.12/outbox.cif.g09.slc.cpg/sg50_17_cif.got.tgz:32475.got - 2010.04.16 13:23:21.
