data_PCOD8205769
_publ_section_title
;
Structure prediction by ZEFSAII (Michael W. Deem and Ramdas Pophale) SiO2 
 PCOD8205769
Probable space group: P B A N
;
_chemical_formula_sum "Si O2"
_cell_formula_units_Z 56
_cell_length_a 18.774088
_cell_length_b 16.747283
_cell_length_c 8.900513
_cell_angle_alpha 90.000000
_cell_angle_beta 90.000000
_cell_angle_gamma 90.000000
_cell_volume 2798.454482
_symmetry_space_group_name_H-M "P B A N"
_symmetry_group_IT_number 50
_space_group.IT_coordinate_system_code '2'
_symmetry_cell_setting 'orthorhombic'
loop_
_space_group_symop_operation_xyz
x,y,z
1/2-x,1/2-y,z
x,1/2-y,-z
1/2-x,y,-z
-x,-y,-z
1/2+x,1/2+y,-z
-x,1/2+y,z
1/2+x,-y,z
loop_
_atom_site_type_symbol
_atom_site_label
_atom_site_fract_x
_atom_site_fract_y
_atom_site_fract_z
Si Si1 0.203532 0.056401 0.220775
Si Si2 0.145170 0.055554 0.890013
Si Si3 0.689244 0.123147 0.204257
Si Si4 0.827173 0.717694 0.338237
Si Si5 0.584112 0.239512 0.326013
Si Si6 0.851990 0.375198 0.868971
Si Si7 0.947738 0.704360 0.849327
O O1 0.289059 0.068665 0.224387
O O2 0.172345 0.120785 0.338236
O O3 0.178416 0.967229 0.263868
O O4 0.174707 0.071611 0.055012
O O5 0.078538 0.113533 0.867118
O O6 0.118756 0.965380 0.860349
O O7 0.653489 0.182768 0.321937
O O8 0.773106 0.137266 0.195626
O O9 0.650804 0.145048 0.046204
O O10 0.750000 0.750000 0.289302
O O11 0.849901 0.750000 0.500000
O O12 0.883567 0.744509 0.216675
O O13 0.567246 0.250000 0.500000
O O14 0.595956 0.320679 0.230443
O O15 0.515058 0.196673 0.258875
O O16 0.971288 0.750000 0.000000
#
# Coordination Sequence:
#
# PCOD8205769 Si02
#       7
#     8   8   8   8   8   8   8
#     4   9  17  36  62  95 121 145 204 255 305 353
#     4   9  18  35  64  95 118 148 201 263 299 350
#     4   9  19  39  69  93 117 153 199 264 306 359
#     4  11  22  36  56  88 129 166 196 246 302 364
#     4  12  26  43  56  88 128 165 205 248 311 381
#     4   9  19  40  68  94 119 149 201 261 310 359
#     4  12  23  39  63  87 119 166 209 254 295 354
#
# _framework density 20.011044999999999
#
# number of rings (size 3 to 8) (size 9 to 14) (size 15 to 20)
#    0.000    1.857    2.857    3.857    0.000    2.571 
#    5.143    2.857    0.000    0.000    0.000    0.000 
#    0.000    0.000    0.000    0.000    0.000    0.000 
#
# Total GULP energy -694208.411211 kJ/mol
# GULP energy per Si atom -12396.578772 kJ/mol
# Density = 1.996550 g / cm^3
# Si number density = 20.011045 Si / 1000 Ang^3
#
#
#
# Elastic Constant Matrix: (Units=GPa)
#
#
# Indices 1 2 3 4 5 6 
#
# 1 70.5201 38.9203 28.5845 0.0000 0.0000 0.0000
# 2 38.9203 123.6047 37.5555 0.0000 0.0000 0.0000
# 3 28.5845 37.5555 77.6902 0.0000 0.0000 0.0000
# 4 0.0000 0.0000 0.0000 30.2390 0.0000 0.0000
# 5 0.0000 0.0000 0.0000 0.0000 21.5332 0.0000
# 6 0.0000 0.0000 0.0000 0.0000 0.0000 12.2851
#
#
#
# Elastic Compliance Matrix: (Units=1/GPa)
#
#
# Indices 1 2 3 4 5 6 
#
# 1 0.018509 -0.004406 -0.004680 0.000000 0.000000 0.000000
# 2 -0.004406 0.010532 -0.003470 0.000000 0.000000 0.000000
# 3 -0.004680 -0.003470 0.016271 0.000000 0.000000 0.000000
# 4 0.000000 0.000000 0.000000 0.033070 0.000000 0.000000
# 5 0.000000 0.000000 0.000000 0.000000 0.046440 0.000000
# 6 0.000000 0.000000 0.000000 0.000000 0.000000 0.081399
#
#
# Mechanical properties :
#
#
# Convention : Reuss Voigt Hill
#
# Bulk Modulus (GPa) = 49.50595 53.54839 51.52717
# Shear Modulus (GPa) = 21.00250 23.92845 22.46547
#
# Velocity S-wave (km/s) = 3.24318 3.46173 3.35424
# Velocity P-wave (km/s) = 6.23036 6.54184 6.38799
#
# Compressibility (1/GPa) = 0.02019959
#
# Stress axis : x y z
#
# Youngs Moduli (GPa) = 54.02731 94.94857 61.45894
#
# Poissons Ratio (x) = 0.41835 0.28764
# Poissons Ratio (y) = 0.23805 0.21327
# Poissons Ratio (z) = 0.25286 0.32948
#
# Static dielectric constant tensor:
#      x y z
#    x 3.469640 0.000000 0.000000 
#    y 0.000000 4.761890 0.000000 
#    z 0.000000 0.000000 3.396570 
# 
# 
# High freq. dielectric constant tensor:
#      x y z
#    x 1.769360 0.000000 0.000000 
#    y 0.000000 1.793150 0.000000 
#    z 0.000000 0.000000 1.759270 
# 
# From -- ./inp_files/15364.got.cif
#   From: 2010.03.12/outbox.cif.g09.slc.cpg/sg50_8_cif.got.tgz:15364.got - 2010.04.16 13:23:21.
