data_PCOD8205731
_publ_section_title
;
Structure prediction by ZEFSAII (Michael W. Deem and Ramdas Pophale) SiO2 
 PCOD8205731
Probable space group: P B A N
;
_chemical_formula_sum "Si O2"
_cell_formula_units_Z 56
_cell_length_a 19.949165
_cell_length_b 13.307976
_cell_length_c 9.952705
_cell_angle_alpha 90.000000
_cell_angle_beta 90.000000
_cell_angle_gamma 90.000000
_cell_volume 2642.274071
_symmetry_space_group_name_H-M "P B A N"
_symmetry_group_IT_number 50
_space_group.IT_coordinate_system_code '2'
_symmetry_cell_setting 'orthorhombic'
loop_
_space_group_symop_operation_xyz
x,y,z
1/2-x,1/2-y,z
x,1/2-y,-z
1/2-x,y,-z
-x,-y,-z
1/2+x,1/2+y,-z
-x,1/2+y,z
1/2+x,-y,z
loop_
_atom_site_type_symbol
_atom_site_label
_atom_site_fract_x
_atom_site_fract_y
_atom_site_fract_z
Si Si1 0.581063 0.369200 0.640716
Si Si2 0.850064 0.505072 0.732959
Si Si3 0.735668 0.139377 0.344174
Si Si4 0.043742 0.849984 0.670435
Si Si5 0.671568 0.868990 0.989456
Si Si6 0.670863 0.863430 0.486216
Si Si7 0.590964 0.569404 0.756246
O O1 0.659132 0.390396 0.663155
O O2 0.554163 0.372411 0.488072
O O3 0.565186 0.262894 0.706372
O O4 0.552743 0.462805 0.726774
O O5 0.780165 0.443631 0.732272
O O6 0.909891 0.425870 0.754438
O O7 0.863544 0.565499 0.595890
O O8 0.852023 0.589322 0.846981
O O9 0.750000 0.250000 0.282541
O O10 0.750000 0.140330 0.500000
O O11 0.967815 0.851876 0.723103
O O12 0.623232 0.923462 0.096772
O O13 0.660270 0.750000 0.000000
O O14 0.750000 0.895953 0.000000
O O15 0.643876 0.750000 0.500000
O O16 0.750000 0.867355 0.500000
O O17 0.652735 0.906865 0.341832
#
# Coordination Sequence:
#
# PCOD8205731 Si02
#       7
#     8   8   8   8   8   8   8
#     4  11  21  40  64 101 141 173 222 278 340 405
#     4  12  22  40  68  97 135 176 224 276 338 399
#     4  11  17  33  65 102 132 172 219 277 339 393
#     4  11  24  39  66 103 136 179 214 272 345 408
#     4  11  26  48  69  92 130 181 228 278 339 396
#     4  11  23  38  63  98 126 164 229 285 324 386
#     4  12  25  42  67  95 133 178 221 279 335 401
#
# _framework density 21.193864999999999
#
# number of rings (size 3 to 8) (size 9 to 14) (size 15 to 20)
#    0.000    0.714    4.286    5.143    2.000    4.000 
#    0.000    0.714    0.000    0.000    0.000    0.000 
#    0.000    0.000    0.000    0.000    0.000    0.000 
#
# Total GULP energy -694248.817212 kJ/mol
# GULP energy per Si atom -12397.300307 kJ/mol
# Density = 2.114563 g / cm^3
# Si number density = 21.193865 Si / 1000 Ang^3
#
#
#
# Elastic Constant Matrix: (Units=GPa)
#
#
# Indices 1 2 3 4 5 6 
#
# 1 102.0368 20.2096 18.6119 0.0000 0.0000 0.0000
# 2 20.2096 137.4046 24.1485 0.0000 0.0000 0.0000
# 3 18.6119 24.1485 68.2439 0.0000 0.0000 0.0000
# 4 0.0000 0.0000 0.0000 33.2049 0.0000 0.0000
# 5 0.0000 0.0000 0.0000 0.0000 25.4488 0.0000
# 6 0.0000 0.0000 0.0000 0.0000 0.0000 19.7149
#
#
#
# Elastic Compliance Matrix: (Units=1/GPa)
#
#
# Indices 1 2 3 4 5 6 
#
# 1 0.010469 -0.001107 -0.002464 0.000000 0.000000 0.000000
# 2 -0.001107 0.007877 -0.002486 0.000000 0.000000 0.000000
# 3 -0.002464 -0.002486 0.016205 0.000000 0.000000 0.000000
# 4 0.000000 0.000000 0.000000 0.030116 0.000000 0.000000
# 5 0.000000 0.000000 0.000000 0.000000 0.039295 0.000000
# 6 0.000000 0.000000 0.000000 0.000000 0.000000 0.050723
#
#
# Mechanical properties :
#
#
# Convention : Reuss Voigt Hill
#
# Bulk Modulus (GPa) = 44.56483 48.18060 46.37272
# Shear Modulus (GPa) = 28.69007 31.98808 30.33907
#
# Velocity S-wave (km/s) = 3.68325 3.88920 3.78762
# Velocity P-wave (km/s) = 6.25790 6.55366 6.40749
#
# Compressibility (1/GPa) = 0.02243922
#
# Stress axis : x y z
#
# Youngs Moduli (GPa) = 95.52043 126.94524 61.71034
#
# Poissons Ratio (x) = 0.14051 0.15202
# Poissons Ratio (y) = 0.10573 0.15339
# Poissons Ratio (z) = 0.23532 0.31554
#
# Static dielectric constant tensor:
#      x y z
#    x 3.735320 0.000000 0.000000 
#    y 0.000000 4.451100 0.000000 
#    z 0.000000 0.000000 3.441230 
# 
# 
# High freq. dielectric constant tensor:
#      x y z
#    x 1.835740 0.000000 0.000000 
#    y 0.000000 1.860710 0.000000 
#    z 0.000000 0.000000 1.787240 
# 
# From -- ./inp_files/15378.got.cif
#   From: 2010.03.12/outbox.cif.g09.slc.cpg/sg50_8_cif.got.tgz:15378.got - 2010.04.16 13:23:21.
