data_PCOD8205218
_publ_section_title
;
Structure prediction by ZEFSAII (Michael W. Deem and Ramdas Pophale) SiO2 
 PCOD8205218
Probable space group: P B A N
;
_chemical_formula_sum "Si O2"
_cell_formula_units_Z 64
_cell_length_a 9.295876
_cell_length_b 19.350799
_cell_length_c 18.207294
_cell_angle_alpha 90.000000
_cell_angle_beta 90.000000
_cell_angle_gamma 90.000000
_cell_volume 3275.175894
_symmetry_space_group_name_H-M "P B A N"
_symmetry_group_IT_number 50
_space_group.IT_coordinate_system_code '2'
_symmetry_cell_setting 'orthorhombic'
loop_
_space_group_symop_operation_xyz
x,y,z
1/2-x,1/2-y,z
x,1/2-y,-z
1/2-x,y,-z
-x,-y,-z
1/2+x,1/2+y,-z
-x,1/2+y,z
1/2+x,-y,z
loop_
_atom_site_type_symbol
_atom_site_label
_atom_site_fract_x
_atom_site_fract_y
_atom_site_fract_z
Si Si1 0.367108 0.045991 0.437544
Si Si2 0.061628 0.923422 0.069103
Si Si3 0.446611 0.683604 0.186260
Si Si4 0.958665 0.695374 0.352976
Si Si5 0.394780 0.602022 0.533251
Si Si6 0.119069 0.834731 0.788695
Si Si7 0.391301 0.944985 0.093270
Si Si8 0.363392 0.337901 0.677603
O O1 0.250000 0.066509 0.500000
O O2 0.524364 0.065859 0.465999
O O3 0.355187 0.088965 0.362937
O O4 0.355437 0.964594 0.415411
O O5 0.028315 0.850102 0.106707
O O6 0.220380 0.950044 0.087902
O O7 0.041996 0.913329 0.981863
O O8 0.951241 0.978236 0.103699
O O9 0.290740 0.662630 0.216814
O O10 0.448232 0.765840 0.174800
O O11 0.570315 0.655491 0.240991
O O12 0.802452 0.682955 0.319299
O O13 0.962061 0.779093 0.363858
O O14 0.001661 0.658831 0.429230
O O15 0.070766 0.663356 0.295581
O O16 0.250000 0.637078 0.500000
O O17 0.060680 0.898079 0.837696
#
# Coordination Sequence:
#
# PCOD8205218 Si02
#       8
#     8   8   8   8   8   8   8   8
#     4  10  20  39  57  78 109 142 178 219 269 326
#     4   9  18  33  53  79 110 140 182 220 271 320
#     4   9  19  35  54  77 105 143 179 223 269 318
#     4  10  21  38  55  81 108 140 182 222 269 324
#     4  10  22  37  57  82 110 139 176 225 272 321
#     4   9  19  35  54  76 108 139 179 225 270 316
#     4   9  18  33  53  79 109 143 176 226 268 321
#     4  10  21  37  58  77 107 144 180 223 267 325
#
# _framework density 19.540935999999999
#
# number of rings (size 3 to 8) (size 9 to 14) (size 15 to 20)
#    0.000    2.500    1.250    0.000    1.750    3.000 
#    0.000    5.625    0.000    0.000    0.000    7.000 
#    0.000    0.000    0.000    0.000    0.000    0.000 
#
# Total GULP energy -793105.194675 kJ/mol
# GULP energy per Si atom -12392.268667 kJ/mol
# Density = 1.949646 g / cm^3
# Si number density = 19.540936 Si / 1000 Ang^3
#
#
#
# Elastic Constant Matrix: (Units=GPa)
#
#
# Indices 1 2 3 4 5 6 
#
# 1 65.1201 7.6132 13.4996 0.0000 0.0000 0.0000
# 2 7.6132 57.5892 15.9835 0.0000 0.0000 0.0000
# 3 13.4996 15.9835 37.3148 0.0000 0.0000 0.0000
# 4 0.0000 0.0000 0.0000 27.2080 0.0000 0.0000
# 5 0.0000 0.0000 0.0000 0.0000 28.2939 0.0000
# 6 0.0000 0.0000 0.0000 0.0000 0.0000 24.2847
#
#
#
# Elastic Compliance Matrix: (Units=1/GPa)
#
#
# Indices 1 2 3 4 5 6 
#
# 1 0.016620 -0.000600 -0.005756 0.000000 0.000000 0.000000
# 2 -0.000600 0.019729 -0.008234 0.000000 0.000000 0.000000
# 3 -0.005756 -0.008234 0.032408 0.000000 0.000000 0.000000
# 4 0.000000 0.000000 0.000000 0.036754 0.000000 0.000000
# 5 0.000000 0.000000 0.000000 0.000000 0.035343 0.000000
# 6 0.000000 0.000000 0.000000 0.000000 0.000000 0.041178
#
#
# Mechanical properties :
#
#
# Convention : Reuss Voigt Hill
#
# Bulk Modulus (GPa) = 25.26632 26.02406 25.64519
# Shear Modulus (GPa) = 22.28135 24.15251 23.21693
#
# Velocity S-wave (km/s) = 3.38041 3.51949 3.45065
# Velocity P-wave (km/s) = 5.30982 5.46464 5.38779
#
# Compressibility (1/GPa) = 0.03957838
#
# Stress axis : x y z
#
# Youngs Moduli (GPa) = 60.17021 50.68716 30.85640
#
# Poissons Ratio (x) = 0.03039 0.17760
# Poissons Ratio (y) = 0.03608 0.25406
# Poissons Ratio (z) = 0.34632 0.41735
#
# Static dielectric constant tensor:
#      x y z
#    x 3.622240 0.000000 0.000000 
#    y 0.000000 3.843860 0.000000 
#    z 0.000000 0.000000 3.356460 
# 
# 
# High freq. dielectric constant tensor:
#      x y z
#    x 1.764380 0.000000 0.000000 
#    y 0.000000 1.759240 0.000000 
#    z 0.000000 0.000000 1.738640 
# 
# From -- ./inp_files/28963.got.cif
#   From: 2010.03.12/outbox.cif.g09.slc.cpg/sg50_15_cif.got.tgz:28963.got - 2010.04.16 13:23:21.
