data_PCOD8205142
_publ_section_title
;
Structure prediction by ZEFSAII (Michael W. Deem and Ramdas Pophale) SiO2 
 PCOD8205142
Probable space group: P B A N
;
_chemical_formula_sum "Si O2"
_cell_formula_units_Z 40
_cell_length_a 8.769318
_cell_length_b 24.236406
_cell_length_c 8.498135
_cell_angle_alpha 90.000000
_cell_angle_beta 90.000000
_cell_angle_gamma 90.000000
_cell_volume 1806.166006
_symmetry_space_group_name_H-M "P B A N"
_symmetry_group_IT_number 50
_space_group.IT_coordinate_system_code '2'
_symmetry_cell_setting 'orthorhombic'
loop_
_space_group_symop_operation_xyz
x,y,z
1/2-x,1/2-y,z
x,1/2-y,-z
1/2-x,y,-z
-x,-y,-z
1/2+x,1/2+y,-z
-x,1/2+y,z
1/2+x,-y,z
loop_
_atom_site_type_symbol
_atom_site_label
_atom_site_fract_x
_atom_site_fract_y
_atom_site_fract_z
Si Si1 0.386504 0.534561 0.110009
Si Si2 0.568474 0.747943 0.321324
Si Si3 0.609682 0.537434 0.604269
Si Si4 0.938617 0.636679 0.837643
Si Si5 0.084412 0.362759 0.797030
O O1 0.320916 0.494687 0.245135
O O2 0.462972 0.583895 0.215003
O O3 0.250000 0.556806 0.000000
O O4 0.500000 0.500000 0.000000
O O5 0.750000 0.750000 0.306828
O O6 0.512530 0.750000 0.500000
O O7 0.497731 0.695059 0.229402
O O8 0.509041 0.804116 0.243673
O O9 0.750000 0.558583 0.500000
O O10 0.500000 0.500000 0.500000
O O11 0.519736 0.590821 0.676632
O O12 0.766797 0.633670 0.777085
O O13 0.958523 0.628496 0.023706
#
# Coordination Sequence:
#
# PCOD8205142 Si02
#       5
#     8   8   8   8   8
#     4  12  24  43  65  95 129 175 223 270 326 400
#     4   9  19  32  56  92 126 159 202 266 329 379
#     4  12  26  39  61  94 132 168 210 272 335 390
#     4  10  20  37  62  90 124 166 213 267 316 388
#     4  10  20  36  61  89 126 163 212 262 323 389
#
# _framework density 22.146360000000001
#
# number of rings (size 3 to 8) (size 9 to 14) (size 15 to 20)
#    0.000    1.400    2.000    4.200    8.400    2.400 
#    0.000    0.000    0.000    2.400    0.000    2.800 
#    0.000    0.000    0.000    0.000    0.000    0.000 
#
# Total GULP energy -495719.237672 kJ/mol
# GULP energy per Si atom -12392.980942 kJ/mol
# Density = 2.209595 g / cm^3
# Si number density = 22.146360 Si / 1000 Ang^3
#
#
#
# Elastic Constant Matrix: (Units=GPa)
#
#
# Indices 1 2 3 4 5 6 
#
# 1 32.6012 15.9047 10.3812 0.0000 0.0000 0.0000
# 2 15.9047 178.8845 57.1708 0.0000 0.0000 0.0000
# 3 10.3812 57.1708 116.1226 0.0000 0.0000 0.0000
# 4 0.0000 0.0000 0.0000 57.3247 0.0000 0.0000
# 5 0.0000 0.0000 0.0000 0.0000 23.9100 0.0000
# 6 0.0000 0.0000 0.0000 0.0000 0.0000 21.8746
#
#
#
# Elastic Compliance Matrix: (Units=1/GPa)
#
#
# Indices 1 2 3 4 5 6 
#
# 1 0.032362 -0.002317 -0.001752 0.000000 0.000000 0.000000
# 2 -0.002317 0.006800 -0.003141 0.000000 0.000000 0.000000
# 3 -0.001752 -0.003141 0.010314 0.000000 0.000000 0.000000
# 4 0.000000 0.000000 0.000000 0.017444 0.000000 0.000000
# 5 0.000000 0.000000 0.000000 0.000000 0.041824 0.000000
# 6 0.000000 0.000000 0.000000 0.000000 0.000000 0.045715
#
#
# Mechanical properties :
#
#
# Convention : Reuss Voigt Hill
#
# Bulk Modulus (GPa) = 28.52565 54.94686 41.73625
# Shear Modulus (GPa) = 27.69073 36.89861 32.29467
#
# Velocity S-wave (km/s) = 3.53987 4.08625 3.82283
# Velocity P-wave (km/s) = 5.44206 6.86497 6.19451
#
# Compressibility (1/GPa) = 0.03505617
#
# Stress axis : x y z
#
# Youngs Moduli (GPa) = 30.90023 147.05918 96.95098
#
# Poissons Ratio (x) = 0.34079 0.16988
# Poissons Ratio (y) = 0.07161 0.30449
# Poissons Ratio (z) = 0.05414 0.46187
#
# Static dielectric constant tensor:
#      x y z
#    x 3.471950 0.000000 0.000000 
#    y 0.000000 4.496050 0.000000 
#    z 0.000000 0.000000 4.202910 
# 
# 
# High freq. dielectric constant tensor:
#      x y z
#    x 1.804230 0.000000 0.000000 
#    y 0.000000 1.893260 0.000000 
#    z 0.000000 0.000000 1.887580 
# 
# From -- ./inp_files/9512.got.cif
#   From: 2010.03.12/outbox.cif.g09.slc.cpg/sg50_5_cif.got.tgz:9512.got - 2010.04.16 13:23:21.
