data_PCOD8205543
_publ_section_title
;
Structure prediction by ZEFSAII (Michael W. Deem and Ramdas Pophale) SiO2 
 PCOD8205543
Probable space group: P B A N
;
_chemical_formula_sum "Si O2"
_cell_formula_units_Z 32
_cell_length_a 31.410060
_cell_length_b 8.675241
_cell_length_c 5.078226
_cell_angle_alpha 90.000000
_cell_angle_beta 90.000000
_cell_angle_gamma 90.000000
_cell_volume 1383.764992
_symmetry_space_group_name_H-M "P B A N"
_symmetry_group_IT_number 50
_space_group.IT_coordinate_system_code '2'
_symmetry_cell_setting 'orthorhombic'
loop_
_space_group_symop_operation_xyz
x,y,z
1/2-x,1/2-y,z
x,1/2-y,-z
1/2-x,y,-z
-x,-y,-z
1/2+x,1/2+y,-z
-x,1/2+y,z
1/2+x,-y,z
loop_
_atom_site_type_symbol
_atom_site_label
_atom_site_fract_x
_atom_site_fract_y
_atom_site_fract_z
Si Si1 0.297205 0.179991 0.747432
Si Si2 0.046675 0.068039 0.483512
Si Si3 0.824137 0.152837 0.770700
Si Si4 0.915648 0.079321 0.008535
O O1 0.250000 0.250000 0.748863
O O2 0.322803 0.250000 0.500000
O O3 0.295082 0.995983 0.718649
O O4 0.321708 0.250000 0.000000
O O5 0.045855 0.250000 0.500000
O O6 0.061445 0.033764 0.189770
O O7 0.000000 0.000000 0.500000
O O8 0.078681 0.990907 0.697973
O O9 0.831323 0.250000 0.500000
O O10 0.867130 0.094456 0.911413
O O11 0.800264 0.250000 0.000000
O O12 0.936627 0.250000 0.000000
#
# Coordination Sequence:
#
# PCOD8205543 Si02
#       4
#     8   8   8   8
#     4  10  22  42  64  94 132 172 213 269 332 392
#     4  12  25  42  64  94 129 172 217 269 328 393
#     4  11  23  42  67  96 129 173 222 275 333 399
#     4  11  23  42  64  92 128 169 217 273 329 390
#
# _framework density 23.125313999999999
#
# number of rings (size 3 to 8) (size 9 to 14) (size 15 to 20)
#    0.000    1.000    0.000    8.250    0.000    3.000 
#    0.000   15.000    0.000    0.000    0.000    0.000 
#    0.000    0.000    0.000    0.000    0.000    0.000 
#
# Total GULP energy -396521.146047 kJ/mol
# GULP energy per Si atom -12391.285814 kJ/mol
# Density = 2.307268 g / cm^3
# Si number density = 23.125314 Si / 1000 Ang^3
#
#
#
# Elastic Constant Matrix: (Units=GPa)
#
#
# Indices 1 2 3 4 5 6 
#
# 1 61.0869 39.4138 14.6983 0.0000 0.0000 0.0000
# 2 39.4138 218.9313 63.1374 0.0000 0.0000 0.0000
# 3 14.6983 63.1374 177.3551 0.0000 0.0000 0.0000
# 4 0.0000 0.0000 0.0000 65.6228 0.0000 0.0000
# 5 0.0000 0.0000 0.0000 0.0000 4.4768 0.0000
# 6 0.0000 0.0000 0.0000 0.0000 0.0000 32.5375
#
#
#
# Elastic Compliance Matrix: (Units=1/GPa)
#
#
# Indices 1 2 3 4 5 6 
#
# 1 0.018545 -0.003227 -0.000388 0.000000 0.000000 0.000000
# 2 -0.003227 0.005652 -0.001745 0.000000 0.000000 0.000000
# 3 -0.000388 -0.001745 0.006292 0.000000 0.000000 0.000000
# 4 0.000000 0.000000 0.000000 0.015239 0.000000 0.000000
# 5 0.000000 0.000000 0.000000 0.000000 0.223374 0.000000
# 6 0.000000 0.000000 0.000000 0.000000 0.000000 0.030734
#
#
# Mechanical properties :
#
#
# Convention : Reuss Voigt Hill
#
# Bulk Modulus (GPa) = 50.58249 76.87468 63.72859
# Shear Modulus (GPa) = 15.76569 43.20234 29.48402
#
# Velocity S-wave (km/s) = 2.61387 4.32694 3.57454
# Velocity P-wave (km/s) = 5.57050 7.63400 6.68238
#
# Compressibility (1/GPa) = 0.01976969
#
# Stress axis : x y z
#
# Youngs Moduli (GPa) = 53.92153 176.93942 158.94141
#
# Poissons Ratio (x) = 0.57094 0.06171
# Poissons Ratio (y) = 0.17399 0.27728
# Poissons Ratio (z) = 0.02094 0.30868
#
# Static dielectric constant tensor:
#      x y z
#    x 4.545640 0.000000 0.000000 
#    y 0.000000 4.610830 0.000000 
#    z 0.000000 0.000000 3.131470 
# 
# 
# High freq. dielectric constant tensor:
#      x y z
#    x 1.882410 0.000000 0.000000 
#    y 0.000000 1.934720 0.000000 
#    z 0.000000 0.000000 1.947910 
# 
# From -- ./inp_files/6934.got.cif
#   From: 2010.03.12/outbox.cif.g09.slc.cpg/sg50_4_cif.got.tgz:6934.got - 2010.04.16 13:23:21.
