data_PCOD8205402
_publ_section_title
;
Structure prediction by ZEFSAII (Michael W. Deem and Ramdas Pophale) SiO2 
 PCOD8205402
Probable space group: P B A N
;
_chemical_formula_sum "Si O2"
_cell_formula_units_Z 60
_cell_length_a 12.805596
_cell_length_b 10.967007
_cell_length_c 19.899553
_cell_angle_alpha 90.000000
_cell_angle_beta 90.000000
_cell_angle_gamma 90.000000
_cell_volume 2794.674537
_symmetry_space_group_name_H-M "P B A N"
_symmetry_group_IT_number 50
_space_group.IT_coordinate_system_code '2'
_symmetry_cell_setting 'orthorhombic'
loop_
_space_group_symop_operation_xyz
x,y,z
1/2-x,1/2-y,z
x,1/2-y,-z
1/2-x,y,-z
-x,-y,-z
1/2+x,1/2+y,-z
-x,1/2+y,z
1/2+x,-y,z
loop_
_atom_site_type_symbol
_atom_site_label
_atom_site_fract_x
_atom_site_fract_y
_atom_site_fract_z
Si Si1 0.572350 0.094263 0.746880
Si Si2 0.250000 0.250000 0.760090
Si Si3 0.615648 0.918605 0.155306
Si Si4 0.114746 0.119698 0.653542
Si Si5 0.093427 0.729982 0.633256
Si Si6 0.270836 0.567922 0.578106
Si Si7 0.467523 0.622198 0.960456
Si Si8 0.277675 0.611017 0.865311
O O1 0.466140 0.066025 0.785212
O O2 0.585882 0.228173 0.712091
O O3 0.670056 0.070960 0.795311
O O4 0.567202 0.000104 0.686549
O O5 0.287283 0.150239 0.812798
O O6 0.157359 0.206150 0.712082
O O7 0.556678 0.849468 0.094936
O O8 0.666789 0.042305 0.125618
O O9 0.023007 0.187480 0.612118
O O10 0.204319 0.070238 0.602826
O O11 0.174902 0.618429 0.623302
O O12 0.130305 0.841509 0.586360
O O13 0.250000 0.562265 0.500000
O O14 0.356649 0.587502 0.926998
O O15 0.456937 0.750000 0.000000
O O16 0.500000 0.500000 0.000000
O O17 0.250000 0.750000 0.862920
#
# Coordination Sequence:
#
# PCOD8205402 Si02
#       8
#     8   4   8   8   8   8   8   8
#     4  10  23  37  62 101 130 165 216 276 338 418
#     4  12  24  42  62 104 140 166 224 280 358 418
#     4  11  25  42  69  99 138 173 219 287 344 406
#     4  11  24  38  66  98 136 172 218 287 344 401
#     4  10  21  39  66  92 131 176 219 276 349 397
#     4  10  24  44  66  96 130 181 238 274 327 427
#     4  11  27  49  69  99 139 182 242 289 336 423
#     4  11  25  42  70  98 133 182 221 279 347 411
#
# _framework density 21.469404000000001
#
# number of rings (size 3 to 8) (size 9 to 14) (size 15 to 20)
#    0.000    1.333    2.667    1.600    9.333    2.400 
#    0.000    1.667    0.000    0.000    0.000    0.000 
#    0.000    0.000    0.000    0.000    0.000    0.000 
#
# Total GULP energy -743620.228239 kJ/mol
# GULP energy per Si atom -12393.670471 kJ/mol
# Density = 2.142054 g / cm^3
# Si number density = 21.469404 Si / 1000 Ang^3
#
#
#
# Elastic Constant Matrix: (Units=GPa)
#
#
# Indices 1 2 3 4 5 6 
#
# 1 119.5744 40.9510 54.5313 0.0000 0.0000 0.0000
# 2 40.9510 84.8347 42.4734 0.0000 0.0000 0.0000
# 3 54.5313 42.4734 113.1339 0.0000 0.0000 0.0000
# 4 0.0000 0.0000 0.0000 26.2616 0.0000 0.0000
# 5 0.0000 0.0000 0.0000 0.0000 27.6480 0.0000
# 6 0.0000 0.0000 0.0000 0.0000 0.0000 35.3125
#
#
#
# Elastic Compliance Matrix: (Units=1/GPa)
#
#
# Indices 1 2 3 4 5 6 
#
# 1 0.011468 -0.003409 -0.004248 0.000000 0.000000 0.000000
# 2 -0.003409 0.015529 -0.004187 0.000000 0.000000 0.000000
# 3 -0.004248 -0.004187 0.012458 0.000000 0.000000 0.000000
# 4 0.000000 0.000000 0.000000 0.038078 0.000000 0.000000
# 5 0.000000 0.000000 0.000000 0.000000 0.036169 0.000000
# 6 0.000000 0.000000 0.000000 0.000000 0.000000 0.028319
#
#
# Mechanical properties :
#
#
# Convention : Reuss Voigt Hill
#
# Bulk Modulus (GPa) = 63.41879 65.93939 64.67909
# Shear Modulus (GPa) = 29.24580 29.81690 29.53135
#
# Velocity S-wave (km/s) = 3.69481 3.73072 3.71281
# Velocity P-wave (km/s) = 6.91415 7.02407 6.96933
#
# Compressibility (1/GPa) = 0.01576820
#
# Stress axis : x y z
#
# Youngs Moduli (GPa) = 87.20228 64.39376 80.26720
#
# Poissons Ratio (x) = 0.21952 0.34095
# Poissons Ratio (y) = 0.29727 0.33608
# Poissons Ratio (z) = 0.37040 0.26962
#
# Static dielectric constant tensor:
#      x y z
#    x 4.446250 0.000000 0.000000 
#    y 0.000000 4.008470 0.000000 
#    z 0.000000 0.000000 4.474030 
# 
# 
# High freq. dielectric constant tensor:
#      x y z
#    x 1.850060 0.000000 0.000000 
#    y 0.000000 1.840230 0.000000 
#    z 0.000000 0.000000 1.838030 
# 
# From -- ./inp_files/30880.got.cif
#   From: 2010.03.12/outbox.cif.g09.slc.cpg/sg50_16_cif.got.tgz:30880.got - 2010.04.16 13:23:21.
