data_PCOD8205616
_publ_section_title
;
Structure prediction by ZEFSAII (Michael W. Deem and Ramdas Pophale) SiO2 
 PCOD8205616
Probable space group: P B A N
;
_chemical_formula_sum "Si O2"
_cell_formula_units_Z 30
_cell_length_a 12.587489
_cell_length_b 4.950036
_cell_length_c 21.068218
_cell_angle_alpha 90.000000
_cell_angle_beta 90.000000
_cell_angle_gamma 90.000000
_cell_volume 1312.729561
_symmetry_space_group_name_H-M "P B A N"
_symmetry_group_IT_number 50
_space_group.IT_coordinate_system_code '2'
_symmetry_cell_setting 'orthorhombic'
loop_
_space_group_symop_operation_xyz
x,y,z
1/2-x,1/2-y,z
x,1/2-y,-z
1/2-x,y,-z
-x,-y,-z
1/2+x,1/2+y,-z
-x,1/2+y,z
1/2+x,-y,z
loop_
_atom_site_type_symbol
_atom_site_label
_atom_site_fract_x
_atom_site_fract_y
_atom_site_fract_z
Si Si1 0.576100 0.750000 0.000000
Si Si2 0.430216 0.547120 0.573735
Si Si3 0.250000 0.750000 0.190794
Si Si4 0.250000 0.250000 0.500000
Si Si5 0.934795 0.462221 0.721216
Si Si6 0.750000 0.750000 0.895644
O O1 0.647334 0.698853 0.061704
O O2 0.500000 0.500000 0.000000
O O3 0.470021 0.849735 0.555100
O O4 0.321448 0.453282 0.541486
O O5 0.402809 0.554939 0.647835
O O6 0.158854 0.637090 0.235274
O O7 0.284736 0.504853 0.146307
O O8 0.036370 0.271952 0.736277
#
# Coordination Sequence:
#
# PCOD8205616 Si02
#       6
#     4   8   4   2   8   4
#     4  11  24  45  68  92 136 183 210 259 328 370
#     4  10  24  43  62  93 128 162 214 267 317 395
#     4  12  24  41  68  99 130 166 218 270 318 380
#     4  12  24  40  72  94 124 174 216 272 344 384
#     4  10  23  42  63  90 129 169 207 260 325 385
#     4  11  26  41  64 105 132 161 226 272 300 383
#
# _framework density 22.853145000000001
#
# number of rings (size 3 to 8) (size 9 to 14) (size 15 to 20)
#    0.000    1.333    0.000    4.000    0.000   18.133 
#    0.000    0.000    0.000    0.000    0.000    0.000 
#    0.000    0.000    0.000    0.000    0.000    0.000 
#
# Total GULP energy -372010.696991 kJ/mol
# GULP energy per Si atom -12400.356566 kJ/mol
# Density = 2.280113 g / cm^3
# Si number density = 22.853145 Si / 1000 Ang^3
#
#
#
# Elastic Constant Matrix: (Units=GPa)
#
#
# Indices 1 2 3 4 5 6 
#
# 1 137.9630 44.4761 73.1534 0.0000 0.0000 0.0000
# 2 44.4761 142.2353 51.2747 0.0000 0.0000 0.0000
# 3 73.1534 51.2747 112.5054 0.0000 0.0000 0.0000
# 4 0.0000 0.0000 0.0000 49.2862 0.0000 0.0000
# 5 0.0000 0.0000 0.0000 0.0000 20.4064 0.0000
# 6 0.0000 0.0000 0.0000 0.0000 0.0000 27.8058
#
#
#
# Elastic Compliance Matrix: (Units=1/GPa)
#
#
# Indices 1 2 3 4 5 6 
#
# 1 0.011191 -0.001048 -0.006799 0.000000 0.000000 0.000000
# 2 -0.001048 0.008511 -0.003197 0.000000 0.000000 0.000000
# 3 -0.006799 -0.003197 0.014767 0.000000 0.000000 0.000000
# 4 0.000000 0.000000 0.000000 0.020290 0.000000 0.000000
# 5 0.000000 0.000000 0.000000 0.000000 0.049004 0.000000
# 6 0.000000 0.000000 0.000000 0.000000 0.000000 0.035964
#
#
# Mechanical properties :
#
#
# Convention : Reuss Voigt Hill
#
# Bulk Modulus (GPa) = 80.77877 81.16803 80.97340
# Shear Modulus (GPa) = 30.13089 34.41964 32.27527
#
# Velocity S-wave (km/s) = 3.63500 3.88509 3.76212
# Velocity P-wave (km/s) = 7.28294 7.46455 7.37431
#
# Compressibility (1/GPa) = 0.01237949
#
# Stress axis : x y z
#
# Youngs Moduli (GPa) = 89.35375 117.49473 67.72084
#
# Poissons Ratio (x) = 0.12319 0.46044
# Poissons Ratio (y) = 0.09369 0.21652
# Poissons Ratio (z) = 0.60752 0.37565
#
# Static dielectric constant tensor:
#      x y z
#    x 3.968100 0.000000 0.000000 
#    y 0.000000 4.668620 0.000000 
#    z 0.000000 0.000000 4.468270 
# 
# 
# High freq. dielectric constant tensor:
#      x y z
#    x 1.898000 0.000000 0.000000 
#    y 0.000000 1.925250 0.000000 
#    z 0.000000 0.000000 1.924190 
# 
# From -- ./inp_files/30787.got.cif
#   From: 2010.03.12/outbox.cif.g09.slc.cpg/sg50_16_cif.got.tgz:30787.got - 2010.04.16 13:23:21.
