data_PCOD8205466
_publ_section_title
;
Structure prediction by ZEFSAII (Michael W. Deem and Ramdas Pophale) SiO2 
 PCOD8205466
Probable space group: P B A N
;
_chemical_formula_sum "Si O2"
_cell_formula_units_Z 48
_cell_length_a 9.644561
_cell_length_b 21.169548
_cell_length_c 12.097421
_cell_angle_alpha 90.000000
_cell_angle_beta 90.000000
_cell_angle_gamma 90.000000
_cell_volume 2469.942507
_symmetry_space_group_name_H-M "P B A N"
_symmetry_group_IT_number 50
_space_group.IT_coordinate_system_code '2'
_symmetry_cell_setting 'orthorhombic'
loop_
_space_group_symop_operation_xyz
x,y,z
1/2-x,1/2-y,z
x,1/2-y,-z
1/2-x,y,-z
-x,-y,-z
1/2+x,1/2+y,-z
-x,1/2+y,z
1/2+x,-y,z
loop_
_atom_site_type_symbol
_atom_site_label
_atom_site_fract_x
_atom_site_fract_y
_atom_site_fract_z
Si Si1 0.702034 0.619890 0.880555
Si Si2 0.184837 0.943025 0.619665
Si Si3 0.948309 0.316440 0.943602
Si Si4 0.926808 0.989555 0.741049
Si Si5 0.501048 0.116404 0.159961
Si Si6 0.748907 0.321746 0.262570
O O1 0.603342 0.681697 0.891628
O O2 0.607322 0.570380 0.815451
O O3 0.843193 0.640071 0.818606
O O4 0.750000 0.592354 0.000000
O O5 0.250000 0.954093 0.500000
O O6 0.283061 0.981260 0.701439
O O7 0.180474 0.868101 0.647132
O O8 0.029229 0.970216 0.638936
O O9 0.830720 0.328283 0.853432
O O10 0.919448 0.250000 0.000000
O O11 0.943383 0.371583 0.035654
O O12 0.999375 0.041684 0.818041
O O13 0.592782 0.156170 0.246161
O O14 0.750000 0.250000 0.307257
#
# Coordination Sequence:
#
# PCOD8205466 Si02
#       6
#     8   8   8   8   8   8
#     4  10  22  36  55  88 126 163 195 243 299 373
#     4  11  24  41  66  88 114 158 209 265 318 360
#     4  11  21  37  57  85 122 165 203 234 297 373
#     4  11  21  41  60  88 123 154 204 258 313 365
#     4  10  22  34  57  87 122 159 200 239 299 374
#     4  11  22  39  61  88 121 157 202 254 303 365
#
# _framework density 19.433651000000001
#
# number of rings (size 3 to 8) (size 9 to 14) (size 15 to 20)
#    0.000    1.333    5.000    1.000    0.000    8.667 
#    0.000    0.000    0.000    0.000    0.000    0.000 
#    5.000    0.000    0.000    0.000    0.000    0.000 
#
# Total GULP energy -594976.702715 kJ/mol
# GULP energy per Si atom -12395.347973 kJ/mol
# Density = 1.938942 g / cm^3
# Si number density = 19.433651 Si / 1000 Ang^3
#
#
#
# Elastic Constant Matrix: (Units=GPa)
#
#
# Indices 1 2 3 4 5 6 
#
# 1 100.6692 24.6161 10.0198 0.0000 0.0000 0.0000
# 2 24.6161 76.1101 19.9390 0.0000 0.0000 0.0000
# 3 10.0198 19.9390 55.2976 0.0000 0.0000 0.0000
# 4 0.0000 0.0000 0.0000 21.1112 0.0000 0.0000
# 5 0.0000 0.0000 0.0000 0.0000 31.6019 0.0000
# 6 0.0000 0.0000 0.0000 0.0000 0.0000 21.5614
#
#
#
# Elastic Compliance Matrix: (Units=1/GPa)
#
#
# Indices 1 2 3 4 5 6 
#
# 1 0.010816 -0.003296 -0.000771 0.000000 0.000000 0.000000
# 2 -0.003296 0.015514 -0.004997 0.000000 0.000000 0.000000
# 3 -0.000771 -0.004997 0.020025 0.000000 0.000000 0.000000
# 4 0.000000 0.000000 0.000000 0.047368 0.000000 0.000000
# 5 0.000000 0.000000 0.000000 0.000000 0.031644 0.000000
# 6 0.000000 0.000000 0.000000 0.000000 0.000000 0.046379
#
#
# Mechanical properties :
#
#
# Convention : Reuss Voigt Hill
#
# Bulk Modulus (GPa) = 35.42687 37.91408 36.67047
# Shear Modulus (GPa) = 25.08978 26.68837 25.88907
#
# Velocity S-wave (km/s) = 3.59701 3.70984 3.65386
# Velocity P-wave (km/s) = 5.95991 6.15649 6.05900
#
# Compressibility (1/GPa) = 0.02822716
#
# Stress axis : x y z
#
# Youngs Moduli (GPa) = 92.45304 64.45804 49.93647
#
# Poissons Ratio (x) = 0.21247 0.03852
# Poissons Ratio (y) = 0.30475 0.24952
# Poissons Ratio (z) = 0.07131 0.32208
#
# Static dielectric constant tensor:
#      x y z
#    x 3.896840 0.000000 0.000000 
#    y 0.000000 3.588110 0.000000 
#    z 0.000000 0.000000 3.307610 
# 
# 
# High freq. dielectric constant tensor:
#      x y z
#    x 1.779500 0.000000 0.000000 
#    y 0.000000 1.750610 0.000000 
#    z 0.000000 0.000000 1.721270 
# 
# From -- ./inp_files/19168.got.cif
#   From: 2010.03.12/outbox.cif.g09.slc.cpg/sg50_10_cif.got.tgz:19168.got - 2010.04.16 13:23:21.
