data_PCOD8205633
_publ_section_title
;
Structure prediction by ZEFSAII (Michael W. Deem and Ramdas Pophale) SiO2 
 PCOD8205633
Probable space group: P B A N
;
_chemical_formula_sum "Si O2"
_cell_formula_units_Z 24
_cell_length_a 5.222953
_cell_length_b 27.215324
_cell_length_c 6.730216
_cell_angle_alpha 90.000000
_cell_angle_beta 90.000000
_cell_angle_gamma 90.000000
_cell_volume 956.662233
_symmetry_space_group_name_H-M "P B A N"
_symmetry_group_IT_number 50
_space_group.IT_coordinate_system_code '2'
_symmetry_cell_setting 'orthorhombic'
loop_
_space_group_symop_operation_xyz
x,y,z
1/2-x,1/2-y,z
x,1/2-y,-z
1/2-x,y,-z
-x,-y,-z
1/2+x,1/2+y,-z
-x,1/2+y,z
1/2+x,-y,z
loop_
_atom_site_type_symbol
_atom_site_label
_atom_site_fract_x
_atom_site_fract_y
_atom_site_fract_z
Si Si1 0.496624 0.623439 0.867698
Si Si2 0.001662 0.271499 0.720857
Si Si3 0.838555 0.478873 0.722489
O O1 0.520271 0.669515 0.719391
O O2 0.444320 0.576271 0.729561
O O3 0.750000 0.616550 0.000000
O O4 0.250000 0.633061 0.000000
O O5 0.250000 0.250000 0.834749
O O6 0.001014 0.250000 0.500000
O O7 0.750000 0.250000 0.830968
O O8 0.750000 0.495722 0.500000
O O9 0.559072 0.486082 0.827062
#
# Coordination Sequence:
#
# PCOD8205633 Si02
#       3
#     8   8   8
#     4  12  26  42  68 104 137 174 223 286 346 403
#     4  10  23  43  66  95 126 183 223 275 331 408
#     4  10  23  44  68  99 135 181 228 271 327 411
#
# _framework density 25.087221
#
# number of rings (size 3 to 8) (size 9 to 14) (size 15 to 20)
#    0.000    1.333    0.000    4.000    4.667    8.000 
#   12.000    0.000    0.000    0.000    0.000    0.000 
#    0.000    0.000    0.000    0.000    0.000    0.000 
#
# Total GULP energy -297323.239543 kJ/mol
# GULP energy per Si atom -12388.468314 kJ/mol
# Density = 2.503012 g / cm^3
# Si number density = 25.087221 Si / 1000 Ang^3
#
#
#
# Elastic Constant Matrix: (Units=GPa)
#
#
# Indices 1 2 3 4 5 6 
#
# 1 298.3595 92.3108 26.3163 0.0000 0.0000 0.0000
# 2 92.3108 218.1424 26.5039 0.0000 0.0000 0.0000
# 3 26.3163 26.5039 48.1598 0.0000 0.0000 0.0000
# 4 0.0000 0.0000 0.0000 -3.9850 0.0000 0.0000
# 5 0.0000 0.0000 0.0000 0.0000 3.6396 0.0000
# 6 0.0000 0.0000 0.0000 0.0000 0.0000 60.3135
#
#
#
# Elastic Compliance Matrix: (Units=1/GPa)
#
#
# Indices 1 2 3 4 5 6 
#
# 1 0.003934 -0.001504 -0.001322 0.000000 0.000000 0.000000
# 2 -0.001504 0.005488 -0.002198 0.000000 0.000000 0.000000
# 3 -0.001322 -0.002198 0.022696 0.000000 0.000000 0.000000
# 4 0.000000 0.000000 0.000000 -0.250942 0.000000 0.000000
# 5 0.000000 0.000000 0.000000 0.000000 0.274754 0.000000
# 6 0.000000 0.000000 0.000000 0.000000 0.000000 0.016580
#
#
# Mechanical properties :
#
#
# Convention : Reuss Voigt Hill
#
# Bulk Modulus (GPa) = 45.31131 94.99154 70.15143
# Shear Modulus (GPa) = 55.60838 39.96234 47.78536
#
# Velocity S-wave (km/s) = 4.71319 3.99549 4.36910
# Velocity P-wave (km/s) = 6.90794 7.69623 7.31271
#
# Compressibility (1/GPa) = 0.02206954
#
# Stress axis : x y z
#
# Youngs Moduli (GPa) = 254.22244 182.22663 44.06023
#
# Poissons Ratio (x) = 0.27406 0.05824
# Poissons Ratio (y) = 0.38234 0.09685
# Poissons Ratio (z) = 0.33602 0.40058
#
# Static dielectric constant tensor:
#      x y z
#    x -25.781630 0.000000 0.000000 
#    y 0.000000 4.484610 0.000000 
#    z 0.000000 0.000000 3.317560 
# 
# 
# High freq. dielectric constant tensor:
#      x y z
#    x 2.050620 0.000000 0.000000 
#    y 0.000000 1.995090 0.000000 
#    z 0.000000 0.000000 1.991430 
# 
# From -- ./inp_files/7643.got.cif
#   From: 2010.03.12/outbox.cif.g09.slc.cpg/sg50_4_cif.got.tgz:7643.got - 2010.04.16 13:23:21.
