data_PCOD8205324
_publ_section_title
;
Structure prediction by ZEFSAII (Michael W. Deem and Ramdas Pophale) SiO2 
 PCOD8205324
Probable space group: P B A N
;
_chemical_formula_sum "Si O2"
_cell_formula_units_Z 48
_cell_length_a 30.456849
_cell_length_b 8.794223
_cell_length_c 8.319267
_cell_angle_alpha 90.000000
_cell_angle_beta 90.000000
_cell_angle_gamma 90.000000
_cell_volume 2228.268429
_symmetry_space_group_name_H-M "P B A N"
_symmetry_group_IT_number 50
_space_group.IT_coordinate_system_code '2'
_symmetry_cell_setting 'orthorhombic'
loop_
_space_group_symop_operation_xyz
x,y,z
1/2-x,1/2-y,z
x,1/2-y,-z
1/2-x,y,-z
-x,-y,-z
1/2+x,1/2+y,-z
-x,1/2+y,z
1/2+x,-y,z
loop_
_atom_site_type_symbol
_atom_site_label
_atom_site_fract_x
_atom_site_fract_y
_atom_site_fract_z
Si Si1 0.883421 0.548158 0.153660
Si Si2 0.024945 0.528836 0.334107
Si Si3 0.299522 0.426450 0.667402
Si Si4 0.704752 0.933814 0.306315
Si Si5 0.459408 0.668745 0.171941
Si Si6 0.890385 0.889432 0.212087
O O1 0.832037 0.503872 0.181208
O O2 0.913591 0.412529 0.220736
O O3 0.890528 0.708273 0.245586
O O4 0.899518 0.570667 0.971980
O O5 0.029753 0.708283 0.308589
O O6 0.073442 0.456540 0.332302
O O7 0.000000 0.500000 0.500000
O O8 0.997879 0.456773 0.184060
O O9 0.296324 0.246337 0.681647
O O10 0.253894 0.489745 0.746459
O O11 0.304256 0.491247 0.487029
O O12 0.343873 0.473691 0.757622
O O13 0.457194 0.750000 0.000000
#
# Coordination Sequence:
#
# PCOD8205324 Si02
#       6
#     8   8   8   8   8   8
#     4  10  21  36  62  92 123 167 206 258 315 386
#     4  12  27  44  64  92 122 161 210 266 322 386
#     4   8  15  30  54  86 128 161 199 264 307 366
#     4   8  15  30  54  88 123 164 206 248 319 363
#     4  12  25  45  66  88 124 167 209 263 326 389
#     4  10  21  37  59  92 127 160 210 261 318 370
#
# _framework density 21.541388000000001
#
# number of rings (size 3 to 8) (size 9 to 14) (size 15 to 20)
#    0.000    2.000    1.667    3.000    4.667    0.667 
#    3.000    3.333    0.000    1.000    0.000    2.333 
#    0.000    0.000    0.000    0.000    0.000    0.000 
#
# Total GULP energy -594751.230374 kJ/mol
# GULP energy per Si atom -12390.650633 kJ/mol
# Density = 2.149236 g / cm^3
# Si number density = 21.541388 Si / 1000 Ang^3
#
#
#
# Elastic Constant Matrix: (Units=GPa)
#
#
# Indices 1 2 3 4 5 6 
#
# 1 194.2835 57.8089 48.2944 0.0000 0.0000 0.0000
# 2 57.8089 81.5407 26.3693 0.0000 0.0000 0.0000
# 3 48.2944 26.3693 64.7207 0.0000 0.0000 0.0000
# 4 0.0000 0.0000 0.0000 20.3533 0.0000 0.0000
# 5 0.0000 0.0000 0.0000 0.0000 39.0669 0.0000
# 6 0.0000 0.0000 0.0000 0.0000 0.0000 27.1747
#
#
#
# Elastic Compliance Matrix: (Units=1/GPa)
#
#
# Indices 1 2 3 4 5 6 
#
# 1 0.007262 -0.003911 -0.003825 0.000000 0.000000 0.000000
# 2 -0.003911 0.016232 -0.003695 0.000000 0.000000 0.000000
# 3 -0.003825 -0.003695 0.019811 0.000000 0.000000 0.000000
# 4 0.000000 0.000000 0.000000 0.049132 0.000000 0.000000
# 5 0.000000 0.000000 0.000000 0.000000 0.025597 0.000000
# 6 0.000000 0.000000 0.000000 0.000000 0.000000 0.036799
#
#
# Mechanical properties :
#
#
# Convention : Reuss Voigt Hill
#
# Bulk Modulus (GPa) = 48.91937 67.27668 58.09803
# Shear Modulus (GPa) = 27.09909 31.19048 29.14478
#
# Velocity S-wave (km/s) = 3.55068 3.80930 3.68226
# Velocity P-wave (km/s) = 6.29035 7.11666 6.71623
#
# Compressibility (1/GPa) = 0.02044180
#
# Stress axis : x y z
#
# Youngs Moduli (GPa) = 137.70781 61.60836 50.47795
#
# Poissons Ratio (x) = 0.24097 0.19308
# Poissons Ratio (y) = 0.53861 0.18650
# Poissons Ratio (z) = 0.52675 0.22762
#
# Static dielectric constant tensor:
#      x y z
#    x 4.601950 0.000000 0.000000 
#    y 0.000000 3.660770 0.000000 
#    z 0.000000 0.000000 3.650500 
# 
# 
# High freq. dielectric constant tensor:
#      x y z
#    x 1.868630 0.000000 0.000000 
#    y 0.000000 1.804190 0.000000 
#    z 0.000000 0.000000 1.826420 
# 
# From -- ./inp_files/16962.got.cif
#   From: 2010.03.12/outbox.cif.g09.slc.cpg/sg50_9_cif.got.tgz:16962.got - 2010.04.16 13:23:21.
