data_PCOD8205400
_publ_section_title
;
Structure prediction by ZEFSAII (Michael W. Deem and Ramdas Pophale) SiO2 
 PCOD8205400
Probable space group: P B A N
;
_chemical_formula_sum "Si O2"
_cell_formula_units_Z 44
_cell_length_a 14.787511
_cell_length_b 24.658596
_cell_length_c 5.381889
_cell_angle_alpha 90.000000
_cell_angle_beta 90.000000
_cell_angle_gamma 90.000000
_cell_volume 1962.448020
_symmetry_space_group_name_H-M "P B A N"
_symmetry_group_IT_number 50
_space_group.IT_coordinate_system_code '2'
_symmetry_cell_setting 'orthorhombic'
loop_
_space_group_symop_operation_xyz
x,y,z
1/2-x,1/2-y,z
x,1/2-y,-z
1/2-x,y,-z
-x,-y,-z
1/2+x,1/2+y,-z
-x,1/2+y,z
1/2+x,-y,z
loop_
_atom_site_type_symbol
_atom_site_label
_atom_site_fract_x
_atom_site_fract_y
_atom_site_fract_z
Si Si1 0.671477 0.156882 0.799428
Si Si2 0.389041 0.050315 0.607288
Si Si3 0.884990 0.250000 0.500000
Si Si4 0.524292 0.164563 0.159812
Si Si5 0.091379 0.929962 0.485034
Si Si6 0.342360 0.389592 0.899276
O O1 0.686556 0.208053 0.621221
O O2 0.665764 0.099487 0.658949
O O3 0.750000 0.154308 0.000000
O O4 0.571632 0.172578 0.896735
O O5 0.496138 0.059975 0.619777
O O6 0.357786 0.067510 0.880089
O O7 0.365309 0.986797 0.593714
O O8 0.339937 0.080500 0.372053
O O9 0.954187 0.283630 0.327088
O O10 0.570918 0.108920 0.253714
O O11 0.417189 0.157653 0.119201
O O12 0.250000 0.361347 0.000000
#
# Coordination Sequence:
#
# PCOD8205400 Si02
#       6
#     8   8   4   8   8   8
#     4  11  23  41  65  95 129 171 219 282 340 408
#     4  10  21  39  65  97 138 179 219 263 323 396
#     4  10  24  43  64  97 122 174 226 285 352 417
#     4  10  22  41  65  90 130 168 219 276 337 397
#     4   9  21  37  62  95 135 172 217 264 326 392
#     4  11  23  41  66 100 132 179 221 271 331 398
#
# _framework density 22.420974999999999
#
# number of rings (size 3 to 8) (size 9 to 14) (size 15 to 20)
#    0.000    1.818    1.818    1.091    2.545    8.000 
#    3.273    0.000    0.000    4.364    0.000    0.000 
#    0.000    0.000    0.000    0.000    0.000    0.000 
#
# Total GULP energy -545162.179624 kJ/mol
# GULP energy per Si atom -12390.049537 kJ/mol
# Density = 2.236994 g / cm^3
# Si number density = 22.420975 Si / 1000 Ang^3
#
#
#
# Elastic Constant Matrix: (Units=GPa)
#
#
# Indices 1 2 3 4 5 6 
#
# 1 102.3294 37.2036 32.8066 0.0000 0.0000 0.0000
# 2 37.2036 118.1764 38.0048 0.0000 0.0000 0.0000
# 3 32.8066 38.0048 106.4130 0.0000 0.0000 0.0000
# 4 0.0000 0.0000 0.0000 2.1007 0.0000 0.0000
# 5 0.0000 0.0000 0.0000 0.0000 40.5391 0.0000
# 6 0.0000 0.0000 0.0000 0.0000 0.0000 13.0756
#
#
#
# Elastic Compliance Matrix: (Units=1/GPa)
#
#
# Indices 1 2 3 4 5 6 
#
# 1 0.011627 -0.002833 -0.002573 0.000000 0.000000 0.000000
# 2 -0.002833 0.010250 -0.002787 0.000000 0.000000 0.000000
# 3 -0.002573 -0.002787 0.011186 0.000000 0.000000 0.000000
# 4 0.000000 0.000000 0.000000 0.476025 0.000000 0.000000
# 5 0.000000 0.000000 0.000000 0.000000 0.024668 0.000000
# 6 0.000000 0.000000 0.000000 0.000000 0.000000 0.076478
#
#
# Mechanical properties :
#
#
# Convention : Reuss Voigt Hill
#
# Bulk Modulus (GPa) = 59.96282 60.32763 60.14523
# Shear Modulus (GPa) = 7.90914 25.73668 16.82291
#
# Velocity S-wave (km/s) = 1.88022 3.39172 2.74217
# Velocity P-wave (km/s) = 5.61389 6.50412 6.07533
#
# Compressibility (1/GPa) = 0.01667700
#
# Stress axis : x y z
#
# Youngs Moduli (GPa) = 86.00532 97.55905 89.39719
#
# Poissons Ratio (x) = 0.27638 0.23000
# Poissons Ratio (y) = 0.24365 0.24919
# Poissons Ratio (z) = 0.22128 0.27194
#
# Static dielectric constant tensor:
#      x y z
#    x 4.280000 0.000000 0.000000 
#    y 0.000000 4.085480 0.000000 
#    z 0.000000 0.000000 4.217220 
# 
# 
# High freq. dielectric constant tensor:
#      x y z
#    x 1.884880 0.000000 0.000000 
#    y 0.000000 1.872330 0.000000 
#    z 0.000000 0.000000 1.894420 
# 
# From -- ./inp_files/3498.got.cif
#   From: 2010.03.12/outbox.cif.g09.slc.cpg/sg50_2_cif.got.tgz:3498.got - 2010.04.16 13:23:21.
