data_PCOD8205030
_publ_section_title
;
Structure prediction by ZEFSAII (Michael W. Deem and Ramdas Pophale) SiO2 
 PCOD8205030
Probable space group: P B A N
;
_chemical_formula_sum "Si O2"
_cell_formula_units_Z 52
_cell_length_a 16.543356
_cell_length_b 9.061171
_cell_length_c 15.587226
_cell_angle_alpha 90.000000
_cell_angle_beta 90.000000
_cell_angle_gamma 90.000000
_cell_volume 2336.559121
_symmetry_space_group_name_H-M "P B A N"
_symmetry_group_IT_number 50
_space_group.IT_coordinate_system_code '2'
_symmetry_cell_setting 'orthorhombic'
loop_
_space_group_symop_operation_xyz
x,y,z
1/2-x,1/2-y,z
x,1/2-y,-z
1/2-x,y,-z
-x,-y,-z
1/2+x,1/2+y,-z
-x,1/2+y,z
1/2+x,-y,z
loop_
_atom_site_type_symbol
_atom_site_label
_atom_site_fract_x
_atom_site_fract_y
_atom_site_fract_z
Si Si1 0.390874 0.004198 0.351107
Si Si2 0.228146 0.914627 0.306639
Si Si3 0.776249 0.085950 0.884610
Si Si4 0.108209 0.991990 0.453506
Si Si5 0.615651 0.007773 0.958708
Si Si6 0.502541 0.750000 0.000000
Si Si7 0.998177 0.743604 0.387568
O O1 0.310946 0.006020 0.294372
O O2 0.444963 0.859560 0.328191
O O3 0.358343 0.993777 0.449939
O O4 0.441228 0.151758 0.329303
O O5 0.250000 0.750000 0.337676
O O6 0.188138 0.917879 0.212309
O O7 0.174272 0.992404 0.378502
O O8 0.750000 0.250000 0.912708
O O9 0.691529 0.995461 0.893712
O O10 0.847083 0.022993 0.944851
O O11 0.055924 0.139612 0.447164
O O12 0.052063 0.849205 0.446943
O O13 0.556492 0.148616 0.940319
O O14 0.561469 0.860372 0.947302
#
# Coordination Sequence:
#
# PCOD8205030 Si02
#       7
#     8   8   8   8   8   4   8
#     4  11  20  37  58  81 109 147 190 238 284 334
#     4  11  24  37  55  84 114 149 194 231 272 334
#     4  10  20  40  60  81 116 159 183 217 281 343
#     4  11  20  37  58  81 109 147 190 238 284 334
#     4  10  19  40  65  89 115 149 181 224 277 328
#     4  10  20  34  66 100 114 134 190 234 264 324
#     4  10  21  36  59  81 108 147 192 235 290 339
#
# _framework density 22.254947000000001
#
# number of rings (size 3 to 8) (size 9 to 14) (size 15 to 20)
#    0.000    1.538    3.077    4.615    0.000    2.462 
#    0.000   13.846    0.000    0.000    0.000    0.000 
#    0.000    0.000    0.000    0.000    0.000    0.000 
#
# Total GULP energy -644390.023606 kJ/mol
# GULP energy per Si atom -12392.115839 kJ/mol
# Density = 2.220429 g / cm^3
# Si number density = 22.254947 Si / 1000 Ang^3
#
#
#
# Elastic Constant Matrix: (Units=GPa)
#
#
# Indices 1 2 3 4 5 6 
#
# 1 117.6920 41.3296 28.9035 0.0000 0.0000 0.0000
# 2 41.3296 123.3508 4.3901 0.0000 0.0000 0.0000
# 3 28.9035 4.3901 55.7787 0.0000 0.0000 0.0000
# 4 0.0000 0.0000 0.0000 113.0541 0.0000 0.0000
# 5 0.0000 0.0000 0.0000 0.0000 18.1982 0.0000
# 6 0.0000 0.0000 0.0000 0.0000 0.0000 43.6479
#
#
#
# Elastic Compliance Matrix: (Units=1/GPa)
#
#
# Indices 1 2 3 4 5 6 
#
# 1 0.011072 -0.003516 -0.005461 0.000000 0.000000 0.000000
# 2 -0.003516 0.009246 0.001094 0.000000 0.000000 0.000000
# 3 -0.005461 0.001094 0.020672 0.000000 0.000000 0.000000
# 4 0.000000 0.000000 0.000000 0.008845 0.000000 0.000000
# 5 0.000000 0.000000 0.000000 0.000000 0.054950 0.000000
# 6 0.000000 0.000000 0.000000 0.000000 0.000000 0.022911
#
#
# Mechanical properties :
#
#
# Convention : Reuss Voigt Hill
#
# Bulk Modulus (GPa) = 39.64295 49.56309 44.60302
# Shear Modulus (GPa) = 32.92303 49.79327 41.35815
#
# Velocity S-wave (km/s) = 3.85042 4.73525 4.31557
# Velocity P-wave (km/s) = 6.13346 7.22605 6.70206
#
# Compressibility (1/GPa) = 0.02522516
#
# Stress axis : x y z
#
# Youngs Moduli (GPa) = 90.31471 108.15570 48.37556
#
# Poissons Ratio (x) = 0.38022 0.26417
# Poissons Ratio (y) = 0.31750 -0.05292
# Poissons Ratio (z) = 0.49319 -0.11832
#
# Static dielectric constant tensor:
#      x y z
#    x 4.283520 0.000000 0.000000 
#    y 0.000000 4.192350 0.000000 
#    z 0.000000 0.000000 3.418530 
# 
# 
# High freq. dielectric constant tensor:
#      x y z
#    x 1.886750 0.000000 0.000000 
#    y 0.000000 1.878310 0.000000 
#    z 0.000000 0.000000 1.830090 
# 
# From -- ./inp_files/29672.got.cif
#   From: 2010.03.12/outbox.cif.g09.slc.cpg/sg50_15_cif.got.tgz:29672.got - 2010.04.16 13:23:21.
