data_PCOD8205523
_publ_section_title
;
Structure prediction by ZEFSAII (Michael W. Deem and Ramdas Pophale) SiO2 
 PCOD8205523
Probable space group: P B A N
;
_chemical_formula_sum "Si O2"
_cell_formula_units_Z 48
_cell_length_a 16.297743
_cell_length_b 14.438166
_cell_length_c 8.807853
_cell_angle_alpha 90.000000
_cell_angle_beta 90.000000
_cell_angle_gamma 90.000000
_cell_volume 2072.571652
_symmetry_space_group_name_H-M "P B A N"
_symmetry_group_IT_number 50
_space_group.IT_coordinate_system_code '2'
_symmetry_cell_setting 'orthorhombic'
loop_
_space_group_symop_operation_xyz
x,y,z
1/2-x,1/2-y,z
x,1/2-y,-z
1/2-x,y,-z
-x,-y,-z
1/2+x,1/2+y,-z
-x,1/2+y,z
1/2+x,-y,z
loop_
_atom_site_type_symbol
_atom_site_label
_atom_site_fract_x
_atom_site_fract_y
_atom_site_fract_z
Si Si1 0.162101 0.500988 0.723143
Si Si2 0.868337 0.661285 0.760019
Si Si3 0.750000 0.628370 0.500000
Si Si4 0.017326 0.510501 0.177473
Si Si5 0.172081 0.703893 0.663649
Si Si6 0.519696 0.223395 0.826728
Si Si7 0.750000 0.907529 0.000000
O O1 0.185352 0.427818 0.597412
O O2 0.196043 0.596838 0.657853
O O3 0.064600 0.508456 0.730037
O O4 0.201090 0.474859 0.885609
O O5 0.809079 0.684055 0.616648
O O6 0.913830 0.560208 0.758003
O O7 0.813277 0.659429 0.912093
O O8 0.931361 0.747149 0.758586
O O9 0.042822 0.617124 0.206515
O O10 0.000000 0.500000 0.000000
O O11 0.250000 0.750000 0.747649
O O12 0.159874 0.750000 0.500000
O O13 0.089488 0.712884 0.757724
O O14 0.515121 0.250000 0.000000
#
# Coordination Sequence:
#
# PCOD8205523 Si02
#       7
#     8   8   4   8   8   8   4
#     4  11  22  44  66 102 137 190 231 296 368 432
#     4  11  24  48  71 110 145 190 250 298 373 437
#     4  10  26  42  74  98 142 198 236 294 363 445
#     4  12  23  43  73 104 140 181 242 304 367 437
#     4  11  26  42  62 100 145 186 236 294 368 446
#     4  12  25  44  72 105 141 188 241 305 366 432
#     4  10  22  40  76  98 142 188 246 303 356 441
#
# _framework density 23.159634
#
# number of rings (size 3 to 8) (size 9 to 14) (size 15 to 20)
#    0.000    0.833    5.000    1.000    7.000    2.333 
#    0.000    8.750    0.000    0.000    0.000    0.000 
#    0.000    0.000    0.000    0.000    0.000    0.000 
#
# Total GULP energy -595098.189021 kJ/mol
# GULP energy per Si atom -12397.878938 kJ/mol
# Density = 2.310692 g / cm^3
# Si number density = 23.159634 Si / 1000 Ang^3
#
#
#
# Elastic Constant Matrix: (Units=GPa)
#
#
# Indices 1 2 3 4 5 6 
#
# 1 140.7742 6.9340 48.0015 0.0000 0.0000 0.0000
# 2 6.9340 84.5742 13.3568 0.0000 0.0000 0.0000
# 3 48.0015 13.3568 112.1025 0.0000 0.0000 0.0000
# 4 0.0000 0.0000 0.0000 -6.3478 0.0000 0.0000
# 5 0.0000 0.0000 0.0000 0.0000 31.6223 0.0000
# 6 0.0000 0.0000 0.0000 0.0000 0.0000 40.0578
#
#
#
# Elastic Compliance Matrix: (Units=1/GPa)
#
#
# Indices 1 2 3 4 5 6 
#
# 1 0.008319 -0.000122 -0.003548 0.000000 0.000000 0.000000
# 2 -0.000122 0.012052 -0.001384 0.000000 0.000000 0.000000
# 3 -0.003548 -0.001384 0.010604 0.000000 0.000000 0.000000
# 4 0.000000 0.000000 0.000000 -0.157534 0.000000 0.000000
# 5 0.000000 0.000000 0.000000 0.000000 0.031623 0.000000
# 6 0.000000 0.000000 0.000000 0.000000 0.000000 0.024964
#
#
# Mechanical properties :
#
#
# Convention : Reuss Voigt Hill
#
# Bulk Modulus (GPa) = 47.91717 52.67063 50.29390
# Shear Modulus (GPa) = -94.50523 31.01035 -31.74744
#
# Velocity S-wave (km/s) = -6.39489 3.66318 -3.70646
# Velocity P-wave (km/s) = 5.81303 6.37837 1.85639
#
# Compressibility (1/GPa) = 0.02086935
#
# Stress axis : x y z
#
# Youngs Moduli (GPa) = 120.20247 82.97051 94.30032
#
# Poissons Ratio (x) = 0.01010 0.33455
# Poissons Ratio (y) = 0.01464 0.13050
# Poissons Ratio (z) = 0.42645 0.11482
#
# Static dielectric constant tensor:
#      x y z
#    x 4.542700 0.000000 0.000000 
#    y 0.000000 2.696980 0.000000 
#    z 0.000000 0.000000 3.498410 
# 
# 
# High freq. dielectric constant tensor:
#      x y z
#    x 1.935230 0.000000 0.000000 
#    y 0.000000 1.925570 0.000000 
#    z 0.000000 0.000000 1.911240 
# 
# From -- ./inp_files/14260.got.cif
#   From: 2010.03.12/outbox.cif.g09.slc.cpg/sg50_8_cif.got.tgz:14260.got - 2010.04.16 13:23:21.
