data_PCOD8205465
_publ_section_title
;
Structure prediction by ZEFSAII (Michael W. Deem and Ramdas Pophale) SiO2 
 PCOD8205465
Probable space group: P B A N
;
_chemical_formula_sum "Si O2"
_cell_formula_units_Z 52
_cell_length_a 12.066241
_cell_length_b 23.357647
_cell_length_c 9.793777
_cell_angle_alpha 90.000000
_cell_angle_beta 90.000000
_cell_angle_gamma 90.000000
_cell_volume 2760.268295
_symmetry_space_group_name_H-M "P B A N"
_symmetry_group_IT_number 50
_space_group.IT_coordinate_system_code '2'
_symmetry_cell_setting 'orthorhombic'
loop_
_space_group_symop_operation_xyz
x,y,z
1/2-x,1/2-y,z
x,1/2-y,-z
1/2-x,y,-z
-x,-y,-z
1/2+x,1/2+y,-z
-x,1/2+y,z
1/2+x,-y,z
loop_
_atom_site_type_symbol
_atom_site_label
_atom_site_fract_x
_atom_site_fract_y
_atom_site_fract_z
Si Si1 0.624782 0.318008 0.490202
Si Si2 0.972842 0.113949 0.020202
Si Si3 0.523119 0.697390 0.750611
Si Si4 0.674193 0.551687 0.882898
Si Si5 0.264768 0.362823 0.342091
Si Si6 0.750000 0.057906 0.000000
Si Si7 0.521933 0.669693 0.259696
O O1 0.621922 0.250000 0.500000
O O2 0.750000 0.341794 0.500000
O O3 0.570143 0.332718 0.344437
O O4 0.551261 0.347096 0.608549
O O5 0.014347 0.169582 0.101051
O O6 0.047679 0.060448 0.068579
O O7 0.846663 0.098309 0.057119
O O8 0.981926 0.128248 0.860659
O O9 0.643005 0.686349 0.681229
O O10 0.501776 0.764051 0.774172
O O11 0.698332 0.579261 0.735768
O O12 0.701033 0.483462 0.879459
O O13 0.750000 0.582103 0.000000
O O14 0.250000 0.378298 0.500000
O O15 0.150945 0.339118 0.284017
#
# Coordination Sequence:
#
# PCOD8205465 Si02
#       7
#     8   8   8   8   8   4   8
#     4   9  19  34  50  70 112 161 187 215 266 318
#     4  11  22  37  59  86 111 146 192 230 278 340
#     4  10  22  34  54  86 120 150 186 228 269 329
#     4   9  20  39  61  82 107 139 182 245 294 326
#     4  11  20  35  60  87 112 146 189 229 284 344
#     4  10  22  40  65  78 103 150 192 234 292 338
#     4  11  20  35  55  84 119 154 185 225 272 330
#
# _framework density 18.838749
#
# number of rings (size 3 to 8) (size 9 to 14) (size 15 to 20)
#    0.462    1.385    3.077    1.385    2.154    0.615 
#    0.000    2.308    3.385    2.769    0.000    0.000 
#    0.000    0.000    0.000    0.000    0.000    0.000 
#
# Total GULP energy -644681.693542 kJ/mol
# GULP energy per Si atom -12397.724876 kJ/mol
# Density = 1.879587 g / cm^3
# Si number density = 18.838749 Si / 1000 Ang^3
#
#
#
# Elastic Constant Matrix: (Units=GPa)
#
#
# Indices 1 2 3 4 5 6 
#
# 1 144.2238 19.5558 23.6929 0.0000 0.0000 0.0000
# 2 19.5558 51.4557 20.0268 0.0000 0.0000 0.0000
# 3 23.6929 20.0268 87.6668 0.0000 0.0000 0.0000
# 4 0.0000 0.0000 0.0000 10.1631 0.0000 0.0000
# 5 0.0000 0.0000 0.0000 0.0000 26.2196 0.0000
# 6 0.0000 0.0000 0.0000 0.0000 0.0000 21.9993
#
#
#
# Elastic Compliance Matrix: (Units=1/GPa)
#
#
# Indices 1 2 3 4 5 6 
#
# 1 0.007488 -0.002259 -0.001508 0.000000 0.000000 0.000000
# 2 -0.002259 0.022012 -0.004418 0.000000 0.000000 0.000000
# 3 -0.001508 -0.004418 0.012824 0.000000 0.000000 0.000000
# 4 0.000000 0.000000 0.000000 0.098396 0.000000 0.000000
# 5 0.000000 0.000000 0.000000 0.000000 0.038139 0.000000
# 6 0.000000 0.000000 0.000000 0.000000 0.000000 0.045456
#
#
# Mechanical properties :
#
#
# Convention : Reuss Voigt Hill
#
# Bulk Modulus (GPa) = 38.52923 45.54416 42.03670
# Shear Modulus (GPa) = 20.05334 26.34776 23.20055
#
# Velocity S-wave (km/s) = 3.26617 3.74384 3.51313
# Velocity P-wave (km/s) = 5.89239 6.55108 6.23045
#
# Compressibility (1/GPa) = 0.02595432
#
# Stress axis : x y z
#
# Youngs Moduli (GPa) = 133.55368 45.42927 77.98166
#
# Poissons Ratio (x) = 0.10262 0.11756
# Poissons Ratio (y) = 0.30169 0.34453
# Poissons Ratio (z) = 0.20134 0.20071
#
# Static dielectric constant tensor:
#      x y z
#    x 3.629470 0.000000 0.000000 
#    y 0.000000 3.070380 0.000000 
#    z 0.000000 0.000000 3.422340 
# 
# 
# High freq. dielectric constant tensor:
#      x y z
#    x 1.747850 0.000000 0.000000 
#    y 0.000000 1.699650 0.000000 
#    z 0.000000 0.000000 1.726510 
# 
# From -- ./inp_files/11708.got.cif
#   From: 2010.03.12/outbox.cif.g09.slc.cpg/sg50_6_cif.got.tgz:11708.got - 2010.04.16 13:23:21.
