data_PCOD8205697
_publ_section_title
;
Structure prediction by ZEFSAII (Michael W. Deem and Ramdas Pophale) SiO2 
 PCOD8205697
Probable space group: P B A N
;
_chemical_formula_sum "Si O2"
_cell_formula_units_Z 56
_cell_length_a 8.586391
_cell_length_b 13.712129
_cell_length_c 21.075311
_cell_angle_alpha 90.000000
_cell_angle_beta 90.000000
_cell_angle_gamma 90.000000
_cell_volume 2481.358666
_symmetry_space_group_name_H-M "P B A N"
_symmetry_group_IT_number 50
_space_group.IT_coordinate_system_code '2'
_symmetry_cell_setting 'orthorhombic'
loop_
_space_group_symop_operation_xyz
x,y,z
1/2-x,1/2-y,z
x,1/2-y,-z
1/2-x,y,-z
-x,-y,-z
1/2+x,1/2+y,-z
-x,1/2+y,z
1/2+x,-y,z
loop_
_atom_site_type_symbol
_atom_site_label
_atom_site_fract_x
_atom_site_fract_y
_atom_site_fract_z
Si Si1 0.090549 0.198868 0.127192
Si Si2 0.606339 0.072345 0.959173
Si Si3 0.909892 0.712343 0.429030
Si Si4 0.955847 0.127264 0.635314
Si Si5 0.471820 0.631266 0.216578
Si Si6 0.744010 0.978095 0.426261
Si Si7 0.258466 0.014072 0.164870
O O1 0.250000 0.250000 0.102980
O O2 0.003233 0.270216 0.176561
O O3 0.125346 0.097163 0.162663
O O4 0.983927 0.168625 0.066958
O O5 0.672817 0.003139 0.904461
O O6 0.750000 0.113379 0.000000
O O7 0.500000 0.000000 0.000000
O O8 0.750000 0.750000 0.396544
O O9 0.914328 0.750000 0.500000
O O10 0.053295 0.762619 0.392475
O O11 0.906210 0.595548 0.423743
O O12 0.964397 0.148707 0.709295
O O13 0.101003 0.070777 0.602183
O O14 0.798203 0.070450 0.617398
O O15 0.309678 0.586591 0.191908
O O16 0.606544 0.551607 0.210158
O O17 0.750000 0.010311 0.500000
#
# Coordination Sequence:
#
# PCOD8205697 Si02
#       7
#     8   8   8   8   8   8   8
#     4  10  24  45  74 106 144 190 231 292 354 419
#     4  12  23  46  80 109 143 186 235 292 359 431
#     4   9  17  35  59  88 127 167 215 284 337 403
#     4  11  23  38  67  99 124 183 239 272 345 435
#     4  11  24  43  69  98 143 190 236 283 356 430
#     4  11  21  39  66  96 133 174 229 298 355 404
#     4  11  22  46  68  99 148 181 221 299 347 404
#
# _framework density 22.568282
#
# number of rings (size 3 to 8) (size 9 to 14) (size 15 to 20)
#    0.000    1.286    5.714    1.286    0.000    6.857 
#    0.000   14.286    3.143    0.000    0.000    0.000 
#    0.000    0.000    0.000    0.000    0.000    0.000 
#
# Total GULP energy -694012.154437 kJ/mol
# GULP energy per Si atom -12393.074186 kJ/mol
# Density = 2.251692 g / cm^3
# Si number density = 22.568282 Si / 1000 Ang^3
#
#
#
# Elastic Constant Matrix: (Units=GPa)
#
#
# Indices 1 2 3 4 5 6 
#
# 1 58.8746 34.5840 44.1029 0.0000 0.0000 0.0000
# 2 34.5840 116.1984 53.5011 0.0000 0.0000 0.0000
# 3 44.1029 53.5011 136.8646 0.0000 0.0000 0.0000
# 4 0.0000 0.0000 0.0000 33.1302 0.0000 0.0000
# 5 0.0000 0.0000 0.0000 0.0000 19.2720 0.0000
# 6 0.0000 0.0000 0.0000 0.0000 0.0000 20.7169
#
#
#
# Elastic Compliance Matrix: (Units=1/GPa)
#
#
# Indices 1 2 3 4 5 6 
#
# 1 0.024093 -0.004385 -0.006049 0.000000 0.000000 0.000000
# 2 -0.004385 0.011293 -0.003001 0.000000 0.000000 0.000000
# 3 -0.006049 -0.003001 0.010429 0.000000 0.000000 0.000000
# 4 0.000000 0.000000 0.000000 0.030184 0.000000 0.000000
# 5 0.000000 0.000000 0.000000 0.000000 0.051889 0.000000
# 6 0.000000 0.000000 0.000000 0.000000 0.000000 0.048270
#
#
# Mechanical properties :
#
#
# Convention : Reuss Voigt Hill
#
# Bulk Modulus (GPa) = 52.79067 64.03484 58.41275
# Shear Modulus (GPa) = 23.88413 26.60714 25.24563
#
# Velocity S-wave (km/s) = 3.25669 3.43733 3.34823
# Velocity P-wave (km/s) = 6.13055 6.64748 6.39424
#
# Compressibility (1/GPa) = 0.01894274
#
# Stress axis : x y z
#
# Youngs Moduli (GPa) = 41.50606 88.54939 95.88587
#
# Poissons Ratio (x) = 0.38833 0.58004
# Poissons Ratio (y) = 0.18202 0.28779
# Poissons Ratio (z) = 0.25108 0.26577
#
# Static dielectric constant tensor:
#      x y z
#    x 4.434720 0.000000 0.000000 
#    y 0.000000 4.390230 0.000000 
#    z 0.000000 0.000000 3.967410 
# 
# 
# High freq. dielectric constant tensor:
#      x y z
#    x 1.886650 0.000000 0.000000 
#    y 0.000000 1.896750 0.000000 
#    z 0.000000 0.000000 1.880000 
# 
# From -- ./inp_files/30633.got.cif
#   From: 2010.03.12/outbox.cif.g09.slc.cpg/sg50_16_cif.got.tgz:30633.got - 2010.04.16 13:23:21.
