data_PCOD8205526
_publ_section_title
;
Structure prediction by ZEFSAII (Michael W. Deem and Ramdas Pophale) SiO2 
 PCOD8205526
Probable space group: P B A N
;
_chemical_formula_sum "Si O2"
_cell_formula_units_Z 34
_cell_length_a 5.057105
_cell_length_b 13.058013
_cell_length_c 23.657435
_cell_angle_alpha 90.000000
_cell_angle_beta 90.000000
_cell_angle_gamma 90.000000
_cell_volume 1562.236294
_symmetry_space_group_name_H-M "P B A N"
_symmetry_group_IT_number 50
_space_group.IT_coordinate_system_code '2'
_symmetry_cell_setting 'orthorhombic'
loop_
_space_group_symop_operation_xyz
x,y,z
1/2-x,1/2-y,z
x,1/2-y,-z
1/2-x,y,-z
-x,-y,-z
1/2+x,1/2+y,-z
-x,1/2+y,z
1/2+x,-y,z
loop_
_atom_site_type_symbol
_atom_site_label
_atom_site_fract_x
_atom_site_fract_y
_atom_site_fract_z
Si Si1 0.338549 0.565603 0.202679
Si Si2 0.237740 0.435322 0.564478
Si Si3 0.750000 0.250000 0.000000
Si Si4 0.602759 0.068517 0.072731
Si Si5 0.750000 0.250000 0.281901
Si Si6 0.250000 0.250000 0.355725
O O1 0.549949 0.478048 0.216057
O O2 0.386485 0.600259 0.138259
O O3 0.373429 0.661747 0.242984
O O4 0.250000 0.396253 0.500000
O O5 0.439575 0.528274 0.576375
O O6 0.328214 0.344926 0.605281
O O7 0.571520 0.324632 0.961008
O O8 0.367934 0.992022 0.056242
O O9 0.502956 0.285465 0.319462
#
# Coordination Sequence:
#
# PCOD8205526 Si02
#       6
#     8   8   2   8   4   4
#     4  10  22  42  62  82 117 158 197 241 285 345
#     4  10  22  41  63  86 117 158 196 233 288 350
#     4  12  22  38  64  88 124 152 184 250 298 344
#     4  10  23  40  60  88 117 153 198 238 289 350
#     4  12  25  38  59  91 116 155 198 236 298 348
#     4  12  25  38  60  92 124 147 192 250 290 340
#
# _framework density 21.763674000000002
#
# number of rings (size 3 to 8) (size 9 to 14) (size 15 to 20)
#    0.000    1.412    0.000    4.588    0.000    7.529 
#    0.000   11.765    0.000    0.000    0.000    0.000 
#    0.000    0.000    0.000    0.000    0.000    0.000 
#
# Total GULP energy -421716.963933 kJ/mol
# GULP energy per Si atom -12403.440116 kJ/mol
# Density = 2.171414 g / cm^3
# Si number density = 21.763674 Si / 1000 Ang^3
#
#
#
# Elastic Constant Matrix: (Units=GPa)
#
#
# Indices 1 2 3 4 5 6 
#
# 1 109.3497 15.1692 36.4600 0.0000 0.0000 0.0000
# 2 15.1692 107.2298 72.0886 0.0000 0.0000 0.0000
# 3 36.4600 72.0886 97.9621 0.0000 0.0000 0.0000
# 4 0.0000 0.0000 0.0000 47.6320 0.0000 0.0000
# 5 0.0000 0.0000 0.0000 0.0000 24.0706 0.0000
# 6 0.0000 0.0000 0.0000 0.0000 0.0000 17.6325
#
#
#
# Elastic Compliance Matrix: (Units=1/GPa)
#
#
# Indices 1 2 3 4 5 6 
#
# 1 0.010722 0.002308 -0.005688 0.000000 0.000000 0.000000
# 2 0.002308 0.018953 -0.014806 0.000000 0.000000 0.000000
# 3 -0.005688 -0.014806 0.023221 0.000000 0.000000 0.000000
# 4 0.000000 0.000000 0.000000 0.020994 0.000000 0.000000
# 5 0.000000 0.000000 0.000000 0.000000 0.041545 0.000000
# 6 0.000000 0.000000 0.000000 0.000000 0.000000 0.056713
#
#
# Mechanical properties :
#
#
# Convention : Reuss Voigt Hill
#
# Bulk Modulus (GPa) = 60.52771 62.44190 61.48481
# Shear Modulus (GPa) = 23.36128 30.58859 26.97494
#
# Velocity S-wave (km/s) = 3.27984 3.75305 3.52440
# Velocity P-wave (km/s) = 6.49730 6.89447 6.69883
#
# Compressibility (1/GPa) = 0.01652136
#
# Stress axis : x y z
#
# Youngs Moduli (GPa) = 93.27005 52.76133 43.06481
#
# Poissons Ratio (x) = -0.12175 0.24497
# Poissons Ratio (y) = -0.21522 0.63763
# Poissons Ratio (z) = 0.53056 0.78120
#
# Static dielectric constant tensor:
#      x y z
#    x 3.878760 0.000000 0.000000 
#    y 0.000000 3.644760 0.000000 
#    z 0.000000 0.000000 4.167860 
# 
# 
# High freq. dielectric constant tensor:
#      x y z
#    x 1.860340 0.000000 0.000000 
#    y 0.000000 1.846820 0.000000 
#    z 0.000000 0.000000 1.874710 
# 
# From -- ./inp_files/31335.got.cif
#   From: 2010.03.12/outbox.cif.g09.slc.cpg/sg50_16_cif.got.tgz:31335.got - 2010.04.16 13:23:21.
