data_PCOD8205660
_publ_section_title
;
Structure prediction by ZEFSAII (Michael W. Deem and Ramdas Pophale) SiO2 
 PCOD8205660
Probable space group: P B A N
;
_chemical_formula_sum "Si O2"
_cell_formula_units_Z 36
_cell_length_a 9.022008
_cell_length_b 21.004441
_cell_length_c 8.715447
_cell_angle_alpha 90.000000
_cell_angle_beta 90.000000
_cell_angle_gamma 90.000000
_cell_volume 1651.596683
_symmetry_space_group_name_H-M "P B A N"
_symmetry_group_IT_number 50
_space_group.IT_coordinate_system_code '2'
_symmetry_cell_setting 'orthorhombic'
loop_
_space_group_symop_operation_xyz
x,y,z
1/2-x,1/2-y,z
x,1/2-y,-z
1/2-x,y,-z
-x,-y,-z
1/2+x,1/2+y,-z
-x,1/2+y,z
1/2+x,-y,z
loop_
_atom_site_type_symbol
_atom_site_label
_atom_site_fract_x
_atom_site_fract_y
_atom_site_fract_z
Si Si1 0.424073 0.176310 0.969728
Si Si2 0.750000 0.750000 0.500000
Si Si3 0.497923 0.169968 0.630861
Si Si4 0.412091 0.557604 0.434011
Si Si5 0.589376 0.441585 0.923693
Si Si6 0.750000 0.250000 0.500000
O O1 0.480810 0.147939 0.806085
O O2 0.473433 0.250000 0.000000
O O3 0.250000 0.169204 0.000000
O O4 0.505930 0.126519 0.079720
O O5 0.649126 0.788976 0.385041
O O6 0.495160 0.118042 0.495332
O O7 0.649489 0.209215 0.614956
O O8 0.250000 0.563545 0.500000
O O9 0.500000 0.500000 0.500000
O O10 0.394578 0.545801 0.255234
O O11 0.750000 0.436412 0.000000
O O12 0.500000 0.500000 0.000000
#
# Coordination Sequence:
#
# PCOD8205660 Si02
#       6
#     8   2   8   8   8   2
#     4  11  26  44  70 105 148 186 237 289 357 417
#     4  10  24  38  72  98 140 190 230 280 352 406
#     4  11  24  44  70 102 144 185 239 290 353 425
#     4  12  27  46  72 101 136 182 239 292 353 422
#     4  12  27  48  73 101 141 186 236 294 361 427
#     4  10  24  42  72  98 144 178 242 284 356 418
#
# _framework density 21.797087999999999
#
# number of rings (size 3 to 8) (size 9 to 14) (size 15 to 20)
#    0.000    0.667    1.111    6.000   10.889    0.444 
#    0.000    0.000    0.000    0.000    0.000    0.000 
#    0.000    0.000    0.000    0.000    0.000    0.000 
#
# Total GULP energy -446214.644957 kJ/mol
# GULP energy per Si atom -12394.851249 kJ/mol
# Density = 2.174748 g / cm^3
# Si number density = 21.797088 Si / 1000 Ang^3
#
#
#
# Elastic Constant Matrix: (Units=GPa)
#
#
# Indices 1 2 3 4 5 6 
#
# 1 143.8822 65.1503 43.5498 0.0000 0.0000 0.0000
# 2 65.1503 144.3616 35.2110 0.0000 0.0000 0.0000
# 3 43.5498 35.2110 168.3335 0.0000 0.0000 0.0000
# 4 0.0000 0.0000 0.0000 37.3983 0.0000 0.0000
# 5 0.0000 0.0000 0.0000 0.0000 30.6018 0.0000
# 6 0.0000 0.0000 0.0000 0.0000 0.0000 41.1851
#
#
#
# Elastic Compliance Matrix: (Units=1/GPa)
#
#
# Indices 1 2 3 4 5 6 
#
# 1 0.009117 -0.003729 -0.001578 0.000000 0.000000 0.000000
# 2 -0.003729 0.008825 -0.000881 0.000000 0.000000 0.000000
# 3 -0.001578 -0.000881 0.006533 0.000000 0.000000 0.000000
# 4 0.000000 0.000000 0.000000 0.026739 0.000000 0.000000
# 5 0.000000 0.000000 0.000000 0.000000 0.032678 0.000000
# 6 0.000000 0.000000 0.000000 0.000000 0.000000 0.024281
#
#
# Mechanical properties :
#
#
# Convention : Reuss Voigt Hill
#
# Bulk Modulus (GPa) = 82.66535 82.71106 82.68820
# Shear Modulus (GPa) = 40.13402 42.68145 41.40774
#
# Velocity S-wave (km/s) = 4.29564 4.42987 4.36327
# Velocity P-wave (km/s) = 7.91269 8.01207 7.96254
#
# Compressibility (1/GPa) = 0.01209697
#
# Stress axis : x y z
#
# Youngs Moduli (GPa) = 109.69082 113.31454 153.06263
#
# Poissons Ratio (x) = 0.42258 0.24161
# Poissons Ratio (y) = 0.40907 0.13487
# Poissons Ratio (z) = 0.17315 0.09985
#
# Static dielectric constant tensor:
#      x y z
#    x 4.325700 0.000000 0.000000 
#    y 0.000000 3.908010 0.000000 
#    z 0.000000 0.000000 0.337740 
# 
# 
# High freq. dielectric constant tensor:
#      x y z
#    x 1.873730 0.000000 0.000000 
#    y 0.000000 1.868030 0.000000 
#    z 0.000000 0.000000 1.869470 
# 
# From -- ./inp_files/9311.got.cif
#   From: 2010.03.12/outbox.cif.g09.slc.cpg/sg50_5_cif.got.tgz:9311.got - 2010.04.16 13:23:21.
