data_PCOD8205605
_publ_section_title
;
Structure prediction by ZEFSAII (Michael W. Deem and Ramdas Pophale) SiO2 
 PCOD8205605
Probable space group: P B A N
;
_chemical_formula_sum "Si O2"
_cell_formula_units_Z 32
_cell_length_a 8.899974
_cell_length_b 27.839020
_cell_length_c 5.577490
_cell_angle_alpha 90.000000
_cell_angle_beta 90.000000
_cell_angle_gamma 90.000000
_cell_volume 1381.915478
_symmetry_space_group_name_H-M "P B A N"
_symmetry_group_IT_number 50
_space_group.IT_coordinate_system_code '2'
_symmetry_cell_setting 'orthorhombic'
loop_
_space_group_symop_operation_xyz
x,y,z
1/2-x,1/2-y,z
x,1/2-y,-z
1/2-x,y,-z
-x,-y,-z
1/2+x,1/2+y,-z
-x,1/2+y,z
1/2+x,-y,z
loop_
_atom_site_type_symbol
_atom_site_label
_atom_site_fract_x
_atom_site_fract_y
_atom_site_fract_z
Si Si1 0.750000 0.436677 0.000000
Si Si2 0.421131 0.768507 0.253695
Si Si3 0.010705 0.456081 0.323462
Si Si4 0.521334 0.380305 0.288270
Si Si5 0.750000 0.922799 0.000000
O O1 0.620647 0.466869 0.867629
O O2 0.827207 0.404299 0.801416
O O3 0.250000 0.750000 0.252865
O O4 0.500835 0.750000 0.500000
O O5 0.439813 0.824866 0.284390
O O6 0.494885 0.750000 0.000000
O O7 0.172333 0.457818 0.193877
O O8 0.000000 0.500000 0.500000
O O9 0.003496 0.403425 0.448387
O O10 0.376932 0.389406 0.120211
#
# Coordination Sequence:
#
# PCOD8205605 Si02
#       5
#     4   8   8   8   4
#     4  10  24  41  73 104 146 184 251 300 369 442
#     4  10  23  40  71 108 146 186 253 318 383 446
#     4  11  26  46  72 108 146 200 251 307 383 461
#     4  11  24  43  74 104 147 194 243 312 380 454
#     4  10  26  47  71  98 154 190 243 306 383 454
#
# _framework density 23.156264
#
# number of rings (size 3 to 8) (size 9 to 14) (size 15 to 20)
#    0.000    1.500    0.000    3.000   14.000   10.000 
#    0.000    4.375    0.000    0.000    0.000    0.000 
#    0.000    0.000    0.000    0.000    0.000    0.000 
#
# Total GULP energy -396576.325841 kJ/mol
# GULP energy per Si atom -12393.010183 kJ/mol
# Density = 2.310356 g / cm^3
# Si number density = 23.156264 Si / 1000 Ang^3
#
#
#
# Elastic Constant Matrix: (Units=GPa)
#
#
# Indices 1 2 3 4 5 6 
#
# 1 113.8732 42.4361 32.7210 0.0000 0.0000 0.0000
# 2 42.4361 160.5572 61.0773 0.0000 0.0000 0.0000
# 3 32.7210 61.0773 165.9857 0.0000 0.0000 0.0000
# 4 0.0000 0.0000 0.0000 40.9312 0.0000 0.0000
# 5 0.0000 0.0000 0.0000 0.0000 33.3882 0.0000
# 6 0.0000 0.0000 0.0000 0.0000 0.0000 35.9447
#
#
#
# Elastic Compliance Matrix: (Units=1/GPa)
#
#
# Indices 1 2 3 4 5 6 
#
# 1 0.009927 -0.002185 -0.001153 0.000000 0.000000 0.000000
# 2 -0.002185 0.007723 -0.002411 0.000000 0.000000 0.000000
# 3 -0.001153 -0.002411 0.007139 0.000000 0.000000 0.000000
# 4 0.000000 0.000000 0.000000 0.024431 0.000000 0.000000
# 5 0.000000 0.000000 0.000000 0.000000 0.029951 0.000000
# 6 0.000000 0.000000 0.000000 0.000000 0.000000 0.027820
#
#
# Mechanical properties :
#
#
# Convention : Reuss Voigt Hill
#
# Bulk Modulus (GPa) = 75.23852 79.20942 77.22397
# Shear Modulus (GPa) = 40.67663 42.33161 41.50412
#
# Velocity S-wave (km/s) = 4.19575 4.28025 4.23821
# Velocity P-wave (km/s) = 7.48562 7.66212 7.57439
#
# Compressibility (1/GPa) = 0.01329106
#
# Stress axis : x y z
#
# Youngs Moduli (GPa) = 100.73191 129.48204 140.07425
#
# Poissons Ratio (x) = 0.28296 0.16149
# Poissons Ratio (y) = 0.22013 0.33773
# Poissons Ratio (z) = 0.11613 0.31219
#
# Static dielectric constant tensor:
#      x y z
#    x 4.030770 0.000000 0.000000 
#    y 0.000000 3.932130 0.000000 
#    z 0.000000 0.000000 5.520450 
# 
# 
# High freq. dielectric constant tensor:
#      x y z
#    x 1.906230 0.000000 0.000000 
#    y 0.000000 1.908530 0.000000 
#    z 0.000000 0.000000 1.945880 
# 
# From -- ./inp_files/1140.got.cif
#   From: 2010.03.12/outbox.cif.g09.slc.cpg/sg50_1_cif.got.tgz:1140.got - 2010.04.16 13:23:21.
