data_PCOD8205892
_publ_section_title
;
Structure prediction by ZEFSAII (Michael W. Deem and Ramdas Pophale) SiO2 
 PCOD8205892
Probable space group: P B A N
;
_chemical_formula_sum "Si O2"
_cell_formula_units_Z 40
_cell_length_a 8.509271
_cell_length_b 18.723421
_cell_length_c 10.850166
_cell_angle_alpha 90.000000
_cell_angle_beta 90.000000
_cell_angle_gamma 90.000000
_cell_volume 1728.677345
_symmetry_space_group_name_H-M "P B A N"
_symmetry_group_IT_number 50
_space_group.IT_coordinate_system_code '2'
_symmetry_cell_setting 'orthorhombic'
loop_
_space_group_symop_operation_xyz
x,y,z
1/2-x,1/2-y,z
x,1/2-y,-z
1/2-x,y,-z
-x,-y,-z
1/2+x,1/2+y,-z
-x,1/2+y,z
1/2+x,-y,z
loop_
_atom_site_type_symbol
_atom_site_label
_atom_site_fract_x
_atom_site_fract_y
_atom_site_fract_z
Si Si1 0.436838 0.578955 0.507749
Si Si2 0.430801 0.772795 0.131324
Si Si3 0.594231 0.898376 0.237583
Si Si4 0.058408 0.149064 0.735936
Si Si5 0.111765 0.961216 0.091288
O O1 0.250000 0.580782 0.500000
O O2 0.500000 0.500000 0.500000
O O3 0.496339 0.607293 0.637440
O O4 0.508093 0.627062 0.400239
O O5 0.250000 0.750000 0.140616
O O6 0.474634 0.857182 0.144160
O O7 0.519237 0.731907 0.242307
O O8 0.500646 0.750000 0.000000
O O9 0.756618 0.857417 0.249621
O O10 0.645283 0.978586 0.196416
O O11 0.962069 0.106294 0.840962
O O12 0.250000 0.935350 0.000000
O O13 0.000000 0.000000 0.000000
#
# Coordination Sequence:
#
# PCOD8205892 Si02
#       5
#     8   8   8   8   8
#     4  12  26  45  72 104 142 183 242 299 362 428
#     4  11  27  46  72 104 148 190 236 291 364 436
#     4  12  26  47  71 105 142 190 240 298 357 427
#     4  12  26  46  73 103 143 189 240 298 357 426
#     4  12  26  41  70 105 143 183 238 293 356 422
#
# _framework density 23.13908
#
# number of rings (size 3 to 8) (size 9 to 14) (size 15 to 20)
#    0.000    0.200    4.000    4.800    8.400    1.600 
#    0.000    4.000    0.000    0.000    0.000    0.000 
#    0.000    0.000    0.000    0.000    0.000    0.000 
#
# Total GULP energy -495864.839929 kJ/mol
# GULP energy per Si atom -12396.620998 kJ/mol
# Density = 2.308641 g / cm^3
# Si number density = 23.139080 Si / 1000 Ang^3
#
#
#
# Elastic Constant Matrix: (Units=GPa)
#
#
# Indices 1 2 3 4 5 6 
#
# 1 144.8433 14.4742 33.3202 0.0000 0.0000 0.0000
# 2 14.4742 78.2304 16.5802 0.0000 0.0000 0.0000
# 3 33.3202 16.5802 139.7264 0.0000 0.0000 0.0000
# 4 0.0000 0.0000 0.0000 14.6203 0.0000 0.0000
# 5 0.0000 0.0000 0.0000 0.0000 46.6414 0.0000
# 6 0.0000 0.0000 0.0000 0.0000 0.0000 40.9180
#
#
#
# Elastic Compliance Matrix: (Units=1/GPa)
#
#
# Indices 1 2 3 4 5 6 
#
# 1 0.007383 -0.001018 -0.001640 0.000000 0.000000 0.000000
# 2 -0.001018 0.013253 -0.001330 0.000000 0.000000 0.000000
# 3 -0.001640 -0.001330 0.007706 0.000000 0.000000 0.000000
# 4 0.000000 0.000000 0.000000 0.068398 0.000000 0.000000
# 5 0.000000 0.000000 0.000000 0.000000 0.021440 0.000000
# 6 0.000000 0.000000 0.000000 0.000000 0.000000 0.024439
#
#
# Mechanical properties :
#
#
# Convention : Reuss Voigt Hill
#
# Bulk Modulus (GPa) = 49.10210 54.61659 51.85934
# Shear Modulus (GPa) = 31.76948 40.33096 36.05022
#
# Velocity S-wave (km/s) = 3.70939 4.17943 3.95141
# Velocity P-wave (km/s) = 6.29386 6.85165 6.57866
#
# Compressibility (1/GPa) = 0.02036573
#
# Stress axis : x y z
#
# Youngs Moduli (GPa) = 135.44624 75.45444 129.77468
#
# Poissons Ratio (x) = 0.07685 0.21280
# Poissons Ratio (y) = 0.13795 0.17257
# Poissons Ratio (z) = 0.22210 0.10034
#
# Static dielectric constant tensor:
#      x y z
#    x 4.139170 0.000000 0.000000 
#    y 0.000000 4.533710 0.000000 
#    z 0.000000 0.000000 4.235920 
# 
# 
# High freq. dielectric constant tensor:
#      x y z
#    x 1.927910 0.000000 0.000000 
#    y 0.000000 1.920910 0.000000 
#    z 0.000000 0.000000 1.928390 
# 
# From -- ./inp_files/18728.got.cif
#   From: 2010.03.12/outbox.cif.g09.slc.cpg/sg50_10_cif.got.tgz:18728.got - 2010.04.16 13:23:21.
