data_PCOD8205125
_publ_section_title
;
Structure prediction by ZEFSAII (Michael W. Deem and Ramdas Pophale) SiO2 
 PCOD8205125
Probable space group: P B A N
;
_chemical_formula_sum "Si O2"
_cell_formula_units_Z 64
_cell_length_a 9.552640
_cell_length_b 31.814151
_cell_length_c 11.235667
_cell_angle_alpha 90.000000
_cell_angle_beta 90.000000
_cell_angle_gamma 90.000000
_cell_volume 3414.621799
_symmetry_space_group_name_H-M "P B A N"
_symmetry_group_IT_number 50
_space_group.IT_coordinate_system_code '2'
_symmetry_cell_setting 'orthorhombic'
loop_
_space_group_symop_operation_xyz
x,y,z
1/2-x,1/2-y,z
x,1/2-y,-z
1/2-x,y,-z
-x,-y,-z
1/2+x,1/2+y,-z
-x,1/2+y,z
1/2+x,-y,z
loop_
_atom_site_type_symbol
_atom_site_label
_atom_site_fract_x
_atom_site_fract_y
_atom_site_fract_z
Si Si1 0.277234 0.562148 0.635687
Si Si2 0.416313 0.542582 0.995374
Si Si3 0.912593 0.828114 0.139966
Si Si4 0.721066 0.536161 0.360239
Si Si5 0.406575 0.327504 0.134243
Si Si6 0.964877 0.584312 0.236743
Si Si7 0.408484 0.749749 0.858563
Si Si8 0.988005 0.086359 0.765024
O O1 0.250000 0.568918 0.500000
O O2 0.276053 0.512983 0.670397
O O3 0.429361 0.582062 0.653551
O O4 0.167437 0.588921 0.712460
O O5 0.477283 0.569630 0.102183
O O6 0.250000 0.534891 0.000000
O O7 0.500000 0.500000 0.000000
O O8 0.452338 0.566271 0.875043
O O9 0.753077 0.812073 0.147639
O O10 0.012128 0.791069 0.188187
O O11 0.940220 0.867986 0.225232
O O12 0.945488 0.838959 0.002039
O O13 0.750000 0.544797 0.500000
O O14 0.830270 0.557233 0.270645
O O15 0.571490 0.555401 0.324230
O O16 0.421185 0.368117 0.215846
O O17 0.509568 0.291697 0.185423
O O18 0.250000 0.750000 0.808573
O O19 0.409422 0.750000 0.000000
#
# Coordination Sequence:
#
# PCOD8205125 Si02
#       8
#     8   8   8   8   8   8   8   8
#     4  11  24  41  59  82 115 161 212 261 298 334
#     4  12  26  38  56  85 122 161 198 244 309 374
#     4  10  20  36  55  85 122 157 190 231 290 364
#     4  11  24  43  63  84 115 161 216 261 296 342
#     4  10  20  36  55  85 122 157 190 231 290 364
#     4  12  23  38  60  88 120 158 200 249 302 358
#     4   9  19  33  57  85 118 155 190 231 284 350
#     4  12  23  38  60  88 120 158 200 249 302 358
#
# _framework density 18.742923999999999
#
# number of rings (size 3 to 8) (size 9 to 14) (size 15 to 20)
#    0.000    1.125    3.750    3.375    3.500    3.500 
#    0.000    0.000    0.000    0.000    0.000    5.250 
#    0.000    0.000    0.000    0.000    0.000    0.000 
#
# Total GULP energy -793719.833109 kJ/mol
# GULP energy per Si atom -12401.872392 kJ/mol
# Density = 1.870026 g / cm^3
# Si number density = 18.742924 Si / 1000 Ang^3
#
#
#
# Elastic Constant Matrix: (Units=GPa)
#
#
# Indices 1 2 3 4 5 6 
#
# 1 98.5160 54.2557 18.0843 0.0000 0.0000 0.0000
# 2 54.2557 82.2570 31.7729 0.0000 0.0000 0.0000
# 3 18.0843 31.7729 51.0102 0.0000 0.0000 0.0000
# 4 0.0000 0.0000 0.0000 13.9105 0.0000 0.0000
# 5 0.0000 0.0000 0.0000 0.0000 29.5813 0.0000
# 6 0.0000 0.0000 0.0000 0.0000 0.0000 33.5923
#
#
#
# Elastic Compliance Matrix: (Units=1/GPa)
#
#
# Indices 1 2 3 4 5 6 
#
# 1 0.015996 -0.011009 0.001186 0.000000 0.000000 0.000000
# 2 -0.011009 0.023585 -0.010788 0.000000 0.000000 0.000000
# 3 0.001186 -0.010788 0.025903 0.000000 0.000000 0.000000
# 4 0.000000 0.000000 0.000000 0.071888 0.000000 0.000000
# 5 0.000000 0.000000 0.000000 0.000000 0.033805 0.000000
# 6 0.000000 0.000000 0.000000 0.000000 0.000000 0.029769
#
#
# Mechanical properties :
#
#
# Convention : Reuss Voigt Hill
#
# Bulk Modulus (GPa) = 41.21484 48.88991 45.05237
# Shear Modulus (GPa) = 19.97969 23.92818 21.95394
#
# Velocity S-wave (km/s) = 3.26849 3.57690 3.42617
# Velocity P-wave (km/s) = 6.02339 6.57268 6.30402
#
# Compressibility (1/GPa) = 0.02426311
#
# Stress axis : x y z
#
# Youngs Moduli (GPa) = 62.51652 42.39953 38.60597
#
# Poissons Ratio (x) = 0.46677 -0.04579
# Poissons Ratio (y) = 0.68823 0.41647
# Poissons Ratio (z) = -0.07416 0.45739
#
# Static dielectric constant tensor:
#      x y z
#    x 3.696380 0.000000 0.000000 
#    y 0.000000 3.406050 0.000000 
#    z 0.000000 0.000000 3.280120 
# 
# 
# High freq. dielectric constant tensor:
#      x y z
#    x 1.749790 0.000000 0.000000 
#    y 0.000000 1.722290 0.000000 
#    z 0.000000 0.000000 1.700630 
# 
# From -- ./inp_files/19558.got.cif
#   From: 2010.03.12/outbox.cif.g09.slc.cpg/sg50_10_cif.got.tgz:19558.got - 2010.04.16 13:23:21.
