data_PCOD8205985
_publ_section_title
;
Structure prediction by ZEFSAII (Michael W. Deem and Ramdas Pophale) SiO2 
 PCOD8205985
Probable space group: P M M A
;
_chemical_formula_sum "Si O2"
_cell_formula_units_Z 32
_cell_length_a 14.770141
_cell_length_b 12.123796
_cell_length_c 9.195628
_cell_angle_alpha 90.000000
_cell_angle_beta 90.000000
_cell_angle_gamma 90.000000
_cell_volume 1646.662728
_symmetry_space_group_name_H-M "P M M A"
_symmetry_group_IT_number 51
_symmetry_cell_setting 'orthorhombic'
loop_
_space_group_symop_operation_xyz
x,y,z
1/2-x,-y,z
1/2+x,-y,-z
-x,y,-z
-x,-y,-z
1/2+x,y,-z
1/2-x,y,z
x,-y,z
loop_
_atom_site_type_symbol
_atom_site_label
_atom_site_fract_x
_atom_site_fract_y
_atom_site_fract_z
Si Si1 0.643870 0.738608 0.180385
Si Si2 0.995228 0.129277 0.667729
Si Si3 0.144773 0.729133 0.159633
Si Si4 0.847037 0.500000 0.203795
Si Si5 0.092446 0.500000 0.093244
O O1 0.750000 0.748174 0.217825
O O2 0.589569 0.833380 0.261214
O O3 0.604583 0.617885 0.236669
O O4 0.627139 0.754937 0.009516
O O5 0.908460 0.184352 0.742040
O O6 0.000000 0.162574 0.500000
O O7 0.984807 0.000000 0.690567
O O8 0.250000 0.737137 0.201313
O O9 0.104585 0.607495 0.194431
O O10 0.750000 0.500000 0.282672
O O11 0.828413 0.500000 0.028607
O O12 0.000000 0.500000 0.000000
#
# Coordination Sequence:
#
# PCOD8205985 Si02
#       5
#     8   8   8   4   4
#     4   9  18  35  61  88 111 139 179 230 284 339
#     4  11  25  41  54  73 108 154 197 236 284 341
#     4  10  20  36  60  88 115 144 183 232 283 337
#     4   8  14  28  52  83 113 135 162 208 273 338
#     4  10  16  28  56  89 119 145 170 214 277 340
#
# _framework density 19.433243999999998
#
# number of rings (size 3 to 8) (size 9 to 14) (size 15 to 20)
#    0.000    2.250    0.000    6.375    0.000    4.000 
#    0.000    7.500    0.000    3.000    0.000    0.000 
#    0.000    0.000    0.000    0.000    0.000    0.000 
#
# Total GULP energy -396473.978898 kJ/mol
# GULP energy per Si atom -12389.811841 kJ/mol
# Density = 1.938901 g / cm^3
# Si number density = 19.433244 Si / 1000 Ang^3
#
#
#
# Elastic Constant Matrix: (Units=GPa)
#
#
# Indices 1 2 3 4 5 6 
#
# 1 138.6365 68.8478 59.8221 0.0000 0.0000 0.0000
# 2 68.8478 117.5306 67.5052 0.0000 0.0000 0.0000
# 3 59.8221 67.5052 84.8414 0.0000 0.0000 0.0000
# 4 0.0000 0.0000 0.0000 -3.6386 0.0000 0.0000
# 5 0.0000 0.0000 0.0000 0.0000 15.1292 0.0000
# 6 0.0000 0.0000 0.0000 0.0000 0.0000 26.2963
#
#
#
# Elastic Compliance Matrix: (Units=1/GPa)
#
#
# Indices 1 2 3 4 5 6 
#
# 1 0.011188 -0.003725 -0.004925 0.000000 0.000000 0.000000
# 2 -0.003725 0.016910 -0.010828 0.000000 0.000000 0.000000
# 3 -0.004925 -0.010828 0.023874 0.000000 0.000000 0.000000
# 4 0.000000 0.000000 0.000000 -0.274828 0.000000 0.000000
# 5 0.000000 0.000000 0.000000 0.000000 0.066097 0.000000
# 6 0.000000 0.000000 0.000000 0.000000 0.000000 0.038028
#
#
# Mechanical properties :
#
#
# Convention : Reuss Voigt Hill
#
# Bulk Modulus (GPa) = 76.82415 81.48429 79.15422
# Shear Modulus (GPa) = -66.28118 17.21293 -24.53412
#
# Velocity S-wave (km/s) = -5.84646 2.97938 -3.55700
# Velocity P-wave (km/s) = 2.44064 7.33873 4.89389
#
# Compressibility (1/GPa) = 0.01301674
#
# Stress axis : x y z
#
# Youngs Moduli (GPa) = 89.38020 59.13784 41.88590
#
# Poissons Ratio (x) = 0.22030 0.20628
# Poissons Ratio (y) = 0.33296 0.45353
# Poissons Ratio (z) = 0.44018 0.64033
#
# Static dielectric constant tensor:
#      x y z
#    x 3.617190 0.000000 0.000000 
#    y 0.000000 3.706620 0.000000 
#    z 0.000000 0.000000 3.227620 
# 
# 
# High freq. dielectric constant tensor:
#      x y z
#    x 1.770200 0.000000 0.000000 
#    y 0.000000 1.764530 0.000000 
#    z 0.000000 0.000000 1.710660 
# 
# From -- ./inp_files/7613.got.cif
#   From: 2010.03.12/outbox.cif.g09.slc.cpg/sg51_4_cif.got.tgz:7613.got - 2010.04.16 13:43:02.
