data_PCOD8205275
_publ_section_title
;
Structure prediction by ZEFSAII (Michael W. Deem and Ramdas Pophale) SiO2 
 PCOD8205275
Probable space group: P B A N
;
_chemical_formula_sum "Si O2"
_cell_formula_units_Z 60
_cell_length_a 19.918844
_cell_length_b 13.371105
_cell_length_c 11.530010
_cell_angle_alpha 90.000000
_cell_angle_beta 90.000000
_cell_angle_gamma 90.000000
_cell_volume 3070.867750
_symmetry_space_group_name_H-M "P B A N"
_symmetry_group_IT_number 50
_space_group.IT_coordinate_system_code '2'
_symmetry_cell_setting 'orthorhombic'
loop_
_space_group_symop_operation_xyz
x,y,z
1/2-x,1/2-y,z
x,1/2-y,-z
1/2-x,y,-z
-x,-y,-z
1/2+x,1/2+y,-z
-x,1/2+y,z
1/2+x,-y,z
loop_
_atom_site_type_symbol
_atom_site_label
_atom_site_fract_x
_atom_site_fract_y
_atom_site_fract_z
Si Si1 0.771053 0.570224 0.131655
Si Si2 0.446990 0.418150 0.796500
Si Si3 0.250000 0.250000 0.285216
Si Si4 0.998770 0.126598 0.226669
Si Si5 0.597697 0.865467 0.030779
Si Si6 0.397026 0.245326 0.633320
Si Si7 0.721825 0.149664 0.129756
Si Si8 0.428568 0.703951 0.125829
O O1 0.732718 0.651926 0.208884
O O2 0.850149 0.594995 0.127169
O O3 0.756210 0.458248 0.182618
O O4 0.750000 0.582330 0.000000
O O5 0.462760 0.523913 0.736455
O O6 0.416000 0.347784 0.698320
O O7 0.514941 0.378224 0.853888
O O8 0.397697 0.427700 0.909191
O O9 0.316685 0.273632 0.359726
O O10 0.026368 0.122312 0.094585
O O11 0.059407 0.154706 0.313407
O O12 0.939919 0.210306 0.223785
O O13 0.611219 0.750000 0.000000
O O14 0.417779 0.250000 0.500000
O O15 0.750000 0.250000 0.194879
O O16 0.642162 0.150144 0.138742
O O17 0.750000 0.153221 0.000000
O O18 0.434307 0.750000 0.000000
#
# Coordination Sequence:
#
# PCOD8205275 Si02
#       8
#     8   8   4   8   8   8   8   8
#     4  11  22  31  54  82 121 157 187 239 298 370
#     4  11  22  35  60  88 119 157 198 238 306 362
#     4  12  22  42  62  86 116 155 205 258 324 366
#     4  11  22  36  60  87 119 158 197 246 299 368
#     4  12  18  34  53  90 124 151 184 236 301 375
#     4  11  25  44  61  85 116 155 211 266 308 356
#     4  10  21  33  46  75 121 166 194 223 276 356
#     4  11  19  32  51  80 120 160 189 225 276 356
#
# _framework density 19.538450000000001
#
# number of rings (size 3 to 8) (size 9 to 14) (size 15 to 20)
#    0.000    0.933    6.667    3.200    1.867    1.600 
#    0.000    0.000    0.000    0.000    0.000    0.000 
#    0.000    0.000    0.000    0.000    0.000    0.000 
#
# Total GULP energy -743584.631300 kJ/mol
# GULP energy per Si atom -12393.077188 kJ/mol
# Density = 1.949398 g / cm^3
# Si number density = 19.538450 Si / 1000 Ang^3
#
#
#
# Elastic Constant Matrix: (Units=GPa)
#
#
# Indices 1 2 3 4 5 6 
#
# 1 46.0006 5.4722 13.9632 0.0000 0.0000 0.0000
# 2 5.4722 125.5556 17.9695 0.0000 0.0000 0.0000
# 3 13.9632 17.9695 81.6525 0.0000 0.0000 0.0000
# 4 0.0000 0.0000 0.0000 7.7143 0.0000 0.0000
# 5 0.0000 0.0000 0.0000 0.0000 14.3120 0.0000
# 6 0.0000 0.0000 0.0000 0.0000 0.0000 30.5344
#
#
#
# Elastic Compliance Matrix: (Units=1/GPa)
#
#
# Indices 1 2 3 4 5 6 
#
# 1 0.022954 -0.000453 -0.003826 0.000000 0.000000 0.000000
# 2 -0.000453 0.008233 -0.001734 0.000000 0.000000 0.000000
# 3 -0.003826 -0.001734 0.013283 0.000000 0.000000 0.000000
# 4 0.000000 0.000000 0.000000 0.129629 0.000000 0.000000
# 5 0.000000 0.000000 0.000000 0.000000 0.069871 0.000000
# 6 0.000000 0.000000 0.000000 0.000000 0.000000 0.032750
#
#
# Mechanical properties :
#
#
# Convention : Reuss Voigt Hill
#
# Bulk Modulus (GPa) = 30.82258 36.44648 33.63453
# Shear Modulus (GPa) = 16.69115 24.89909 20.79512
#
# Velocity S-wave (km/s) = 2.92596 3.57370 3.26593
# Velocity P-wave (km/s) = 5.21772 5.97684 5.61014
#
# Compressibility (1/GPa) = 0.03244375
#
# Stress axis : x y z
#
# Youngs Moduli (GPa) = 43.56550 121.46900 75.28478
#
# Poissons Ratio (x) = 0.05501 0.28801
# Poissons Ratio (y) = 0.01973 0.13057
# Poissons Ratio (z) = 0.16666 0.21066
#
# Static dielectric constant tensor:
#      x y z
#    x 3.629490 0.000000 0.000000 
#    y 0.000000 3.945320 0.000000 
#    z 0.000000 0.000000 3.064300 
# 
# 
# High freq. dielectric constant tensor:
#      x y z
#    x 1.772700 0.000000 0.000000 
#    y 0.000000 1.770830 0.000000 
#    z 0.000000 0.000000 1.694470 
# 
# From -- ./inp_files/22507.got.cif
#   From: 2010.03.12/outbox.cif.g09.slc.cpg/sg50_12_cif.got.tgz:22507.got - 2010.04.16 13:23:21.
