data_PCOD8205087
_publ_section_title
;
Structure prediction by ZEFSAII (Michael W. Deem and Ramdas Pophale) SiO2 
 PCOD8205087
Probable space group: P B A N
;
_chemical_formula_sum "Si O2"
_cell_formula_units_Z 64
_cell_length_a 11.776977
_cell_length_b 23.299782
_cell_length_c 11.477753
_cell_angle_alpha 90.000000
_cell_angle_beta 90.000000
_cell_angle_gamma 90.000000
_cell_volume 3149.506863
_symmetry_space_group_name_H-M "P B A N"
_symmetry_group_IT_number 50
_space_group.IT_coordinate_system_code '2'
_symmetry_cell_setting 'orthorhombic'
loop_
_space_group_symop_operation_xyz
x,y,z
1/2-x,1/2-y,z
x,1/2-y,-z
1/2-x,y,-z
-x,-y,-z
1/2+x,1/2+y,-z
-x,1/2+y,z
1/2+x,-y,z
loop_
_atom_site_type_symbol
_atom_site_label
_atom_site_fract_x
_atom_site_fract_y
_atom_site_fract_z
Si Si1 0.871752 0.397005 0.245859
Si Si2 0.616949 0.661657 0.008544
Si Si3 0.936117 0.669576 0.251797
Si Si4 0.287520 0.368770 0.623432
Si Si5 0.549218 0.528648 0.383047
Si Si6 0.881057 0.081000 0.243719
Si Si7 0.033387 0.203374 0.759059
Si Si8 0.454776 0.936904 0.987855
O O1 0.742465 0.400083 0.288918
O O2 0.948578 0.432015 0.335335
O O3 0.912015 0.330008 0.237845
O O4 0.870455 0.428633 0.120411
O O5 0.584527 0.706968 0.109672
O O6 0.750000 0.656489 0.000000
O O7 0.562348 0.678799 0.886540
O O8 0.566505 0.600069 0.044078
O O9 0.819007 0.638884 0.289863
O O10 0.966809 0.733242 0.298305
O O11 0.034057 0.627894 0.297603
O O12 0.250000 0.342940 0.500000
O O13 0.335270 0.433565 0.602091
O O14 0.388190 0.332076 0.673715
O O15 0.500000 0.500000 0.500000
O O16 0.582614 0.480904 0.289513
O O17 0.889639 0.082430 0.103919
O O18 0.500000 0.000000 0.000000
#
# Coordination Sequence:
#
# PCOD8205087 Si02
#       8
#     8   8   8   8   8   8   8   8
#     4  10  23  42  61  89 124 167 207 245 318 368
#     4  10  20  34  59  91 126 165 202 247 313 369
#     4  11  23  38  62  97 124 162 212 253 306 368
#     4  11  24  40  64  92 121 159 207 260 320 364
#     4  11  25  43  64  88 123 162 202 263 313 380
#     4  11  24  38  64  91 123 165 207 250 308 378
#     4  10  22  41  61  90 130 164 206 258 304 368
#     4  10  20  37  56  91 126 162 203 255 307 368
#
# _framework density 20.320641999999999
#
# number of rings (size 3 to 8) (size 9 to 14) (size 15 to 20)
#    0.000    1.500    2.500    1.875    3.500    3.000 
#    0.000    0.000    0.000    4.500    0.000    3.500 
#    0.000    0.000    0.000    0.000    0.000    0.000 
#
# Total GULP energy -793341.031354 kJ/mol
# GULP energy per Si atom -12395.953615 kJ/mol
# Density = 2.027439 g / cm^3
# Si number density = 20.320642 Si / 1000 Ang^3
#
#
#
# Elastic Constant Matrix: (Units=GPa)
#
#
# Indices 1 2 3 4 5 6 
#
# 1 109.6506 52.0895 3.6407 0.0000 0.0000 0.0000
# 2 52.0895 123.7072 15.0998 0.0000 0.0000 0.0000
# 3 3.6407 15.0998 79.4525 0.0000 0.0000 0.0000
# 4 0.0000 0.0000 0.0000 15.8537 0.0000 0.0000
# 5 0.0000 0.0000 0.0000 0.0000 19.0359 0.0000
# 6 0.0000 0.0000 0.0000 0.0000 0.0000 20.5734
#
#
#
# Elastic Compliance Matrix: (Units=1/GPa)
#
#
# Indices 1 2 3 4 5 6 
#
# 1 0.011413 -0.004854 0.000400 0.000000 0.000000 0.000000
# 2 -0.004854 0.010340 -0.001743 0.000000 0.000000 0.000000
# 3 0.000400 -0.001743 0.012899 0.000000 0.000000 0.000000
# 4 0.000000 0.000000 0.000000 0.063077 0.000000 0.000000
# 5 0.000000 0.000000 0.000000 0.000000 0.052532 0.000000
# 6 0.000000 0.000000 0.000000 0.000000 0.000000 0.048606
#
#
# Mechanical properties :
#
#
# Convention : Reuss Voigt Hill
#
# Bulk Modulus (GPa) = 44.92944 50.49673 47.71308
# Shear Modulus (GPa) = 22.86431 27.22463 25.04447
#
# Velocity S-wave (km/s) = 3.35800 3.66423 3.51446
# Velocity P-wave (km/s) = 6.09862 6.54263 6.32452
#
# Compressibility (1/GPa) = 0.02225712
#
# Stress axis : x y z
#
# Youngs Moduli (GPa) = 87.62210 96.70867 77.52525
#
# Poissons Ratio (x) = 0.46945 -0.03098
# Poissons Ratio (y) = 0.42534 0.13511
# Poissons Ratio (z) = -0.03501 0.16854
#
# Static dielectric constant tensor:
#      x y z
#    x 3.714220 0.000000 0.000000 
#    y 0.000000 3.881310 0.000000 
#    z 0.000000 0.000000 3.802970 
# 
# 
# High freq. dielectric constant tensor:
#      x y z
#    x 1.788210 0.000000 0.000000 
#    y 0.000000 1.797720 0.000000 
#    z 0.000000 0.000000 1.793780 
# 
# From -- ./inp_files/20527.got.cif
#   From: 2010.03.12/outbox.cif.g09.slc.cpg/sg50_11_cif.got.tgz:20527.got - 2010.04.16 13:23:21.
