data_PCOD8205192
_publ_section_title
;
Structure prediction by ZEFSAII (Michael W. Deem and Ramdas Pophale) SiO2 
 PCOD8205192
Probable space group: P B A N
;
_chemical_formula_sum "Si O2"
_cell_formula_units_Z 58
_cell_length_a 9.256870
_cell_length_b 25.180628
_cell_length_c 11.600537
_cell_angle_alpha 90.000000
_cell_angle_beta 90.000000
_cell_angle_gamma 90.000000
_cell_volume 2704.013250
_symmetry_space_group_name_H-M "P B A N"
_symmetry_group_IT_number 50
_space_group.IT_coordinate_system_code '2'
_symmetry_cell_setting 'orthorhombic'
loop_
_space_group_symop_operation_xyz
x,y,z
1/2-x,1/2-y,z
x,1/2-y,-z
1/2-x,y,-z
-x,-y,-z
1/2+x,1/2+y,-z
-x,1/2+y,z
1/2+x,-y,z
loop_
_atom_site_type_symbol
_atom_site_label
_atom_site_fract_x
_atom_site_fract_y
_atom_site_fract_z
Si Si1 0.103219 0.384230 0.461505
Si Si2 0.250000 0.750000 0.500000
Si Si3 0.421385 0.916966 0.997469
Si Si4 0.593113 0.198435 0.057167
Si Si5 0.329692 0.486939 0.674144
Si Si6 0.122505 0.823892 0.315820
Si Si7 0.164800 0.601054 0.393153
Si Si8 0.428393 0.487756 0.172851
O O1 0.250000 0.352632 0.500000
O O2 0.167794 0.440154 0.416961
O O3 0.018758 0.357642 0.354938
O O4 0.005149 0.392881 0.577204
O O5 0.142884 0.781690 0.416883
O O6 0.497851 0.935817 0.115572
O O7 0.250000 0.915260 0.000000
O O8 0.484254 0.858300 0.969044
O O9 0.459044 0.959897 0.900990
O O10 0.595202 0.205991 0.195328
O O11 0.512158 0.250000 0.000000
O O12 0.750000 0.196726 0.000000
O O13 0.273469 0.541733 0.618782
O O14 0.237159 0.475293 0.791856
O O15 0.493335 0.501444 0.706902
O O16 0.267047 0.861216 0.292549
O O17 0.250000 0.627205 0.500000
#
# Coordination Sequence:
#
# PCOD8205192 Si02
#       8
#     8   2   8   8   8   8   8   8
#     4  11  22  39  58  95 136 171 212 257 327 396
#     4  12  20  44  72  92 116 164 226 274 328 378
#     4  10  20  38  56  81 130 157 216 270 313 393
#     4  10  21  39  64 100 125 157 213 280 333 373
#     4  12  21  34  58  89 130 170 210 256 320 387
#     4  11  23  42  69  97 128 167 219 278 320 387
#     4  10  20  38  59  89 128 172 212 259 315 378
#     4  11  22  34  55  90 119 178 211 255 326 379
#
# _framework density 21.449598999999999
#
# number of rings (size 3 to 8) (size 9 to 14) (size 15 to 20)
#    0.000    1.241    3.448    5.793    1.931    0.000 
#    0.000    0.345    0.000    0.000    0.000    7.724 
#    0.000    0.000    0.000    0.000    0.000    0.000 
#
# Total GULP energy -718546.802396 kJ/mol
# GULP energy per Si atom -12388.737972 kJ/mol
# Density = 2.140078 g / cm^3
# Si number density = 21.449599 Si / 1000 Ang^3
#
#
#
# Elastic Constant Matrix: (Units=GPa)
#
#
# Indices 1 2 3 4 5 6 
#
# 1 102.6851 30.2438 37.7565 0.0000 0.0000 0.0000
# 2 30.2438 136.8163 47.5263 0.0000 0.0000 0.0000
# 3 37.7565 47.5263 102.0405 0.0000 0.0000 0.0000
# 4 0.0000 0.0000 0.0000 35.0793 0.0000 0.0000
# 5 0.0000 0.0000 0.0000 0.0000 23.1241 0.0000
# 6 0.0000 0.0000 0.0000 0.0000 0.0000 14.8682
#
#
#
# Elastic Compliance Matrix: (Units=1/GPa)
#
#
# Indices 1 2 3 4 5 6 
#
# 1 0.011452 -0.001264 -0.003649 0.000000 0.000000 0.000000
# 2 -0.001264 0.008859 -0.003659 0.000000 0.000000 0.000000
# 3 -0.003649 -0.003659 0.012854 0.000000 0.000000 0.000000
# 4 0.000000 0.000000 0.000000 0.028507 0.000000 0.000000
# 5 0.000000 0.000000 0.000000 0.000000 0.043245 0.000000
# 6 0.000000 0.000000 0.000000 0.000000 0.000000 0.067258
#
#
# Mechanical properties :
#
#
# Convention : Reuss Voigt Hill
#
# Bulk Modulus (GPa) = 62.41033 63.62166 63.01599
# Shear Modulus (GPa) = 25.68587 29.68200 27.68394
#
# Velocity S-wave (km/s) = 3.46424 3.72398 3.59646
# Velocity P-wave (km/s) = 6.72017 6.94378 6.83289
#
# Compressibility (1/GPa) = 0.01602299
#
# Stress axis : x y z
#
# Youngs Moduli (GPa) = 87.31745 112.87429 77.79571
#
# Poissons Ratio (x) = 0.14269 0.28386
# Poissons Ratio (y) = 0.11038 0.28462
# Poissons Ratio (z) = 0.31860 0.41296
#
# Static dielectric constant tensor:
#      x y z
#    x 3.774810 0.000000 0.000000 
#    y 0.000000 4.530680 0.000000 
#    z 0.000000 0.000000 4.000140 
# 
# 
# High freq. dielectric constant tensor:
#      x y z
#    x 1.816120 0.000000 0.000000 
#    y 0.000000 1.839430 0.000000 
#    z 0.000000 0.000000 1.845850 
# 
# From -- ./inp_files/19409.got.cif
#   From: 2010.03.12/outbox.cif.g09.slc.cpg/sg50_10_cif.got.tgz:19409.got - 2010.04.16 13:23:21.
