data_PCOD8205129
_publ_section_title
;
Structure prediction by ZEFSAII (Michael W. Deem and Ramdas Pophale) SiO2 
 PCOD8205129
Probable space group: P B A N
;
_chemical_formula_sum "Si O2"
_cell_formula_units_Z 64
_cell_length_a 24.485312
_cell_length_b 15.140806
_cell_length_c 8.876519
_cell_angle_alpha 90.000000
_cell_angle_beta 90.000000
_cell_angle_gamma 90.000000
_cell_volume 3290.768445
_symmetry_space_group_name_H-M "P B A N"
_symmetry_group_IT_number 50
_space_group.IT_coordinate_system_code '2'
_symmetry_cell_setting 'orthorhombic'
loop_
_space_group_symop_operation_xyz
x,y,z
1/2-x,1/2-y,z
x,1/2-y,-z
1/2-x,y,-z
-x,-y,-z
1/2+x,1/2+y,-z
-x,1/2+y,z
1/2+x,-y,z
loop_
_atom_site_type_symbol
_atom_site_label
_atom_site_fract_x
_atom_site_fract_y
_atom_site_fract_z
Si Si1 0.866897 0.093818 0.681016
Si Si2 0.750000 0.603163 0.666357
Si Si3 0.639615 0.906895 0.823296
Si Si4 0.360385 0.406895 0.176704
Si Si5 0.558773 0.750000 0.826543
Si Si6 0.250000 0.605412 0.663504
Si Si7 0.442981 0.750000 0.322236
Si Si8 0.133103 0.906181 0.681016
O O1 0.807578 0.130139 0.743295
O O2 0.912609 0.162110 0.737860
O O3 0.864412 0.084731 0.500000
O O4 0.879994 0.998485 0.749748
O O5 0.750000 0.647278 0.500000
O O6 0.804148 0.631956 0.756047
O O7 0.695852 0.631956 0.756047
O O8 0.750000 0.499210 0.647819
O O9 0.592766 0.836887 0.786067
O O10 0.620006 0.998485 0.749749
O O11 0.648145 0.920717 0.000000
O O12 0.407234 0.336887 0.213933
O O13 0.504852 0.750000 0.727766
O O14 0.541432 0.750000 0.000000
O O15 0.250000 0.651311 0.500000
O O16 0.307578 0.630140 0.743295
O O17 0.439951 0.750000 0.500000
O O18 0.412609 0.837890 0.262140
#
# Coordination Sequence:
#
# PCOD8205129 Si02
#       8
#     8   8   8   8   8   8   8   8
#     4   9  18  34  55  82 111 141 176 220 273 325
#     4   9  17  32  55  84 113 139 169 215 271 327
#     4  10  20  36  57  80 107 143 181 221 267 321
#     4  10  20  36  57  80 107 143 181 221 267 321
#     4  10  24  41  54  73 106 146 189 228 268 318
#     4   7  12  26  50  76 105 133 160 199 255 317
#     4  10  22  37  55  79 108 142 185 230 272 320
#     4   9  18  34  55  82 111 141 176 220 273 325
#
# _framework density 19.448343999999999
#
# number of rings (size 3 to 8) (size 9 to 14) (size 15 to 20)
#    0.000    2.750    0.000    2.625    0.000    5.000 
#    0.000   10.000    0.000    0.000    0.000    6.125 
#    0.000    0.000    0.000    0.000    0.000    0.000 
#
# Total GULP energy -793136.948650 kJ/mol
# GULP energy per Si atom -12392.764823 kJ/mol
# Density = 1.940408 g / cm^3
# Si number density = 19.448344 Si / 1000 Ang^3
#
#
#
# Elastic Constant Matrix: (Units=GPa)
#
#
# Indices 1 2 3 4 5 6 
#
# 1 143.0758 64.3892 42.3902 0.0000 0.0000 0.0000
# 2 64.3892 108.2190 38.4199 0.0000 0.0000 0.0000
# 3 42.3902 38.4199 65.6716 0.0000 0.0000 0.0000
# 4 0.0000 0.0000 0.0000 22.8485 0.0000 0.0000
# 5 0.0000 0.0000 0.0000 0.0000 28.4725 0.0000
# 6 0.0000 0.0000 0.0000 0.0000 0.0000 16.2808
#
#
#
# Elastic Compliance Matrix: (Units=1/GPa)
#
#
# Indices 1 2 3 4 5 6 
#
# 1 0.010263 -0.004739 -0.003852 0.000000 0.000000 0.000000
# 2 -0.004739 0.013851 -0.005044 0.000000 0.000000 0.000000
# 3 -0.003852 -0.005044 0.020665 0.000000 0.000000 0.000000
# 4 0.000000 0.000000 0.000000 0.043767 0.000000 0.000000
# 5 0.000000 0.000000 0.000000 0.000000 0.035122 0.000000
# 6 0.000000 0.000000 0.000000 0.000000 0.000000 0.061422
#
#
# Mechanical properties :
#
#
# Convention : Reuss Voigt Hill
#
# Bulk Modulus (GPa) = 57.11668 67.48498 62.30083
# Shear Modulus (GPa) = 22.91506 24.97149 23.94327
#
# Velocity S-wave (km/s) = 3.43629 3.58717 3.51254
# Velocity P-wave (km/s) = 6.72133 7.20638 6.96808
#
# Compressibility (1/GPa) = 0.01750802
#
# Stress axis : x y z
#
# Youngs Moduli (GPa) = 97.43380 72.19718 48.39075
#
# Poissons Ratio (x) = 0.34214 0.18642
# Poissons Ratio (y) = 0.46173 0.24410
# Poissons Ratio (z) = 0.37536 0.36419
#
# Static dielectric constant tensor:
#      x y z
#    x 3.785340 0.000000 0.000000 
#    y 0.000000 3.461960 0.000000 
#    z 0.000000 0.000000 3.385740 
# 
# 
# High freq. dielectric constant tensor:
#      x y z
#    x 1.765230 0.000000 0.000000 
#    y 0.000000 1.752110 0.000000 
#    z 0.000000 0.000000 1.735960 
# 
# From -- ./inp_files/15491.got.cif
#   From: 2010.03.12/outbox.cif.g09.slc.cpg/sg50_8_cif.got.tgz:15491.got - 2010.04.16 13:23:21.
