data_PCOD8205846
_publ_section_title
;
Structure prediction by ZEFSAII (Michael W. Deem and Ramdas Pophale) SiO2 
 PCOD8205846
Probable space group: P B A N
;
_chemical_formula_sum "Si O2"
_cell_formula_units_Z 58
_cell_length_a 9.342916
_cell_length_b 23.548048
_cell_length_c 11.928853
_cell_angle_alpha 90.000000
_cell_angle_beta 90.000000
_cell_angle_gamma 90.000000
_cell_volume 2624.436344
_symmetry_space_group_name_H-M "P B A N"
_symmetry_group_IT_number 50
_space_group.IT_coordinate_system_code '2'
_symmetry_cell_setting 'orthorhombic'
loop_
_space_group_symop_operation_xyz
x,y,z
1/2-x,1/2-y,z
x,1/2-y,-z
1/2-x,y,-z
-x,-y,-z
1/2+x,1/2+y,-z
-x,1/2+y,z
1/2+x,-y,z
loop_
_atom_site_type_symbol
_atom_site_label
_atom_site_fract_x
_atom_site_fract_y
_atom_site_fract_z
Si Si1 0.627525 0.114958 0.353686
Si Si2 0.750000 0.750000 0.500000
Si Si3 0.384665 0.186824 0.697768
Si Si4 0.046849 0.909322 0.592805
Si Si5 0.403235 0.725037 0.205548
Si Si6 0.451589 0.500170 0.255006
Si Si7 0.337715 0.168972 0.108011
Si Si8 0.803939 0.537555 0.882189
O O1 0.790567 0.105120 0.382602
O O2 0.524116 0.106230 0.462246
O O3 0.611145 0.177728 0.303036
O O4 0.580555 0.066927 0.266395
O O5 0.651898 0.789011 0.423275
O O6 0.441274 0.123856 0.676284
O O7 0.517050 0.220664 0.747337
O O8 0.246581 0.187669 0.779266
O O9 0.010167 0.974602 0.626386
O O10 0.250000 0.750000 0.162020
O O11 0.503525 0.697527 0.107929
O O12 0.570278 0.495889 0.157715
O O13 0.317187 0.464206 0.212796
O O14 0.357653 0.101752 0.102306
O O15 0.250000 0.191027 0.000000
O O16 0.750000 0.512452 0.000000
#
# Coordination Sequence:
#
# PCOD8205846 Si02
#       8
#     8   2   8   8   8   8   8   8
#     4  11  24  42  65 101 143 181 229 292 359 415
#     4  12  24  40  68 100 136 180 234 286 350 408
#     4  12  24  43  68 100 137 180 238 288 346 426
#     4  11  24  41  65 101 140 184 232 286 353 420
#     4  12  24  45  73 102 139 185 236 289 353 424
#     4  12  22  44  69  96 139 182 235 288 348 430
#     4  11  25  48  72 100 142 184 227 298 359 416
#     4  11  24  41  70 100 133 181 232 295 356 415
#
# _framework density 22.099982000000001
#
# number of rings (size 3 to 8) (size 9 to 14) (size 15 to 20)
#    0.000    0.552    6.897    1.655    0.000    1.103 
#    0.000    1.379    0.000    0.000    0.000    0.000 
#    0.000    0.000    0.000    0.000    0.000    0.000 
#
# Total GULP energy -719069.741065 kJ/mol
# GULP energy per Si atom -12397.754156 kJ/mol
# Density = 2.204968 g / cm^3
# Si number density = 22.099982 Si / 1000 Ang^3
#
#
#
# Elastic Constant Matrix: (Units=GPa)
#
#
# Indices 1 2 3 4 5 6 
#
# 1 113.7948 23.4772 26.6949 0.0000 0.0000 0.0000
# 2 23.4772 76.3957 11.1623 0.0000 0.0000 0.0000
# 3 26.6949 11.1623 87.5011 0.0000 0.0000 0.0000
# 4 0.0000 0.0000 0.0000 38.7998 0.0000 0.0000
# 5 0.0000 0.0000 0.0000 0.0000 27.0480 0.0000
# 6 0.0000 0.0000 0.0000 0.0000 0.0000 31.6163
#
#
#
# Elastic Compliance Matrix: (Units=1/GPa)
#
#
# Indices 1 2 3 4 5 6 
#
# 1 0.009972 -0.002670 -0.002702 0.000000 0.000000 0.000000
# 2 -0.002670 0.014053 -0.000978 0.000000 0.000000 0.000000
# 3 -0.002702 -0.000978 0.012377 0.000000 0.000000 0.000000
# 4 0.000000 0.000000 0.000000 0.025773 0.000000 0.000000
# 5 0.000000 0.000000 0.000000 0.000000 0.036971 0.000000
# 6 0.000000 0.000000 0.000000 0.000000 0.000000 0.031629
#
#
# Mechanical properties :
#
#
# Convention : Reuss Voigt Hill
#
# Bulk Modulus (GPa) = 42.18822 44.48449 43.33635
# Shear Modulus (GPa) = 33.02996 33.91663 33.47329
#
# Velocity S-wave (km/s) = 3.87016 3.92176 3.89605
# Velocity P-wave (km/s) = 6.25316 6.37804 6.31591
#
# Compressibility (1/GPa) = 0.02370330
#
# Stress axis : x y z
#
# Youngs Moduli (GPa) = 100.27701 71.15843 80.79189
#
# Poissons Ratio (x) = 0.18998 0.21828
# Poissons Ratio (y) = 0.26772 0.07903
# Poissons Ratio (z) = 0.27093 0.06961
#
# Static dielectric constant tensor:
#      x y z
#    x 4.049720 0.000000 0.000000 
#    y 0.000000 4.010670 0.000000 
#    z 0.000000 0.000000 4.740810 
# 
# 
# High freq. dielectric constant tensor:
#      x y z
#    x 1.875770 0.000000 0.000000 
#    y 0.000000 1.878640 0.000000 
#    z 0.000000 0.000000 1.860250 
# 
# From -- ./inp_files/19394.got.cif
#   From: 2010.03.12/outbox.cif.g09.slc.cpg/sg50_10_cif.got.tgz:19394.got - 2010.04.16 13:23:21.
