data_PCOD8205980
_publ_section_title
;
Structure prediction by ZEFSAII (Michael W. Deem and Ramdas Pophale) SiO2 
 PCOD8205980
Probable space group: P M M A
;
_chemical_formula_sum "Si O2"
_cell_formula_units_Z 48
_cell_length_a 19.640547
_cell_length_b 11.782180
_cell_length_c 12.962563
_cell_angle_alpha 90.000000
_cell_angle_beta 90.000000
_cell_angle_gamma 90.000000
_cell_volume 2999.646742
_symmetry_space_group_name_H-M "P M M A"
_symmetry_group_IT_number 51
_symmetry_cell_setting 'orthorhombic'
loop_
_space_group_symop_operation_xyz
x,y,z
1/2-x,-y,z
1/2+x,-y,-z
-x,y,-z
-x,-y,-z
1/2+x,y,-z
1/2-x,y,z
x,-y,z
loop_
_atom_site_type_symbol
_atom_site_label
_atom_site_fract_x
_atom_site_fract_y
_atom_site_fract_z
Si Si1 0.050865 0.000000 0.403895
Si Si2 0.040551 0.633178 0.604356
Si Si3 0.173582 0.765684 0.649871
Si Si4 0.926984 0.872114 0.948466
Si Si5 0.483645 0.807905 0.249235
Si Si6 0.874577 0.870471 0.158466
Si Si7 0.327068 0.000000 0.540961
O O1 0.043199 0.114357 0.340435
O O2 0.000000 0.000000 0.500000
O O3 0.128520 0.000000 0.439214
O O4 0.043953 0.500000 0.621503
O O5 0.118362 0.679434 0.602109
O O6 0.000000 0.664619 0.500000
O O7 0.000745 0.685345 0.702372
O O8 0.250000 0.724711 0.620023
O O9 0.169795 0.781168 0.774594
O O10 0.155629 0.890116 0.608385
O O11 0.927794 0.795629 0.843740
O O12 0.908550 0.000000 0.914335
O O13 0.874045 0.830554 0.037537
O O14 0.000000 0.868471 0.000000
O O15 0.549209 0.869645 0.202791
O O16 0.846893 0.000000 0.165634
O O17 0.250000 0.000000 0.502758
#
# Coordination Sequence:
#
# PCOD8205980 Si02
#       7
#     4   8   8   8   8   8   4
#     4  12  18  24  44  69  88 117 154 192 232 281
#     4  10  21  34  47  66  93 125 163 207 243 275
#     4  10  19  31  48  69  94 123 153 192 240 292
#     4   8  13  22  38  64  93 117 143 173 217 272
#     4  10  16  26  43  67  90 117 154 190 230 280
#     4   9  14  24  42  67  97 118 143 182 222 277
#     4  10  20  30  41  65  95 117 140 180 234 285
#
# _framework density 16.001885000000001
#
# number of rings (size 3 to 8) (size 9 to 14) (size 15 to 20)
#    0.000    2.333    2.500    4.500    0.000    0.333 
#    0.000    0.000    0.000   13.500    0.000    0.000 
#    0.000    0.000    0.000    1.667    0.000    0.000 
#
# Total GULP energy -594707.691775 kJ/mol
# GULP energy per Si atom -12389.743579 kJ/mol
# Density = 1.596546 g / cm^3
# Si number density = 16.001885 Si / 1000 Ang^3
#
#
#
# Elastic Constant Matrix: (Units=GPa)
#
#
# Indices 1 2 3 4 5 6 
#
# 1 64.0363 33.2330 45.9154 0.0000 0.0000 0.0000
# 2 33.2330 75.9602 44.0917 0.0000 0.0000 0.0000
# 3 45.9154 44.0917 111.8170 0.0000 0.0000 0.0000
# 4 0.0000 0.0000 0.0000 19.6946 0.0000 0.0000
# 5 0.0000 0.0000 0.0000 0.0000 19.6245 0.0000
# 6 0.0000 0.0000 0.0000 0.0000 0.0000 16.7162
#
#
#
# Elastic Compliance Matrix: (Units=1/GPa)
#
#
# Indices 1 2 3 4 5 6 
#
# 1 0.024228 -0.006257 -0.007481 0.000000 0.000000 0.000000
# 2 -0.006257 0.018688 -0.004800 0.000000 0.000000 0.000000
# 3 -0.007481 -0.004800 0.013908 0.000000 0.000000 0.000000
# 4 0.000000 0.000000 0.000000 0.050775 0.000000 0.000000
# 5 0.000000 0.000000 0.000000 0.000000 0.050957 0.000000
# 6 0.000000 0.000000 0.000000 0.000000 0.000000 0.059822
#
#
# Mechanical properties :
#
#
# Convention : Reuss Voigt Hill
#
# Bulk Modulus (GPa) = 50.63956 55.36599 53.00278
# Shear Modulus (GPa) = 19.08126 19.77863 19.42995
#
# Velocity S-wave (km/s) = 3.45692 3.51952 3.48836
# Velocity P-wave (km/s) = 6.90278 7.15478 7.02991
#
# Compressibility (1/GPa) = 0.01974741
#
# Stress axis : x y z
#
# Youngs Moduli (GPa) = 41.27509 53.50901 71.90161
#
# Poissons Ratio (x) = 0.33482 0.53792
# Poissons Ratio (y) = 0.25827 0.34512
# Poissons Ratio (z) = 0.30879 0.25683
#
# Static dielectric constant tensor:
#      x y z
#    x 2.921370 0.000000 0.000000 
#    y 0.000000 2.724750 0.000000 
#    z 0.000000 0.000000 3.498410 
# 
# 
# High freq. dielectric constant tensor:
#      x y z
#    x 1.587170 0.000000 0.000000 
#    y 0.000000 1.578000 0.000000 
#    z 0.000000 0.000000 1.625170 
# 
# From -- ./inp_files/18729.got.cif
#   From: 2010.03.12/outbox.cif.g09.slc.cpg/sg51_10_cif.got.tgz:18729.got - 2010.04.16 13:43:02.
