data_PCOD8205990
_publ_section_title
;
Structure prediction by ZEFSAII (Michael W. Deem and Ramdas Pophale) SiO2 
 PCOD8205990
Probable space group: P M M A
;
_chemical_formula_sum "Si O2"
_cell_formula_units_Z 40
_cell_length_a 8.389374
_cell_length_b 11.977440
_cell_length_c 20.703121
_cell_angle_alpha 90.000000
_cell_angle_beta 90.000000
_cell_angle_gamma 90.000000
_cell_volume 2080.316339
_symmetry_space_group_name_H-M "P M M A"
_symmetry_group_IT_number 51
_symmetry_cell_setting 'orthorhombic'
loop_
_space_group_symop_operation_xyz
x,y,z
1/2-x,-y,z
1/2+x,-y,-z
-x,y,-z
-x,-y,-z
1/2+x,y,-z
1/2-x,y,z
x,-y,z
loop_
_atom_site_type_symbol
_atom_site_label
_atom_site_fract_x
_atom_site_fract_y
_atom_site_fract_z
Si Si1 0.933839 0.000000 0.238039
Si Si2 0.439854 0.375114 0.811048
Si Si3 0.060191 0.220184 0.699516
Si Si4 0.560657 0.232213 0.065791
Si Si5 0.438250 0.126919 0.568105
Si Si6 0.565233 0.000000 0.899007
O O1 0.013650 0.889753 0.267253
O O2 0.750000 0.000000 0.257955
O O3 0.950299 0.000000 0.162116
O O4 0.250000 0.377621 0.811931
O O5 0.509604 0.500000 0.817225
O O6 0.502241 0.324835 0.742134
O O7 0.500096 0.301366 0.871655
O O8 0.250000 0.220200 0.703140
O O9 0.003585 0.213077 0.624487
O O10 0.750000 0.220326 0.067068
O O11 0.477271 0.111310 0.062021
O O12 0.500000 0.293598 0.000000
O O13 0.500000 0.174171 0.500000
O O14 0.250000 0.123631 0.566707
O O15 0.502269 0.000000 0.580312
O O16 0.750000 0.000000 0.879566
#
# Coordination Sequence:
#
# PCOD8205990 Si02
#       6
#     4   8   8   8   8   4
#     4  10  16  29  52  77  99 133 171 207 258 306
#     4   9  18  32  53  79 100 126 172 220 255 295
#     4   9  15  27  50  74  99 131 169 208 250 302
#     4  11  22  37  56  77 105 136 167 207 257 306
#     4   9  16  26  43  69 101 133 165 200 245 300
#     4  12  23  35  52  79 110 135 167 205 251 312
#
# _framework density 19.227844999999999
#
# number of rings (size 3 to 8) (size 9 to 14) (size 15 to 20)
#    0.000    2.200    3.000    1.800    0.000    0.400 
#    0.000    1.000    0.000    2.400    0.000    0.000 
#    0.000    0.000    0.000    0.000    0.000    0.000 
#
# Total GULP energy -495617.135002 kJ/mol
# GULP energy per Si atom -12390.428375 kJ/mol
# Density = 1.918408 g / cm^3
# Si number density = 19.227845 Si / 1000 Ang^3
#
#
#
# Elastic Constant Matrix: (Units=GPa)
#
#
# Indices 1 2 3 4 5 6 
#
# 1 23.4516 15.0380 10.8518 0.0000 0.0000 0.0000
# 2 15.0380 120.6641 69.8065 0.0000 0.0000 0.0000
# 3 10.8518 69.8065 182.0217 0.0000 0.0000 0.0000
# 4 0.0000 0.0000 0.0000 8.6235 0.0000 0.0000
# 5 0.0000 0.0000 0.0000 0.0000 25.4488 0.0000
# 6 0.0000 0.0000 0.0000 0.0000 0.0000 3.8281
#
#
#
# Elastic Compliance Matrix: (Units=1/GPa)
#
#
# Indices 1 2 3 4 5 6 
#
# 1 0.046415 -0.005377 -0.000705 0.000000 0.000000 0.000000
# 2 -0.005377 0.011273 -0.004003 0.000000 0.000000 0.000000
# 3 -0.000705 -0.004003 0.007071 0.000000 0.000000 0.000000
# 4 0.000000 0.000000 0.000000 0.115962 0.000000 0.000000
# 5 0.000000 0.000000 0.000000 0.000000 0.039295 0.000000
# 6 0.000000 0.000000 0.000000 0.000000 0.000000 0.261224
#
#
# Mechanical properties :
#
#
# Convention : Reuss Voigt Hill
#
# Bulk Modulus (GPa) = 22.42658 57.50333 39.96496
# Shear Modulus (GPa) = 9.68481 22.94282 16.31382
#
# Velocity S-wave (km/s) = 2.24673 3.45803 2.91597
# Velocity P-wave (km/s) = 4.29177 6.77607 5.67162
#
# Compressibility (1/GPa) = 0.04458996
#
# Stress axis : x y z
#
# Youngs Moduli (GPa) = 21.54480 88.70573 141.42266
#
# Poissons Ratio (x) = 0.47693 0.09974
# Poissons Ratio (y) = 0.11584 0.56609
# Poissons Ratio (z) = 0.01519 0.35507
#
# Static dielectric constant tensor:
#      x y z
#    x 3.037030 0.000000 0.000000 
#    y 0.000000 3.580350 0.000000 
#    z 0.000000 0.000000 3.972780 
# 
# 
# High freq. dielectric constant tensor:
#      x y z
#    x 1.701850 0.000000 0.000000 
#    y 0.000000 1.717350 0.000000 
#    z 0.000000 0.000000 1.766110 
# 
# From -- ./inp_files/31443.got.cif
#   From: 2010.03.12/outbox.cif.g09.slc.cpg/sg51_16_cif.got.tgz:31443.got - 2010.04.16 13:43:02.
