data_PCOD8205367
_publ_section_title
;
Structure prediction by ZEFSAII (Michael W. Deem and Ramdas Pophale) SiO2 
 PCOD8205367
Probable space group: P B A N
;
_chemical_formula_sum "Si O2"
_cell_formula_units_Z 48
_cell_length_a 27.948927
_cell_length_b 9.026089
_cell_length_c 9.208075
_cell_angle_alpha 90.000000
_cell_angle_beta 90.000000
_cell_angle_gamma 90.000000
_cell_volume 2322.916500
_symmetry_space_group_name_H-M "P B A N"
_symmetry_group_IT_number 50
_space_group.IT_coordinate_system_code '2'
_symmetry_cell_setting 'orthorhombic'
loop_
_space_group_symop_operation_xyz
x,y,z
1/2-x,1/2-y,z
x,1/2-y,-z
1/2-x,y,-z
-x,-y,-z
1/2+x,1/2+y,-z
-x,1/2+y,z
1/2+x,-y,z
loop_
_atom_site_type_symbol
_atom_site_label
_atom_site_fract_x
_atom_site_fract_y
_atom_site_fract_z
Si Si1 0.612250 0.410037 0.967791
Si Si2 0.602601 0.573840 0.486141
Si Si3 0.454389 0.893216 0.705546
Si Si4 0.204757 0.092096 0.074193
Si Si5 0.948957 0.056111 0.241035
Si Si6 0.795151 0.591626 0.421909
O O1 0.589756 0.427089 0.810279
O O2 0.655481 0.522611 0.977303
O O3 0.634960 0.250000 0.000000
O O4 0.568191 0.433877 0.076369
O O5 0.596075 0.750000 0.500000
O O6 0.559383 0.482788 0.560821
O O7 0.595100 0.528727 0.319278
O O8 0.654130 0.514333 0.542142
O O9 0.459613 0.716238 0.686017
O O10 0.504231 0.955379 0.762855
O O11 0.211498 0.101365 0.248544
O O12 0.203760 0.250000 0.000000
O O13 0.250000 0.006164 0.000000
O O14 0.797773 0.750000 0.500000
O O15 0.750000 0.507320 0.500000
#
# Coordination Sequence:
#
# PCOD8205367 Si02
#       6
#     8   8   8   8   8   8
#     4  10  24  42  62  90 127 163 200 256 311 364
#     4  11  23  38  63  92 123 164 204 253 305 362
#     4  11  22  44  59  93 121 163 208 254 308 364
#     4  11  23  38  67  97 124 160 208 253 303 365
#     4  11  24  38  67  85 126 163 205 256 305 367
#     4  10  21  38  62  92 130 156 201 253 306 356
#
# _framework density 20.663678000000001
#
# number of rings (size 3 to 8) (size 9 to 14) (size 15 to 20)
#    0.000    1.333    1.667    4.500    7.000    1.667 
#    0.000    0.000    0.000    2.000    0.000    0.000 
#    0.000    0.000    0.000    0.000    0.000    0.000 
#
# Total GULP energy -594912.104405 kJ/mol
# GULP energy per Si atom -12394.002175 kJ/mol
# Density = 2.061665 g / cm^3
# Si number density = 20.663678 Si / 1000 Ang^3
#
#
#
# Elastic Constant Matrix: (Units=GPa)
#
#
# Indices 1 2 3 4 5 6 
#
# 1 132.3104 46.9835 22.7639 0.0000 0.0000 0.0000
# 2 46.9835 94.7314 25.0977 0.0000 0.0000 0.0000
# 3 22.7639 25.0977 72.9806 0.0000 0.0000 0.0000
# 4 0.0000 0.0000 0.0000 20.3761 0.0000 0.0000
# 5 0.0000 0.0000 0.0000 0.0000 -40.3773 0.0000
# 6 0.0000 0.0000 0.0000 0.0000 0.0000 31.6538
#
#
#
# Elastic Compliance Matrix: (Units=1/GPa)
#
#
# Indices 1 2 3 4 5 6 
#
# 1 0.009311 -0.004234 -0.001448 0.000000 0.000000 0.000000
# 2 -0.004234 0.013540 -0.003336 0.000000 0.000000 0.000000
# 3 -0.001448 -0.003336 0.015301 0.000000 0.000000 0.000000
# 4 0.000000 0.000000 0.000000 0.049077 0.000000 0.000000
# 5 0.000000 0.000000 0.000000 0.000000 -0.024766 0.000000
# 6 0.000000 0.000000 0.000000 0.000000 0.000000 0.031592
#
#
# Mechanical properties :
#
#
# Convention : Reuss Voigt Hill
#
# Bulk Modulus (GPa) = 49.71167 54.41250 52.06209
# Shear Modulus (GPa) = 42.08929 16.00899 29.04914
#
# Velocity S-wave (km/s) = 4.51807 2.78644 3.75348
# Velocity P-wave (km/s) = 7.16429 6.06151 6.63585
#
# Compressibility (1/GPa) = 0.02011600
#
# Stress axis : x y z
#
# Youngs Moduli (GPa) = 107.40374 73.85606 65.35498
#
# Poissons Ratio (x) = 0.31272 0.09464
# Poissons Ratio (y) = 0.45476 0.21800
# Poissons Ratio (z) = 0.15553 0.24635
#
# Static dielectric constant tensor:
#      x y z
#    x 4.357300 0.000000 0.000000 
#    y 0.000000 3.738320 0.000000 
#    z 0.000000 0.000000 4.222730 
# 
# 
# High freq. dielectric constant tensor:
#      x y z
#    x 1.827340 0.000000 0.000000 
#    y 0.000000 1.786300 0.000000 
#    z 0.000000 0.000000 1.822630 
# 
# From -- ./inp_files/16906.got.cif
#   From: 2010.03.12/outbox.cif.g09.slc.cpg/sg50_9_cif.got.tgz:16906.got - 2010.04.16 13:23:21.
