data_PCOD8205445
_publ_section_title
;
Structure prediction by ZEFSAII (Michael W. Deem and Ramdas Pophale) SiO2 
 PCOD8205445
Probable space group: P B A N
;
_chemical_formula_sum "Si O2"
_cell_formula_units_Z 48
_cell_length_a 5.314168
_cell_length_b 30.497963
_cell_length_c 12.824807
_cell_angle_alpha 90.000000
_cell_angle_beta 90.000000
_cell_angle_gamma 90.000000
_cell_volume 2078.533130
_symmetry_space_group_name_H-M "P B A N"
_symmetry_group_IT_number 50
_space_group.IT_coordinate_system_code '2'
_symmetry_cell_setting 'orthorhombic'
loop_
_space_group_symop_operation_xyz
x,y,z
1/2-x,1/2-y,z
x,1/2-y,-z
1/2-x,y,-z
-x,-y,-z
1/2+x,1/2+y,-z
-x,1/2+y,z
1/2+x,-y,z
loop_
_atom_site_type_symbol
_atom_site_label
_atom_site_fract_x
_atom_site_fract_y
_atom_site_fract_z
Si Si1 0.750000 0.399155 0.000000
Si Si2 0.425404 0.322817 0.400680
Si Si3 0.250000 0.750000 0.675953
Si Si4 0.385471 0.975343 0.857388
Si Si5 0.250000 0.606188 0.500000
Si Si6 0.638075 0.798105 0.791669
Si Si7 0.750000 0.847518 0.000000
Si Si8 0.093873 0.974536 0.388903
O O1 0.850255 0.427021 0.097460
O O2 0.500514 0.373083 0.037973
O O3 0.250000 0.322092 0.500000
O O4 0.554346 0.274832 0.398700
O O5 0.613029 0.363647 0.414425
O O6 0.276691 0.329477 0.292130
O O7 0.356569 0.789403 0.749270
O O8 0.402106 0.971173 0.734439
O O9 0.646672 0.996307 0.897747
O O10 0.439550 0.574522 0.435121
O O11 0.750000 0.750000 0.797757
O O12 0.644088 0.818922 0.904991
O O13 0.366480 0.993843 0.426092
#
# Coordination Sequence:
#
# PCOD8205445 Si02
#       8
#     4   8   4   8   4   8   4   8
#     4  12  26  41  71 106 147 180 227 318 359 425
#     4  11  26  43  70 108 140 189 238 302 368 431
#     4  10  24  49  75  98 148 194 251 299 364 458
#     4  10  21  42  69  97 133 190 241 284 348 436
#     4  12  26  39  68 100 146 180 232 307 360 436
#     4  10  25  48  73  99 139 195 242 293 356 452
#     4  12  29  45  72 112 149 184 239 302 374 421
#     4  10  24  44  69  97 138 192 241 286 355 438
#
# _framework density 23.093209000000002
#
# number of rings (size 3 to 8) (size 9 to 14) (size 15 to 20)
#    0.000    1.333    0.000    3.250    9.333    9.333 
#    0.000    0.000    0.000    0.000    0.000    0.000 
#    0.000    0.000    0.000    0.000    0.000    0.000 
#
# Total GULP energy -595096.488207 kJ/mol
# GULP energy per Si atom -12397.843504 kJ/mol
# Density = 2.304065 g / cm^3
# Si number density = 23.093209 Si / 1000 Ang^3
#
#
#
# Elastic Constant Matrix: (Units=GPa)
#
#
# Indices 1 2 3 4 5 6 
#
# 1 111.0642 44.6148 38.3960 0.0000 0.0000 0.0000
# 2 44.6148 117.4593 58.8750 0.0000 0.0000 0.0000
# 3 38.3960 58.8750 103.9555 0.0000 0.0000 0.0000
# 4 0.0000 0.0000 0.0000 41.1304 0.0000 0.0000
# 5 0.0000 0.0000 0.0000 0.0000 32.8651 0.0000
# 6 0.0000 0.0000 0.0000 0.0000 0.0000 20.3519
#
#
#
# Elastic Compliance Matrix: (Units=1/GPa)
#
#
# Indices 1 2 3 4 5 6 
#
# 1 0.011030 -0.002999 -0.002375 0.000000 0.000000 0.000000
# 2 -0.002999 0.012704 -0.006087 0.000000 0.000000 0.000000
# 3 -0.002375 -0.006087 0.013944 0.000000 0.000000 0.000000
# 4 0.000000 0.000000 0.000000 0.024313 0.000000 0.000000
# 5 0.000000 0.000000 0.000000 0.000000 0.030427 0.000000
# 6 0.000000 0.000000 0.000000 0.000000 0.000000 0.049135
#
#
# Mechanical properties :
#
#
# Convention : Reuss Voigt Hill
#
# Bulk Modulus (GPa) = 67.77375 68.47229 68.12302
# Shear Modulus (GPa) = 29.51692 31.57571 30.54631
#
# Velocity S-wave (km/s) = 3.57902 3.70173 3.64090
# Velocity P-wave (km/s) = 6.81842 6.92714 6.87299
#
# Compressibility (1/GPa) = 0.01475497
#
# Stress axis : x y z
#
# Youngs Moduli (GPa) = 90.66500 78.71720 71.71379
#
# Poissons Ratio (x) = 0.23605 0.17035
# Poissons Ratio (y) = 0.27188 0.43653
# Poissons Ratio (z) = 0.21537 0.47916
#
# Static dielectric constant tensor:
#      x y z
#    x 4.471110 0.000000 0.000000 
#    y 0.000000 4.117370 0.000000 
#    z 0.000000 0.000000 4.677470 
# 
# 
# High freq. dielectric constant tensor:
#      x y z
#    x 1.925300 0.000000 0.000000 
#    y 0.000000 1.905340 0.000000 
#    z 0.000000 0.000000 1.932660 
# 
# From -- ./inp_files/24119.got.cif
#   From: 2010.03.12/outbox.cif.g09.slc.cpg/sg50_13_cif.got.tgz:24119.got - 2010.04.16 13:23:21.
