data_PCOD8205162
_publ_section_title
;
Structure prediction by ZEFSAII (Michael W. Deem and Ramdas Pophale) SiO2 
 PCOD8205162
Probable space group: P B A N
;
_chemical_formula_sum "Si O2"
_cell_formula_units_Z 56
_cell_length_a 16.493062
_cell_length_b 12.234988
_cell_length_c 13.508344
_cell_angle_alpha 90.000000
_cell_angle_beta 90.000000
_cell_angle_gamma 90.000000
_cell_volume 2725.881367
_symmetry_space_group_name_H-M "P B A N"
_symmetry_group_IT_number 50
_space_group.IT_coordinate_system_code '2'
_symmetry_cell_setting 'orthorhombic'
loop_
_space_group_symop_operation_xyz
x,y,z
1/2-x,1/2-y,z
x,1/2-y,-z
1/2-x,y,-z
-x,-y,-z
1/2+x,1/2+y,-z
-x,1/2+y,z
1/2+x,-y,z
loop_
_atom_site_type_symbol
_atom_site_label
_atom_site_fract_x
_atom_site_fract_y
_atom_site_fract_z
Si Si1 0.604879 0.038356 0.153902
Si Si2 0.596402 0.456127 0.348402
Si Si3 0.937948 0.643716 0.306207
Si Si4 0.154457 0.125049 0.985219
Si Si5 0.764436 0.376705 0.288649
Si Si6 0.667644 0.529651 0.547571
Si Si7 0.442929 0.133339 0.200474
O O1 0.580372 0.961215 0.242237
O O2 0.687839 0.101846 0.184932
O O3 0.530247 0.124922 0.143780
O O4 0.614384 0.965924 0.055641
O O5 0.531685 0.356868 0.341707
O O6 0.676106 0.430578 0.284667
O O7 0.610753 0.479194 0.463311
O O8 0.556806 0.562456 0.299613
O O9 0.876924 0.632451 0.399809
O O10 0.921080 0.746206 0.237162
O O11 0.127997 0.094126 0.874060
O O12 0.122742 0.250000 0.000000
O O13 0.250000 0.119649 0.000000
O O14 0.750000 0.250000 0.308752
O O15 0.814164 0.428393 0.379559
O O16 0.750000 0.577211 0.500000
#
# Coordination Sequence:
#
# PCOD8205162 Si02
#       7
#     8   8   8   8   8   8   8
#     4  10  21  39  61  89 124 153 203 262 305 377
#     4  10  21  36  56  87 119 158 204 255 305 365
#     4  10  20  37  58  85 120 162 207 250 309 370
#     4  11  22  39  63  90 117 159 202 251 316 379
#     4  10  20  38  62  88 118 160 203 249 312 369
#     4   9  20  37  55  85 122 160 205 258 301 360
#     4  11  22  38  61  86 119 162 198 252 314 366
#
# _framework density 20.543814000000001
#
# number of rings (size 3 to 8) (size 9 to 14) (size 15 to 20)
#    0.000    1.857    1.429    2.571    0.000    3.143 
#    0.000    3.571    0.000    0.857    0.000    0.000 
#    0.000    0.000    0.000    0.000    0.000    0.000 
#
# Total GULP energy -694146.121301 kJ/mol
# GULP energy per Si atom -12395.466452 kJ/mol
# Density = 2.049706 g / cm^3
# Si number density = 20.543814 Si / 1000 Ang^3
#
#
#
# Elastic Constant Matrix: (Units=GPa)
#
#
# Indices 1 2 3 4 5 6 
#
# 1 124.4813 49.2464 58.4307 0.0000 0.0000 0.0000
# 2 49.2464 85.4795 40.6976 0.0000 0.0000 0.0000
# 3 58.4307 40.6976 110.3033 0.0000 0.0000 0.0000
# 4 0.0000 0.0000 0.0000 29.0703 0.0000 0.0000
# 5 0.0000 0.0000 0.0000 0.0000 25.3169 0.0000
# 6 0.0000 0.0000 0.0000 0.0000 0.0000 25.3629
#
#
#
# Elastic Compliance Matrix: (Units=1/GPa)
#
#
# Indices 1 2 3 4 5 6 
#
# 1 0.012099 -0.004754 -0.004655 0.000000 0.000000 0.000000
# 2 -0.004754 0.016060 -0.003407 0.000000 0.000000 0.000000
# 3 -0.004655 -0.003407 0.012789 0.000000 0.000000 0.000000
# 4 0.000000 0.000000 0.000000 0.034399 0.000000 0.000000
# 5 0.000000 0.000000 0.000000 0.000000 0.039499 0.000000
# 6 0.000000 0.000000 0.000000 0.000000 0.000000 0.039428
#
#
# Mechanical properties :
#
#
# Convention : Reuss Voigt Hill
#
# Bulk Modulus (GPa) = 65.29464 68.55704 66.92584
# Shear Modulus (GPa) = 27.02522 27.40932 27.21727
#
# Velocity S-wave (km/s) = 3.63091 3.65662 3.64378
# Velocity P-wave (km/s) = 7.03065 7.16040 7.09582
#
# Compressibility (1/GPa) = 0.01531519
#
# Stress axis : x y z
#
# Youngs Moduli (GPa) = 82.64948 62.26720 78.19255
#
# Poissons Ratio (x) = 0.29603 0.36400
# Poissons Ratio (y) = 0.39294 0.26640
# Poissons Ratio (z) = 0.38475 0.21214
#
# Static dielectric constant tensor:
#      x y z
#    x 4.209640 0.000000 0.000000 
#    y 0.000000 3.565810 0.000000 
#    z 0.000000 0.000000 3.731070 
# 
# 
# High freq. dielectric constant tensor:
#      x y z
#    x 1.817370 0.000000 0.000000 
#    y 0.000000 1.784660 0.000000 
#    z 0.000000 0.000000 1.800190 
# 
# From -- ./inp_files/25924.got.cif
#   From: 2010.03.12/outbox.cif.g09.slc.cpg/sg50_13_cif.got.tgz:25924.got - 2010.04.16 13:23:21.
