data_PCOD8205435
_publ_section_title
;
Structure prediction by ZEFSAII (Michael W. Deem and Ramdas Pophale) SiO2 
 PCOD8205435
Probable space group: P B A N
;
_chemical_formula_sum "Si O2"
_cell_formula_units_Z 34
_cell_length_a 11.994436
_cell_length_b 8.880429
_cell_length_c 13.564637
_cell_angle_alpha 90.000000
_cell_angle_beta 90.000000
_cell_angle_gamma 90.000000
_cell_volume 1444.847311
_symmetry_space_group_name_H-M "P B A N"
_symmetry_group_IT_number 50
_space_group.IT_coordinate_system_code '2'
_symmetry_cell_setting 'orthorhombic'
loop_
_space_group_symop_operation_xyz
x,y,z
1/2-x,1/2-y,z
x,1/2-y,-z
1/2-x,y,-z
-x,-y,-z
1/2+x,1/2+y,-z
-x,1/2+y,z
1/2+x,-y,z
loop_
_atom_site_type_symbol
_atom_site_label
_atom_site_fract_x
_atom_site_fract_y
_atom_site_fract_z
Si Si1 0.250000 0.250000 0.500000
Si Si2 0.088630 0.665497 0.906005
Si Si3 0.133969 0.317790 0.870459
Si Si4 0.912965 0.890124 0.653222
Si Si5 0.873041 0.273325 0.311673
O O1 0.169268 0.146722 0.435526
O O2 0.111100 0.486848 0.910191
O O3 0.134736 0.745284 0.807023
O O4 0.956042 0.697956 0.909915
O O5 0.144705 0.750000 0.000000
O O6 0.250000 0.250000 0.909107
O O7 0.134492 0.315010 0.752047
O O8 0.041842 0.842578 0.637157
O O9 0.922319 0.066829 0.661902
O O10 0.750000 0.250000 0.356445
#
# Coordination Sequence:
#
# PCOD8205435 Si02
#       5
#     2   8   8   8   8
#     4  12  24  44  76 104 138 176 238 294 336 428
#     4  10  22  40  66 101 137 179 238 284 333 413
#     4  10  21  41  67  97 141 186 223 285 354 406
#     4  10  24  43  71 101 138 183 231 286 354 408
#     4  10  24  45  69  97 143 186 226 281 355 411
#
# _framework density 23.531898000000002
#
# number of rings (size 3 to 8) (size 9 to 14) (size 15 to 20)
#    0.000    1.882    1.176    0.706    3.294   11.294 
#    0.000    7.059    0.000    0.000    0.000    0.000 
#    0.000    0.000    0.000    0.000    0.000    0.000 
#
# Total GULP energy -421586.602907 kJ/mol
# GULP energy per Si atom -12399.605968 kJ/mol
# Density = 2.347834 g / cm^3
# Si number density = 23.531898 Si / 1000 Ang^3
#
#
#
# Elastic Constant Matrix: (Units=GPa)
#
#
# Indices 1 2 3 4 5 6 
#
# 1 199.8874 82.6313 32.3191 0.0000 0.0000 0.0000
# 2 82.6313 117.4699 36.4894 0.0000 0.0000 0.0000
# 3 32.3191 36.4894 112.6983 0.0000 0.0000 0.0000
# 4 0.0000 0.0000 0.0000 17.4059 0.0000 0.0000
# 5 0.0000 0.0000 0.0000 0.0000 108.5852 0.0000
# 6 0.0000 0.0000 0.0000 0.0000 0.0000 36.3970
#
#
#
# Elastic Compliance Matrix: (Units=1/GPa)
#
#
# Indices 1 2 3 4 5 6 
#
# 1 0.007076 -0.004833 -0.000464 0.000000 0.000000 0.000000
# 2 -0.004833 0.012766 -0.002747 0.000000 0.000000 0.000000
# 3 -0.000464 -0.002747 0.009896 0.000000 0.000000 0.000000
# 4 0.000000 0.000000 0.000000 0.057452 0.000000 0.000000
# 5 0.000000 0.000000 0.000000 0.000000 0.009209 0.000000
# 6 0.000000 0.000000 0.000000 0.000000 0.000000 0.027475
#
#
# Mechanical properties :
#
#
# Convention : Reuss Voigt Hill
#
# Bulk Modulus (GPa) = 73.26967 81.43724 77.35345
# Shear Modulus (GPa) = 34.59905 51.05202 42.82553
#
# Velocity S-wave (km/s) = 3.83861 4.66282 4.27065
# Velocity P-wave (km/s) = 7.13096 7.97944 7.56710
#
# Compressibility (1/GPa) = 0.01364821
#
# Stress axis : x y z
#
# Youngs Moduli (GPa) = 141.32608 78.33355 101.05166
#
# Poissons Ratio (x) = 0.37859 0.04692
# Poissons Ratio (y) = 0.68304 0.27762
# Poissons Ratio (z) = 0.06562 0.21521
#
# Static dielectric constant tensor:
#      x y z
#    x 4.249580 0.000000 0.000000 
#    y 0.000000 3.963660 0.000000 
#    z 0.000000 0.000000 4.694680 
# 
# 
# High freq. dielectric constant tensor:
#      x y z
#    x 1.940720 0.000000 0.000000 
#    y 0.000000 1.925990 0.000000 
#    z 0.000000 0.000000 1.932060 
# 
# From -- ./inp_files/25675.got.cif
#   From: 2010.03.12/outbox.cif.g09.slc.cpg/sg50_13_cif.got.tgz:25675.got - 2010.04.16 13:23:21.
