data_PCOD8205111
_publ_section_title
;
Structure prediction by ZEFSAII (Michael W. Deem and Ramdas Pophale) SiO2 
 PCOD8205111
Probable space group: P B A N
;
_chemical_formula_sum "Si O2"
_cell_formula_units_Z 32
_cell_length_a 18.271515
_cell_length_b 9.300728
_cell_length_c 8.381579
_cell_angle_alpha 90.000000
_cell_angle_beta 90.000000
_cell_angle_gamma 90.000000
_cell_volume 1424.352051
_symmetry_space_group_name_H-M "P B A N"
_symmetry_group_IT_number 50
_space_group.IT_coordinate_system_code '2'
_symmetry_cell_setting 'orthorhombic'
loop_
_space_group_symop_operation_xyz
x,y,z
1/2-x,1/2-y,z
x,1/2-y,-z
1/2-x,y,-z
-x,-y,-z
1/2+x,1/2+y,-z
-x,1/2+y,z
1/2+x,-y,z
loop_
_atom_site_type_symbol
_atom_site_label
_atom_site_fract_x
_atom_site_fract_y
_atom_site_fract_z
Si Si1 0.636028 0.886887 0.389647
Si Si2 0.583353 0.016381 0.690345
Si Si3 0.762510 0.580008 0.824595
Si Si4 0.512574 0.750494 0.811252
O O1 0.660410 0.750000 0.500000
O O2 0.592746 0.000958 0.499859
O O3 0.704482 0.971446 0.310145
O O4 0.584712 0.833535 0.246597
O O5 0.657408 0.969299 0.776769
O O6 0.517107 0.914047 0.750564
O O7 0.560283 0.178229 0.735858
O O8 0.750000 0.750000 0.830687
O O9 0.750000 0.512870 0.000000
O O10 0.508329 0.750000 0.000000
#
# Coordination Sequence:
#
# PCOD8205111 Si02
#       4
#     8   8   8   8
#     4  10  20  35  59  91 121 158 209 267 310 367
#     4  11  23  37  62  91 121 162 204 260 319 372
#     4  11  20  35  61  90 117 153 216 266 304 365
#     4  11  22  38  58  89 126 161 201 252 316 380
#
# _framework density 22.466356000000001
#
# number of rings (size 3 to 8) (size 9 to 14) (size 15 to 20)
#    0.000    1.250    5.000    3.750    0.000    0.000 
#    0.000    0.000    0.000    5.250    0.000   14.000 
#    0.000    0.000    0.000    0.000    0.000    0.000 
#
# Total GULP energy -396713.270930 kJ/mol
# GULP energy per Si atom -12397.289717 kJ/mol
# Density = 2.241522 g / cm^3
# Si number density = 22.466356 Si / 1000 Ang^3
#
#
#
# Elastic Constant Matrix: (Units=GPa)
#
#
# Indices 1 2 3 4 5 6 
#
# 1 89.7190 31.6616 26.9831 0.0000 0.0000 0.0000
# 2 31.6616 35.0600 24.7562 0.0000 0.0000 0.0000
# 3 26.9831 24.7562 152.3375 0.0000 0.0000 0.0000
# 4 0.0000 0.0000 0.0000 16.1536 0.0000 0.0000
# 5 0.0000 0.0000 0.0000 0.0000 28.1245 0.0000
# 6 0.0000 0.0000 0.0000 0.0000 0.0000 15.9123
#
#
#
# Elastic Compliance Matrix: (Units=1/GPa)
#
#
# Indices 1 2 3 4 5 6 
#
# 1 0.016402 -0.014415 -0.000563 0.000000 0.000000 0.000000
# 2 -0.014415 0.044888 -0.004741 0.000000 0.000000 0.000000
# 3 -0.000563 -0.004741 0.007435 0.000000 0.000000 0.000000
# 4 0.000000 0.000000 0.000000 0.061906 0.000000 0.000000
# 5 0.000000 0.000000 0.000000 0.000000 0.035556 0.000000
# 6 0.000000 0.000000 0.000000 0.000000 0.000000 0.062844
#
#
# Mechanical properties :
#
#
# Convention : Reuss Voigt Hill
#
# Bulk Modulus (GPa) = 34.14514 49.32426 41.73470
# Shear Modulus (GPa) = 17.97063 24.95246 21.46154
#
# Velocity S-wave (km/s) = 2.83130 3.33627 3.09410
# Velocity P-wave (km/s) = 5.09114 6.06987 5.60192
#
# Compressibility (1/GPa) = 0.02928675
#
# Stress axis : x y z
#
# Youngs Moduli (GPa) = 60.96765 22.27753 134.50676
#
# Poissons Ratio (x) = 0.32113 0.07569
# Poissons Ratio (y) = 0.87885 0.63776
# Poissons Ratio (z) = 0.03431 0.10563
#
# Static dielectric constant tensor:
#      x y z
#    x 4.087560 0.000000 0.000000 
#    y 0.000000 3.746110 0.000000 
#    z 0.000000 0.000000 4.585230 
# 
# 
# High freq. dielectric constant tensor:
#      x y z
#    x 1.886760 0.000000 0.000000 
#    y 0.000000 1.829250 0.000000 
#    z 0.000000 0.000000 1.910980 
# 
# From -- ./inp_files/9119.got.cif
#   From: 2010.03.12/outbox.cif.g09.slc.cpg/sg50_5_cif.got.tgz:9119.got - 2010.04.16 13:23:21.
