data_PCOD8205051
_publ_section_title
;
Structure prediction by ZEFSAII (Michael W. Deem and Ramdas Pophale) SiO2 
 PCOD8205051
Probable space group: P B A N
;
_chemical_formula_sum "Si O2"
_cell_formula_units_Z 64
_cell_length_a 14.742112
_cell_length_b 18.378913
_cell_length_c 11.444927
_cell_angle_alpha 90.000000
_cell_angle_beta 90.000000
_cell_angle_gamma 90.000000
_cell_volume 3100.934231
_symmetry_space_group_name_H-M "P B A N"
_symmetry_group_IT_number 50
_space_group.IT_coordinate_system_code '2'
_symmetry_cell_setting 'orthorhombic'
loop_
_space_group_symop_operation_xyz
x,y,z
1/2-x,1/2-y,z
x,1/2-y,-z
1/2-x,y,-z
-x,-y,-z
1/2+x,1/2+y,-z
-x,1/2+y,z
1/2+x,-y,z
loop_
_atom_site_type_symbol
_atom_site_label
_atom_site_fract_x
_atom_site_fract_y
_atom_site_fract_z
Si Si1 0.928700 0.029587 0.252550
Si Si2 0.473137 0.712054 0.385747
Si Si3 0.851102 0.651167 0.493731
Si Si4 0.586956 0.435473 0.720819
Si Si5 0.650399 0.488976 0.487809
Si Si6 0.745031 0.989008 0.138696
Si Si7 0.784911 0.824756 0.869329
Si Si8 0.454621 0.163683 0.747671
O O1 0.907314 0.050183 0.387521
O O2 0.836680 0.024489 0.182685
O O3 0.987643 0.096135 0.206559
O O4 0.987158 0.955740 0.231012
O O5 0.425459 0.750000 0.500000
O O6 0.576688 0.692388 0.423422
O O7 0.412780 0.646982 0.330273
O O8 0.478409 0.770077 0.281438
O O9 0.750000 0.687438 0.500000
O O10 0.840095 0.572185 0.551698
O O11 0.888233 0.646687 0.361778
O O12 0.597806 0.486923 0.608838
O O13 0.664267 0.457958 0.814259
O O14 0.750000 0.452583 0.500000
O O15 0.739820 0.904878 0.184935
O O16 0.750000 0.991165 0.000000
O O17 0.750000 0.750000 0.804892
O O18 0.893451 0.817692 0.860451
O O19 0.750000 0.823046 0.000000
#
# Coordination Sequence:
#
# PCOD8205051 Si02
#       8
#     8   8   8   8   8   8   8   8
#     4  12  23  40  68  94 131 171 218 282 324 395
#     4  10  23  37  58  95 138 173 213 263 329 411
#     4  10  20  32  55  94 133 168 200 251 324 405
#     4  12  22  42  67  99 130 180 222 270 336 398
#     4  11  19  33  62  96 130 162 211 266 333 399
#     4  11  26  47  68  98 128 175 238 280 328 389
#     4  10  23  42  62  93 133 166 212 277 340 396
#     4  11  23  39  60  93 132 169 213 265 332 395
#
# _framework density 20.638940000000002
#
# number of rings (size 3 to 8) (size 9 to 14) (size 15 to 20)
#    0.000    1.125    5.000    1.875    5.250    2.250 
#    0.000    0.625    0.000    0.750    0.000    0.000 
#    0.000    0.000    0.000    0.000    0.000    0.000 
#
# Total GULP energy -792904.815657 kJ/mol
# GULP energy per Si atom -12389.137745 kJ/mol
# Density = 2.059196 g / cm^3
# Si number density = 20.638940 Si / 1000 Ang^3
#
#
#
# Elastic Constant Matrix: (Units=GPa)
#
#
# Indices 1 2 3 4 5 6 
#
# 1 108.6392 43.2866 33.5444 0.0000 0.0000 0.0000
# 2 43.2866 130.7870 28.5021 0.0000 0.0000 0.0000
# 3 33.5444 28.5021 75.6623 0.0000 0.0000 0.0000
# 4 0.0000 0.0000 0.0000 21.4224 0.0000 0.0000
# 5 0.0000 0.0000 0.0000 0.0000 13.4611 0.0000
# 6 0.0000 0.0000 0.0000 0.0000 0.0000 10.5133
#
#
#
# Elastic Compliance Matrix: (Units=1/GPa)
#
#
# Indices 1 2 3 4 5 6 
#
# 1 0.011636 -0.002971 -0.004040 0.000000 0.000000 0.000000
# 2 -0.002971 0.009088 -0.002107 0.000000 0.000000 0.000000
# 3 -0.004040 -0.002107 0.015801 0.000000 0.000000 0.000000
# 4 0.000000 0.000000 0.000000 0.046680 0.000000 0.000000
# 5 0.000000 0.000000 0.000000 0.000000 0.074288 0.000000
# 6 0.000000 0.000000 0.000000 0.000000 0.000000 0.095117
#
#
# Mechanical properties :
#
#
# Convention : Reuss Voigt Hill
#
# Bulk Modulus (GPa) = 54.67025 58.41719 56.54372
# Shear Modulus (GPa) = 18.05434 23.06305 20.55869
#
# Velocity S-wave (km/s) = 2.96086 3.34646 3.15955
# Velocity P-wave (km/s) = 6.18347 6.58009 6.38486
#
# Compressibility (1/GPa) = 0.01829148
#
# Stress axis : x y z
#
# Youngs Moduli (GPa) = 85.94214 110.03127 63.28693
#
# Poissons Ratio (x) = 0.32688 0.25565
# Poissons Ratio (y) = 0.25531 0.13332
# Poissons Ratio (z) = 0.34717 0.23178
#
# Static dielectric constant tensor:
#      x y z
#    x 3.773650 0.000000 0.000000 
#    y 0.000000 4.009810 0.000000 
#    z 0.000000 0.000000 3.546230 
# 
# 
# High freq. dielectric constant tensor:
#      x y z
#    x 1.802380 0.000000 0.000000 
#    y 0.000000 1.811960 0.000000 
#    z 0.000000 0.000000 1.780830 
# 
# From -- ./inp_files/21332.got.cif
#   From: 2010.03.12/outbox.cif.g09.slc.cpg/sg50_11_cif.got.tgz:21332.got - 2010.04.16 13:23:21.
