data_PCOD8205059
_publ_section_title
;
Structure prediction by ZEFSAII (Michael W. Deem and Ramdas Pophale) SiO2 
 PCOD8205059
Probable space group: P B A N
;
_chemical_formula_sum "Si O2"
_cell_formula_units_Z 64
_cell_length_a 32.062270
_cell_length_b 9.424205
_cell_length_c 11.295550
_cell_angle_alpha 90.000000
_cell_angle_beta 90.000000
_cell_angle_gamma 90.000000
_cell_volume 3413.079261
_symmetry_space_group_name_H-M "P B A N"
_symmetry_group_IT_number 50
_space_group.IT_coordinate_system_code '2'
_symmetry_cell_setting 'orthorhombic'
loop_
_space_group_symop_operation_xyz
x,y,z
1/2-x,1/2-y,z
x,1/2-y,-z
1/2-x,y,-z
-x,-y,-z
1/2+x,1/2+y,-z
-x,1/2+y,z
1/2+x,-y,z
loop_
_atom_site_type_symbol
_atom_site_label
_atom_site_fract_x
_atom_site_fract_y
_atom_site_fract_z
Si Si1 0.098637 0.540708 0.860754
Si Si2 0.598637 0.459292 0.139246
Si Si3 0.318193 0.588508 0.730819
Si Si4 0.750000 0.588119 0.139283
Si Si5 0.181807 0.588508 0.730819
Si Si6 0.936414 0.750000 0.139432
Si Si7 0.200283 0.416806 0.500000
Si Si8 0.028281 0.750000 0.861430
O O1 0.136002 0.604436 0.785121
O O2 0.092251 0.379821 0.821931
O O3 0.055046 0.613320 0.824714
O O4 0.108253 0.562584 1.000000
O O5 0.636002 0.395564 0.214879
O O6 0.592251 0.620179 0.178069
O O7 0.555046 0.386680 0.175286
O O8 0.290261 0.499972 0.822082
O O9 0.301320 0.750000 0.710115
O O10 0.319170 0.498387 0.611037
O O11 0.750000 0.750000 0.193182
O O12 0.790261 0.500029 0.177918
O O13 0.750000 0.600470 0.000000
O O14 0.180830 0.498387 0.611037
O O15 0.982531 0.750000 0.200179
O O16 0.943466 0.750000 0.000000
O O17 0.187817 0.250000 0.500000
O O18 0.250000 0.434298 0.500000
O O19 0.020595 0.750000 0.000000
#
# Coordination Sequence:
#
# PCOD8205059 Si02
#       8
#     8   8   8   8   8   8   8   8
#     4  10  20  33  54  87 125 157 192 237 284 345
#     4  10  20  33  54  87 125 157 192 237 284 345
#     4  12  24  40  62  87 117 153 195 244 295 344
#     4  11  25  40  59  86 121 159 193 231 286 351
#     4  12  24  40  62  87 117 153 195 244 295 344
#     4   9  18  30  52  82 119 164 198 230 279 343
#     4  11  25  45  67  85 107 146 197 255 297 345
#     4   9  16  32  52  80 121 160 194 232 285 341
#
# _framework density 18.751394999999999
#
# number of rings (size 3 to 8) (size 9 to 14) (size 15 to 20)
#    0.000    1.500    2.500    3.000    3.500    5.500 
#    0.000    0.000    0.000    0.000    0.000    5.250 
#    0.000    0.000    0.000    0.000    0.000    0.000 
#
# Total GULP energy -793298.124777 kJ/mol
# GULP energy per Si atom -12395.283200 kJ/mol
# Density = 1.870872 g / cm^3
# Si number density = 18.751395 Si / 1000 Ang^3
#
#
#
# Elastic Constant Matrix: (Units=GPa)
#
#
# Indices 1 2 3 4 5 6 
#
# 1 78.9846 25.7514 26.6786 0.0000 0.0000 0.0000
# 2 25.7514 166.3534 35.8156 0.0000 0.0000 0.0000
# 3 26.6786 35.8156 72.1178 0.0000 0.0000 0.0000
# 4 0.0000 0.0000 0.0000 24.5387 0.0000 0.0000
# 5 0.0000 0.0000 0.0000 0.0000 0.4634 0.0000
# 6 0.0000 0.0000 0.0000 0.0000 0.0000 36.4496
#
#
#
# Elastic Compliance Matrix: (Units=1/GPa)
#
#
# Indices 1 2 3 4 5 6 
#
# 1 0.014692 -0.001236 -0.004821 0.000000 0.000000 0.000000
# 2 -0.001236 0.006835 -0.002937 0.000000 0.000000 0.000000
# 3 -0.004821 -0.002937 0.017108 0.000000 0.000000 0.000000
# 4 0.000000 0.000000 0.000000 0.040752 0.000000 0.000000
# 5 0.000000 0.000000 0.000000 0.000000 2.158018 0.000000
# 6 0.000000 0.000000 0.000000 0.000000 0.000000 0.027435
#
#
# Mechanical properties :
#
#
# Convention : Reuss Voigt Hill
#
# Bulk Modulus (GPa) = 48.43447 54.88301 51.65874
# Shear Modulus (GPa) = 2.18368 27.57102 14.87735
#
# Velocity S-wave (km/s) = 1.08031 3.83867 2.81979
# Velocity P-wave (km/s) = 5.23851 6.99853 6.18148
#
# Compressibility (1/GPa) = 0.02064645
#
# Stress axis : x y z
#
# Youngs Moduli (GPa) = 68.06332 146.30499 58.45116
#
# Poissons Ratio (x) = 0.18089 0.28180
# Poissons Ratio (y) = 0.08415 0.17168
# Poissons Ratio (z) = 0.32814 0.42971
#
# Static dielectric constant tensor:
#      x y z
#    x 3.454270 0.000000 0.000000 
#    y 0.000000 -1.019100 0.000000 
#    z 0.000000 0.000000 3.335370 
# 
# 
# High freq. dielectric constant tensor:
#      x y z
#    x 1.731610 0.000000 0.000000 
#    y 0.000000 1.758210 0.000000 
#    z 0.000000 0.000000 1.680020 
# 
# From -- ./inp_files/23400.got.cif
#   From: 2010.03.12/outbox.cif.g09.slc.cpg/sg50_12_cif.got.tgz:23400.got - 2010.04.16 13:23:21.
