data_PCOD8205727
_publ_section_title
;
Structure prediction by ZEFSAII (Michael W. Deem and Ramdas Pophale) SiO2 
 PCOD8205727
Probable space group: P B A N
;
_chemical_formula_sum "Si O2"
_cell_formula_units_Z 64
_cell_length_a 13.457561
_cell_length_b 23.864412
_cell_length_c 9.314862
_cell_angle_alpha 90.000000
_cell_angle_beta 90.000000
_cell_angle_gamma 90.000000
_cell_volume 2991.531088
_symmetry_space_group_name_H-M "P B A N"
_symmetry_group_IT_number 50
_space_group.IT_coordinate_system_code '2'
_symmetry_cell_setting 'orthorhombic'
loop_
_space_group_symop_operation_xyz
x,y,z
1/2-x,1/2-y,z
x,1/2-y,-z
1/2-x,y,-z
-x,-y,-z
1/2+x,1/2+y,-z
-x,1/2+y,z
1/2+x,-y,z
loop_
_atom_site_type_symbol
_atom_site_label
_atom_site_fract_x
_atom_site_fract_y
_atom_site_fract_z
Si Si1 0.070508 0.975924 0.621650
Si Si2 0.328161 0.588166 0.116832
Si Si3 0.591845 0.532195 0.843932
Si Si4 0.353583 0.375629 0.929535
Si Si5 0.135089 0.741758 0.336673
Si Si6 0.957707 0.195542 0.907644
Si Si7 0.189606 0.872462 0.632977
Si Si8 0.773321 0.928825 0.342108
O O1 0.116162 0.918108 0.565579
O O2 0.016624 0.962208 0.772764
O O3 0.163202 0.015631 0.644085
O O4 0.000000 0.000000 0.500000
O O5 0.398855 0.534253 0.130258
O O6 0.388642 0.642028 0.060550
O O7 0.270648 0.600724 0.262747
O O8 0.250000 0.569454 0.000000
O O9 0.669939 0.554889 0.729403
O O10 0.602658 0.568871 0.989799
O O11 0.429127 0.323402 0.936217
O O12 0.335039 0.387097 0.760523
O O13 0.250000 0.356407 0.000000
O O14 0.250000 0.750000 0.295645
O O15 0.106219 0.750000 0.500000
O O16 0.061489 0.783802 0.254355
O O17 0.120785 0.675858 0.295298
O O18 0.928557 0.250000 0.000000
O O19 0.250000 0.844177 0.500000
O O20 0.750000 0.902460 0.500000
#
# Coordination Sequence:
#
# PCOD8205727 Si02
#       8
#     8   8   8   8   8   8   8   8
#     4  12  24  37  64 100 138 176 226 270 330 417
#     4  12  24  39  65  99 137 173 217 274 337 414
#     4  11  24  42  64  99 138 181 223 276 349 407
#     4  10  26  48  70  96 136 179 231 293 341 400
#     4  11  22  44  65  97 140 178 217 279 340 414
#     4  12  27  44  71 100 131 180 233 280 341 413
#     4  12  23  40  66  93 140 182 213 268 344 402
#     4  11  21  43  65  96 140 174 220 278 338 411
#
# _framework density 21.393726999999998
#
# number of rings (size 3 to 8) (size 9 to 14) (size 15 to 20)
#    0.000    0.625    5.000    3.750    3.500    2.250 
#    0.000    0.000    0.000    0.000    0.000    0.000 
#    0.000    0.000    0.000    0.000    0.000    0.000 
#
# Total GULP energy -793421.941868 kJ/mol
# GULP energy per Si atom -12397.217842 kJ/mol
# Density = 2.134503 g / cm^3
# Si number density = 21.393727 Si / 1000 Ang^3
#
#
#
# Elastic Constant Matrix: (Units=GPa)
#
#
# Indices 1 2 3 4 5 6 
#
# 1 67.4679 36.8173 29.3656 0.0000 0.0000 0.0000
# 2 36.8173 113.6936 26.8672 0.0000 0.0000 0.0000
# 3 29.3656 26.8672 116.9458 0.0000 0.0000 0.0000
# 4 0.0000 0.0000 0.0000 30.9607 0.0000 0.0000
# 5 0.0000 0.0000 0.0000 0.0000 30.7997 0.0000
# 6 0.0000 0.0000 0.0000 0.0000 0.0000 37.2456
#
#
#
# Elastic Compliance Matrix: (Units=1/GPa)
#
#
# Indices 1 2 3 4 5 6 
#
# 1 0.019348 -0.005411 -0.003615 0.000000 0.000000 0.000000
# 2 -0.005411 0.010814 -0.001126 0.000000 0.000000 0.000000
# 3 -0.003615 -0.001126 0.009717 0.000000 0.000000 0.000000
# 4 0.000000 0.000000 0.000000 0.032299 0.000000 0.000000
# 5 0.000000 0.000000 0.000000 0.000000 0.032468 0.000000
# 6 0.000000 0.000000 0.000000 0.000000 0.000000 0.026849
#
#
# Mechanical properties :
#
#
# Convention : Reuss Voigt Hill
#
# Bulk Modulus (GPa) = 51.08457 53.80084 52.44270
# Shear Modulus (GPa) = 31.58068 33.47166 32.52617
#
# Velocity S-wave (km/s) = 3.84626 3.95974 3.90341
# Velocity P-wave (km/s) = 6.60720 6.79033 6.69939
#
# Compressibility (1/GPa) = 0.01957538
#
# Stress axis : x y z
#
# Youngs Moduli (GPa) = 51.68409 92.47385 102.90839
#
# Poissons Ratio (x) = 0.50040 0.37204
# Poissons Ratio (y) = 0.27967 0.11583
# Poissons Ratio (z) = 0.18685 0.10409
#
# Static dielectric constant tensor:
#      x y z
#    x 3.854510 0.000000 0.000000 
#    y 0.000000 3.908250 0.000000 
#    z 0.000000 0.000000 3.909840 
# 
# 
# High freq. dielectric constant tensor:
#      x y z
#    x 1.834460 0.000000 0.000000 
#    y 0.000000 1.835590 0.000000 
#    z 0.000000 0.000000 1.848700 
# 
# From -- ./inp_files/13465.got.cif
#   From: 2010.03.12/outbox.cif.g09.slc.cpg/sg50_7_cif.got.tgz:13465.got - 2010.04.16 13:23:21.
