data_PCOD8205184
_publ_section_title
;
Structure prediction by ZEFSAII (Michael W. Deem and Ramdas Pophale) SiO2 
 PCOD8205184
Probable space group: P B A N
;
_chemical_formula_sum "Si O2"
_cell_formula_units_Z 56
_cell_length_a 17.136478
_cell_length_b 11.209210
_cell_length_c 15.095234
_cell_angle_alpha 90.000000
_cell_angle_beta 90.000000
_cell_angle_gamma 90.000000
_cell_volume 2899.588863
_symmetry_space_group_name_H-M "P B A N"
_symmetry_group_IT_number 50
_space_group.IT_coordinate_system_code '2'
_symmetry_cell_setting 'orthorhombic'
loop_
_space_group_symop_operation_xyz
x,y,z
1/2-x,1/2-y,z
x,1/2-y,-z
1/2-x,y,-z
-x,-y,-z
1/2+x,1/2+y,-z
-x,1/2+y,z
1/2+x,-y,z
loop_
_atom_site_type_symbol
_atom_site_label
_atom_site_fract_x
_atom_site_fract_y
_atom_site_fract_z
Si Si1 0.590591 0.515582 0.160268
Si Si2 0.057947 0.112969 0.500000
Si Si3 0.335478 0.250000 0.899967
Si Si4 0.839261 0.885433 0.327107
Si Si5 0.164303 0.888201 1.000000
Si Si6 0.160738 0.114567 0.327106
Si Si7 0.909410 0.515582 0.160268
O O1 0.608497 0.640101 0.115951
O O2 0.635284 0.515325 0.254806
O O3 0.500000 0.500000 0.179999
O O4 0.618929 0.416540 0.090861
O O5 0.021296 0.250000 0.500000
O O6 0.110788 0.097163 0.585616
O O7 0.110786 0.097162 0.414383
O O8 0.000000 0.000000 0.500000
O O9 0.250000 0.250000 0.848043
O O10 0.391503 0.140101 0.884049
O O11 0.310414 0.250000 0.000000
O O12 0.851869 0.750000 0.288568
O O13 0.750000 0.907161 0.353345
O O14 0.118929 0.916540 0.090860
O O15 0.177698 0.750000 0.000000
O O16 0.250000 0.952330 0.000000
O O17 0.135284 0.015325 0.254805
#
# Coordination Sequence:
#
# PCOD8205184 Si02
#       7
#     8   8   8   8   8   8   8
#     4  12  24  36  60  88 121 154 203 260 310 359
#     4  10  21  39  63  95 129 162 200 260 321 375
#     4  11  22  38  62  85 111 155 210 256 304 361
#     4  10  20  37  63  91 120 158 209 258 307 363
#     4  11  25  41  57  81 123 169 203 243 309 385
#     4  10  20  37  63  91 120 158 209 258 307 363
#     4  12  24  36  60  88 121 154 203 260 310 359
#
# _framework density 19.313084
#
# number of rings (size 3 to 8) (size 9 to 14) (size 15 to 20)
#    0.000    1.143    2.857    4.286    2.000    1.714 
#    0.000    1.429    0.000    3.429    0.000    0.000 
#    0.000    0.000    0.000    0.000    0.000    0.000 
#
# Total GULP energy -693952.298956 kJ/mol
# GULP energy per Si atom -12392.005338 kJ/mol
# Density = 1.926913 g / cm^3
# Si number density = 19.313084 Si / 1000 Ang^3
#
#
#
# Elastic Constant Matrix: (Units=GPa)
#
#
# Indices 1 2 3 4 5 6 
#
# 1 141.6711 53.2177 42.6317 0.0000 0.0000 0.0000
# 2 53.2177 88.0589 36.6207 0.0000 0.0000 0.0000
# 3 42.6317 36.6207 128.6491 0.0000 0.0000 0.0000
# 4 0.0000 0.0000 0.0000 49.3699 0.0000 0.0000
# 5 0.0000 0.0000 0.0000 0.0000 36.8191 0.0000
# 6 0.0000 0.0000 0.0000 0.0000 0.0000 40.0118
#
#
#
# Elastic Compliance Matrix: (Units=1/GPa)
#
#
# Indices 1 2 3 4 5 6 
#
# 1 0.009451 -0.005001 -0.001708 0.000000 0.000000 0.000000
# 2 -0.005001 0.015528 -0.002763 0.000000 0.000000 0.000000
# 3 -0.001708 -0.002763 0.009126 0.000000 0.000000 0.000000
# 4 0.000000 0.000000 0.000000 0.020255 0.000000 0.000000
# 5 0.000000 0.000000 0.000000 0.000000 0.027160 0.000000
# 6 0.000000 0.000000 0.000000 0.000000 0.000000 0.024993
#
#
# Mechanical properties :
#
#
# Convention : Reuss Voigt Hill
#
# Bulk Modulus (GPa) = 65.96423 69.25769 67.61096
# Shear Modulus (GPa) = 38.31117 40.30076 39.30597
#
# Velocity S-wave (km/s) = 4.45870 4.57301 4.51621
# Velocity P-wave (km/s) = 7.79333 7.98884 7.89169
#
# Compressibility (1/GPa) = 0.01515973
#
# Stress axis : x y z
#
# Youngs Moduli (GPa) = 105.80408 64.40182 109.58206
#
# Poissons Ratio (x) = 0.32210 0.18720
# Poissons Ratio (y) = 0.52918 0.30273
# Poissons Ratio (z) = 0.18075 0.17792
#
# Static dielectric constant tensor:
#      x y z
#    x 3.542990 0.000000 0.000000 
#    y 0.000000 3.467460 0.000000 
#    z 0.000000 0.000000 3.795090 
# 
# 
# High freq. dielectric constant tensor:
#      x y z
#    x 1.759110 0.000000 0.000000 
#    y 0.000000 1.731480 0.000000 
#    z 0.000000 0.000000 1.772270 
# 
# From -- ./inp_files/26502.got.cif
#   From: 2010.03.12/outbox.cif.g09.slc.cpg/sg50_14_cif.got.tgz:26502.got - 2010.04.16 13:23:21.
