data_PCOD8205988
_publ_section_title
;
Structure prediction by ZEFSAII (Michael W. Deem and Ramdas Pophale) SiO2 
 PCOD8205988
Probable space group: P M M A
;
_chemical_formula_sum "Si O2"
_cell_formula_units_Z 52
_cell_length_a 18.545333
_cell_length_b 7.909358
_cell_length_c 21.059996
_cell_angle_alpha 90.000000
_cell_angle_beta 90.000000
_cell_angle_gamma 90.000000
_cell_volume 3089.115550
_symmetry_space_group_name_H-M "P M M A"
_symmetry_group_IT_number 51
_symmetry_cell_setting 'orthorhombic'
loop_
_space_group_symop_operation_xyz
x,y,z
1/2-x,-y,z
1/2+x,-y,-z
-x,y,-z
-x,-y,-z
1/2+x,y,-z
1/2-x,y,z
x,-y,z
loop_
_atom_site_type_symbol
_atom_site_label
_atom_site_fract_x
_atom_site_fract_y
_atom_site_fract_z
Si Si1 0.885551 0.193728 0.117843
Si Si2 0.169756 0.801851 0.021640
Si Si3 0.974178 0.695232 0.931397
Si Si4 0.886777 0.500000 0.339229
Si Si5 0.165770 0.500000 0.797167
Si Si6 0.025143 0.500000 0.425359
Si Si7 0.167151 0.187866 0.588770
Si Si8 0.422948 0.818006 0.469194
O O1 0.850545 0.326526 0.165857
O O2 0.973529 0.207535 0.118220
O O3 0.864103 0.000000 0.135656
O O4 0.854177 0.247829 0.049327
O O5 0.250000 0.726147 0.034990
O O6 0.111683 0.732615 0.073462
O O7 0.172190 0.000000 0.029457
O O8 0.989528 0.500000 0.920297
O O9 0.000000 0.758720 0.000000
O O10 0.887522 0.500000 0.263343
O O11 0.846156 0.327714 0.357943
O O12 0.964968 0.500000 0.371391
O O13 0.250000 0.500000 0.777488
O O14 0.072683 0.329214 0.415582
O O15 0.000000 0.500000 0.500000
O O16 0.250000 0.177581 0.572834
O O17 0.129799 0.246887 0.524068
O O18 0.139022 0.000000 0.610033
O O19 0.500000 0.846044 0.500000
O O20 0.397413 0.000000 0.440304
#
# Coordination Sequence:
#
# PCOD8205988 Si02
#       8
#     8   8   8   4   4   4   8   8
#     4  10  20  37  54  67  93 139 182 213 245 289
#     4   9  17  28  46  75 105 131 163 207 259 310
#     4   9  16  28  48  74  97 125 166 209 259 305
#     4  12  22  35  49  68  96 127 163 206 244 276
#     4  12  26  38  49  68  95 133 179 215 239 277
#     4  10  16  29  50  70  87 116 153 189 238 289
#     4  10  19  30  46  69  97 127 154 185 233 286
#     4   9  15  26  45  67  90 118 150 182 221 282
#
# _framework density 16.833297999999999
#
# number of rings (size 3 to 8) (size 9 to 14) (size 15 to 20)
#    0.000    2.154    3.846    1.615    1.077    3.692 
#    0.000    0.000    0.000    0.000    0.000    0.000 
#    0.000    2.462    0.000    4.923    0.000    0.000 
#
# Total GULP energy -644189.558709 kJ/mol
# GULP energy per Si atom -12388.260744 kJ/mol
# Density = 1.679498 g / cm^3
# Si number density = 16.833298 Si / 1000 Ang^3
#
#
#
# Elastic Constant Matrix: (Units=GPa)
#
#
# Indices 1 2 3 4 5 6 
#
# 1 71.6419 22.3549 19.3050 0.0000 0.0000 0.0000
# 2 22.3549 102.8715 30.2487 0.0000 0.0000 0.0000
# 3 19.3050 30.2487 39.5800 0.0000 0.0000 0.0000
# 4 0.0000 0.0000 0.0000 17.9123 0.0000 0.0000
# 5 0.0000 0.0000 0.0000 0.0000 17.9699 0.0000
# 6 0.0000 0.0000 0.0000 0.0000 0.0000 25.5287
#
#
#
# Elastic Compliance Matrix: (Units=1/GPa)
#
#
# Indices 1 2 3 4 5 6 
#
# 1 0.016260 -0.001550 -0.006746 0.000000 0.000000 0.000000
# 2 -0.001550 0.012686 -0.008940 0.000000 0.000000 0.000000
# 3 -0.006746 -0.008940 0.035388 0.000000 0.000000 0.000000
# 4 0.000000 0.000000 0.000000 0.055828 0.000000 0.000000
# 5 0.000000 0.000000 0.000000 0.000000 0.055649 0.000000
# 6 0.000000 0.000000 0.000000 0.000000 0.000000 0.039172
#
#
# Mechanical properties :
#
#
# Convention : Reuss Voigt Hill
#
# Bulk Modulus (GPa) = 33.48656 39.76785 36.62720
# Shear Modulus (GPa) = 19.27475 21.76117 20.51796
#
# Velocity S-wave (km/s) = 3.38751 3.59938 3.49505
# Velocity P-wave (km/s) = 5.93604 6.39921 6.17197
#
# Compressibility (1/GPa) = 0.02986273
#
# Stress axis : x y z
#
# Youngs Moduli (GPa) = 61.50149 78.82562 28.25835
#
# Poissons Ratio (x) = 0.12215 0.19064
# Poissons Ratio (y) = 0.09531 0.25262
# Poissons Ratio (z) = 0.41491 0.70466
#
# Static dielectric constant tensor:
#      x y z
#    x 3.341550 0.000000 0.000000 
#    y 0.000000 4.127940 0.000000 
#    z 0.000000 0.000000 2.625630 
# 
# 
# High freq. dielectric constant tensor:
#      x y z
#    x 1.648790 0.000000 0.000000 
#    y 0.000000 1.677020 0.000000 
#    z 0.000000 0.000000 1.570540 
# 
# From -- ./inp_files/30140.got.cif
#   From: 2010.03.12/outbox.cif.g09.slc.cpg/sg51_16_cif.got.tgz:30140.got - 2010.04.16 13:43:02.
