data_PCOD8205021
_publ_section_title
;
Structure prediction by ZEFSAII (Michael W. Deem and Ramdas Pophale) SiO2 
 PCOD8205021
Probable space group: P B A N
;
_chemical_formula_sum "Si O2"
_cell_formula_units_Z 64
_cell_length_a 17.983538
_cell_length_b 14.378311
_cell_length_c 11.801668
_cell_angle_alpha 90.000000
_cell_angle_beta 90.000000
_cell_angle_gamma 90.000000
_cell_volume 3051.591546
_symmetry_space_group_name_H-M "P B A N"
_symmetry_group_IT_number 50
_space_group.IT_coordinate_system_code '2'
_symmetry_cell_setting 'orthorhombic'
loop_
_space_group_symop_operation_xyz
x,y,z
1/2-x,1/2-y,z
x,1/2-y,-z
1/2-x,y,-z
-x,-y,-z
1/2+x,1/2+y,-z
-x,1/2+y,z
1/2+x,-y,z
loop_
_atom_site_type_symbol
_atom_site_label
_atom_site_fract_x
_atom_site_fract_y
_atom_site_fract_z
Si Si1 0.041927 0.697150 0.293161
Si Si2 0.168783 0.063545 0.239814
Si Si3 0.387861 0.224453 0.622132
Si Si4 0.471605 0.072159 0.149206
Si Si5 0.161456 0.090705 0.710856
Si Si6 0.542964 0.879916 0.090426
Si Si7 0.078448 0.535472 0.451914
Si Si8 0.902340 0.117031 0.687473
O O1 0.069519 0.598434 0.339656
O O2 0.110814 0.771763 0.294062
O O3 0.977128 0.733719 0.377153
O O4 0.005719 0.689399 0.167804
O O5 0.133794 0.117744 0.348002
O O6 0.256475 0.069342 0.246436
O O7 0.129989 0.113677 0.130792
O O8 0.149830 0.953094 0.242240
O O9 0.356250 0.250000 0.500000
O O10 0.348881 0.297712 0.706925
O O11 0.388452 0.049358 0.188408
O O12 0.513423 0.109385 0.262064
O O13 0.512026 0.982300 0.105675
O O14 0.465316 0.145746 0.042969
O O15 0.135701 0.045327 0.589416
O O16 0.111551 0.594707 0.555522
O O17 0.000000 0.500000 0.500000
#
# Coordination Sequence:
#
# PCOD8205021 Si02
#       8
#     8   8   8   8   8   8   8   8
#     4  11  20  36  60  92 115 158 205 255 303 361
#     4  10  24  39  54  87 128 159 202 250 311 377
#     4  11  21  35  58  84 120 157 202 244 302 375
#     4  10  19  38  62  87 114 157 203 251 307 354
#     4  12  22  37  60  88 121 163 197 250 324 376
#     4   9  20  39  62  86 117 153 205 259 299 363
#     4  12  20  35  60  89 121 155 205 253 299 372
#     4  11  21  37  57  87 123 160 202 249 299 365
#
# _framework density 20.972662
#
# number of rings (size 3 to 8) (size 9 to 14) (size 15 to 20)
#    0.000    1.250    3.750    4.500    0.000    3.500 
#    0.000    0.625    0.000    3.000    0.000    0.000 
#    0.000    0.000    0.000    0.000    0.000    0.000 
#
# Total GULP energy -792878.544933 kJ/mol
# GULP energy per Si atom -12388.727265 kJ/mol
# Density = 2.092493 g / cm^3
# Si number density = 20.972662 Si / 1000 Ang^3
#
#
#
# Elastic Constant Matrix: (Units=GPa)
#
#
# Indices 1 2 3 4 5 6 
#
# 1 69.4785 10.6973 13.5533 0.0000 0.0000 0.0000
# 2 10.6973 84.7893 6.1446 0.0000 0.0000 0.0000
# 3 13.5533 6.1446 111.6552 0.0000 0.0000 0.0000
# 4 0.0000 0.0000 0.0000 26.5461 0.0000 0.0000
# 5 0.0000 0.0000 0.0000 0.0000 10.7555 0.0000
# 6 0.0000 0.0000 0.0000 0.0000 0.0000 26.0029
#
#
#
# Elastic Compliance Matrix: (Units=1/GPa)
#
#
# Indices 1 2 3 4 5 6 
#
# 1 0.015001 -0.001768 -0.001724 0.000000 0.000000 0.000000
# 2 -0.001768 0.012049 -0.000449 0.000000 0.000000 0.000000
# 3 -0.001724 -0.000449 0.009190 0.000000 0.000000 0.000000
# 4 0.000000 0.000000 0.000000 0.037670 0.000000 0.000000
# 5 0.000000 0.000000 0.000000 0.000000 0.092975 0.000000
# 6 0.000000 0.000000 0.000000 0.000000 0.000000 0.038457
#
#
# Mechanical properties :
#
#
# Convention : Reuss Voigt Hill
#
# Bulk Modulus (GPa) = 35.25961 36.30148 35.78055
# Shear Modulus (GPa) = 22.45403 28.36277 25.40840
#
# Velocity S-wave (km/s) = 3.27560 3.68145 3.48444
# Velocity P-wave (km/s) = 5.58165 5.95124 5.76940
#
# Compressibility (1/GPa) = 0.02836106
#
# Stress axis : x y z
#
# Youngs Moduli (GPa) = 66.66069 82.99124 108.81331
#
# Poissons Ratio (x) = 0.14670 0.18756
# Poissons Ratio (y) = 0.11784 0.04881
# Poissons Ratio (z) = 0.11490 0.03722
#
# Static dielectric constant tensor:
#      x y z
#    x 3.408920 0.000000 0.000000 
#    y 0.000000 3.970130 0.000000 
#    z 0.000000 0.000000 4.177830 
# 
# 
# High freq. dielectric constant tensor:
#      x y z
#    x 1.773200 0.000000 0.000000 
#    y 0.000000 1.832460 0.000000 
#    z 0.000000 0.000000 1.819540 
# 
# From -- ./inp_files/21951.got.cif
#   From: 2010.03.12/outbox.cif.g09.slc.cpg/sg50_11_cif.got.tgz:21951.got - 2010.04.16 13:23:21.
