data_PCOD8205323
_publ_section_title
;
Structure prediction by ZEFSAII (Michael W. Deem and Ramdas Pophale) SiO2 
 PCOD8205323
Probable space group: P B A N
;
_chemical_formula_sum "Si O2"
_cell_formula_units_Z 38
_cell_length_a 16.722550
_cell_length_b 5.134730
_cell_length_c 20.347781
_cell_angle_alpha 90.000000
_cell_angle_beta 90.000000
_cell_angle_gamma 90.000000
_cell_volume 1747.178070
_symmetry_space_group_name_H-M "P B A N"
_symmetry_group_IT_number 50
_space_group.IT_coordinate_system_code '2'
_symmetry_cell_setting 'orthorhombic'
loop_
_space_group_symop_operation_xyz
x,y,z
1/2-x,1/2-y,z
x,1/2-y,-z
1/2-x,y,-z
-x,-y,-z
1/2+x,1/2+y,-z
-x,1/2+y,z
1/2+x,-y,z
loop_
_atom_site_type_symbol
_atom_site_label
_atom_site_fract_x
_atom_site_fract_y
_atom_site_fract_z
Si Si1 0.671309 0.591590 0.103566
Si Si2 0.250000 0.750000 0.000000
Si Si3 0.844964 0.726316 0.304077
Si Si4 0.843246 0.281221 0.768551
Si Si5 0.050971 0.257764 0.425778
Si Si6 0.445306 0.250000 0.000000
O O1 0.750000 0.750000 0.131041
O O2 0.692135 0.424724 0.041201
O O3 0.639163 0.386696 0.157960
O O4 0.604268 0.773970 0.069922
O O5 0.750000 0.750000 0.306335
O O6 0.877455 0.502682 0.252725
O O7 0.876798 0.682198 0.377367
O O8 0.880597 0.999949 0.278990
O O9 0.750000 0.250000 0.757255
O O10 0.084684 0.250000 0.500000
O O11 0.018981 0.548472 0.413464
O O12 0.500000 0.500000 0.000000
#
# Coordination Sequence:
#
# PCOD8205323 Si02
#       6
#     8   2   8   8   8   4
#     4  12  23  41  67  94 116 166 227 266 313 393
#     4  12  20  36  72  96 112 150 236 278 306 366
#     4  10  21  38  59  92 124 160 195 252 319 363
#     4  10  21  36  62  91 123 152 203 263 305 368
#     4  10  21  39  63  90 123 166 213 254 294 360
#     4  12  28  44  59  89 134 162 196 272 350 388
#
# _framework density 21.749355999999999
#
# number of rings (size 3 to 8) (size 9 to 14) (size 15 to 20)
#    0.000    1.263    3.158    3.789    0.000    0.421 
#    0.000    6.316    0.000    7.579    0.000    0.000 
#    0.000    0.000    0.000    0.000    0.000    0.000 
#
# Total GULP energy -470804.198367 kJ/mol
# GULP energy per Si atom -12389.584168 kJ/mol
# Density = 2.169985 g / cm^3
# Si number density = 21.749356 Si / 1000 Ang^3
#
#
#
# Elastic Constant Matrix: (Units=GPa)
#
#
# Indices 1 2 3 4 5 6 
#
# 1 56.6167 34.2177 46.1083 0.0000 0.0000 0.0000
# 2 34.2177 137.9663 54.0617 0.0000 0.0000 0.0000
# 3 46.1083 54.0617 163.0338 0.0000 0.0000 0.0000
# 4 0.0000 0.0000 0.0000 43.2342 0.0000 0.0000
# 5 0.0000 0.0000 0.0000 0.0000 22.4143 0.0000
# 6 0.0000 0.0000 0.0000 0.0000 0.0000 25.0755
#
#
#
# Elastic Compliance Matrix: (Units=1/GPa)
#
#
# Indices 1 2 3 4 5 6 
#
# 1 0.024635 -0.003885 -0.005679 0.000000 0.000000 0.000000
# 2 -0.003885 0.008943 -0.001867 0.000000 0.000000 0.000000
# 3 -0.005679 -0.001867 0.008359 0.000000 0.000000 0.000000
# 4 0.000000 0.000000 0.000000 0.023130 0.000000 0.000000
# 5 0.000000 0.000000 0.000000 0.000000 0.044614 0.000000
# 6 0.000000 0.000000 0.000000 0.000000 0.000000 0.039879
#
#
# Mechanical properties :
#
#
# Convention : Reuss Voigt Hill
#
# Bulk Modulus (GPa) = 52.42139 69.59916 61.01027
# Shear Modulus (GPa) = 27.96714 33.02673 30.49693
#
# Velocity S-wave (km/s) = 3.58981 3.90104 3.74866
# Velocity P-wave (km/s) = 6.42940 7.23608 6.84463
#
# Compressibility (1/GPa) = 0.01907618
#
# Stress axis : x y z
#
# Youngs Moduli (GPa) = 40.59192 111.81769 119.63295
#
# Poissons Ratio (x) = 0.43437 0.67941
# Poissons Ratio (y) = 0.15768 0.22334
# Poissons Ratio (z) = 0.23053 0.20875
#
# Static dielectric constant tensor:
#      x y z
#    x 3.683840 0.000000 0.000000 
#    y 0.000000 4.799530 0.000000 
#    z 0.000000 0.000000 3.999500 
# 
# 
# High freq. dielectric constant tensor:
#      x y z
#    x 1.809720 0.000000 0.000000 
#    y 0.000000 1.881150 0.000000 
#    z 0.000000 0.000000 1.859920 
# 
# From -- ./inp_files/29618.got.cif
#   From: 2010.03.12/outbox.cif.g09.slc.cpg/sg50_15_cif.got.tgz:29618.got - 2010.04.16 13:23:21.
