data_PCOD8205953
_publ_section_title
;
Structure prediction by ZEFSAII (Michael W. Deem and Ramdas Pophale) SiO2 
 PCOD8205953
Probable space group: P M M A
;
_chemical_formula_sum "Si O2"
_cell_formula_units_Z 28
_cell_length_a 8.841107
_cell_length_b 17.823059
_cell_length_c 10.023069
_cell_angle_alpha 90.000000
_cell_angle_beta 90.000000
_cell_angle_gamma 90.000000
_cell_volume 1579.390828
_symmetry_space_group_name_H-M "P M M A"
_symmetry_group_IT_number 51
_symmetry_cell_setting 'orthorhombic'
loop_
_space_group_symop_operation_xyz
x,y,z
1/2-x,-y,z
1/2+x,-y,-z
-x,y,-z
-x,-y,-z
1/2+x,y,-z
1/2-x,y,z
x,-y,z
loop_
_atom_site_type_symbol
_atom_site_label
_atom_site_fract_x
_atom_site_fract_y
_atom_site_fract_z
Si Si1 0.925803 0.310092 0.644373
Si Si2 0.925222 0.144447 0.643101
Si Si3 0.425978 0.587336 0.862782
Si Si4 0.429301 0.000000 0.648438
O O1 0.750000 0.329206 0.628839
O O2 0.947195 0.226544 0.709148
O O3 0.000000 0.316823 0.500000
O O4 0.002231 0.369515 0.740075
O O5 0.750000 0.123424 0.628579
O O6 0.000000 0.151199 0.500000
O O7 0.009534 0.076032 0.721810
O O8 0.250000 0.605389 0.870176
O O9 0.459205 0.500000 0.839784
O O10 0.500000 0.615454 0.000000
O O11 0.500000 0.000000 0.500000
O O12 0.250000 0.000000 0.646285
#
# Coordination Sequence:
#
# PCOD8205953 Si02
#       4
#     8   8   8   4
#     4  10  20  33  51  75 103 134 167 206 251 296
#     4   9  16  26  40  61  91 125 160 198 240 285
#     4  10  21  37  56  76  99 129 165 205 248 296
#     4  10  16  22  36  58  87 124 161 196 237 284
#
# _framework density 17.728354
#
# number of rings (size 3 to 8) (size 9 to 14) (size 15 to 20)
#    0.000    2.286    0.000    5.571    0.000    5.714 
#    0.000    0.000    0.000    0.000    0.000    1.000 
#    0.000    0.000    0.000    0.000    0.000    0.000 
#
# Total GULP energy -346984.429417 kJ/mol
# GULP energy per Si atom -12392.301051 kJ/mol
# Density = 1.768800 g / cm^3
# Si number density = 17.728354 Si / 1000 Ang^3
#
#
#
# Elastic Constant Matrix: (Units=GPa)
#
#
# Indices 1 2 3 4 5 6 
#
# 1 151.6222 76.2401 46.6721 0.0000 0.0000 0.0000
# 2 76.2401 103.0057 55.2601 0.0000 0.0000 0.0000
# 3 46.6721 55.2601 70.1822 0.0000 0.0000 0.0000
# 4 0.0000 0.0000 0.0000 -2.3116 0.0000 0.0000
# 5 0.0000 0.0000 0.0000 0.0000 24.9962 0.0000
# 6 0.0000 0.0000 0.0000 0.0000 0.0000 22.3319
#
#
#
# Elastic Compliance Matrix: (Units=1/GPa)
#
#
# Indices 1 2 3 4 5 6 
#
# 1 0.010596 -0.007034 -0.001509 0.000000 0.000000 0.000000
# 2 -0.007034 0.021477 -0.012233 0.000000 0.000000 0.000000
# 3 -0.001509 -0.012233 0.024884 0.000000 0.000000 0.000000
# 4 0.000000 0.000000 0.000000 -0.432594 0.000000 0.000000
# 5 0.000000 0.000000 0.000000 0.000000 0.040006 0.000000
# 6 0.000000 0.000000 0.000000 0.000000 0.000000 0.044779
#
#
# Mechanical properties :
#
#
# Convention : Reuss Voigt Hill
#
# Bulk Modulus (GPa) = 64.90690 75.68386 70.29538
# Shear Modulus (GPa) = -20.47790 18.77913 -0.84939
#
# Velocity S-wave (km/s) = -3.40235 3.25818 -0.69293
# Velocity P-wave (km/s) = 4.61050 7.54571 6.25278
#
# Compressibility (1/GPa) = 0.01540668
#
# Stress axis : x y z
#
# Youngs Moduli (GPa) = 94.37107 46.56160 40.18666
#
# Poissons Ratio (x) = 0.32750 0.06063
# Poissons Ratio (y) = 0.66378 0.49160
# Poissons Ratio (z) = 0.14237 0.56959
#
# Static dielectric constant tensor:
#      x y z
#    x 3.493660 0.000000 0.000000 
#    y 0.000000 4.382290 0.000000 
#    z 0.000000 0.000000 2.769710 
# 
# 
# High freq. dielectric constant tensor:
#      x y z
#    x 1.710420 0.000000 0.000000 
#    y 0.000000 1.711050 0.000000 
#    z 0.000000 0.000000 1.617940 
# 
# From -- ./inp_files/4773.got.cif
#   From: 2010.03.12/outbox.cif.g09.slc.cpg/sg51_3_cif.got.tgz:4773.got - 2010.04.16 13:43:02.
