data_PCOD8205471
_publ_section_title
;
Structure prediction by ZEFSAII (Michael W. Deem and Ramdas Pophale) SiO2 
 PCOD8205471
Probable space group: P B A N
;
_chemical_formula_sum "Si O2"
_cell_formula_units_Z 54
_cell_length_a 19.472081
_cell_length_b 12.701907
_cell_length_c 11.042640
_cell_angle_alpha 90.000000
_cell_angle_beta 90.000000
_cell_angle_gamma 90.000000
_cell_volume 2731.204442
_symmetry_space_group_name_H-M "P B A N"
_symmetry_group_IT_number 50
_space_group.IT_coordinate_system_code '2'
_symmetry_cell_setting 'orthorhombic'
loop_
_space_group_symop_operation_xyz
x,y,z
1/2-x,1/2-y,z
x,1/2-y,-z
1/2-x,y,-z
-x,-y,-z
1/2+x,1/2+y,-z
-x,1/2+y,z
1/2+x,-y,z
loop_
_atom_site_type_symbol
_atom_site_label
_atom_site_fract_x
_atom_site_fract_y
_atom_site_fract_z
Si Si1 0.160351 0.547710 0.112971
Si Si2 0.250000 0.750000 0.500000
Si Si3 0.506022 0.759836 0.636831
Si Si4 0.424003 0.096191 0.804601
Si Si5 0.649313 0.228379 0.701235
Si Si6 0.686034 0.061744 0.162221
Si Si7 0.446203 0.250000 0.000000
Si Si8 0.032526 0.420496 0.173364
O O1 0.136362 0.644827 0.194103
O O2 0.237330 0.516949 0.151156
O O3 0.111059 0.449240 0.141529
O O4 0.155264 0.580641 0.972154
O O5 0.301208 0.814101 0.408638
O O6 0.529424 0.750000 0.500000
O O7 0.546828 0.662772 0.694761
O O8 0.424337 0.753561 0.646509
O O9 0.528589 0.873738 0.690544
O O10 0.358374 0.026593 0.767163
O O11 0.484269 0.019274 0.850888
O O12 0.401008 0.173393 0.914455
O O13 0.684743 0.331178 0.760887
O O14 0.492930 0.176016 0.086670
#
# Coordination Sequence:
#
# PCOD8205471 Si02
#       8
#     8   2   8   8   8   8   4   8
#     4  11  23  40  62  95 128 163 209 259 320 381
#     4  12  24  40  62  92 144 170 198 250 324 384
#     4  11  25  42  61  92 126 160 215 268 303 367
#     4  11  22  39  63  91 122 166 204 258 319 374
#     4  12  22  40  64  94 129 166 205 260 315 376
#     4  11  23  40  62  95 128 163 209 259 320 381
#     4  10  22  36  57  90 127 150 210 252 316 368
#     4  11  22  39  63  91 122 166 204 258 319 374
#
# _framework density 19.771498000000001
#
# number of rings (size 3 to 8) (size 9 to 14) (size 15 to 20)
#    0.000    0.889    6.667    0.889    0.000    1.778 
#    2.667    3.704    0.000    0.889    0.000    0.000 
#    0.000    0.000    0.000    0.000    0.000    0.000 
#
# Total GULP energy -669314.955385 kJ/mol
# GULP energy per Si atom -12394.721396 kJ/mol
# Density = 1.972650 g / cm^3
# Si number density = 19.771498 Si / 1000 Ang^3
#
#
#
# Elastic Constant Matrix: (Units=GPa)
#
#
# Indices 1 2 3 4 5 6 
#
# 1 98.8847 39.1834 45.5607 0.0000 0.0000 0.0000
# 2 39.1834 102.5830 50.3833 0.0000 0.0000 0.0000
# 3 45.5607 50.3833 114.4050 0.0000 0.0000 0.0000
# 4 0.0000 0.0000 0.0000 22.2109 0.0000 0.0000
# 5 0.0000 0.0000 0.0000 0.0000 28.8642 0.0000
# 6 0.0000 0.0000 0.0000 0.0000 0.0000 30.3713
#
#
#
# Elastic Compliance Matrix: (Units=1/GPa)
#
#
# Indices 1 2 3 4 5 6 
#
# 1 0.013124 -0.003121 -0.003852 0.000000 0.000000 0.000000
# 2 -0.003121 0.013181 -0.004562 0.000000 0.000000 0.000000
# 3 -0.003852 -0.004562 0.012284 0.000000 0.000000 0.000000
# 4 0.000000 0.000000 0.000000 0.045023 0.000000 0.000000
# 5 0.000000 0.000000 0.000000 0.000000 0.034645 0.000000
# 6 0.000000 0.000000 0.000000 0.000000 0.000000 0.032926
#
#
# Mechanical properties :
#
#
# Convention : Reuss Voigt Hill
#
# Bulk Modulus (GPa) = 64.43690 65.12527 64.78109
# Shear Modulus (GPa) = 27.86659 28.33895 28.10277
#
# Velocity S-wave (km/s) = 3.75831 3.79003 3.77421
# Velocity P-wave (km/s) = 7.17599 7.22239 7.19923
#
# Compressibility (1/GPa) = 0.01551906
#
# Stress axis : x y z
#
# Youngs Moduli (GPa) = 76.19388 75.86729 81.40696
#
# Poissons Ratio (x) = 0.23679 0.31359
# Poissons Ratio (y) = 0.23781 0.37136
# Poissons Ratio (z) = 0.29351 0.34609
#
# Static dielectric constant tensor:
#      x y z
#    x 3.623360 0.000000 0.000000 
#    y 0.000000 3.661580 0.000000 
#    z 0.000000 0.000000 3.767300 
# 
# 
# High freq. dielectric constant tensor:
#      x y z
#    x 1.765840 0.000000 0.000000 
#    y 0.000000 1.762100 0.000000 
#    z 0.000000 0.000000 1.772950 
# 
# From -- ./inp_files/20403.got.cif
#   From: 2010.03.12/outbox.cif.g09.slc.cpg/sg50_11_cif.got.tgz:20403.got - 2010.04.16 13:23:21.
