data_PCOD8205799
_publ_section_title
;
Structure prediction by ZEFSAII (Michael W. Deem and Ramdas Pophale) SiO2 
 PCOD8205799
Probable space group: P B A N
;
_chemical_formula_sum "Si O2"
_cell_formula_units_Z 36
_cell_length_a 24.626386
_cell_length_b 11.076887
_cell_length_c 5.552727
_cell_angle_alpha 90.000000
_cell_angle_beta 90.000000
_cell_angle_gamma 90.000000
_cell_volume 1514.693388
_symmetry_space_group_name_H-M "P B A N"
_symmetry_group_IT_number 50
_space_group.IT_coordinate_system_code '2'
_symmetry_cell_setting 'orthorhombic'
loop_
_space_group_symop_operation_xyz
x,y,z
1/2-x,1/2-y,z
x,1/2-y,-z
1/2-x,y,-z
-x,-y,-z
1/2+x,1/2+y,-z
-x,1/2+y,z
1/2+x,-y,z
loop_
_atom_site_type_symbol
_atom_site_label
_atom_site_fract_x
_atom_site_fract_y
_atom_site_fract_z
Si Si1 0.366105 0.626275 0.066188
Si Si2 0.029660 0.861830 0.334296
Si Si3 0.717507 0.947131 0.255177
Si Si4 0.655016 0.750000 0.500000
Si Si5 0.079484 0.455032 0.306469
O O1 0.383312 0.543539 0.844820
O O2 0.333290 0.750000 0.000000
O O3 0.421536 0.682697 0.170647
O O4 0.329812 0.547761 0.247453
O O5 0.011810 0.750000 0.500000
O O6 0.975552 0.900657 0.181576
O O7 0.055302 0.979770 0.460547
O O8 0.750000 0.980584 0.500000
O O9 0.692243 0.814080 0.295850
O O10 0.750000 0.950626 0.000000
O O11 0.618948 0.846394 0.634215
#
# Coordination Sequence:
#
# PCOD8205799 Si02
#       5
#     8   8   8   4   8
#     4  12  26  47  75 109 150 206 256 322 383 466
#     4  11  22  44  71 108 157 201 250 306 380 465
#     4  12  30  54  80 114 152 204 271 334 392 452
#     4  12  25  50  78 110 152 198 249 320 392 466
#     4  11  24  43  71 113 153 196 255 302 390 469
#
# _framework density 23.767187
#
# number of rings (size 3 to 8) (size 9 to 14) (size 15 to 20)
#    0.000    0.444    5.556    2.333    0.000    6.667 
#    4.000    3.333    0.000    0.000    0.000    0.000 
#    0.000    0.000    0.000    0.000    0.000    0.000 
#
# Total GULP energy -446038.092191 kJ/mol
# GULP energy per Si atom -12389.947005 kJ/mol
# Density = 2.371309 g / cm^3
# Si number density = 23.767187 Si / 1000 Ang^3
#
#
#
# Elastic Constant Matrix: (Units=GPa)
#
#
# Indices 1 2 3 4 5 6 
#
# 1 132.1695 66.0754 59.3597 0.0000 0.0000 0.0000
# 2 66.0754 171.6918 49.1944 0.0000 0.0000 0.0000
# 3 59.3597 49.1944 111.1143 0.0000 0.0000 0.0000
# 4 0.0000 0.0000 0.0000 43.6179 0.0000 0.0000
# 5 0.0000 0.0000 0.0000 0.0000 0.3232 0.0000
# 6 0.0000 0.0000 0.0000 0.0000 0.0000 31.4357
#
#
#
# Elastic Compliance Matrix: (Units=1/GPa)
#
#
# Indices 1 2 3 4 5 6 
#
# 1 0.011124 -0.002953 -0.004635 0.000000 0.000000 0.000000
# 2 -0.002953 0.007454 -0.001723 0.000000 0.000000 0.000000
# 3 -0.004635 -0.001723 0.012239 0.000000 0.000000 0.000000
# 4 0.000000 0.000000 0.000000 0.022926 0.000000 0.000000
# 5 0.000000 0.000000 0.000000 0.000000 3.094227 0.000000
# 6 0.000000 0.000000 0.000000 0.000000 0.000000 0.031811
#
#
# Mechanical properties :
#
#
# Convention : Reuss Voigt Hill
#
# Bulk Modulus (GPa) = 82.00017 84.91499 83.45758
# Shear Modulus (GPa) = 1.56130 31.09841 16.32985
#
# Velocity S-wave (km/s) = 0.81138 3.62119 2.62406
# Velocity P-wave (km/s) = 5.95433 7.29996 6.66121
#
# Compressibility (1/GPa) = 0.01219510
#
# Stress axis : x y z
#
# Youngs Moduli (GPa) = 89.89453 134.14764 81.70712
#
# Poissons Ratio (x) = 0.39613 0.37874
# Poissons Ratio (y) = 0.26545 0.14077
# Poissons Ratio (z) = 0.41670 0.23111
#
# Static dielectric constant tensor:
#      x y z
#    x 4.976300 0.000000 0.000000 
#    y 0.000000 4.163650 0.000000 
#    z 0.000000 0.000000 3.715130 
# 
# 
# High freq. dielectric constant tensor:
#      x y z
#    x 1.961500 0.000000 0.000000 
#    y 0.000000 1.966210 0.000000 
#    z 0.000000 0.000000 1.918770 
# 
# From -- ./inp_files/2268.got.cif
#   From: 2010.03.12/outbox.cif.g09.slc.cpg/sg50_2_cif.got.tgz:2268.got - 2010.04.16 13:23:21.
