data_PCOD8205074
_publ_section_title
;
Structure prediction by ZEFSAII (Michael W. Deem and Ramdas Pophale) SiO2 
 PCOD8205074
Probable space group: P B A N
;
_chemical_formula_sum "Si O2"
_cell_formula_units_Z 40
_cell_length_a 26.286450
_cell_length_b 15.389956
_cell_length_c 5.024789
_cell_angle_alpha 90.000000
_cell_angle_beta 90.000000
_cell_angle_gamma 90.000000
_cell_volume 2032.764868
_symmetry_space_group_name_H-M "P B A N"
_symmetry_group_IT_number 50
_space_group.IT_coordinate_system_code '2'
_symmetry_cell_setting 'orthorhombic'
loop_
_space_group_symop_operation_xyz
x,y,z
1/2-x,1/2-y,z
x,1/2-y,-z
1/2-x,y,-z
-x,-y,-z
1/2+x,1/2+y,-z
-x,1/2+y,z
1/2+x,-y,z
loop_
_atom_site_type_symbol
_atom_site_label
_atom_site_fract_x
_atom_site_fract_y
_atom_site_fract_z
Si Si1 0.953651 0.947472 0.380291
Si Si2 0.970966 0.308369 0.257604
Si Si3 0.691535 0.546334 0.027871
Si Si4 0.190789 0.155886 0.468121
Si Si5 0.593659 0.475071 0.858144
O O1 0.973945 0.849618 0.333474
O O2 0.909534 0.958178 0.603866
O O3 0.000000 0.000000 0.500000
O O4 0.939167 0.986437 0.097320
O O5 0.951219 0.250000 0.500000
O O6 0.927060 0.380025 0.211834
O O7 0.978470 0.250000 0.000000
O O8 0.674820 0.583118 0.315092
O O9 0.750000 0.513339 0.000000
O O10 0.679934 0.625080 0.829029
O O11 0.652944 0.468202 0.949286
O O12 0.163249 0.250000 0.500000
O O13 0.250000 0.170588 0.500000
#
# Coordination Sequence:
#
# PCOD8205074 Si02
#       5
#     8   8   8   8   8
#     4  10  20  37  57  78 107 141 175 219 275 330
#     4  11  21  36  58  83 109 140 180 226 276 328
#     4  10  20  34  54  79 108 148 189 219 257 316
#     4   9  17  31  50  71 100 138 180 224 264 302
#     4  11  21  37  58  81 111 147 182 220 271 326
#
# _framework density 19.677631999999999
#
# number of rings (size 3 to 8) (size 9 to 14) (size 15 to 20)
#    0.000    1.800    0.000    7.800    0.000    2.400 
#    0.000   10.000    0.000    0.600    0.000    4.200 
#    0.000    0.000    0.000    0.000    0.000    0.000 
#
# Total GULP energy -495698.569742 kJ/mol
# GULP energy per Si atom -12392.464244 kJ/mol
# Density = 1.963284 g / cm^3
# Si number density = 19.677632 Si / 1000 Ang^3
#
#
#
# Elastic Constant Matrix: (Units=GPa)
#
#
# Indices 1 2 3 4 5 6 
#
# 1 94.6241 50.3348 35.6827 0.0000 0.0000 0.0000
# 2 50.3348 99.3900 48.2529 0.0000 0.0000 0.0000
# 3 35.6827 48.2529 136.6887 0.0000 0.0000 0.0000
# 4 0.0000 0.0000 0.0000 41.4025 0.0000 0.0000
# 5 0.0000 0.0000 0.0000 0.0000 28.9211 0.0000
# 6 0.0000 0.0000 0.0000 0.0000 0.0000 9.1592
#
#
#
# Elastic Compliance Matrix: (Units=1/GPa)
#
#
# Indices 1 2 3 4 5 6 
#
# 1 0.014702 -0.006737 -0.001460 0.000000 0.000000 0.000000
# 2 -0.006737 0.015230 -0.003618 0.000000 0.000000 0.000000
# 3 -0.001460 -0.003618 0.008974 0.000000 0.000000 0.000000
# 4 0.000000 0.000000 0.000000 0.024153 0.000000 0.000000
# 5 0.000000 0.000000 0.000000 0.000000 0.034577 0.000000
# 6 0.000000 0.000000 0.000000 0.000000 0.000000 0.109180
#
#
# Mechanical properties :
#
#
# Convention : Reuss Voigt Hill
#
# Bulk Modulus (GPa) = 65.45728 66.58262 66.01995
# Shear Modulus (GPa) = 21.22808 28.99206 25.11007
#
# Velocity S-wave (km/s) = 3.28806 3.84259 3.57609
# Velocity P-wave (km/s) = 6.91029 7.32103 7.11862
#
# Compressibility (1/GPa) = 0.01527714
#
# Stress axis : x y z
#
# Youngs Moduli (GPa) = 68.01611 65.66172 111.43308
#
# Poissons Ratio (x) = 0.44237 0.16267
# Poissons Ratio (y) = 0.45823 0.40311
# Poissons Ratio (z) = 0.09929 0.23753
#
# Static dielectric constant tensor:
#      x y z
#    x 3.867990 0.000000 0.000000 
#    y 0.000000 3.516000 0.000000 
#    z 0.000000 0.000000 25.705030 
# 
# 
# High freq. dielectric constant tensor:
#      x y z
#    x 1.757750 0.000000 0.000000 
#    y 0.000000 1.733520 0.000000 
#    z 0.000000 0.000000 1.797800 
# 
# From -- ./inp_files/6523.got.cif
#   From: 2010.03.12/outbox.cif.g09.slc.cpg/sg50_4_cif.got.tgz:6523.got - 2010.04.16 13:23:21.
