data_PCOD8205812
_publ_section_title
;
Structure prediction by ZEFSAII (Michael W. Deem and Ramdas Pophale) SiO2 
 PCOD8205812
Probable space group: P B A N
;
_chemical_formula_sum "Si O2"
_cell_formula_units_Z 36
_cell_length_a 15.229294
_cell_length_b 25.333422
_cell_length_c 4.826866
_cell_angle_alpha 90.000000
_cell_angle_beta 90.000000
_cell_angle_gamma 90.000000
_cell_volume 1862.253807
_symmetry_space_group_name_H-M "P B A N"
_symmetry_group_IT_number 50
_space_group.IT_coordinate_system_code '2'
_symmetry_cell_setting 'orthorhombic'
loop_
_space_group_symop_operation_xyz
x,y,z
1/2-x,1/2-y,z
x,1/2-y,-z
1/2-x,y,-z
-x,-y,-z
1/2+x,1/2+y,-z
-x,1/2+y,z
1/2+x,-y,z
loop_
_atom_site_type_symbol
_atom_site_label
_atom_site_fract_x
_atom_site_fract_y
_atom_site_fract_z
Si Si1 0.899764 0.874155 0.551812
Si Si2 0.450839 0.948438 0.611834
Si Si3 0.668098 0.457661 0.134661
Si Si4 0.147337 0.310021 0.045915
Si Si5 0.250000 0.454759 0.500000
O O1 0.866933 0.826514 0.361395
O O2 0.829439 0.919707 0.610109
O O3 0.984964 0.898572 0.401020
O O4 0.913702 0.847080 0.850550
O O5 0.370509 0.931604 0.411186
O O6 0.500000 0.000000 0.500000
O O7 0.412072 0.962557 0.914523
O O8 0.713381 0.512368 0.237367
O O9 0.750000 0.424852 0.000000
O O10 0.118353 0.250000 0.000000
O O11 0.250000 0.318715 0.000000
#
# Coordination Sequence:
#
# PCOD8205812 Si02
#       5
#     8   8   8   8   4
#     4  12  24  37  59  86 117 158 204 235 291 350
#     4  12  24  36  56  84 120 152 201 245 282 345
#     4  12  23  39  54  78 119 163 195 237 289 339
#     4  11  23  40  59  83 115 155 201 248 288 342
#     4  12  24  34  59  80 122 166 201 234 282 356
#
# _framework density 19.331415
#
# number of rings (size 3 to 8) (size 9 to 14) (size 15 to 20)
#    0.000    0.222    6.667    2.667    6.222    1.778 
#    0.000    0.000    0.000    0.000    0.000    0.000 
#    0.000   62.222    0.000    0.000    0.000    0.000 
#
# Total GULP energy -446094.689003 kJ/mol
# GULP energy per Si atom -12391.519139 kJ/mol
# Density = 1.928742 g / cm^3
# Si number density = 19.331415 Si / 1000 Ang^3
#
#
#
# Elastic Constant Matrix: (Units=GPa)
#
#
# Indices 1 2 3 4 5 6 
#
# 1 80.3307 40.4862 21.2038 0.0000 0.0000 0.0000
# 2 40.4862 77.2203 26.8553 0.0000 0.0000 0.0000
# 3 21.2038 26.8553 101.2627 0.0000 0.0000 0.0000
# 4 0.0000 0.0000 0.0000 19.5655 0.0000 0.0000
# 5 0.0000 0.0000 0.0000 0.0000 46.9442 0.0000
# 6 0.0000 0.0000 0.0000 0.0000 0.0000 7.1390
#
#
#
# Elastic Compliance Matrix: (Units=1/GPa)
#
#
# Indices 1 2 3 4 5 6 
#
# 1 0.017079 -0.008494 -0.001324 0.000000 0.000000 0.000000
# 2 -0.008494 0.018490 -0.003125 0.000000 0.000000 0.000000
# 3 -0.001324 -0.003125 0.010981 0.000000 0.000000 0.000000
# 4 0.000000 0.000000 0.000000 0.051110 0.000000 0.000000
# 5 0.000000 0.000000 0.000000 0.000000 0.021302 0.000000
# 6 0.000000 0.000000 0.000000 0.000000 0.000000 0.140076
#
#
# Mechanical properties :
#
#
# Convention : Reuss Voigt Hill
#
# Bulk Modulus (GPa) = 48.39121 48.43380 48.41250
# Shear Modulus (GPa) = 17.13429 26.08098 21.60764
#
# Velocity S-wave (km/s) = 2.98038 3.67706 3.34690
# Velocity P-wave (km/s) = 6.07703 6.56784 6.32720
#
# Compressibility (1/GPa) = 0.02066491
#
# Stress axis : x y z
#
# Youngs Moduli (GPa) = 58.55196 54.08278 91.06449
#
# Poissons Ratio (x) = 0.45938 0.12053
# Poissons Ratio (y) = 0.49734 0.28458
# Poissons Ratio (z) = 0.07750 0.16901
#
# Static dielectric constant tensor:
#      x y z
#    x 4.042190 0.000000 0.000000 
#    y 0.000000 3.291940 0.000000 
#    z 0.000000 0.000000 3.529640 
# 
# 
# High freq. dielectric constant tensor:
#      x y z
#    x 1.746920 0.000000 0.000000 
#    y 0.000000 1.704320 0.000000 
#    z 0.000000 0.000000 1.782850 
# 
# From -- ./inp_files/3441.got.cif
#   From: 2010.03.12/outbox.cif.g09.slc.cpg/sg50_2_cif.got.tgz:3441.got - 2010.04.16 13:23:21.
