data_PCOD8205257
_publ_section_title
;
Structure prediction by ZEFSAII (Michael W. Deem and Ramdas Pophale) SiO2 
 PCOD8205257
Probable space group: P B A N
;
_chemical_formula_sum "Si O2"
_cell_formula_units_Z 48
_cell_length_a 27.806034
_cell_length_b 9.267614
_cell_length_c 9.358843
_cell_angle_alpha 90.000000
_cell_angle_beta 90.000000
_cell_angle_gamma 90.000000
_cell_volume 2411.732568
_symmetry_space_group_name_H-M "P B A N"
_symmetry_group_IT_number 50
_space_group.IT_coordinate_system_code '2'
_symmetry_cell_setting 'orthorhombic'
loop_
_space_group_symop_operation_xyz
x,y,z
1/2-x,1/2-y,z
x,1/2-y,-z
1/2-x,y,-z
-x,-y,-z
1/2+x,1/2+y,-z
-x,1/2+y,z
1/2+x,-y,z
loop_
_atom_site_type_symbol
_atom_site_label
_atom_site_fract_x
_atom_site_fract_y
_atom_site_fract_z
Si Si1 0.847998 0.212080 0.666739
Si Si2 0.131064 0.263124 0.157298
Si Si3 0.455878 0.327077 0.348767
Si Si4 0.189026 0.533703 0.147443
Si Si5 0.797097 0.517914 0.170781
Si Si6 0.045380 0.831283 0.349919
O O1 0.845029 0.250000 0.500000
O O2 0.819377 0.322719 0.764374
O O3 0.821137 0.061428 0.693713
O O4 0.903048 0.197246 0.722815
O O5 0.092929 0.199327 0.265482
O O6 0.145501 0.427292 0.191959
O O7 0.181269 0.177335 0.162772
O O8 0.108044 0.250000 0.000000
O O9 0.449037 0.250000 0.500000
O O10 0.464951 0.498103 0.365737
O O11 0.501095 0.248517 0.267156
O O12 0.240296 0.468374 0.193953
O O13 0.189707 0.565014 0.977453
O O14 0.046367 0.750000 0.500000
#
# Coordination Sequence:
#
# PCOD8205257 Si02
#       6
#     8   8   8   8   8   8
#     4  11  23  37  58  89 121 148 193 246 292 338
#     4  10  22  39  60  88 119 150 195 246 290 338
#     4  11  22  39  65  86 116 154 197 238 289 354
#     4  10  22  36  65  81 117 160 197 235 285 350
#     4  10  20  42  57  87 114 158 201 234 286 349
#     4  10  22  38  61  89 117 151 195 237 288 351
#
# _framework density 19.902704
#
# number of rings (size 3 to 8) (size 9 to 14) (size 15 to 20)
#    0.000    1.667    1.667    3.500    7.000    4.667 
#    0.000    2.500    0.000    3.000    0.000    0.000 
#    0.000    0.000    0.000    0.000    0.000    0.000 
#
# Total GULP energy -594969.927301 kJ/mol
# GULP energy per Si atom -12395.206819 kJ/mol
# Density = 1.985740 g / cm^3
# Si number density = 19.902704 Si / 1000 Ang^3
#
#
#
# Elastic Constant Matrix: (Units=GPa)
#
#
# Indices 1 2 3 4 5 6 
#
# 1 118.0099 26.5404 31.2498 0.0000 0.0000 0.0000
# 2 26.5404 94.4417 23.4250 0.0000 0.0000 0.0000
# 3 31.2498 23.4250 54.5606 0.0000 0.0000 0.0000
# 4 0.0000 0.0000 0.0000 22.6867 0.0000 0.0000
# 5 0.0000 0.0000 0.0000 0.0000 40.8542 0.0000
# 6 0.0000 0.0000 0.0000 0.0000 0.0000 32.5000
#
#
#
# Elastic Compliance Matrix: (Units=1/GPa)
#
#
# Indices 1 2 3 4 5 6 
#
# 1 0.010197 -0.001586 -0.005159 0.000000 0.000000 0.000000
# 2 -0.001586 0.012097 -0.004286 0.000000 0.000000 0.000000
# 3 -0.005159 -0.004286 0.023123 0.000000 0.000000 0.000000
# 4 0.000000 0.000000 0.000000 0.044079 0.000000 0.000000
# 5 0.000000 0.000000 0.000000 0.000000 0.024477 0.000000
# 6 0.000000 0.000000 0.000000 0.000000 0.000000 0.030769
#
#
# Mechanical properties :
#
#
# Convention : Reuss Voigt Hill
#
# Bulk Modulus (GPa) = 42.81600 47.71584 45.26592
# Shear Modulus (GPa) = 28.63869 31.59464 30.11667
#
# Velocity S-wave (km/s) = 3.79744 3.98861 3.89420
# Velocity P-wave (km/s) = 6.38645 6.72597 6.55841
#
# Compressibility (1/GPa) = 0.02335576
#
# Stress axis : x y z
#
# Youngs Moduli (GPa) = 98.07046 82.66403 43.24651
#
# Poissons Ratio (x) = 0.13109 0.22313
# Poissons Ratio (y) = 0.15552 0.18533
# Poissons Ratio (z) = 0.50598 0.35426
#
# Static dielectric constant tensor:
#      x y z
#    x 4.234230 0.000000 0.000000 
#    y 0.000000 3.644080 0.000000 
#    z 0.000000 0.000000 3.446280 
# 
# 
# High freq. dielectric constant tensor:
#      x y z
#    x 1.793200 0.000000 0.000000 
#    y 0.000000 1.788110 0.000000 
#    z 0.000000 0.000000 1.744800 
# 
# From -- ./inp_files/10045.got.cif
#   From: 2010.03.12/outbox.cif.g09.slc.cpg/sg50_6_cif.got.tgz:10045.got - 2010.04.16 13:23:21.
