data_PCOD8205779
_publ_section_title
;
Structure prediction by ZEFSAII (Michael W. Deem and Ramdas Pophale) SiO2 
 PCOD8205779
Probable space group: P B A N
;
_chemical_formula_sum "Si O2"
_cell_formula_units_Z 48
_cell_length_a 8.873317
_cell_length_b 14.503922
_cell_length_c 18.068768
_cell_angle_alpha 90.000000
_cell_angle_beta 90.000000
_cell_angle_gamma 90.000000
_cell_volume 2325.412455
_symmetry_space_group_name_H-M "P B A N"
_symmetry_group_IT_number 50
_space_group.IT_coordinate_system_code '2'
_symmetry_cell_setting 'orthorhombic'
loop_
_space_group_symop_operation_xyz
x,y,z
1/2-x,1/2-y,z
x,1/2-y,-z
1/2-x,y,-z
-x,-y,-z
1/2+x,1/2+y,-z
-x,1/2+y,z
1/2+x,-y,z
loop_
_atom_site_type_symbol
_atom_site_label
_atom_site_fract_x
_atom_site_fract_y
_atom_site_fract_z
Si Si1 0.927076 0.236837 0.918929
Si Si2 0.865151 0.619288 0.667566
Si Si3 0.113189 0.545957 0.446612
Si Si4 0.560435 0.422347 0.811022
Si Si5 0.586208 0.114585 0.802245
Si Si6 0.535624 0.814407 0.344578
O O1 0.750000 0.250000 0.926881
O O2 0.978106 0.138603 0.883901
O O3 0.976415 0.317595 0.864612
O O4 0.002693 0.250000 0.000000
O O5 0.859433 0.526154 0.619817
O O6 0.691344 0.640214 0.682786
O O7 0.941711 0.708543 0.628869
O O8 0.961162 0.610028 0.741781
O O9 0.250000 0.572436 0.500000
O O10 0.000000 0.500000 0.500000
O O11 0.040695 0.638629 0.415172
O O12 0.739317 0.414263 0.800112
O O13 0.519900 0.528482 0.820259
O O14 0.571184 0.169699 0.725427
#
# Coordination Sequence:
#
# PCOD8205779 Si02
#       6
#     8   8   8   8   8   8
#     4   9  20  40  63  93 133 172 217 273 328 388
#     4  11  24  43  68  93 130 169 217 263 327 386
#     4  12  26  46  66  94 131 168 211 268 328 383
#     4  11  22  38  65  96 127 172 220 266 320 392
#     4  11  22  38  65  96 127 171 222 262 325 385
#     4  11  24  43  68  95 126 173 214 267 322 388
#
# _framework density 20.641500000000001
#
# number of rings (size 3 to 8) (size 9 to 14) (size 15 to 20)
#    0.000    1.167    5.000    1.000    2.333    1.333 
#    0.000    0.833    0.000    7.000    0.000    0.000 
#    0.000    0.000    0.000    0.000    0.000    0.000 
#
# Total GULP energy -594712.100821 kJ/mol
# GULP energy per Si atom -12389.835434 kJ/mol
# Density = 2.059452 g / cm^3
# Si number density = 20.641500 Si / 1000 Ang^3
#
#
#
# Elastic Constant Matrix: (Units=GPa)
#
#
# Indices 1 2 3 4 5 6 
#
# 1 83.0794 18.3512 27.8033 0.0000 0.0000 0.0000
# 2 18.3512 100.8737 27.3065 0.0000 0.0000 0.0000
# 3 27.8033 27.3065 116.3625 0.0000 0.0000 0.0000
# 4 0.0000 0.0000 0.0000 24.0178 0.0000 0.0000
# 5 0.0000 0.0000 0.0000 0.0000 17.8390 0.0000
# 6 0.0000 0.0000 0.0000 0.0000 0.0000 29.7209
#
#
#
# Elastic Compliance Matrix: (Units=1/GPa)
#
#
# Indices 1 2 3 4 5 6 
#
# 1 0.013341 -0.001670 -0.002796 0.000000 0.000000 0.000000
# 2 -0.001670 0.010795 -0.002134 0.000000 0.000000 0.000000
# 3 -0.002796 -0.002134 0.009763 0.000000 0.000000 0.000000
# 4 0.000000 0.000000 0.000000 0.041636 0.000000 0.000000
# 5 0.000000 0.000000 0.000000 0.000000 0.056057 0.000000
# 6 0.000000 0.000000 0.000000 0.000000 0.000000 0.033646
#
#
# Mechanical properties :
#
#
# Convention : Reuss Voigt Hill
#
# Bulk Modulus (GPa) = 48.31258 49.69307 49.00282
# Shear Modulus (GPa) = 26.97778 29.43919 28.20849
#
# Velocity S-wave (km/s) = 3.61912 3.78062 3.70075
# Velocity P-wave (km/s) = 6.39691 6.57146 6.48477
#
# Compressibility (1/GPa) = 0.02069854
#
# Stress axis : x y z
#
# Youngs Moduli (GPa) = 74.95550 92.63586 102.43115
#
# Poissons Ratio (x) = 0.15473 0.28637
# Poissons Ratio (y) = 0.12520 0.21860
# Poissons Ratio (z) = 0.20956 0.19770
#
# Static dielectric constant tensor:
#      x y z
#    x 2.202940 0.000000 0.000000 
#    y 0.000000 3.847820 0.000000 
#    z 0.000000 0.000000 4.033980 
# 
# 
# High freq. dielectric constant tensor:
#      x y z
#    x 1.806130 0.000000 0.000000 
#    y 0.000000 1.824470 0.000000 
#    z 0.000000 0.000000 1.803850 
# 
# From -- ./inp_files/28682.got.cif
#   From: 2010.03.12/outbox.cif.g09.slc.cpg/sg50_15_cif.got.tgz:28682.got - 2010.04.16 13:23:21.
