data_PCOD8205720
_publ_section_title
;
Structure prediction by ZEFSAII (Michael W. Deem and Ramdas Pophale) SiO2 
 PCOD8205720
Probable space group: P B A N
;
_chemical_formula_sum "Si O2"
_cell_formula_units_Z 24
_cell_length_a 8.729108
_cell_length_b 21.562217
_cell_length_c 4.723900
_cell_angle_alpha 90.000000
_cell_angle_beta 90.000000
_cell_angle_gamma 90.000000
_cell_volume 889.127360
_symmetry_space_group_name_H-M "P B A N"
_symmetry_group_IT_number 50
_space_group.IT_coordinate_system_code '2'
_symmetry_cell_setting 'orthorhombic'
loop_
_space_group_symop_operation_xyz
x,y,z
1/2-x,1/2-y,z
x,1/2-y,-z
1/2-x,y,-z
-x,-y,-z
1/2+x,1/2+y,-z
-x,1/2+y,z
1/2+x,-y,z
loop_
_atom_site_type_symbol
_atom_site_label
_atom_site_fract_x
_atom_site_fract_y
_atom_site_fract_z
Si Si1 0.750000 0.750000 0.500000
Si Si2 0.750000 0.250000 0.000000
Si Si3 0.489717 0.918530 0.778614
Si Si4 0.250000 0.496456 0.500000
Si Si5 0.505389 0.333114 0.287788
O O1 0.648848 0.707801 0.712465
O O2 0.648486 0.292434 0.201196
O O3 0.642989 0.953740 0.691539
O O4 0.467584 0.854352 0.609836
O O5 0.343310 0.961982 0.725790
O O6 0.506599 0.897005 0.105066
#
# Coordination Sequence:
#
# PCOD8205720 Si02
#       5
#     2   2   8   4   8
#     4  12  30  52  80 114 156 204 258 318 384 458
#     4  12  28  48  76 110 152 200 256 314 380 454
#     4  11  26  46  73 107 147 194 248 308 375 448
#     4  10  25  46  74 108 148 194 249 310 376 448
#     4  12  28  49  75 109 150 197 252 311 378 450
#
# _framework density 26.992761000000002
#
# number of rings (size 3 to 8) (size 9 to 14) (size 15 to 20)
#    0.000    0.667    0.000    5.000    0.000   25.333 
#    0.000    0.000    0.000    0.000    0.000    0.000 
#    0.000    0.000    0.000    0.000    0.000    0.000 
#
# Total GULP energy -297811.911059 kJ/mol
# GULP energy per Si atom -12408.829627 kJ/mol
# Density = 2.693132 g / cm^3
# Si number density = 26.992761 Si / 1000 Ang^3
#
#
#
# Elastic Constant Matrix: (Units=GPa)
#
#
# Indices 1 2 3 4 5 6 
#
# 1 188.9076 69.0834 31.2265 0.0000 0.0000 0.0000
# 2 69.0834 140.5335 26.9499 0.0000 0.0000 0.0000
# 3 31.2265 26.9499 77.3554 0.0000 0.0000 0.0000
# 4 0.0000 0.0000 0.0000 19.3785 0.0000 0.0000
# 5 0.0000 0.0000 0.0000 0.0000 28.2104 0.0000
# 6 0.0000 0.0000 0.0000 0.0000 0.0000 86.4817
#
#
#
# Elastic Compliance Matrix: (Units=1/GPa)
#
#
# Indices 1 2 3 4 5 6 
#
# 1 0.006646 -0.002950 -0.001655 0.000000 0.000000 0.000000
# 2 -0.002950 0.008934 -0.001922 0.000000 0.000000 0.000000
# 3 -0.001655 -0.001922 0.014265 0.000000 0.000000 0.000000
# 4 0.000000 0.000000 0.000000 0.051604 0.000000 0.000000
# 5 0.000000 0.000000 0.000000 0.000000 0.035448 0.000000
# 6 0.000000 0.000000 0.000000 0.000000 0.000000 0.011563
#
#
# Mechanical properties :
#
#
# Convention : Reuss Voigt Hill
#
# Bulk Modulus (GPa) = 59.55271 73.47955 66.51613
# Shear Modulus (GPa) = 33.98808 45.44991 39.71900
#
# Velocity S-wave (km/s) = 3.55231 4.10784 3.84013
# Velocity P-wave (km/s) = 6.23984 7.05551 6.66017
#
# Compressibility (1/GPa) = 0.01679185
#
# Stress axis : x y z
#
# Youngs Moduli (GPa) = 150.47006 111.92879 70.10124
#
# Poissons Ratio (x) = 0.33014 0.11603
# Poissons Ratio (y) = 0.44382 0.13473
# Poissons Ratio (z) = 0.24905 0.21512
#
# Static dielectric constant tensor:
#      x y z
#    x 5.274890 0.000000 0.000000 
#    y 0.000000 5.192350 0.000000 
#    z 0.000000 0.000000 4.583790 
# 
# 
# High freq. dielectric constant tensor:
#      x y z
#    x 2.100520 0.000000 0.000000 
#    y 0.000000 2.109530 0.000000 
#    z 0.000000 0.000000 2.086490 
# 
# From -- ./inp_files/891.got.cif
#   From: 2010.03.12/outbox.cif.g09.slc.cpg/sg50_1_cif.got.tgz:891.got - 2010.04.16 13:23:21.
