data_PCOD8205615
_publ_section_title
;
Structure prediction by ZEFSAII (Michael W. Deem and Ramdas Pophale) SiO2 
 PCOD8205615
Probable space group: P B A N
;
_chemical_formula_sum "Si O2"
_cell_formula_units_Z 64
_cell_length_a 20.873373
_cell_length_b 17.329903
_cell_length_c 8.726250
_cell_angle_alpha 90.000000
_cell_angle_beta 90.000000
_cell_angle_gamma 90.000000
_cell_volume 3156.577211
_symmetry_space_group_name_H-M "P B A N"
_symmetry_group_IT_number 50
_space_group.IT_coordinate_system_code '2'
_symmetry_cell_setting 'orthorhombic'
loop_
_space_group_symop_operation_xyz
x,y,z
1/2-x,1/2-y,z
x,1/2-y,-z
1/2-x,y,-z
-x,-y,-z
1/2+x,1/2+y,-z
-x,1/2+y,z
1/2+x,-y,z
loop_
_atom_site_type_symbol
_atom_site_label
_atom_site_fract_x
_atom_site_fract_y
_atom_site_fract_z
Si Si1 0.619723 0.583870 0.317535
Si Si2 0.649010 0.244319 0.666946
Si Si3 0.916837 0.750994 0.323135
Si Si4 0.489581 0.531915 0.167363
Si Si5 0.252482 0.027986 0.822484
Si Si6 0.746890 0.376934 0.332609
Si Si7 0.615603 0.918289 0.316508
Si Si8 0.035169 0.791872 0.152583
O O1 0.619786 0.673105 0.256805
O O2 0.558364 0.536652 0.252648
O O3 0.686217 0.549232 0.260102
O O4 0.614883 0.577997 0.500400
O O5 0.614509 0.250000 0.500000
O O6 0.676546 0.158704 0.692694
O O7 0.703646 0.307882 0.668950
O O8 0.604296 0.258469 0.810958
O O9 0.901758 0.750000 0.500000
O O10 0.897690 0.668290 0.252600
O O11 0.991256 0.765611 0.293346
O O12 0.438456 0.477831 0.256212
O O13 0.459641 0.616270 0.144469
O O14 0.500000 0.500000 0.000000
O O15 0.313418 0.066878 0.744511
O O16 0.261630 0.936435 0.802609
O O17 0.250000 0.050599 0.000000
O O18 0.750000 0.418438 0.500000
O O19 0.009060 0.750000 0.000000
#
# Coordination Sequence:
#
# PCOD8205615 Si02
#       8
#     8   8   8   8   8   8   8   8
#     4  10  23  42  63  89 118 155 199 246 298 355
#     4   9  19  35  56  81 111 148 193 241 290 347
#     4   9  21  41  63  84 109 145 194 244 292 347
#     4  11  23  40  61  90 126 159 198 246 298 356
#     4  12  25  39  58  88 122 157 196 246 300 355
#     4   9  19  37  57  79 110 150 193 239 289 349
#     4  11  22  41  66  89 116 155 201 248 295 353
#     4  11  22  35  55  84 118 154 190 234 293 353
#
# _framework density 20.275126
#
# number of rings (size 3 to 8) (size 9 to 14) (size 15 to 20)
#    0.000    1.750    0.000    4.875    0.000    6.500 
#    0.000    3.750    0.000    0.000    0.000    0.000 
#    0.000    0.000    0.000    0.000    0.000    0.000 
#
# Total GULP energy -793188.759546 kJ/mol
# GULP energy per Si atom -12393.574368 kJ/mol
# Density = 2.022898 g / cm^3
# Si number density = 20.275126 Si / 1000 Ang^3
#
#
#
# Elastic Constant Matrix: (Units=GPa)
#
#
# Indices 1 2 3 4 5 6 
#
# 1 120.0451 54.1008 46.3933 0.0000 0.0000 0.0000
# 2 54.1008 138.8513 42.6260 0.0000 0.0000 0.0000
# 3 46.3933 42.6260 88.1497 0.0000 0.0000 0.0000
# 4 0.0000 0.0000 0.0000 27.2382 0.0000 0.0000
# 5 0.0000 0.0000 0.0000 0.0000 30.8731 0.0000
# 6 0.0000 0.0000 0.0000 0.0000 0.0000 13.7956
#
#
#
# Elastic Compliance Matrix: (Units=1/GPa)
#
#
# Indices 1 2 3 4 5 6 
#
# 1 0.011475 -0.003073 -0.004553 0.000000 0.000000 0.000000
# 2 -0.003073 0.009281 -0.002870 0.000000 0.000000 0.000000
# 3 -0.004553 -0.002870 0.015129 0.000000 0.000000 0.000000
# 4 0.000000 0.000000 0.000000 0.036713 0.000000 0.000000
# 5 0.000000 0.000000 0.000000 0.000000 0.032391 0.000000
# 6 0.000000 0.000000 0.000000 0.000000 0.000000 0.072487
#
#
# Mechanical properties :
#
#
# Convention : Reuss Voigt Hill
#
# Bulk Modulus (GPa) = 67.15588 70.36516 68.76052
# Shear Modulus (GPa) = 24.57829 27.97644 26.27736
#
# Velocity S-wave (km/s) = 3.48550 3.71865 3.60396
# Velocity P-wave (km/s) = 7.02798 7.29509 7.16278
#
# Compressibility (1/GPa) = 0.01489073
#
# Stress axis : x y z
#
# Youngs Moduli (GPa) = 87.14726 107.75264 66.09982
#
# Poissons Ratio (x) = 0.33114 0.30096
# Poissons Ratio (y) = 0.26782 0.18973
# Poissons Ratio (z) = 0.39679 0.30928
#
# Static dielectric constant tensor:
#      x y z
#    x 3.707710 0.000000 0.000000 
#    y 0.000000 4.144550 0.000000 
#    z 0.000000 0.000000 3.784950 
# 
# 
# High freq. dielectric constant tensor:
#      x y z
#    x 1.792420 0.000000 0.000000 
#    y 0.000000 1.805160 0.000000 
#    z 0.000000 0.000000 1.790920 
# 
# From -- ./inp_files/15493.got.cif
#   From: 2010.03.12/outbox.cif.g09.slc.cpg/sg50_8_cif.got.tgz:15493.got - 2010.04.16 13:23:21.
