data_PCOD8205771
_publ_section_title
;
Structure prediction by ZEFSAII (Michael W. Deem and Ramdas Pophale) SiO2 
 PCOD8205771
Probable space group: P B A N
;
_chemical_formula_sum "Si O2"
_cell_formula_units_Z 64
_cell_length_a 18.109414
_cell_length_b 8.745223
_cell_length_c 21.000583
_cell_angle_alpha 90.000000
_cell_angle_beta 90.000000
_cell_angle_gamma 90.000000
_cell_volume 3325.880471
_symmetry_space_group_name_H-M "P B A N"
_symmetry_group_IT_number 50
_space_group.IT_coordinate_system_code '2'
_symmetry_cell_setting 'orthorhombic'
loop_
_space_group_symop_operation_xyz
x,y,z
1/2-x,1/2-y,z
x,1/2-y,-z
1/2-x,y,-z
-x,-y,-z
1/2+x,1/2+y,-z
-x,1/2+y,z
1/2+x,-y,z
loop_
_atom_site_type_symbol
_atom_site_label
_atom_site_fract_x
_atom_site_fract_y
_atom_site_fract_z
Si Si1 0.662693 0.926215 0.500000
Si Si2 0.080798 0.930886 0.862833
Si Si3 0.419274 0.931504 0.617828
Si Si4 0.080726 0.568496 0.382172
Si Si5 0.167452 0.931866 0.741664
Si Si6 0.080798 0.930886 0.137167
Si Si7 0.167452 0.931866 0.258336
Si Si8 0.920722 0.428644 0.000000
O O1 0.637548 0.750000 0.500000
O O2 0.750000 0.943229 0.500000
O O3 0.632086 0.009527 0.438215
O O4 0.632087 0.009527 0.561786
O O5 0.133812 0.995864 0.807752
O O6 0.072972 0.750000 0.855999
O O7 0.117187 0.975711 0.932397
O O8 0.000000 0.000000 0.854364
O O9 0.424233 0.750000 0.614593
O O10 0.383413 0.989317 0.683796
O O11 0.500000 1.000000 0.610690
O O12 0.116587 0.510683 0.316204
O O13 0.170435 0.750000 0.742499
O O14 0.250000 0.998733 0.733779
O O15 0.133812 0.995864 0.192248
O O16 0.117187 0.975711 0.067603
O O17 0.932219 0.250000 0.000000
O O18 0.000000 0.500000 0.000000
#
# Coordination Sequence:
#
# PCOD8205771 Si02
#       8
#     8   8   8   8   8   8   8   8
#     4  11  24  41  60  83 111 139 168 207 254 303
#     4   9  16  28  47  70  97 128 165 207 249 297
#     4  11  22  37  58  81 106 137 175 215 255 303
#     4  11  22  37  58  81 106 137 175 215 255 303
#     4   9  18  32  50  73 101 133 168 208 255 304
#     4   9  16  28  47  70  97 128 165 207 249 297
#     4   9  18  32  50  73 101 133 168 208 255 304
#     4   8  14  24  41  67  95 125 161 202 248 294
#
# _framework density 19.243024999999999
#
# number of rings (size 3 to 8) (size 9 to 14) (size 15 to 20)
#    0.000    2.375    0.000    3.000    0.000    2.000 
#    0.000    1.875    0.000    7.500    0.000    0.000 
#    0.000   10.000    0.000    0.000    0.000    0.000 
#
# Total GULP energy -793132.951896 kJ/mol
# GULP energy per Si atom -12392.702373 kJ/mol
# Density = 1.919923 g / cm^3
# Si number density = 19.243025 Si / 1000 Ang^3
#
#
#
# Elastic Constant Matrix: (Units=GPa)
#
#
# Indices 1 2 3 4 5 6 
#
# 1 93.5490 24.6490 54.0817 0.0000 0.0000 0.0000
# 2 24.6490 41.5821 35.3385 0.0000 0.0000 0.0000
# 3 54.0817 35.3385 184.5221 0.0000 0.0000 0.0000
# 4 0.0000 0.0000 0.0000 4.5471 0.0000 0.0000
# 5 0.0000 0.0000 0.0000 0.0000 15.9764 0.0000
# 6 0.0000 0.0000 0.0000 0.0000 0.0000 18.1776
#
#
#
# Elastic Compliance Matrix: (Units=1/GPa)
#
#
# Indices 1 2 3 4 5 6 
#
# 1 0.013922 -0.005715 -0.002986 0.000000 0.000000 0.000000
# 2 -0.005715 0.031070 -0.004275 0.000000 0.000000 0.000000
# 3 -0.002986 -0.004275 0.007113 0.000000 0.000000 0.000000
# 4 0.000000 0.000000 0.000000 0.219920 0.000000 0.000000
# 5 0.000000 0.000000 0.000000 0.000000 0.062592 0.000000
# 6 0.000000 0.000000 0.000000 0.000000 0.000000 0.055013
#
#
# Mechanical properties :
#
#
# Convention : Reuss Voigt Hill
#
# Bulk Modulus (GPa) = 38.23710 60.86575 49.55143
# Shear Modulus (GPa) = 11.78412 21.44580 16.61496
#
# Velocity S-wave (km/s) = 2.47732 3.34199 2.94160
# Velocity P-wave (km/s) = 5.30062 6.82573 6.11094
#
# Compressibility (1/GPa) = 0.02615261
#
# Stress axis : x y z
#
# Youngs Moduli (GPa) = 71.83124 32.18557 140.58195
#
# Poissons Ratio (x) = 0.18394 0.41975
# Poissons Ratio (y) = 0.41051 0.60103
# Poissons Ratio (z) = 0.21447 0.13760
#
# Static dielectric constant tensor:
#      x y z
#    x 3.457020 0.000000 0.000000 
#    y 0.000000 3.299260 0.000000 
#    z 0.000000 0.000000 4.271570 
# 
# 
# High freq. dielectric constant tensor:
#      x y z
#    x 1.734220 0.000000 0.000000 
#    y 0.000000 1.724060 0.000000 
#    z 0.000000 0.000000 1.779920 
# 
# From -- ./inp_files/31099.got.cif
#   From: 2010.03.12/outbox.cif.g09.slc.cpg/sg50_16_cif.got.tgz:31099.got - 2010.04.16 13:23:21.
