data_PCOD8205918
_publ_section_title
;
Structure prediction by ZEFSAII (Michael W. Deem and Ramdas Pophale) SiO2 
 PCOD8205918
Probable space group: P M M A
;
_chemical_formula_sum "Si O2"
_cell_formula_units_Z 32
_cell_length_a 24.390103
_cell_length_b 7.837677
_cell_length_c 8.450933
_cell_angle_alpha 90.000000
_cell_angle_beta 90.000000
_cell_angle_gamma 90.000000
_cell_volume 1615.495136
_symmetry_space_group_name_H-M "P M M A"
_symmetry_group_IT_number 51
_symmetry_cell_setting 'orthorhombic'
loop_
_space_group_symop_operation_xyz
x,y,z
1/2-x,-y,z
1/2+x,-y,-z
-x,y,-z
-x,-y,-z
1/2+x,y,-z
1/2-x,y,z
x,-y,z
loop_
_atom_site_type_symbol
_atom_site_label
_atom_site_fract_x
_atom_site_fract_y
_atom_site_fract_z
Si Si1 0.250000 0.695766 0.107734
Si Si2 0.938816 0.000000 0.561246
Si Si3 0.750000 0.191087 0.550962
Si Si4 0.367568 0.688807 0.063118
Si Si5 0.366502 0.312582 0.440641
Si Si6 0.560826 0.000000 0.937246
O O1 0.250000 0.500000 0.171450
O O2 0.250000 0.819410 0.258395
O O3 0.305137 0.727149 0.003525
O O4 0.907967 0.831818 0.494913
O O5 0.938998 0.000000 0.749492
O O6 0.000000 0.000000 0.500000
O O7 0.694735 0.283891 0.490633
O O8 0.750000 0.000000 0.484369
O O9 0.387019 0.500000 0.006479
O O10 0.364960 0.696204 0.251996
O O11 0.408758 0.831234 0.995621
O O12 0.386843 0.500000 0.496955
O O13 0.500000 0.000000 0.000000
#
# Coordination Sequence:
#
# PCOD8205918 Si02
#       6
#     4   4   4   8   8   4
#     4   8  14  22  36  62  90 114 139 174 226 278
#     4  10  20  33  47  65  89 120 157 192 218 258
#     4  10  14  20  38  65  93 117 139 175 229 278
#     4   8  15  26  41  63  90 115 142 180 224 266
#     4   9  16  27  42  64  92 118 145 182 228 273
#     4  10  20  31  45  65  89 120 153 184 218 260
#
# _framework density 19.80817
#
# number of rings (size 3 to 8) (size 9 to 14) (size 15 to 20)
#    0.000    3.000    1.250    2.625    5.250    1.000 
#    0.000    0.000    0.000    0.000    0.000    3.500 
#    0.000    4.000    0.000    0.000    0.000    0.000 
#
# Total GULP energy -396520.492103 kJ/mol
# GULP energy per Si atom -12391.265378 kJ/mol
# Density = 1.976309 g / cm^3
# Si number density = 19.808170 Si / 1000 Ang^3
#
#
#
# Elastic Constant Matrix: (Units=GPa)
#
#
# Indices 1 2 3 4 5 6 
#
# 1 188.3696 106.5026 6.0338 0.0000 0.0000 0.0000
# 2 106.5026 192.8720 7.1945 0.0000 0.0000 0.0000
# 3 6.0338 7.1945 2.8315 0.0000 0.0000 0.0000
# 4 0.0000 0.0000 0.0000 5.2744 0.0000 0.0000
# 5 0.0000 0.0000 0.0000 0.0000 20.3017 0.0000
# 6 0.0000 0.0000 0.0000 0.0000 0.0000 31.2503
#
#
#
# Elastic Compliance Matrix: (Units=1/GPa)
#
#
# Indices 1 2 3 4 5 6 
#
# 1 0.007818 -0.004083 -0.006287 0.000000 0.000000 0.000000
# 2 -0.004083 0.007860 -0.011270 0.000000 0.000000 0.000000
# 3 -0.006287 -0.011270 0.395208 0.000000 0.000000 0.000000
# 4 0.000000 0.000000 0.000000 0.189596 0.000000 0.000000
# 5 0.000000 0.000000 0.000000 0.000000 0.049257 0.000000
# 6 0.000000 0.000000 0.000000 0.000000 0.000000 0.032000
#
#
# Mechanical properties :
#
#
# Convention : Reuss Voigt Hill
#
# Bulk Modulus (GPa) = 2.72031 69.28167 36.00099
# Shear Modulus (GPa) = 5.89932 28.98809 17.44371
#
# Velocity S-wave (km/s) = 1.72763 3.82965 2.97076
# Velocity P-wave (km/s) = 2.31428 7.38967 5.47554
#
# Compressibility (1/GPa) = 0.36760548
#
# Stress axis : x y z
#
# Youngs Moduli (GPa) = 127.90216 127.23164 2.53031
#
# Poissons Ratio (x) = 0.51946 0.01591
# Poissons Ratio (y) = 0.52220 0.02852
# Poissons Ratio (z) = 0.80413 1.43395
#
# Static dielectric constant tensor:
#      x y z
#    x 3.894520 0.000000 0.000000 
#    y 0.000000 4.000390 0.000000 
#    z 0.000000 0.000000 2.677780 
# 
# 
# High freq. dielectric constant tensor:
#      x y z
#    x 1.778740 0.000000 0.000000 
#    y 0.000000 1.791180 0.000000 
#    z 0.000000 0.000000 1.672740 
# 
# From -- ./inp_files/11392.got.cif
#   From: 2010.03.12/outbox.cif.g09.slc.cpg/sg51_6_cif.got.tgz:11392.got - 2010.04.16 13:43:02.
