data_PCOD8205724
_publ_section_title
;
Structure prediction by ZEFSAII (Michael W. Deem and Ramdas Pophale) SiO2 
 PCOD8205724
Probable space group: P B A N
;
_chemical_formula_sum "Si O2"
_cell_formula_units_Z 40
_cell_length_a 28.124066
_cell_length_b 5.162413
_cell_length_c 11.820758
_cell_angle_alpha 90.000000
_cell_angle_beta 90.000000
_cell_angle_gamma 90.000000
_cell_volume 1716.232732
_symmetry_space_group_name_H-M "P B A N"
_symmetry_group_IT_number 50
_space_group.IT_coordinate_system_code '2'
_symmetry_cell_setting 'orthorhombic'
loop_
_space_group_symop_operation_xyz
x,y,z
1/2-x,1/2-y,z
x,1/2-y,-z
1/2-x,y,-z
-x,-y,-z
1/2+x,1/2+y,-z
-x,1/2+y,z
1/2+x,-y,z
loop_
_atom_site_type_symbol
_atom_site_label
_atom_site_fract_x
_atom_site_fract_y
_atom_site_fract_z
Si Si1 0.893127 0.139909 0.383705
Si Si2 0.666215 0.642876 0.648798
Si Si3 0.830506 0.935648 0.896661
Si Si4 0.750000 0.250000 0.000000
Si Si5 0.750000 0.750000 0.500000
Si Si6 0.908906 0.250000 0.000000
Si Si7 0.031202 0.913140 0.806903
O O1 0.916043 0.250000 0.500000
O O2 0.860994 0.372388 0.337532
O O3 0.933832 0.050254 0.298831
O O4 0.860849 0.885511 0.410803
O O5 0.674023 0.723713 0.779980
O O6 0.715549 0.583903 0.582668
O O7 0.876852 0.119453 0.902119
O O8 0.839094 0.750000 0.000000
O O9 0.781429 0.085010 0.914001
O O10 0.941679 0.446586 0.926931
O O11 0.009393 0.626889 0.799230
#
# Coordination Sequence:
#
# PCOD8205724 Si02
#       7
#     8   8   8   2   2   4   8
#     4  12  25  51  74 103 146 195 239 303 371 432
#     4  12  27  47  74 107 149 187 249 296 364 439
#     4  11  25  44  72 102 146 201 236 302 372 449
#     4  10  26  44  60 112 140 188 254 288 364 446
#     4  12  28  46  78 114 136 202 240 312 344 422
#     4  11  24  45  72 102 148 190 238 301 382 435
#     4  12  27  45  74 110 142 188 248 305 369 447
#
# _framework density 23.306861999999999
#
# number of rings (size 3 to 8) (size 9 to 14) (size 15 to 20)
#    0.000    0.400    4.000    3.300    8.400    2.400 
#    0.000    0.000    0.000    0.000    0.000    0.000 
#    0.000    0.000    0.000    0.000    0.000    0.000 
#
# Total GULP energy -495962.967961 kJ/mol
# GULP energy per Si atom -12399.074199 kJ/mol
# Density = 2.325381 g / cm^3
# Si number density = 23.306862 Si / 1000 Ang^3
#
#
#
# Elastic Constant Matrix: (Units=GPa)
#
#
# Indices 1 2 3 4 5 6 
#
# 1 118.0682 25.5219 39.9601 0.0000 0.0000 0.0000
# 2 25.5219 96.0095 9.3090 0.0000 0.0000 0.0000
# 3 39.9601 9.3090 132.9513 0.0000 0.0000 0.0000
# 4 0.0000 0.0000 0.0000 38.9729 0.0000 0.0000
# 5 0.0000 0.0000 0.0000 0.0000 134.3019 0.0000
# 6 0.0000 0.0000 0.0000 0.0000 0.0000 -4.9531
#
#
#
# Elastic Compliance Matrix: (Units=1/GPa)
#
#
# Indices 1 2 3 4 5 6 
#
# 1 0.009936 -0.002368 -0.002821 0.000000 0.000000 0.000000
# 2 -0.002368 0.011051 -0.000062 0.000000 0.000000 0.000000
# 3 -0.002821 -0.000062 0.008374 0.000000 0.000000 0.000000
# 4 0.000000 0.000000 0.000000 0.025659 0.000000 0.000000
# 5 0.000000 0.000000 0.000000 0.000000 0.007446 0.000000
# 6 0.000000 0.000000 0.000000 0.000000 0.000000 -0.201895
#
#
# Mechanical properties :
#
#
# Convention : Reuss Voigt Hill
#
# Bulk Modulus (GPa) = 53.02279 55.17900 54.10090
# Shear Modulus (GPa) = -40.76907 51.81355 5.52224
#
# Velocity S-wave (km/s) = -4.18692 4.72009 1.54094
# Velocity P-wave (km/s) = 0.75792 7.30973 5.14090
#
# Compressibility (1/GPa) = 0.01885981
#
# Stress axis : x y z
#
# Youngs Moduli (GPa) = 100.64256 90.48886 119.42183
#
# Poissons Ratio (x) = 0.21426 0.33685
# Poissons Ratio (y) = 0.23830 0.00742
# Poissons Ratio (z) = 0.28388 0.00562
#
# Static dielectric constant tensor:
#      x y z
#    x 4.175790 0.000000 0.000000 
#    y 0.000000 6.408310 0.000000 
#    z 0.000000 0.000000 4.431070 
# 
# 
# High freq. dielectric constant tensor:
#      x y z
#    x 1.923990 0.000000 0.000000 
#    y 0.000000 1.912080 0.000000 
#    z 0.000000 0.000000 1.946850 
# 
# From -- ./inp_files/23003.got.cif
#   From: 2010.03.12/outbox.cif.g09.slc.cpg/sg50_12_cif.got.tgz:23003.got - 2010.04.16 13:23:21.
