data_PCOD8205838
_publ_section_title
;
Structure prediction by ZEFSAII (Michael W. Deem and Ramdas Pophale) SiO2 
 PCOD8205838
Probable space group: P B A N
;
_chemical_formula_sum "Si O2"
_cell_formula_units_Z 28
_cell_length_a 11.213826
_cell_length_b 19.270841
_cell_length_c 5.547253
_cell_angle_alpha 90.000000
_cell_angle_beta 90.000000
_cell_angle_gamma 90.000000
_cell_volume 1198.760585
_symmetry_space_group_name_H-M "P B A N"
_symmetry_group_IT_number 50
_space_group.IT_coordinate_system_code '2'
_symmetry_cell_setting 'orthorhombic'
loop_
_space_group_symop_operation_xyz
x,y,z
1/2-x,1/2-y,z
x,1/2-y,-z
1/2-x,y,-z
-x,-y,-z
1/2+x,1/2+y,-z
-x,1/2+y,z
1/2+x,-y,z
loop_
_atom_site_type_symbol
_atom_site_label
_atom_site_fract_x
_atom_site_fract_y
_atom_site_fract_z
Si Si1 0.117523 0.406156 0.446387
Si Si2 0.061004 0.543671 0.204969
Si Si3 0.965928 0.289856 0.241218
Si Si4 0.250000 0.854610 0.000000
O O1 0.250000 0.377756 0.500000
O O2 0.122753 0.487167 0.376571
O O3 0.038552 0.405431 0.686119
O O4 0.051270 0.357519 0.250837
O O5 0.163641 0.596522 0.145616
O O6 0.000000 0.500000 0.000000
O O7 0.975601 0.250000 0.500000
O O8 0.827238 0.309228 0.189939
O O9 0.011449 0.250000 0.000000
#
# Coordination Sequence:
#
# PCOD8205838 Si02
#       4
#     8   8   8   4
#     4  11  26  46  73 108 152 197 249 310 383 458
#     4  11  23  45  73 114 146 187 243 319 389 441
#     4  12  29  52  75 110 154 208 257 307 373 457
#     4  12  25  48  80 108 147 186 252 320 372 442
#
# _framework density 23.357458999999999
#
# number of rings (size 3 to 8) (size 9 to 14) (size 15 to 20)
#    0.000    0.571    2.857    3.857    4.000    7.429 
#    0.000    4.286    0.000    0.000    0.000    0.000 
#    0.000    0.000    0.000    0.000    0.000    0.000 
#
# Total GULP energy -346956.491484 kJ/mol
# GULP energy per Si atom -12391.303267 kJ/mol
# Density = 2.330430 g / cm^3
# Si number density = 23.357459 Si / 1000 Ang^3
#
#
#
# Elastic Constant Matrix: (Units=GPa)
#
#
# Indices 1 2 3 4 5 6 
#
# 1 159.6302 37.9343 51.4451 0.0000 0.0000 0.0000
# 2 37.9343 90.3379 45.7664 0.0000 0.0000 0.0000
# 3 51.4451 45.7664 132.3724 0.0000 0.0000 0.0000
# 4 0.0000 0.0000 0.0000 57.6416 0.0000 0.0000
# 5 0.0000 0.0000 0.0000 0.0000 44.5517 0.0000
# 6 0.0000 0.0000 0.0000 0.0000 0.0000 56.8439
#
#
#
# Elastic Compliance Matrix: (Units=1/GPa)
#
#
# Indices 1 2 3 4 5 6 
#
# 1 0.007452 -0.002015 -0.002200 0.000000 0.000000 0.000000
# 2 -0.002015 0.013965 -0.004045 0.000000 0.000000 0.000000
# 3 -0.002200 -0.004045 0.009808 0.000000 0.000000 0.000000
# 4 0.000000 0.000000 0.000000 0.017349 0.000000 0.000000
# 5 0.000000 0.000000 0.000000 0.000000 0.022446 0.000000
# 6 0.000000 0.000000 0.000000 0.000000 0.000000 0.017592
#
#
# Mechanical properties :
#
#
# Convention : Reuss Voigt Hill
#
# Bulk Modulus (GPa) = 68.00098 72.51467 70.25782
# Shear Modulus (GPa) = 45.44103 48.28709 46.86406
#
# Velocity S-wave (km/s) = 4.41552 4.55170 4.48413
# Velocity P-wave (km/s) = 7.42780 7.66401 7.54683
#
# Compressibility (1/GPa) = 0.01470567
#
# Stress axis : x y z
#
# Youngs Moduli (GPa) = 134.18902 71.60759 101.95911
#
# Poissons Ratio (x) = 0.14429 0.22426
# Poissons Ratio (y) = 0.27039 0.41244
# Poissons Ratio (z) = 0.29516 0.28966
#
# Static dielectric constant tensor:
#      x y z
#    x 4.244920 0.000000 0.000000 
#    y 0.000000 4.495770 0.000000 
#    z 0.000000 0.000000 4.332130 
# 
# 
# High freq. dielectric constant tensor:
#      x y z
#    x 1.923220 0.000000 0.000000 
#    y 0.000000 1.945100 0.000000 
#    z 0.000000 0.000000 1.927130 
# 
# From -- ./inp_files/1865.got.cif
#   From: 2010.03.12/outbox.cif.g09.slc.cpg/sg50_1_cif.got.tgz:1865.got - 2010.04.16 13:23:21.
