data_PCOD8205638
_publ_section_title
;
Structure prediction by ZEFSAII (Michael W. Deem and Ramdas Pophale) SiO2 
 PCOD8205638
Probable space group: P B A N
;
_chemical_formula_sum "Si O2"
_cell_formula_units_Z 32
_cell_length_a 7.601336
_cell_length_b 18.664754
_cell_length_c 8.968732
_cell_angle_alpha 90.000000
_cell_angle_beta 90.000000
_cell_angle_gamma 90.000000
_cell_volume 1272.457386
_symmetry_space_group_name_H-M "P B A N"
_symmetry_group_IT_number 50
_space_group.IT_coordinate_system_code '2'
_symmetry_cell_setting 'orthorhombic'
loop_
_space_group_symop_operation_xyz
x,y,z
1/2-x,1/2-y,z
x,1/2-y,-z
1/2-x,y,-z
-x,-y,-z
1/2+x,1/2+y,-z
-x,1/2+y,z
1/2+x,-y,z
loop_
_atom_site_type_symbol
_atom_site_label
_atom_site_fract_x
_atom_site_fract_y
_atom_site_fract_z
Si Si1 0.444490 0.222758 0.284427
Si Si2 0.993417 0.593191 0.888259
Si Si3 0.391706 0.449134 0.201363
Si Si4 0.558270 0.144201 0.562053
O O1 0.250000 0.250000 0.239883
O O2 0.535061 0.176022 0.151510
O O3 0.431432 0.170338 0.428466
O O4 0.569730 0.290627 0.318082
O O5 0.799294 0.582048 0.822537
O O6 0.118196 0.536034 0.802740
O O7 0.013282 0.579704 0.064606
O O8 0.474741 0.425036 0.358249
O O9 0.750000 0.125127 0.500000
#
# Coordination Sequence:
#
# PCOD8205638 Si02
#       4
#     8   8   8   8
#     4  11  22  42  66  96 134 175 225 277 342 404
#     4  10  23  43  69  97 131 174 227 283 341 404
#     4  10  23  44  66  98 132 174 223 284 340 409
#     4  11  24  42  63  96 137 175 221 280 339 406
#
# _framework density 25.148188999999999
#
# number of rings (size 3 to 8) (size 9 to 14) (size 15 to 20)
#    0.000    1.500    2.500    3.000    3.500    2.000 
#    0.000    0.000    0.000    6.000    0.000    0.000 
#    0.000    0.000    0.000    0.000    0.000    0.000 
#
# Total GULP energy -396728.336492 kJ/mol
# GULP energy per Si atom -12397.760515 kJ/mol
# Density = 2.509095 g / cm^3
# Si number density = 25.148189 Si / 1000 Ang^3
#
#
#
# Elastic Constant Matrix: (Units=GPa)
#
#
# Indices 1 2 3 4 5 6 
#
# 1 40.8766 3.1573 13.2335 0.0000 0.0000 0.0000
# 2 3.1573 75.9874 20.6638 0.0000 0.0000 0.0000
# 3 13.2335 20.6638 52.1724 0.0000 0.0000 0.0000
# 4 0.0000 0.0000 0.0000 41.3925 0.0000 0.0000
# 5 0.0000 0.0000 0.0000 0.0000 28.8375 0.0000
# 6 0.0000 0.0000 0.0000 0.0000 0.0000 32.7594
#
#
#
# Elastic Compliance Matrix: (Units=1/GPa)
#
#
# Indices 1 2 3 4 5 6 
#
# 1 0.026698 0.000821 -0.007097 0.000000 0.000000 0.000000
# 2 0.000821 0.014774 -0.006060 0.000000 0.000000 0.000000
# 3 -0.007097 -0.006060 0.023367 0.000000 0.000000 0.000000
# 4 0.000000 0.000000 0.000000 0.024159 0.000000 0.000000
# 5 0.000000 0.000000 0.000000 0.000000 0.034677 0.000000
# 6 0.000000 0.000000 0.000000 0.000000 0.000000 0.030526
#
#
# Mechanical properties :
#
#
# Convention : Reuss Voigt Hill
#
# Bulk Modulus (GPa) = 24.89581 27.01618 25.95599
# Shear Modulus (GPa) = 26.00620 29.39667 27.70143
#
# Velocity S-wave (km/s) = 3.21926 3.42268 3.32253
# Velocity P-wave (km/s) = 4.87230 5.13671 5.00625
#
# Compressibility (1/GPa) = 0.04016740
#
# Stress axis : x y z
#
# Youngs Moduli (GPa) = 37.45587 67.68736 42.79472
#
# Poissons Ratio (x) = -0.05554 0.30371
# Poissons Ratio (y) = -0.03074 0.25932
# Poissons Ratio (z) = 0.26582 0.41016
#
# Static dielectric constant tensor:
#      x y z
#    x 4.159130 0.000000 0.000000 
#    y 0.000000 4.791680 0.000000 
#    z 0.000000 0.000000 4.558610 
# 
# 
# High freq. dielectric constant tensor:
#      x y z
#    x 1.980970 0.000000 0.000000 
#    y 0.000000 2.005370 0.000000 
#    z 0.000000 0.000000 1.988130 
# 
# From -- ./inp_files/9121.got.cif
#   From: 2010.03.12/outbox.cif.g09.slc.cpg/sg50_5_cif.got.tgz:9121.got - 2010.04.16 13:23:21.
