data_PCOD8205223
_publ_section_title
;
Structure prediction by ZEFSAII (Michael W. Deem and Ramdas Pophale) SiO2 
 PCOD8205223
Probable space group: P B A N
;
_chemical_formula_sum "Si O2"
_cell_formula_units_Z 48
_cell_length_a 12.977362
_cell_length_b 18.990868
_cell_length_c 10.270198
_cell_angle_alpha 90.000000
_cell_angle_beta 90.000000
_cell_angle_gamma 90.000000
_cell_volume 2531.104354
_symmetry_space_group_name_H-M "P B A N"
_symmetry_group_IT_number 50
_space_group.IT_coordinate_system_code '2'
_symmetry_cell_setting 'orthorhombic'
loop_
_space_group_symop_operation_xyz
x,y,z
1/2-x,1/2-y,z
x,1/2-y,-z
1/2-x,y,-z
-x,-y,-z
1/2+x,1/2+y,-z
-x,1/2+y,z
1/2+x,-y,z
loop_
_atom_site_type_symbol
_atom_site_label
_atom_site_fract_x
_atom_site_fract_y
_atom_site_fract_z
Si Si1 0.635810 0.931285 0.964133
Si Si2 0.012087 0.476652 0.804195
Si Si3 0.138820 0.598287 0.662814
Si Si4 0.134840 0.277686 0.135845
Si Si5 0.867879 0.112153 0.361759
Si Si6 0.527499 0.255930 0.647837
O O1 0.635034 0.861906 0.874845
O O2 0.584653 0.992694 0.881547
O O3 0.750000 0.954687 0.000000
O O4 0.575511 0.924427 0.101233
O O5 0.082944 0.537470 0.743633
O O6 0.965438 0.429405 0.691859
O O7 0.258368 0.597905 0.708060
O O8 0.135998 0.585735 0.509374
O O9 0.084299 0.672592 0.689542
O O10 0.250000 0.250000 0.156130
O O11 0.068966 0.248118 0.255732
O O12 0.087870 0.250000 0.000000
O O13 0.887971 0.194753 0.340501
O O14 0.484176 0.250000 0.500000
#
# Coordination Sequence:
#
# PCOD8205223 Si02
#       6
#     8   8   8   8   8   8
#     4  11  22  38  58  86 114 157 196 235 296 349
#     4  11  22  37  61  85 122 151 195 245 290 360
#     4  10  20  39  60  86 119 153 195 244 295 353
#     4  11  21  37  62  84 117 157 198 243 294 358
#     4  10  21  36  61  88 115 157 195 239 299 353
#     4  10  21  39  62  87 118 154 202 249 296 351
#
# _framework density 18.964054000000001
#
# number of rings (size 3 to 8) (size 9 to 14) (size 15 to 20)
#    0.000    1.500    3.333    3.000    0.000    2.333 
#    0.000    0.000    0.000    1.000    0.000    0.000 
#    0.000    0.000    0.000    0.000    0.000    0.000 
#
# Total GULP energy -595086.346481 kJ/mol
# GULP energy per Si atom -12397.632218 kJ/mol
# Density = 1.892089 g / cm^3
# Si number density = 18.964054 Si / 1000 Ang^3
#
#
#
# Elastic Constant Matrix: (Units=GPa)
#
#
# Indices 1 2 3 4 5 6 
#
# 1 110.4868 23.7663 55.0205 0.0000 0.0000 0.0000
# 2 23.7663 59.4199 26.3117 0.0000 0.0000 0.0000
# 3 55.0205 26.3117 83.5857 0.0000 0.0000 0.0000
# 4 0.0000 0.0000 0.0000 12.0207 0.0000 0.0000
# 5 0.0000 0.0000 0.0000 0.0000 21.8101 0.0000
# 6 0.0000 0.0000 0.0000 0.0000 0.0000 18.0846
#
#
#
# Elastic Compliance Matrix: (Units=1/GPa)
#
#
# Indices 1 2 3 4 5 6 
#
# 1 0.013613 -0.001716 -0.008421 0.000000 0.000000 0.000000
# 2 -0.001716 0.019772 -0.005094 0.000000 0.000000 0.000000
# 3 -0.008421 -0.005094 0.019110 0.000000 0.000000 0.000000
# 4 0.000000 0.000000 0.000000 0.083190 0.000000 0.000000
# 5 0.000000 0.000000 0.000000 0.000000 0.045850 0.000000
# 6 0.000000 0.000000 0.000000 0.000000 0.000000 0.055296
#
#
# Mechanical properties :
#
#
# Convention : Reuss Voigt Hill
#
# Bulk Modulus (GPa) = 45.38642 51.52105 48.45373
# Shear Modulus (GPa) = 18.20577 20.27600 19.24088
#
# Velocity S-wave (km/s) = 3.10177 3.27338 3.18873
# Velocity P-wave (km/s) = 6.06736 6.44309 6.25804
#
# Compressibility (1/GPa) = 0.02203302
#
# Stress axis : x y z
#
# Youngs Moduli (GPa) = 73.45674 50.57774 52.32747
#
# Poissons Ratio (x) = 0.08680 0.44064
# Poissons Ratio (y) = 0.12606 0.26657
# Poissons Ratio (z) = 0.61857 0.25765
#
# Static dielectric constant tensor:
#      x y z
#    x 3.560750 0.000000 0.000000 
#    y 0.000000 3.420700 0.000000 
#    z 0.000000 0.000000 3.565850 
# 
# 
# High freq. dielectric constant tensor:
#      x y z
#    x 1.745580 0.000000 0.000000 
#    y 0.000000 1.741510 0.000000 
#    z 0.000000 0.000000 1.734970 
# 
# From -- ./inp_files/20170.got.cif
#   From: 2010.03.12/outbox.cif.g09.slc.cpg/sg50_11_cif.got.tgz:20170.got - 2010.04.16 13:23:21.
