data_PCOD8205287
_publ_section_title
;
Structure prediction by ZEFSAII (Michael W. Deem and Ramdas Pophale) SiO2 
 PCOD8205287
Probable space group: P B A N
;
_chemical_formula_sum "Si O2"
_cell_formula_units_Z 64
_cell_length_a 8.802788
_cell_length_b 18.411316
_cell_length_c 20.486636
_cell_angle_alpha 90.000000
_cell_angle_beta 90.000000
_cell_angle_gamma 90.000000
_cell_volume 3320.287771
_symmetry_space_group_name_H-M "P B A N"
_symmetry_group_IT_number 50
_space_group.IT_coordinate_system_code '2'
_symmetry_cell_setting 'orthorhombic'
loop_
_space_group_symop_operation_xyz
x,y,z
1/2-x,1/2-y,z
x,1/2-y,-z
1/2-x,y,-z
-x,-y,-z
1/2+x,1/2+y,-z
-x,1/2+y,z
1/2+x,-y,z
loop_
_atom_site_type_symbol
_atom_site_label
_atom_site_fract_x
_atom_site_fract_y
_atom_site_fract_z
Si Si1 0.929906 0.421388 0.500000
Si Si2 0.573032 0.834016 0.760360
Si Si3 0.430606 0.831618 1.000000
Si Si4 0.574723 0.333915 0.374541
Si Si5 0.574723 0.333915 0.625459
Si Si6 0.429614 0.578885 0.124282
Si Si7 0.573032 0.834016 0.239640
Si Si8 0.429614 0.578885 0.875718
O O1 0.750000 0.425869 0.500000
O O2 0.986764 0.379420 0.564228
O O3 0.986764 0.379420 0.435772
O O4 0.000000 0.500000 0.500000
O O5 0.525930 0.856333 0.687430
O O6 0.477936 0.883269 0.809047
O O7 0.532181 0.750000 0.773455
O O8 0.750000 0.849602 0.770100
O O9 0.490735 0.873076 0.063996
O O10 0.497774 0.750000 0.000000
O O11 0.250000 0.828860 0.000000
O O12 0.490735 0.873076 0.936004
O O13 0.552919 0.250000 0.392556
O O14 0.750000 0.351217 0.358598
O O15 0.474070 0.356333 0.312570
O O16 0.250000 0.571452 0.122644
O O17 0.500000 0.500000 0.118351
O O18 0.477936 0.883269 0.190953
#
# Coordination Sequence:
#
# PCOD8205287 Si02
#       8
#     8   8   8   8   8   8   8   8
#     4  10  21  35  53  79 109 140 176 222 274 328
#     4  10  21  37  57  83 113 144 183 229 274 325
#     4   9  19  36  59  85 110 141 184 229 272 324
#     4   9  18  35  58  80 104 140 185 227 268 319
#     4   9  18  35  58  80 104 140 185 227 268 319
#     4  11  22  37  58  83 114 149 184 225 274 327
#     4  10  21  37  57  83 113 144 183 229 274 325
#     4  11  22  37  58  83 114 149 184 225 274 327
#
# _framework density 19.275438000000001
#
# number of rings (size 3 to 8) (size 9 to 14) (size 15 to 20)
#    0.000    2.125    0.000    3.000    0.000    6.000 
#    0.000    4.375    0.000    8.250    0.000    0.000 
#    0.000    0.000    0.000    0.000    0.000    0.000 
#
# Total GULP energy -793861.795308 kJ/mol
# GULP energy per Si atom -12404.090552 kJ/mol
# Density = 1.923157 g / cm^3
# Si number density = 19.275438 Si / 1000 Ang^3
#
#
#
# Elastic Constant Matrix: (Units=GPa)
#
#
# Indices 1 2 3 4 5 6 
#
# 1 56.1722 42.2370 38.2134 0.0000 0.0000 0.0000
# 2 42.2370 142.0079 93.9654 0.0000 0.0000 0.0000
# 3 38.2134 93.9654 146.9681 0.0000 0.0000 0.0000
# 4 0.0000 0.0000 0.0000 17.1668 0.0000 0.0000
# 5 0.0000 0.0000 0.0000 0.0000 21.0308 0.0000
# 6 0.0000 0.0000 0.0000 0.0000 0.0000 28.7392
#
#
#
# Elastic Compliance Matrix: (Units=1/GPa)
#
#
# Indices 1 2 3 4 5 6 
#
# 1 0.023603 -0.005129 -0.002858 0.000000 0.000000 0.000000
# 2 -0.005129 0.013320 -0.007183 0.000000 0.000000 0.000000
# 3 -0.002858 -0.007183 0.012140 0.000000 0.000000 0.000000
# 4 0.000000 0.000000 0.000000 0.058252 0.000000 0.000000
# 5 0.000000 0.000000 0.000000 0.000000 0.047549 0.000000
# 6 0.000000 0.000000 0.000000 0.000000 0.000000 0.034796
#
#
# Mechanical properties :
#
#
# Convention : Reuss Voigt Hill
#
# Bulk Modulus (GPa) = 53.40839 77.10885 65.25862
# Shear Modulus (GPa) = 22.10036 24.76951 23.43494
#
# Velocity S-wave (km/s) = 3.38976 3.58862 3.49060
# Velocity P-wave (km/s) = 6.56420 7.56713 7.08344
#
# Compressibility (1/GPa) = 0.01872365
#
# Stress axis : x y z
#
# Youngs Moduli (GPa) = 42.36693 75.07387 82.37552
#
# Poissons Ratio (x) = 0.38508 0.23540
# Poissons Ratio (y) = 0.21732 0.59168
# Poissons Ratio (z) = 0.12107 0.53923
#
# Static dielectric constant tensor:
#      x y z
#    x 3.367690 0.000000 0.000000 
#    y 0.000000 3.570810 0.000000 
#    z 0.000000 0.000000 3.683510 
# 
# 
# High freq. dielectric constant tensor:
#      x y z
#    x 1.737960 0.000000 0.000000 
#    y 0.000000 1.753840 0.000000 
#    z 0.000000 0.000000 1.765040 
# 
# From -- ./inp_files/30727.got.cif
#   From: 2010.03.12/outbox.cif.g09.slc.cpg/sg50_16_cif.got.tgz:30727.got - 2010.04.16 13:23:21.
