data_PCOD8205908
_publ_section_title
;
Structure prediction by ZEFSAII (Michael W. Deem and Ramdas Pophale) SiO2 
 PCOD8205908
Probable space group: P B A N
;
_chemical_formula_sum "Si O2"
_cell_formula_units_Z 22
_cell_length_a 12.675199
_cell_length_b 4.878313
_cell_length_c 13.225080
_cell_angle_alpha 90.000000
_cell_angle_beta 90.000000
_cell_angle_gamma 90.000000
_cell_volume 817.754149
_symmetry_space_group_name_H-M "P B A N"
_symmetry_group_IT_number 50
_space_group.IT_coordinate_system_code '2'
_symmetry_cell_setting 'orthorhombic'
loop_
_space_group_symop_operation_xyz
x,y,z
1/2-x,1/2-y,z
x,1/2-y,-z
1/2-x,y,-z
-x,-y,-z
1/2+x,1/2+y,-z
-x,1/2+y,z
1/2+x,-y,z
loop_
_atom_site_type_symbol
_atom_site_label
_atom_site_fract_x
_atom_site_fract_y
_atom_site_fract_z
Si Si1 0.431574 0.553279 0.887396
Si Si2 0.750000 0.750000 0.000000
Si Si3 0.922625 0.750000 0.500000
Si Si4 0.182947 0.479976 0.306018
O O1 0.532442 0.362053 0.918079
O O2 0.321905 0.459472 0.935803
O O3 0.415071 0.560752 0.765775
O O4 0.850463 0.699609 0.596985
O O5 0.000000 0.500000 0.500000
O O6 0.250000 0.750000 0.336314
O O7 0.250000 0.250000 0.244182
#
# Coordination Sequence:
#
# PCOD8205908 Si02
#       4
#     8   2   4   8
#     4  12  27  49  77 114 156 205 260 326 398 473
#     4  12  28  50  80 114 160 202 272 326 408 474
#     4  12  25  44  71 108 150 200 260 321 386 473
#     4  12  25  47  75 109 153 206 258 318 392 471
#
# _framework density 26.902951000000002
#
# number of rings (size 3 to 8) (size 9 to 14) (size 15 to 20)
#    0.000    0.000    1.818    8.182    0.000    2.909 
#    0.000    0.000    0.000    0.000    0.000    0.000 
#    0.000    0.000    0.000    0.000    0.000    0.000 
#
# Total GULP energy -272713.146523 kJ/mol
# GULP energy per Si atom -12396.052115 kJ/mol
# Density = 2.684172 g / cm^3
# Si number density = 26.902951 Si / 1000 Ang^3
#
#
#
# Elastic Constant Matrix: (Units=GPa)
#
#
# Indices 1 2 3 4 5 6 
#
# 1 137.8639 67.0484 36.8872 0.0000 0.0000 0.0000
# 2 67.0484 205.1030 27.0270 0.0000 0.0000 0.0000
# 3 36.8872 27.0270 96.3886 0.0000 0.0000 0.0000
# 4 0.0000 0.0000 0.0000 35.8955 0.0000 0.0000
# 5 0.0000 0.0000 0.0000 0.0000 21.0541 0.0000
# 6 0.0000 0.0000 0.0000 0.0000 0.0000 68.1042
#
#
#
# Elastic Compliance Matrix: (Units=1/GPa)
#
#
# Indices 1 2 3 4 5 6 
#
# 1 0.009305 -0.002671 -0.002812 0.000000 0.000000 0.000000
# 2 -0.002671 0.005830 -0.000612 0.000000 0.000000 0.000000
# 3 -0.002812 -0.000612 0.011622 0.000000 0.000000 0.000000
# 4 0.000000 0.000000 0.000000 0.027859 0.000000 0.000000
# 5 0.000000 0.000000 0.000000 0.000000 0.047497 0.000000
# 6 0.000000 0.000000 0.000000 0.000000 0.000000 0.014683
#
#
# Mechanical properties :
#
#
# Convention : Reuss Voigt Hill
#
# Bulk Modulus (GPa) = 68.65318 77.92009 73.28664
# Shear Modulus (GPa) = 37.35745 45.57029 41.46387
#
# Velocity S-wave (km/s) = 3.73044 4.12014 3.93012
# Velocity P-wave (km/s) = 6.64297 7.18751 6.92060
#
# Compressibility (1/GPa) = 0.01456597
#
# Stress axis : x y z
#
# Youngs Moduli (GPa) = 107.46850 171.54042 86.04024
#
# Poissons Ratio (x) = 0.45823 0.24194
# Poissons Ratio (y) = 0.28708 0.05268
# Poissons Ratio (z) = 0.30220 0.10503
#
# Static dielectric constant tensor:
#      x y z
#    x 4.874210 0.000000 0.000000 
#    y 0.000000 4.905890 0.000000 
#    z 0.000000 0.000000 5.266440 
# 
# 
# High freq. dielectric constant tensor:
#      x y z
#    x 2.093020 0.000000 0.000000 
#    y 0.000000 2.101090 0.000000 
#    z 0.000000 0.000000 2.101980 
# 
# From -- ./inp_files/20637.got.cif
#   From: 2010.03.12/outbox.cif.g09.slc.cpg/sg50_11_cif.got.tgz:20637.got - 2010.04.16 13:23:21.
