data_PCOD8205705
_publ_section_title
;
Structure prediction by ZEFSAII (Michael W. Deem and Ramdas Pophale) SiO2 
 PCOD8205705
Probable space group: P B A N
;
_chemical_formula_sum "Si O2"
_cell_formula_units_Z 40
_cell_length_a 20.832993
_cell_length_b 9.702472
_cell_length_c 8.627888
_cell_angle_alpha 90.000000
_cell_angle_beta 90.000000
_cell_angle_gamma 90.000000
_cell_volume 1743.968213
_symmetry_space_group_name_H-M "P B A N"
_symmetry_group_IT_number 50
_space_group.IT_coordinate_system_code '2'
_symmetry_cell_setting 'orthorhombic'
loop_
_space_group_symop_operation_xyz
x,y,z
1/2-x,1/2-y,z
x,1/2-y,-z
1/2-x,y,-z
-x,-y,-z
1/2+x,1/2+y,-z
-x,1/2+y,z
1/2+x,-y,z
loop_
_atom_site_type_symbol
_atom_site_label
_atom_site_fract_x
_atom_site_fract_y
_atom_site_fract_z
Si Si1 0.145590 0.275034 0.674870
Si Si2 0.601603 0.286726 0.832549
Si Si3 0.221490 0.986417 0.170049
Si Si4 0.437938 0.997373 0.604561
Si Si5 0.650609 0.028138 0.671816
O O1 0.172344 0.250000 0.500000
O O2 0.194628 0.365904 0.775167
O O3 0.075617 0.350914 0.675185
O O4 0.136364 0.122799 0.747912
O O5 0.669308 0.365779 0.842059
O O6 0.552315 0.382621 0.736702
O O7 0.605868 0.139758 0.751767
O O8 0.573160 0.250000 0.000000
O O9 0.274724 0.938000 0.296362
O O10 0.250000 0.007151 0.000000
O O11 0.371166 0.966497 0.509112
O O12 0.500000 0.000000 0.500000
#
# Coordination Sequence:
#
# PCOD8205705 Si02
#       5
#     8   8   8   8   8
#     4   9  22  40  63  97 132 175 231 276 344 425
#     4  11  23  42  67 101 136 180 231 288 355 430
#     4  11  22  40  65  94 147 183 218 281 360 431
#     4  10  24  47  70  91 134 185 237 298 352 418
#     4  11  22  37  67  99 131 178 228 283 352 418
#
# _framework density 22.936198000000001
#
# number of rings (size 3 to 8) (size 9 to 14) (size 15 to 20)
#    0.000    1.600    2.000    1.800    0.000   16.000 
#    0.000    7.000    8.800    0.000    0.000    0.000 
#    0.000    0.000    0.000    0.000    0.000    0.000 
#
# Total GULP energy -495753.270014 kJ/mol
# GULP energy per Si atom -12393.831750 kJ/mol
# Density = 2.288399 g / cm^3
# Si number density = 22.936198 Si / 1000 Ang^3
#
#
#
# Elastic Constant Matrix: (Units=GPa)
#
#
# Indices 1 2 3 4 5 6 
#
# 1 84.3513 14.2202 38.7276 0.0000 0.0000 0.0000
# 2 14.2202 149.8993 56.2735 0.0000 0.0000 0.0000
# 3 38.7276 56.2735 104.5856 0.0000 0.0000 0.0000
# 4 0.0000 0.0000 0.0000 40.0237 0.0000 0.0000
# 5 0.0000 0.0000 0.0000 0.0000 38.2389 0.0000
# 6 0.0000 0.0000 0.0000 0.0000 0.0000 14.1753
#
#
#
# Elastic Compliance Matrix: (Units=1/GPa)
#
#
# Indices 1 2 3 4 5 6 
#
# 1 0.014359 0.000794 -0.005744 0.000000 0.000000 0.000000
# 2 0.000794 0.008404 -0.004816 0.000000 0.000000 0.000000
# 3 -0.005744 -0.004816 0.014280 0.000000 0.000000 0.000000
# 4 0.000000 0.000000 0.000000 0.024985 0.000000 0.000000
# 5 0.000000 0.000000 0.000000 0.000000 0.026151 0.000000
# 6 0.000000 0.000000 0.000000 0.000000 0.000000 0.070545
#
#
# Mechanical properties :
#
#
# Convention : Reuss Voigt Hill
#
# Bulk Modulus (GPa) = 57.10859 61.91988 59.51424
# Shear Modulus (GPa) = 27.16023 33.79524 30.47773
#
# Velocity S-wave (km/s) = 3.44490 3.84271 3.64923
# Velocity P-wave (km/s) = 6.38561 6.83694 6.61513
#
# Compressibility (1/GPa) = 0.01751050
#
# Stress axis : x y z
#
# Youngs Moduli (GPa) = 69.64450 118.99518 70.02861
#
# Poissons Ratio (x) = -0.09452 0.40227
# Poissons Ratio (y) = -0.05532 0.33725
# Poissons Ratio (z) = 0.40006 0.57306
#
# Static dielectric constant tensor:
#      x y z
#    x 3.836570 0.000000 0.000000 
#    y 0.000000 4.656930 0.000000 
#    z 0.000000 0.000000 4.243290 
# 
# 
# High freq. dielectric constant tensor:
#      x y z
#    x 1.874960 0.000000 0.000000 
#    y 0.000000 1.932050 0.000000 
#    z 0.000000 0.000000 1.894220 
# 
# From -- ./inp_files/15785.got.cif
#   From: 2010.03.12/outbox.cif.g09.slc.cpg/sg50_8_cif.got.tgz:15785.got - 2010.04.16 13:23:21.
