data_PCOD8205201
_publ_section_title
;
Structure prediction by ZEFSAII (Michael W. Deem and Ramdas Pophale) SiO2 
 PCOD8205201
Probable space group: P B A N
;
_chemical_formula_sum "Si O2"
_cell_formula_units_Z 40
_cell_length_a 8.408498
_cell_length_b 26.544763
_cell_length_c 8.541406
_cell_angle_alpha 90.000000
_cell_angle_beta 90.000000
_cell_angle_gamma 90.000000
_cell_volume 1906.455371
_symmetry_space_group_name_H-M "P B A N"
_symmetry_group_IT_number 50
_space_group.IT_coordinate_system_code '2'
_symmetry_cell_setting 'orthorhombic'
loop_
_space_group_symop_operation_xyz
x,y,z
1/2-x,1/2-y,z
x,1/2-y,-z
1/2-x,y,-z
-x,-y,-z
1/2+x,1/2+y,-z
-x,1/2+y,z
1/2+x,-y,z
loop_
_atom_site_type_symbol
_atom_site_label
_atom_site_fract_x
_atom_site_fract_y
_atom_site_fract_z
Si Si1 0.917637 0.991764 0.665424
Si Si2 0.250000 0.410452 0.500000
Si Si3 0.315352 0.826899 0.253740
Si Si4 0.250000 0.250000 0.500000
Si Si5 0.750000 0.250000 0.000000
Si Si6 0.810537 0.440111 0.828327
Si Si7 0.996061 0.673563 0.567220
O O1 0.792363 0.945791 0.648030
O O2 0.038876 0.975971 0.801003
O O3 0.829163 0.043627 0.708979
O O4 0.000000 0.000000 0.500000
O O5 0.094418 0.379400 0.447612
O O6 0.351448 0.786844 0.114769
O O7 0.360624 0.882436 0.196739
O O8 0.421850 0.811866 0.402009
O O9 0.127492 0.826768 0.296779
O O10 0.137558 0.284794 0.391160
O O11 0.750000 0.450403 0.000000
#
# Coordination Sequence:
#
# PCOD8205201 Si02
#       7
#     8   4   8   2   2   8   8
#     4  12  23  40  67  98 133 177 223 267 318 394
#     4  11  20  37  66 100 126 167 214 277 316 384
#     4  11  23  41  67  94 122 174 217 271 323 407
#     4  10  20  38  60  98 116 154 208 292 332 364
#     4  12  24  42  64  90 128 158 224 270 340 384
#     4  12  25  42  63  99 138 178 218 269 338 396
#     4  10  22  39  68  92 127 161 225 272 332 389
#
# _framework density 20.981345000000001
#
# number of rings (size 3 to 8) (size 9 to 14) (size 15 to 20)
#    0.000    0.800    5.000    3.000    2.800    1.600 
#    0.000    0.000    0.000   22.800    0.000    0.000 
#    0.000    0.000    0.000    0.000    0.000    0.000 
#
# Total GULP energy -495936.663506 kJ/mol
# GULP energy per Si atom -12398.416588 kJ/mol
# Density = 2.093359 g / cm^3
# Si number density = 20.981345 Si / 1000 Ang^3
#
#
#
# Elastic Constant Matrix: (Units=GPa)
#
#
# Indices 1 2 3 4 5 6 
#
# 1 88.9966 24.9807 26.4569 0.0000 0.0000 0.0000
# 2 24.9807 115.3401 26.7958 0.0000 0.0000 0.0000
# 3 26.4569 26.7958 97.0606 0.0000 0.0000 0.0000
# 4 0.0000 0.0000 0.0000 35.1822 0.0000 0.0000
# 5 0.0000 0.0000 0.0000 0.0000 29.5934 0.0000
# 6 0.0000 0.0000 0.0000 0.0000 0.0000 36.7649
#
#
#
# Elastic Compliance Matrix: (Units=1/GPa)
#
#
# Indices 1 2 3 4 5 6 
#
# 1 0.012676 -0.002076 -0.002882 0.000000 0.000000 0.000000
# 2 -0.002076 0.009604 -0.002086 0.000000 0.000000 0.000000
# 3 -0.002882 -0.002086 0.011664 0.000000 0.000000 0.000000
# 4 0.000000 0.000000 0.000000 0.028423 0.000000 0.000000
# 5 0.000000 0.000000 0.000000 0.000000 0.033791 0.000000
# 6 0.000000 0.000000 0.000000 0.000000 0.000000 0.027200
#
#
# Mechanical properties :
#
#
# Convention : Reuss Voigt Hill
#
# Bulk Modulus (GPa) = 50.35976 50.87380 50.61678
# Shear Modulus (GPa) = 34.70656 35.18568 34.94612
#
# Velocity S-wave (km/s) = 4.07155 4.09956 4.08558
# Velocity P-wave (km/s) = 6.79394 6.83435 6.81418
#
# Compressibility (1/GPa) = 0.01985712
#
# Stress axis : x y z
#
# Youngs Moduli (GPa) = 78.89018 104.12194 85.73215
#
# Poissons Ratio (x) = 0.21614 0.24709
# Poissons Ratio (y) = 0.16376 0.17880
# Poissons Ratio (z) = 0.22737 0.21716
#
# Static dielectric constant tensor:
#      x y z
#    x 4.063250 0.000000 0.000000 
#    y 0.000000 4.095570 0.000000 
#    z 0.000000 0.000000 3.577030 
# 
# 
# High freq. dielectric constant tensor:
#      x y z
#    x 1.824240 0.000000 0.000000 
#    y 0.000000 1.844890 0.000000 
#    z 0.000000 0.000000 1.792140 
# 
# From -- ./inp_files/9818.got.cif
#   From: 2010.03.12/outbox.cif.g09.slc.cpg/sg50_5_cif.got.tgz:9818.got - 2010.04.16 13:23:21.
