data_PCOD8205444
_publ_section_title
;
Structure prediction by ZEFSAII (Michael W. Deem and Ramdas Pophale) SiO2 
 PCOD8205444
Probable space group: P B A N
;
_chemical_formula_sum "Si O2"
_cell_formula_units_Z 36
_cell_length_a 14.571872
_cell_length_b 13.627710
_cell_length_c 7.891960
_cell_angle_alpha 90.000000
_cell_angle_beta 90.000000
_cell_angle_gamma 90.000000
_cell_volume 1567.195248
_symmetry_space_group_name_H-M "P B A N"
_symmetry_group_IT_number 50
_space_group.IT_coordinate_system_code '2'
_symmetry_cell_setting 'orthorhombic'
loop_
_space_group_symop_operation_xyz
x,y,z
1/2-x,1/2-y,z
x,1/2-y,-z
1/2-x,y,-z
-x,-y,-z
1/2+x,1/2+y,-z
-x,1/2+y,z
1/2+x,-y,z
loop_
_atom_site_type_symbol
_atom_site_label
_atom_site_fract_x
_atom_site_fract_y
_atom_site_fract_z
Si Si1 0.240587 0.357456 0.803705
Si Si2 0.598086 0.009983 0.278803
Si Si3 0.086997 0.439817 0.371140
Si Si4 0.853098 0.281290 0.188631
Si Si5 0.516533 0.250000 0.500000
O O1 0.250000 0.250000 0.717549
O O2 0.141434 0.405974 0.773727
O O3 0.319381 0.425993 0.729348
O O4 0.250000 0.344497 0.000000
O O5 0.488536 0.016960 0.238945
O O6 0.648957 0.100274 0.191009
O O7 0.606824 0.020586 0.483694
O O8 0.049481 0.342338 0.465487
O O9 0.750000 0.250000 0.228227
O O10 0.920790 0.235803 0.331004
O O11 0.885371 0.250000 0.000000
#
# Coordination Sequence:
#
# PCOD8205444 Si02
#       5
#     8   8   8   8   4
#     4  11  25  44  67 103 144 188 238 297 366 435
#     4  10  23  43  66  98 132 184 233 296 353 431
#     4  10  22  43  67 100 136 184 243 287 361 433
#     4  10  23  42  66 103 139 184 237 295 363 434
#     4  10  21  42  67 100 142 190 232 300 354 440
#
# _framework density 22.970972
#
# number of rings (size 3 to 8) (size 9 to 14) (size 15 to 20)
#    0.000    1.778    0.000    2.333    3.111   10.667 
#   24.000    0.000    0.000    0.000    0.000    0.000 
#    0.000    0.000    0.000    0.000    0.000    0.000 
#
# Total GULP energy -446205.522727 kJ/mol
# GULP energy per Si atom -12394.597854 kJ/mol
# Density = 2.291869 g / cm^3
# Si number density = 22.970972 Si / 1000 Ang^3
#
#
#
# Elastic Constant Matrix: (Units=GPa)
#
#
# Indices 1 2 3 4 5 6 
#
# 1 88.3187 29.7541 33.3050 0.0000 0.0000 0.0000
# 2 29.7541 108.2031 27.0226 0.0000 0.0000 0.0000
# 3 33.3050 27.0226 101.8728 0.0000 0.0000 0.0000
# 4 0.0000 0.0000 0.0000 34.7453 0.0000 0.0000
# 5 0.0000 0.0000 0.0000 0.0000 7.3075 0.0000
# 6 0.0000 0.0000 0.0000 0.0000 0.0000 39.3356
#
#
#
# Elastic Compliance Matrix: (Units=1/GPa)
#
#
# Indices 1 2 3 4 5 6 
#
# 1 0.013680 -0.002833 -0.003721 0.000000 0.000000 0.000000
# 2 -0.002833 0.010484 -0.001855 0.000000 0.000000 0.000000
# 3 -0.003721 -0.001855 0.011525 0.000000 0.000000 0.000000
# 4 0.000000 0.000000 0.000000 0.028781 0.000000 0.000000
# 5 0.000000 0.000000 0.000000 0.000000 0.136846 0.000000
# 6 0.000000 0.000000 0.000000 0.000000 0.000000 0.025422
#
#
# Mechanical properties :
#
#
# Convention : Reuss Voigt Hill
#
# Bulk Modulus (GPa) = 52.98905 53.17310 53.08108
# Shear Modulus (GPa) = 20.01236 30.16518 25.08877
#
# Velocity S-wave (km/s) = 2.95482 3.62772 3.30842
# Velocity P-wave (km/s) = 5.89569 6.38321 6.14429
#
# Compressibility (1/GPa) = 0.01887182
#
# Stress axis : x y z
#
# Youngs Moduli (GPa) = 73.09886 95.38313 86.77003
#
# Poissons Ratio (x) = 0.27017 0.32288
# Poissons Ratio (y) = 0.20705 0.16095
# Poissons Ratio (z) = 0.27200 0.17693
#
# Static dielectric constant tensor:
#      x y z
#    x 4.431300 0.000000 0.000000 
#    y 0.000000 4.396360 0.000000 
#    z 0.000000 0.000000 4.039700 
# 
# 
# High freq. dielectric constant tensor:
#      x y z
#    x 1.914240 0.000000 0.000000 
#    y 0.000000 1.912620 0.000000 
#    z 0.000000 0.000000 1.898460 
# 
# From -- ./inp_files/12453.got.cif
#   From: 2010.03.12/outbox.cif.g09.slc.cpg/sg50_7_cif.got.tgz:12453.got - 2010.04.16 13:23:21.
