data_PCOD8205717
_publ_section_title
;
Structure prediction by ZEFSAII (Michael W. Deem and Ramdas Pophale) SiO2 
 PCOD8205717
Probable space group: P B A N
;
_chemical_formula_sum "Si O2"
_cell_formula_units_Z 64
_cell_length_a 16.922888
_cell_length_b 12.357094
_cell_length_c 13.618535
_cell_angle_alpha 90.000000
_cell_angle_beta 90.000000
_cell_angle_gamma 90.000000
_cell_volume 2847.876959
_symmetry_space_group_name_H-M "P B A N"
_symmetry_group_IT_number 50
_space_group.IT_coordinate_system_code '2'
_symmetry_cell_setting 'orthorhombic'
loop_
_space_group_symop_operation_xyz
x,y,z
1/2-x,1/2-y,z
x,1/2-y,-z
1/2-x,y,-z
-x,-y,-z
1/2+x,1/2+y,-z
-x,1/2+y,z
1/2+x,-y,z
loop_
_atom_site_type_symbol
_atom_site_label
_atom_site_fract_x
_atom_site_fract_y
_atom_site_fract_z
Si Si1 0.351293 0.025769 0.589631
Si Si2 0.576863 0.354903 0.723103
Si Si3 0.079362 0.225485 0.322504
Si Si4 0.386542 0.518062 0.824476
Si Si5 0.338518 0.775499 0.104888
Si Si6 0.175815 0.431000 0.369050
Si Si7 0.943834 0.930323 0.841398
Si Si8 0.157588 0.373207 0.014391
O O1 0.417448 0.119934 0.606280
O O2 0.343519 0.015310 0.473305
O O3 0.270505 0.064400 0.644294
O O4 0.373223 0.907148 0.632764
O O5 0.504759 0.286767 0.675733
O O6 0.625929 0.281748 0.798013
O O7 0.546368 0.457652 0.782905
O O8 0.148690 0.306631 0.356345
O O9 0.094739 0.171782 0.215449
O O10 0.323945 0.597900 0.872291
O O11 0.372574 0.503473 0.708789
O O12 0.463588 0.589183 0.857252
O O13 0.373688 0.402094 0.876696
O O14 0.250000 0.750000 0.087528
O O15 0.383438 0.750000 0.000000
O O16 0.892260 0.947201 0.938751
O O17 0.133965 0.250000 0.000000
O O18 0.250000 0.394173 0.000000
#
# Coordination Sequence:
#
# PCOD8205717 Si02
#       8
#     8   8   8   8   8   8   8   8
#     4  10  25  44  73  99 139 183 235 299 353 437
#     4  11  23  45  66 100 137 177 227 289 353 412
#     4  11  22  42  70 100 137 175 233 292 349 423
#     4  12  24  43  70  97 141 184 229 286 349 435
#     4  11  25  42  68  99 134 184 237 284 338 425
#     4  11  23  46  70 103 134 184 237 289 368 418
#     4  11  24  44  64  99 138 181 224 280 358 413
#     4  11  27  44  69 105 139 182 233 292 356 419
#
# _framework density 22.472881000000001
#
# number of rings (size 3 to 8) (size 9 to 14) (size 15 to 20)
#    0.000    1.000    2.500    3.375    7.000    2.000 
#    2.250    0.625    0.000    2.250    0.000    0.000 
#    0.000    0.000    0.000    0.000    0.000    0.000 
#
# Total GULP energy -792949.855717 kJ/mol
# GULP energy per Si atom -12389.841496 kJ/mol
# Density = 2.242173 g / cm^3
# Si number density = 22.472881 Si / 1000 Ang^3
#
#
#
# Elastic Constant Matrix: (Units=GPa)
#
#
# Indices 1 2 3 4 5 6 
#
# 1 106.0035 34.4071 54.9728 0.0000 0.0000 0.0000
# 2 34.4071 111.5011 52.9702 0.0000 0.0000 0.0000
# 3 54.9728 52.9702 140.5370 0.0000 0.0000 0.0000
# 4 0.0000 0.0000 0.0000 28.9840 0.0000 0.0000
# 5 0.0000 0.0000 0.0000 0.0000 35.4450 0.0000
# 6 0.0000 0.0000 0.0000 0.0000 0.0000 33.6721
#
#
#
# Elastic Compliance Matrix: (Units=1/GPa)
#
#
# Indices 1 2 3 4 5 6 
#
# 1 0.012128 -0.001813 -0.004061 0.000000 0.000000 0.000000
# 2 -0.001813 0.011196 -0.003510 0.000000 0.000000 0.000000
# 3 -0.004061 -0.003510 0.010027 0.000000 0.000000 0.000000
# 4 0.000000 0.000000 0.000000 0.034502 0.000000 0.000000
# 5 0.000000 0.000000 0.000000 0.000000 0.028213 0.000000
# 6 0.000000 0.000000 0.000000 0.000000 0.000000 0.029698
#
#
# Mechanical properties :
#
#
# Convention : Reuss Voigt Hill
#
# Bulk Modulus (GPa) = 68.57793 71.41575 69.99684
# Shear Modulus (GPa) = 33.46871 33.99964 33.73417
#
# Velocity S-wave (km/s) = 3.86332 3.89385 3.87861
# Velocity P-wave (km/s) = 7.10510 7.21552 7.16052
#
# Compressibility (1/GPa) = 0.01458195
#
# Stress axis : x y z
#
# Youngs Moduli (GPa) = 82.45354 89.31889 99.73041
#
# Poissons Ratio (x) = 0.16198 0.40496
# Poissons Ratio (y) = 0.14953 0.35010
# Poissons Ratio (z) = 0.33480 0.31355
#
# Static dielectric constant tensor:
#      x y z
#    x 3.871230 0.000000 0.000000 
#    y 0.000000 4.729630 0.000000 
#    z 0.000000 0.000000 4.354140 
# 
# 
# High freq. dielectric constant tensor:
#      x y z
#    x 1.883780 0.000000 0.000000 
#    y 0.000000 1.894910 0.000000 
#    z 0.000000 0.000000 1.887460 
# 
# From -- ./inp_files/27023.got.cif
#   From: 2010.03.12/outbox.cif.g09.slc.cpg/sg50_14_cif.got.tgz:27023.got - 2010.04.16 13:23:21.
