data_PCOD8205412
_publ_section_title
;
Structure prediction by ZEFSAII (Michael W. Deem and Ramdas Pophale) SiO2 
 PCOD8205412
Probable space group: P B A N
;
_chemical_formula_sum "Si O2"
_cell_formula_units_Z 32
_cell_length_a 5.124228
_cell_length_b 15.479133
_cell_length_c 17.519474
_cell_angle_alpha 90.000000
_cell_angle_beta 90.000000
_cell_angle_gamma 90.000000
_cell_volume 1389.620268
_symmetry_space_group_name_H-M "P B A N"
_symmetry_group_IT_number 50
_space_group.IT_coordinate_system_code '2'
_symmetry_cell_setting 'orthorhombic'
loop_
_space_group_symop_operation_xyz
x,y,z
1/2-x,1/2-y,z
x,1/2-y,-z
1/2-x,y,-z
-x,-y,-z
1/2+x,1/2+y,-z
-x,1/2+y,z
1/2+x,-y,z
loop_
_atom_site_type_symbol
_atom_site_label
_atom_site_fract_x
_atom_site_fract_y
_atom_site_fract_z
Si Si1 0.287338 0.449437 0.909967
Si Si2 0.998428 0.288202 0.414720
Si Si3 0.991379 0.693407 0.805444
Si Si4 0.427556 0.556235 0.327380
O O1 0.503189 0.519568 0.880170
O O2 0.382034 0.356320 0.880394
O O3 0.250000 0.443634 0.000000
O O4 0.750000 0.250000 0.369370
O O5 0.995671 0.250000 0.500000
O O6 0.250000 0.250000 0.372136
O O7 0.981159 0.392165 0.407536
O O8 0.250000 0.750000 0.825112
O O9 0.750000 0.750000 0.775988
O O10 0.048680 0.623841 0.740486
O O11 0.136340 0.519889 0.323361
#
# Coordination Sequence:
#
# PCOD8205412 Si02
#       4
#     8   8   8   8
#     4  10  21  40  63  89 125 166 206 254 311 371
#     4  10  21  41  63  87 124 165 203 256 319 379
#     4  12  24  40  64  94 128 168 212 265 321 376
#     4  12  24  41  65  94 125 164 216 265 316 381
#
# _framework density 23.027875000000002
#
# number of rings (size 3 to 8) (size 9 to 14) (size 15 to 20)
#    0.000    1.000    0.000    7.500    0.000    0.500 
#    0.000   16.250    0.000    0.000    0.000    0.000 
#    0.000    0.000    0.000    0.000    0.000    0.000 
#
# Total GULP energy -396473.023004 kJ/mol
# GULP energy per Si atom -12389.781969 kJ/mol
# Density = 2.297546 g / cm^3
# Si number density = 23.027875 Si / 1000 Ang^3
#
#
#
# Elastic Constant Matrix: (Units=GPa)
#
#
# Indices 1 2 3 4 5 6 
#
# 1 165.2342 43.1662 30.5308 0.0000 0.0000 0.0000
# 2 43.1662 126.4310 48.5957 0.0000 0.0000 0.0000
# 3 30.5308 48.5957 64.7464 0.0000 0.0000 0.0000
# 4 0.0000 0.0000 0.0000 39.1321 0.0000 0.0000
# 5 0.0000 0.0000 0.0000 0.0000 -2.0374 0.0000
# 6 0.0000 0.0000 0.0000 0.0000 0.0000 61.3622
#
#
#
# Elastic Compliance Matrix: (Units=1/GPa)
#
#
# Indices 1 2 3 4 5 6 
#
# 1 0.006836 -0.001539 -0.002069 0.000000 0.000000 0.000000
# 2 -0.001539 0.011463 -0.007878 0.000000 0.000000 0.000000
# 3 -0.002069 -0.007878 0.022333 0.000000 0.000000 0.000000
# 4 0.000000 0.000000 0.000000 0.025554 0.000000 0.000000
# 5 0.000000 0.000000 0.000000 0.000000 -0.490822 0.000000
# 6 0.000000 0.000000 0.000000 0.000000 0.000000 0.016297
#
#
# Mechanical properties :
#
#
# Convention : Reuss Voigt Hill
#
# Bulk Modulus (GPa) = 56.62026 66.77746 61.69886
# Shear Modulus (GPa) = -13.17588 35.29930 11.06171
#
# Velocity S-wave (km/s) = -2.39460 3.91947 2.19409
# Velocity P-wave (km/s) = 4.12257 7.03878 5.76802
#
# Compressibility (1/GPa) = 0.01766152
#
# Stress axis : x y z
#
# Youngs Moduli (GPa) = 146.27865 87.23833 44.77677
#
# Poissons Ratio (x) = 0.13426 0.09262
# Poissons Ratio (y) = 0.22512 0.35274
# Poissons Ratio (z) = 0.30258 0.68725
#
# Static dielectric constant tensor:
#      x y z
#    x 4.310520 0.000000 0.000000 
#    y 0.000000 4.531470 0.000000 
#    z 0.000000 0.000000 4.117880 
# 
# 
# High freq. dielectric constant tensor:
#      x y z
#    x 1.945700 0.000000 0.000000 
#    y 0.000000 1.910810 0.000000 
#    z 0.000000 0.000000 1.897600 
# 
# From -- ./inp_files/30151.got.cif
#   From: 2010.03.12/outbox.cif.g09.slc.cpg/sg50_16_cif.got.tgz:30151.got - 2010.04.16 13:23:21.
