data_PCOD8205229
_publ_section_title
;
Structure prediction by ZEFSAII (Michael W. Deem and Ramdas Pophale) SiO2 
 PCOD8205229
Probable space group: P B A N
;
_chemical_formula_sum "Si O2"
_cell_formula_units_Z 64
_cell_length_a 23.948103
_cell_length_b 15.530393
_cell_length_c 8.435442
_cell_angle_alpha 90.000000
_cell_angle_beta 90.000000
_cell_angle_gamma 90.000000
_cell_volume 3137.338701
_symmetry_space_group_name_H-M "P B A N"
_symmetry_group_IT_number 50
_space_group.IT_coordinate_system_code '2'
_symmetry_cell_setting 'orthorhombic'
loop_
_space_group_symop_operation_xyz
x,y,z
1/2-x,1/2-y,z
x,1/2-y,-z
1/2-x,y,-z
-x,-y,-z
1/2+x,1/2+y,-z
-x,1/2+y,z
1/2+x,-y,z
loop_
_atom_site_type_symbol
_atom_site_label
_atom_site_fract_x
_atom_site_fract_y
_atom_site_fract_z
Si Si1 0.438439 0.250000 0.314445
Si Si2 0.632228 0.399922 0.314617
Si Si3 0.132387 0.091927 0.687659
Si Si4 0.632228 0.100078 0.314617
Si Si5 0.250000 0.347523 0.688652
Si Si6 0.632387 0.908073 0.312341
Si Si7 0.250000 0.648249 0.184186
Si Si8 0.940753 0.250000 0.818601
O O1 0.427623 0.250000 0.500000
O O2 0.409951 0.163724 0.241381
O O3 0.409951 0.336276 0.241380
O O4 0.504023 0.250000 0.285728
O O5 0.611774 0.496039 0.268142
O O6 0.623995 0.380727 0.500000
O O7 0.696847 0.391381 0.271262
O O8 0.595495 0.334250 0.214773
O O9 0.194653 0.106362 0.757112
O O10 0.134982 0.101747 0.500000
O O11 0.696847 0.108619 0.271262
O O12 0.595495 0.165750 0.214773
O O13 0.611774 0.003961 0.268142
O O14 0.250000 0.250000 0.749216
O O15 0.250000 0.351085 0.500000
O O16 0.194653 0.393638 0.757112
O O17 0.250000 0.750000 0.206546
O O18 0.250000 0.622701 0.000000
O O19 0.958937 0.250000 0.000000
#
# Coordination Sequence:
#
# PCOD8205229 Si02
#       8
#     8   8   8   8   8   8   8   8
#     4  10  20  39  63  87 116 152 193 242 294 342
#     4  11  22  38  62  91 118 149 194 244 290 340
#     4   9  18  32  57  92 122 148 186 237 290 343
#     4  11  22  38  62  91 118 149 194 244 290 340
#     4   9  13  24  50  87 125 151 170 214 285 347
#     4   9  18  32  57  92 122 148 186 237 290 343
#     4  11  22  37  59  88 123 159 192 230 287 352
#     4  12  26  43  58  79 113 156 202 244 293 350
#
# _framework density 20.399456000000001
#
# number of rings (size 3 to 8) (size 9 to 14) (size 15 to 20)
#    0.000    1.750    2.500    3.000    0.000    3.500 
#    0.000    7.500    0.000    0.000    0.000    1.750 
#    0.000    0.000    0.000    0.000    0.000    0.000 
#
# Total GULP energy -793589.921009 kJ/mol
# GULP energy per Si atom -12399.842516 kJ/mol
# Density = 2.035303 g / cm^3
# Si number density = 20.399456 Si / 1000 Ang^3
#
#
#
# Elastic Constant Matrix: (Units=GPa)
#
#
# Indices 1 2 3 4 5 6 
#
# 1 121.8504 57.0324 -9.6580 0.0000 0.0000 0.0000
# 2 57.0324 157.0092 21.8621 0.0000 0.0000 0.0000
# 3 -9.6580 21.8621 30.0021 0.0000 0.0000 0.0000
# 4 0.0000 0.0000 0.0000 -2.0734 0.0000 0.0000
# 5 0.0000 0.0000 0.0000 0.0000 3.9232 0.0000
# 6 0.0000 0.0000 0.0000 0.0000 0.0000 -53.3173
#
#
#
# Elastic Compliance Matrix: (Units=1/GPa)
#
#
# Indices 1 2 3 4 5 6 
#
# 1 0.011155 -0.005066 0.007283 0.000000 0.000000 0.000000
# 2 -0.005066 0.009389 -0.008472 0.000000 0.000000 0.000000
# 3 0.007283 -0.008472 0.041849 0.000000 0.000000 0.000000
# 4 0.000000 0.000000 0.000000 -0.482299 0.000000 0.000000
# 5 0.000000 0.000000 0.000000 0.000000 0.254893 0.000000
# 6 0.000000 0.000000 0.000000 0.000000 0.000000 -0.018756
#
#
# Mechanical properties :
#
#
# Convention : Reuss Voigt Hill
#
# Bulk Modulus (GPa) = 20.04762 49.70386 34.87574
# Shear Modulus (GPa) = -32.33534 5.68152 -13.32691
#
# Velocity S-wave (km/s) = -3.98566 1.67068 -2.55874
# Velocity P-wave (km/s) = 3.36627 5.30469 2.89896
#
# Compressibility (1/GPa) = 0.04988123
#
# Stress axis : x y z
#
# Youngs Moduli (GPa) = 89.64436 106.50800 23.89546
#
# Poissons Ratio (x) = 0.53958 -0.17402
# Poissons Ratio (y) = 0.45414 0.20245
# Poissons Ratio (z) = -0.65284 0.90238
#
# Static dielectric constant tensor:
#      x y z
#    x 3.683340 0.000000 0.000000 
#    y 0.000000 4.044860 0.000000 
#    z 0.000000 0.000000 3.265000 
# 
# 
# High freq. dielectric constant tensor:
#      x y z
#    x 1.796400 0.000000 0.000000 
#    y 0.000000 1.816560 0.000000 
#    z 0.000000 0.000000 1.756200 
# 
# From -- ./inp_files/16135.got.cif
#   From: 2010.03.12/outbox.cif.g09.slc.cpg/sg50_9_cif.got.tgz:16135.got - 2010.04.16 13:23:21.
