data_PCOD8205981
_publ_section_title
;
Structure prediction by ZEFSAII (Michael W. Deem and Ramdas Pophale) SiO2 
 PCOD8205981
Probable space group: P M M A
;
_chemical_formula_sum "Si O2"
_cell_formula_units_Z 64
_cell_length_a 29.777552
_cell_length_b 9.241105
_cell_length_c 15.018117
_cell_angle_alpha 90.000000
_cell_angle_beta 90.000000
_cell_angle_gamma 90.000000
_cell_volume 4132.647661
_symmetry_space_group_name_H-M "P M M A"
_symmetry_group_IT_number 51
_symmetry_cell_setting 'orthorhombic'
loop_
_space_group_symop_operation_xyz
x,y,z
1/2-x,-y,z
1/2+x,-y,-z
-x,y,-z
-x,-y,-z
1/2+x,y,-z
1/2-x,y,z
x,-y,z
loop_
_atom_site_type_symbol
_atom_site_label
_atom_site_fract_x
_atom_site_fract_y
_atom_site_fract_z
Si Si1 0.031272 0.828858 0.865153
Si Si2 0.699211 0.170277 0.499569
Si Si3 0.560441 0.830475 0.950122
Si Si4 0.701895 0.828381 0.702420
Si Si5 0.888538 0.329257 0.462699
Si Si6 0.560429 0.331385 0.640905
Si Si7 0.613684 0.171128 0.788371
Si Si8 0.539886 0.332001 0.316593
O O1 0.046272 0.752888 0.775075
O O2 0.982589 0.770426 0.896231
O O3 0.032474 0.000000 0.847787
O O4 0.064340 0.779136 0.947092
O O5 0.750000 0.210140 0.466306
O O6 0.693730 0.220925 0.601495
O O7 0.659991 0.254214 0.447062
O O8 0.691278 0.000000 0.488563
O O9 0.604254 0.789206 0.891897
O O10 0.552413 0.000000 0.954359
O O11 0.750000 0.767781 0.736210
O O12 0.662870 0.766199 0.765373
O O13 0.702638 0.000000 0.705599
O O14 0.881033 0.500000 0.464747
O O15 0.913458 0.276987 0.552961
O O16 0.920194 0.281957 0.381365
O O17 0.569849 0.500000 0.656751
O O18 0.576919 0.243060 0.725805
O O19 0.507208 0.300235 0.633171
O O20 0.610718 0.000000 0.772059
O O21 0.543692 0.500000 0.293612
#
# Coordination Sequence:
#
# PCOD8205981 Si02
#       8
#     8   8   8   8   8   8   8   8
#     4   9  16  29  45  62  85 111 144 184 222 260
#     4   9  17  30  47  67  90 113 142 184 227 260
#     4   8  15  26  43  65  86 109 140 180 222 261
#     4   8  14  24  40  63  88 111 136 172 214 254
#     4  10  20  32  45  62  88 122 154 181 217 263
#     4  10  19  30  42  60  89 121 150 181 216 253
#     4  10  16  26  46  65  85 115 148 176 210 263
#     4  10  20  32  44  61  88 121 154 187 219 255
#
# _framework density 15.486440999999999
#
# number of rings (size 3 to 8) (size 9 to 14) (size 15 to 20)
#    0.000    2.750    2.500    1.875    0.000    2.250 
#    0.000    1.875    0.000    2.625    0.000    0.875 
#    0.000    3.000    0.000    0.000    0.000    0.000 
#
# Total GULP energy -793025.474604 kJ/mol
# GULP energy per Si atom -12391.023041 kJ/mol
# Density = 1.545119 g / cm^3
# Si number density = 15.486441 Si / 1000 Ang^3
#
#
#
# Elastic Constant Matrix: (Units=GPa)
#
#
# Indices 1 2 3 4 5 6 
#
# 1 122.2349 30.3316 52.0603 0.0000 0.0000 0.0000
# 2 30.3316 27.5136 27.7323 0.0000 0.0000 0.0000
# 3 52.0603 27.7323 91.8870 0.0000 0.0000 0.0000
# 4 0.0000 0.0000 0.0000 19.3152 0.0000 0.0000
# 5 0.0000 0.0000 0.0000 0.0000 22.8844 0.0000
# 6 0.0000 0.0000 0.0000 0.0000 0.0000 20.0052
#
#
#
# Elastic Compliance Matrix: (Units=1/GPa)
#
#
# Indices 1 2 3 4 5 6 
#
# 1 0.012259 -0.009362 -0.004120 0.000000 0.000000 0.000000
# 2 -0.009362 0.059386 -0.012619 0.000000 0.000000 0.000000
# 3 -0.004120 -0.012619 0.017026 0.000000 0.000000 0.000000
# 4 0.000000 0.000000 0.000000 0.051773 0.000000 0.000000
# 5 0.000000 0.000000 0.000000 0.000000 0.043698 0.000000
# 6 0.000000 0.000000 0.000000 0.000000 0.000000 0.049987
#
#
# Mechanical properties :
#
#
# Convention : Reuss Voigt Hill
#
# Bulk Modulus (GPa) = 27.42079 51.32043 39.37061
# Shear Modulus (GPa) = 16.75125 21.20837 18.97981
#
# Velocity S-wave (km/s) = 3.29245 3.70466 3.50462
# Velocity P-wave (km/s) = 5.67436 7.17707 6.46949
#
# Compressibility (1/GPa) = 0.03646868
#
# Stress axis : x y z
#
# Youngs Moduli (GPa) = 81.57485 16.83910 58.73453
#
# Poissons Ratio (x) = 0.15764 0.24199
# Poissons Ratio (y) = 0.76367 0.74118
# Poissons Ratio (z) = 0.33609 0.21250
#
# Static dielectric constant tensor:
#      x y z
#    x 3.233470 0.000000 0.000000 
#    y 0.000000 2.687400 0.000000 
#    z 0.000000 0.000000 2.982590 
# 
# 
# High freq. dielectric constant tensor:
#      x y z
#    x 1.587370 0.000000 0.000000 
#    y 0.000000 1.569050 0.000000 
#    z 0.000000 0.000000 1.578070 
# 
# From -- ./inp_files/26635.got.cif
#   From: 2010.03.12/outbox.cif.g09.slc.cpg/sg51_14_cif.got.tgz:26635.got - 2010.04.16 13:43:02.
