data_PCOD8205573
_publ_section_title
;
Structure prediction by ZEFSAII (Michael W. Deem and Ramdas Pophale) SiO2 
 PCOD8205573
Probable space group: P B A N
;
_chemical_formula_sum "Si O2"
_cell_formula_units_Z 58
_cell_length_a 30.782075
_cell_length_b 10.777447
_cell_length_c 8.530255
_cell_angle_alpha 90.000000
_cell_angle_beta 90.000000
_cell_angle_gamma 90.000000
_cell_volume 2829.930708
_symmetry_space_group_name_H-M "P B A N"
_symmetry_group_IT_number 50
_space_group.IT_coordinate_system_code '2'
_symmetry_cell_setting 'orthorhombic'
loop_
_space_group_symop_operation_xyz
x,y,z
1/2-x,1/2-y,z
x,1/2-y,-z
1/2-x,y,-z
-x,-y,-z
1/2+x,1/2+y,-z
-x,1/2+y,z
1/2+x,-y,z
loop_
_atom_site_type_symbol
_atom_site_label
_atom_site_fract_x
_atom_site_fract_y
_atom_site_fract_z
Si Si1 0.323710 0.906208 0.646098
Si Si2 0.983373 0.265147 0.823979
Si Si3 0.976850 0.526373 0.659548
Si Si4 0.804903 0.688624 0.670739
Si Si5 0.250000 0.750000 0.500000
Si Si6 0.269574 0.085833 0.829256
Si Si7 0.376024 0.013743 0.354811
Si Si8 0.882759 0.272387 0.826832
O O1 0.280114 0.835102 0.605283
O O2 0.346663 0.980959 0.506060
O O3 0.359893 0.810890 0.699154
O O4 0.308829 0.992781 0.788959
O O5 0.989354 0.409218 0.771181
O O6 0.932777 0.233094 0.815734
O O7 0.008634 0.160957 0.723848
O O8 0.001225 0.250000 0.000000
O O9 0.926390 0.536059 0.612271
O O10 0.000000 0.500000 0.500000
O O11 0.799239 0.750000 0.500000
O O12 0.769252 0.578071 0.697299
O O13 0.793091 0.780683 0.813618
O O14 0.853801 0.641171 0.702793
O O15 0.250000 0.058815 0.000000
O O16 0.372961 0.913830 0.216627
O O17 0.864194 0.250000 0.000000
#
# Coordination Sequence:
#
# PCOD8205573 Si02
#       8
#     8   8   8   8   2   8   8   8
#     4  12  23  39  62  92 122 166 215 266 320 385
#     4  10  22  44  68  98 138 180 216 268 344 405
#     4  11  23  41  70 102 135 176 225 282 327 403
#     4  11  22  41  63  85 121 168 214 254 327 381
#     4  12  24  36  66  90 120 164 222 256 310 388
#     4  11  25  41  61  87 125 167 209 271 329 383
#     4  11  23  42  65  94 131 166 217 270 326 386
#     4  10  23  42  65  92 130 169 208 267 327 385
#
# _framework density 20.495201999999999
#
# number of rings (size 3 to 8) (size 9 to 14) (size 15 to 20)
#    0.000    1.103    2.759    4.138    1.931    3.310 
#    2.483    1.379    0.000    0.000    0.000    0.000 
#    0.000    0.000    0.000    0.000    0.000    0.000 
#
# Total GULP energy -718792.378629 kJ/mol
# GULP energy per Si atom -12392.972045 kJ/mol
# Density = 2.044855 g / cm^3
# Si number density = 20.495202 Si / 1000 Ang^3
#
#
#
# Elastic Constant Matrix: (Units=GPa)
#
#
# Indices 1 2 3 4 5 6 
#
# 1 121.7856 56.2846 52.4259 0.0000 0.0000 0.0000
# 2 56.2846 83.4621 29.2923 0.0000 0.0000 0.0000
# 3 52.4259 29.2923 111.4876 0.0000 0.0000 0.0000
# 4 0.0000 0.0000 0.0000 31.1955 0.0000 0.0000
# 5 0.0000 0.0000 0.0000 0.0000 27.6963 0.0000
# 6 0.0000 0.0000 0.0000 0.0000 0.0000 54.1985
#
#
#
# Elastic Compliance Matrix: (Units=1/GPa)
#
#
# Indices 1 2 3 4 5 6 
#
# 1 0.013646 -0.007656 -0.004405 0.000000 0.000000 0.000000
# 2 -0.007656 0.017494 -0.000996 0.000000 0.000000 0.000000
# 3 -0.004405 -0.000996 0.011303 0.000000 0.000000 0.000000
# 4 0.000000 0.000000 0.000000 0.032056 0.000000 0.000000
# 5 0.000000 0.000000 0.000000 0.000000 0.036106 0.000000
# 6 0.000000 0.000000 0.000000 0.000000 0.000000 0.018451
#
#
# Mechanical properties :
#
#
# Convention : Reuss Voigt Hill
#
# Bulk Modulus (GPa) = 61.24575 65.86008 63.55292
# Shear Modulus (GPa) = 31.13055 34.53356 32.83206
#
# Velocity S-wave (km/s) = 3.90156 4.10928 4.00676
# Velocity P-wave (km/s) = 7.08830 7.39723 7.24442
#
# Compressibility (1/GPa) = 0.01632766
#
# Stress axis : x y z
#
# Youngs Moduli (GPa) = 73.28152 57.16119 88.47328
#
# Poissons Ratio (x) = 0.43765 0.38975
# Poissons Ratio (y) = 0.56107 0.08813
# Poissons Ratio (z) = 0.32282 0.05694
#
# Static dielectric constant tensor:
#      x y z
#    x 4.190860 0.000000 0.000000 
#    y 0.000000 3.880150 0.000000 
#    z 0.000000 0.000000 3.733790 
# 
# 
# High freq. dielectric constant tensor:
#      x y z
#    x 1.807190 0.000000 0.000000 
#    y 0.000000 1.807770 0.000000 
#    z 0.000000 0.000000 1.798220 
# 
# From -- ./inp_files/16562.got.cif
#   From: 2010.03.12/outbox.cif.g09.slc.cpg/sg50_9_cif.got.tgz:16562.got - 2010.04.16 13:23:21.
