data_PCOD8205519
_publ_section_title
;
Structure prediction by ZEFSAII (Michael W. Deem and Ramdas Pophale) SiO2 
 PCOD8205519
Probable space group: P B A N
;
_chemical_formula_sum "Si O2"
_cell_formula_units_Z 40
_cell_length_a 16.605074
_cell_length_b 8.753654
_cell_length_c 13.337153
_cell_angle_alpha 90.000000
_cell_angle_beta 90.000000
_cell_angle_gamma 90.000000
_cell_volume 1938.622840
_symmetry_space_group_name_H-M "P B A N"
_symmetry_group_IT_number 50
_space_group.IT_coordinate_system_code '2'
_symmetry_cell_setting 'orthorhombic'
loop_
_space_group_symop_operation_xyz
x,y,z
1/2-x,1/2-y,z
x,1/2-y,-z
1/2-x,y,-z
-x,-y,-z
1/2+x,1/2+y,-z
-x,1/2+y,z
1/2+x,-y,z
loop_
_atom_site_type_symbol
_atom_site_label
_atom_site_fract_x
_atom_site_fract_y
_atom_site_fract_z
Si Si1 0.061788 0.181905 0.827960
Si Si2 0.189593 0.513623 0.086199
Si Si3 0.750000 0.250000 0.238769
Si Si4 0.937877 0.250000 0.000000
Si Si5 0.106721 0.711631 0.608849
Si Si6 0.480848 0.440081 0.309289
O O1 0.069582 0.345767 0.773974
O O2 0.149254 0.141438 0.872558
O O3 0.040745 0.053963 0.746714
O O4 0.992903 0.181335 0.912430
O O5 0.241708 0.600541 0.170095
O O6 0.250000 0.463506 0.000000
O O7 0.117649 0.618693 0.045403
O O8 0.828845 0.260380 0.305490
O O9 0.144043 0.750000 0.500000
O O10 0.078689 0.535126 0.618033
O O11 0.031327 0.823974 0.622902
#
# Coordination Sequence:
#
# PCOD8205519 Si02
#       6
#     8   8   4   4   8   8
#     4  11  22  39  63  95 126 175 212 268 324 376
#     4  12  23  38  62  93 133 177 216 264 324 394
#     4  12  22  42  64  92 134 164 212 264 334 398
#     4  12  21  38  65  88 130 172 232 260 305 394
#     4  11  23  42  70  98 121 167 215 269 330 392
#     4  10  22  40  68  91 129 159 217 271 320 384
#
# _framework density 20.633205
#
# number of rings (size 3 to 8) (size 9 to 14) (size 15 to 20)
#    0.000    0.800    6.000    2.700    0.000    0.000 
#    0.000    3.500    0.000    0.000   10.400    0.000 
#    0.000    0.000    0.000    0.000    0.000    0.000 
#
# Total GULP energy -496128.225686 kJ/mol
# GULP energy per Si atom -12403.205642 kJ/mol
# Density = 2.058624 g / cm^3
# Si number density = 20.633205 Si / 1000 Ang^3
#
#
#
# Elastic Constant Matrix: (Units=GPa)
#
#
# Indices 1 2 3 4 5 6 
#
# 1 74.3953 29.7511 38.5941 0.0000 0.0000 0.0000
# 2 29.7511 96.8982 37.4835 0.0000 0.0000 0.0000
# 3 38.5941 37.4835 119.8597 0.0000 0.0000 0.0000
# 4 0.0000 0.0000 0.0000 29.3888 0.0000 0.0000
# 5 0.0000 0.0000 0.0000 0.0000 238.7847 0.0000
# 6 0.0000 0.0000 0.0000 0.0000 0.0000 34.6996
#
#
#
# Elastic Compliance Matrix: (Units=1/GPa)
#
#
# Indices 1 2 3 4 5 6 
#
# 1 0.017153 -0.003561 -0.004410 0.000000 0.000000 0.000000
# 2 -0.003561 0.012480 -0.002756 0.000000 0.000000 0.000000
# 3 -0.004410 -0.002756 0.010625 0.000000 0.000000 0.000000
# 4 0.000000 0.000000 0.000000 0.034027 0.000000 0.000000
# 5 0.000000 0.000000 0.000000 0.000000 0.004188 0.000000
# 6 0.000000 0.000000 0.000000 0.000000 0.000000 0.028819
#
#
# Mechanical properties :
#
#
# Convention : Reuss Voigt Hill
#
# Bulk Modulus (GPa) = 53.17893 55.86786 54.52339
# Shear Modulus (GPa) = 37.03357 72.92956 54.98156
#
# Velocity S-wave (km/s) = 4.24117 5.95168 5.16769
# Velocity P-wave (km/s) = 7.05781 8.62354 7.87966
#
# Compressibility (1/GPa) = 0.01880444
#
# Stress axis : x y z
#
# Youngs Moduli (GPa) = 58.29772 80.13081 94.11839
#
# Poissons Ratio (x) = 0.28533 0.41503
# Poissons Ratio (y) = 0.20759 0.25940
# Poissons Ratio (z) = 0.25708 0.22085
#
# Static dielectric constant tensor:
#      x y z
#    x 3.715650 0.000000 0.000000 
#    y 0.000000 3.924080 0.000000 
#    z 0.000000 0.000000 3.865590 
# 
# 
# High freq. dielectric constant tensor:
#      x y z
#    x 1.798410 0.000000 0.000000 
#    y 0.000000 1.809710 0.000000 
#    z 0.000000 0.000000 1.812650 
# 
# From -- ./inp_files/21639.got.cif
#   From: 2010.03.12/outbox.cif.g09.slc.cpg/sg50_11_cif.got.tgz:21639.got - 2010.04.16 13:23:21.
