data_PCOD8205377
_publ_section_title
;
Structure prediction by ZEFSAII (Michael W. Deem and Ramdas Pophale) SiO2 
 PCOD8205377
Probable space group: P B A N
;
_chemical_formula_sum "Si O2"
_cell_formula_units_Z 64
_cell_length_a 18.469113
_cell_length_b 11.020284
_cell_length_c 15.038887
_cell_angle_alpha 90.000000
_cell_angle_beta 90.000000
_cell_angle_gamma 90.000000
_cell_volume 3060.937918
_symmetry_space_group_name_H-M "P B A N"
_symmetry_group_IT_number 50
_space_group.IT_coordinate_system_code '2'
_symmetry_cell_setting 'orthorhombic'
loop_
_space_group_symop_operation_xyz
x,y,z
1/2-x,1/2-y,z
x,1/2-y,-z
1/2-x,y,-z
-x,-y,-z
1/2+x,1/2+y,-z
-x,1/2+y,z
1/2+x,-y,z
loop_
_atom_site_type_symbol
_atom_site_label
_atom_site_fract_x
_atom_site_fract_y
_atom_site_fract_z
Si Si1 0.922476 0.385021 0.492443
Si Si2 0.329740 0.377149 0.536690
Si Si3 0.567045 0.672475 0.803874
Si Si4 0.352860 0.992453 0.921300
Si Si5 0.312684 0.947439 0.111297
Si Si6 0.371759 0.088053 0.270329
Si Si7 0.490673 0.472866 0.351602
Si Si8 0.075411 0.753320 0.100708
O O1 0.885968 0.250000 0.500000
O O2 0.869713 0.499203 0.508099
O O3 0.987300 0.386880 0.565007
O O4 0.954853 0.404537 0.393060
O O5 0.364903 0.250000 0.500000
O O6 0.250000 0.388533 0.500000
O O7 0.326907 0.370339 0.643399
O O8 0.622479 0.616223 0.875404
O O9 0.601488 0.799974 0.785555
O O10 0.565372 0.594777 0.712893
O O11 0.485586 0.692235 0.838623
O O12 0.272848 0.943515 0.901567
O O13 0.409637 0.894973 0.880357
O O14 0.355183 0.011880 0.028450
O O15 0.320951 0.013519 0.204998
O O16 0.347706 0.813750 0.115863
O O17 0.439125 0.005258 0.295897
O O18 0.047757 0.750000 0.000000
#
# Coordination Sequence:
#
# PCOD8205377 Si02
#       8
#     8   8   8   8   8   8   8   8
#     4  10  21  38  66  91 124 160 210 274 332 386
#     4  10  23  43  64  87 123 173 215 256 334 414
#     4  12  23  37  63  99 129 164 218 268 324 382
#     4  10  24  40  63  90 123 179 212 263 323 385
#     4  10  22  44  62  87 130 167 220 258 325 391
#     4  11  23  38  63  90 126 164 207 270 313 392
#     4  10  21  39  58  93 127 162 204 261 334 392
#     4  10  22  39  66  89 125 169 219 269 320 385
#
# _framework density 20.908622000000001
#
# number of rings (size 3 to 8) (size 9 to 14) (size 15 to 20)
#    0.000    1.625    1.250    2.625    1.750    9.750 
#    0.000    1.250    2.750    0.000    0.000    0.000 
#    0.000    0.000    0.000    0.000    0.000    0.000 
#
# Total GULP energy -793247.452108 kJ/mol
# GULP energy per Si atom -12394.491439 kJ/mol
# Density = 2.086103 g / cm^3
# Si number density = 20.908622 Si / 1000 Ang^3
#
#
#
# Elastic Constant Matrix: (Units=GPa)
#
#
# Indices 1 2 3 4 5 6 
#
# 1 69.9538 21.3899 19.8699 0.0000 0.0000 0.0000
# 2 21.3899 88.2271 36.7886 0.0000 0.0000 0.0000
# 3 19.8699 36.7886 113.2343 0.0000 0.0000 0.0000
# 4 0.0000 0.0000 0.0000 25.3735 0.0000 0.0000
# 5 0.0000 0.0000 0.0000 0.0000 -71.5281 0.0000
# 6 0.0000 0.0000 0.0000 0.0000 0.0000 25.4297
#
#
#
# Elastic Compliance Matrix: (Units=1/GPa)
#
#
# Indices 1 2 3 4 5 6 
#
# 1 0.015737 -0.003081 -0.001760 0.000000 0.000000 0.000000
# 2 -0.003081 0.013714 -0.003915 0.000000 0.000000 0.000000
# 3 -0.001760 -0.003915 0.010412 0.000000 0.000000 0.000000
# 4 0.000000 0.000000 0.000000 0.039411 0.000000 0.000000
# 5 0.000000 0.000000 0.000000 0.000000 -0.013981 0.000000
# 6 0.000000 0.000000 0.000000 0.000000 0.000000 0.039324
#
#
# Mechanical properties :
#
#
# Convention : Reuss Voigt Hill
#
# Bulk Modulus (GPa) = 44.74248 47.50133 46.12190
# Shear Modulus (GPa) = 38.58593 8.74616 23.66605
#
# Velocity S-wave (km/s) = 4.30054 2.04747 3.36799
# Velocity P-wave (km/s) = 6.79007 5.32516 6.10174
#
# Compressibility (1/GPa) = 0.02235013
#
# Stress axis : x y z
#
# Youngs Moduli (GPa) = 63.54302 72.91934 96.04280
#
# Poissons Ratio (x) = 0.22469 0.16908
# Poissons Ratio (y) = 0.19580 0.37598
# Poissons Ratio (z) = 0.11186 0.28546
#
# Static dielectric constant tensor:
#      x y z
#    x 3.693680 0.000000 0.000000 
#    y 0.000000 3.796750 0.000000 
#    z 0.000000 0.000000 4.144610 
# 
# 
# High freq. dielectric constant tensor:
#      x y z
#    x 1.802910 0.000000 0.000000 
#    y 0.000000 1.820830 0.000000 
#    z 0.000000 0.000000 1.831780 
# 
# From -- ./inp_files/27013.got.cif
#   From: 2010.03.12/outbox.cif.g09.slc.cpg/sg50_14_cif.got.tgz:27013.got - 2010.04.16 13:23:21.
