data_PCOD8205619
_publ_section_title
;
Structure prediction by ZEFSAII (Michael W. Deem and Ramdas Pophale) SiO2 
 PCOD8205619
Probable space group: P B A N
;
_chemical_formula_sum "Si O2"
_cell_formula_units_Z 26
_cell_length_a 11.695166
_cell_length_b 5.034812
_cell_length_c 17.945920
_cell_angle_alpha 90.000000
_cell_angle_beta 90.000000
_cell_angle_gamma 90.000000
_cell_volume 1056.708928
_symmetry_space_group_name_H-M "P B A N"
_symmetry_group_IT_number 50
_space_group.IT_coordinate_system_code '2'
_symmetry_cell_setting 'orthorhombic'
loop_
_space_group_symop_operation_xyz
x,y,z
1/2-x,1/2-y,z
x,1/2-y,-z
1/2-x,y,-z
-x,-y,-z
1/2+x,1/2+y,-z
-x,1/2+y,z
1/2+x,-y,z
loop_
_atom_site_type_symbol
_atom_site_label
_atom_site_fract_x
_atom_site_fract_y
_atom_site_fract_z
Si Si1 0.250000 0.250000 0.627728
Si Si2 0.750000 0.250000 0.000000
Si Si3 0.077963 0.250000 0.500000
Si Si4 0.923383 0.469245 0.724354
Si Si5 0.072867 0.490080 0.104151
O O1 0.148758 0.331583 0.572978
O O2 0.195371 0.016669 0.679395
O O3 0.821712 0.053095 0.051661
O O4 0.000000 0.500000 0.500000
O O5 0.887777 0.482980 0.810547
O O6 0.978532 0.185893 0.704353
O O7 0.031641 0.191474 0.087058
#
# Coordination Sequence:
#
# PCOD8205619 Si02
#       5
#     4   2   4   8   8
#     4  11  24  42  74  99 130 182 226 265 334 404
#     4  12  24  42  72  96 132 184 228 274 348 428
#     4  11  26  45  66 102 142 175 218 275 330 392
#     4  10  23  42  64  95 132 168 217 277 328 387
#     4  10  24  43  63  94 132 169 218 279 336 395
#
# _framework density 24.604693000000001
#
# number of rings (size 3 to 8) (size 9 to 14) (size 15 to 20)
#    0.000    1.538    0.000    2.769    0.000   16.000 
#    0.000    0.000    0.000    0.000    0.000    0.000 
#    0.000    0.000    0.000    0.000    0.000    0.000 
#
# Total GULP energy -322274.604926 kJ/mol
# GULP energy per Si atom -12395.177113 kJ/mol
# Density = 2.454869 g / cm^3
# Si number density = 24.604693 Si / 1000 Ang^3
#
#
#
# Elastic Constant Matrix: (Units=GPa)
#
#
# Indices 1 2 3 4 5 6 
#
# 1 141.4499 38.8770 90.9202 0.0000 0.0000 0.0000
# 2 38.8770 107.8983 32.1448 0.0000 0.0000 0.0000
# 3 90.9202 32.1448 154.9202 0.0000 0.0000 0.0000
# 4 0.0000 0.0000 0.0000 30.8363 0.0000 0.0000
# 5 0.0000 0.0000 0.0000 0.0000 39.2330 0.0000
# 6 0.0000 0.0000 0.0000 0.0000 0.0000 0.3149
#
#
#
# Elastic Compliance Matrix: (Units=1/GPa)
#
#
# Indices 1 2 3 4 5 6 
#
# 1 0.011886 -0.002350 -0.006488 0.000000 0.000000 0.000000
# 2 -0.002350 0.010343 -0.000767 0.000000 0.000000 0.000000
# 3 -0.006488 -0.000767 0.010422 0.000000 0.000000 0.000000
# 4 0.000000 0.000000 0.000000 0.032429 0.000000 0.000000
# 5 0.000000 0.000000 0.000000 0.000000 0.025489 0.000000
# 6 0.000000 0.000000 0.000000 0.000000 0.000000 3.175958
#
#
# Mechanical properties :
#
#
# Convention : Reuss Voigt Hill
#
# Bulk Modulus (GPa) = 74.39890 80.90582 77.65236
# Shear Modulus (GPa) = 1.51966 30.23193 15.87579
#
# Velocity S-wave (km/s) = 0.78675 3.50909 2.54290
# Velocity P-wave (km/s) = 5.57930 7.02652 6.34431
#
# Compressibility (1/GPa) = 0.01344106
#
# Stress axis : x y z
#
# Youngs Moduli (GPa) = 84.13421 96.68235 95.95238
#
# Poissons Ratio (x) = 0.22717 0.62254
# Poissons Ratio (y) = 0.19769 0.07361
# Poissons Ratio (z) = 0.54587 0.07417
#
# Static dielectric constant tensor:
#      x y z
#    x 4.442160 0.000000 0.000000 
#    y 0.000000 4.116400 0.000000 
#    z 0.000000 0.000000 4.968130 
# 
# 
# High freq. dielectric constant tensor:
#      x y z
#    x 1.981180 0.000000 0.000000 
#    y 0.000000 1.973190 0.000000 
#    z 0.000000 0.000000 2.007310 
# 
# From -- ./inp_files/29035.got.cif
#   From: 2010.03.12/outbox.cif.g09.slc.cpg/sg50_15_cif.got.tgz:29035.got - 2010.04.16 13:23:21.
