data_PCOD8205836
_publ_section_title
;
Structure prediction by ZEFSAII (Michael W. Deem and Ramdas Pophale) SiO2 
 PCOD8205836
Probable space group: P B A N
;
_chemical_formula_sum "Si O2"
_cell_formula_units_Z 40
_cell_length_a 13.329070
_cell_length_b 14.565190
_cell_length_c 8.290104
_cell_angle_alpha 90.000000
_cell_angle_beta 90.000000
_cell_angle_gamma 90.000000
_cell_volume 1609.444414
_symmetry_space_group_name_H-M "P B A N"
_symmetry_group_IT_number 50
_space_group.IT_coordinate_system_code '2'
_symmetry_cell_setting 'orthorhombic'
loop_
_space_group_symop_operation_xyz
x,y,z
1/2-x,1/2-y,z
x,1/2-y,-z
1/2-x,y,-z
-x,-y,-z
1/2+x,1/2+y,-z
-x,1/2+y,z
1/2+x,-y,z
loop_
_atom_site_type_symbol
_atom_site_label
_atom_site_fract_x
_atom_site_fract_y
_atom_site_fract_z
Si Si1 0.174464 0.426136 0.202467
Si Si2 0.891242 0.886296 0.841301
Si Si3 0.434713 0.747454 0.180235
Si Si4 0.337787 0.600901 0.623695
Si Si5 0.526571 0.437507 0.662388
O O1 0.279174 0.372557 0.232578
O O2 0.197790 0.534374 0.231268
O O3 0.090528 0.404489 0.337260
O O4 0.124714 0.409320 0.029226
O O5 0.951961 0.791054 0.820352
O O6 0.954565 0.968195 0.760719
O O7 0.364955 0.802680 0.301335
O O8 0.419952 0.644677 0.242512
O O9 0.391635 0.750000 0.000000
O O10 0.250000 0.616654 0.500000
O O11 0.433674 0.557322 0.523122
#
# Coordination Sequence:
#
# PCOD8205836 Si02
#       5
#     8   8   8   8   8
#     4  11  23  44  77 107 148 191 249 307 372 443
#     4  11  24  46  76 113 143 197 258 305 369 450
#     4  12  26  47  76 108 150 199 249 312 368 449
#     4  12  26  48  73 110 151 196 249 310 377 446
#     4  12  24  45  73 107 151 197 243 309 381 436
#
# _framework density 24.853297999999999
#
# number of rings (size 3 to 8) (size 9 to 14) (size 15 to 20)
#    0.000    0.400    6.000    3.000    0.000    2.400 
#    0.000    1.000    0.000    2.400    0.000    0.000 
#    0.000    0.000    0.000    0.000    0.000    0.000 
#
# Total GULP energy -495837.400332 kJ/mol
# GULP energy per Si atom -12395.935008 kJ/mol
# Density = 2.479673 g / cm^3
# Si number density = 24.853298 Si / 1000 Ang^3
#
#
#
# Elastic Constant Matrix: (Units=GPa)
#
#
# Indices 1 2 3 4 5 6 
#
# 1 118.7691 -17.8463 30.9339 0.0000 0.0000 0.0000
# 2 -17.8463 58.5092 19.2663 0.0000 0.0000 0.0000
# 3 30.9339 19.2663 88.2960 0.0000 0.0000 0.0000
# 4 0.0000 0.0000 0.0000 38.0392 0.0000 0.0000
# 5 0.0000 0.0000 0.0000 0.0000 43.2128 0.0000
# 6 0.0000 0.0000 0.0000 0.0000 0.0000 26.9376
#
#
#
# Elastic Compliance Matrix: (Units=1/GPa)
#
#
# Indices 1 2 3 4 5 6 
#
# 1 0.010331 0.004679 -0.004641 0.000000 0.000000 0.000000
# 2 0.004679 0.020534 -0.006120 0.000000 0.000000 0.000000
# 3 -0.004641 -0.006120 0.014287 0.000000 0.000000 0.000000
# 4 0.000000 0.000000 0.000000 0.026289 0.000000 0.000000
# 5 0.000000 0.000000 0.000000 0.000000 0.023141 0.000000
# 6 0.000000 0.000000 0.000000 0.000000 0.000000 0.037123
#
#
# Mechanical properties :
#
#
# Convention : Reuss Voigt Hill
#
# Bulk Modulus (GPa) = 30.31243 36.69802 33.50523
# Shear Modulus (GPa) = 32.28644 37.18593 34.73619
#
# Velocity S-wave (km/s) = 3.60819 3.87229 3.74257
# Velocity P-wave (km/s) = 5.43891 5.89837 5.67329
#
# Compressibility (1/GPa) = 0.03298976
#
# Stress axis : x y z
#
# Youngs Moduli (GPa) = 96.79141 48.70010 69.99500
#
# Poissons Ratio (x) = -0.22789 0.32482
# Poissons Ratio (y) = -0.45292 0.42836
# Poissons Ratio (z) = 0.44917 0.29804
#
# Static dielectric constant tensor:
#      x y z
#    x 4.903980 0.000000 0.000000 
#    y 0.000000 4.450830 0.000000 
#    z 0.000000 0.000000 4.628780 
# 
# 
# High freq. dielectric constant tensor:
#      x y z
#    x 2.006710 0.000000 0.000000 
#    y 0.000000 1.988350 0.000000 
#    z 0.000000 0.000000 1.994340 
# 
# From -- ./inp_files/12560.got.cif
#   From: 2010.03.12/outbox.cif.g09.slc.cpg/sg50_7_cif.got.tgz:12560.got - 2010.04.16 13:23:21.
