data_PCOD8205042
_publ_section_title
;
Structure prediction by ZEFSAII (Michael W. Deem and Ramdas Pophale) SiO2 
 PCOD8205042
Probable space group: P B A N
;
_chemical_formula_sum "Si O2"
_cell_formula_units_Z 52
_cell_length_a 8.650458
_cell_length_b 29.896076
_cell_length_c 10.969774
_cell_angle_alpha 90.000000
_cell_angle_beta 90.000000
_cell_angle_gamma 90.000000
_cell_volume 2836.945358
_symmetry_space_group_name_H-M "P B A N"
_symmetry_group_IT_number 50
_space_group.IT_coordinate_system_code '2'
_symmetry_cell_setting 'orthorhombic'
loop_
_space_group_symop_operation_xyz
x,y,z
1/2-x,1/2-y,z
x,1/2-y,-z
1/2-x,y,-z
-x,-y,-z
1/2+x,1/2+y,-z
-x,1/2+y,z
1/2+x,-y,z
loop_
_atom_site_type_symbol
_atom_site_label
_atom_site_fract_x
_atom_site_fract_y
_atom_site_fract_z
Si Si1 0.750000 0.750000 0.000000
Si Si2 0.436062 0.458979 0.352123
Si Si3 0.493971 0.707397 0.838046
Si Si4 0.574728 0.733961 0.370233
Si Si5 0.408110 0.047908 0.359135
Si Si6 0.950661 0.360235 0.386685
Si Si7 0.750000 0.250000 0.000000
Si Si8 0.404438 0.630801 0.666750
O O1 0.650294 0.783362 0.085237
O O2 0.263453 0.451414 0.301780
O O3 0.417424 0.458939 0.496878
O O4 0.498141 0.506357 0.301356
O O5 0.557115 0.421199 0.306589
O O6 0.471129 0.743193 0.731316
O O7 0.490355 0.658782 0.773309
O O8 0.349153 0.714536 0.924603
O O9 0.750000 0.750000 0.356196
O O10 0.507659 0.750000 0.500000
O O11 0.556248 0.681262 0.345304
O O12 0.483067 0.095204 0.324775
O O13 0.776453 0.357245 0.337178
O O14 0.970276 0.359325 0.532567
#
# Coordination Sequence:
#
# PCOD8205042 Si02
#       8
#     2   8   8   8   8   8   2   8
#     4  10  24  38  58  70 104 144 204 240 288 302
#     4   9  17  28  46  72 102 151 179 222 255 319
#     4  11  21  40  54  78 104 147 186 246 269 343
#     4  11  22  33  55  81 114 145 184 224 282 341
#     4   9  17  28  46  68 111 146 187 206 258 326
#     4  10  20  32  48  79 111 152 176 217 269 343
#     4  10  24  38  58  70 104 148 204 236 296 298
#     4  10  20  33  52  75 112 140 188 223 276 330
#
# _framework density 18.329574000000001
#
# number of rings (size 3 to 8) (size 9 to 14) (size 15 to 20)
#    0.000    2.000    2.308    1.846    2.154    4.923 
#    0.000    0.000    0.000    0.000    0.000    0.000 
#    0.000   41.846    0.000    0.000    0.000    0.000 
#
# Total GULP energy -644485.486050 kJ/mol
# GULP energy per Si atom -12393.951655 kJ/mol
# Density = 1.828786 g / cm^3
# Si number density = 18.329574 Si / 1000 Ang^3
#
#
#
# Elastic Constant Matrix: (Units=GPa)
#
#
# Indices 1 2 3 4 5 6 
#
# 1 109.0114 61.4452 30.8595 0.0000 0.0000 0.0000
# 2 61.4452 170.5283 33.3477 0.0000 0.0000 0.0000
# 3 30.8595 33.3477 68.5107 0.0000 0.0000 0.0000
# 4 0.0000 0.0000 0.0000 13.9716 0.0000 0.0000
# 5 0.0000 0.0000 0.0000 0.0000 2.9617 0.0000
# 6 0.0000 0.0000 0.0000 0.0000 0.0000 34.1905
#
#
#
# Elastic Compliance Matrix: (Units=1/GPa)
#
#
# Indices 1 2 3 4 5 6 
#
# 1 0.012324 -0.003708 -0.003746 0.000000 0.000000 0.000000
# 2 -0.003708 0.007597 -0.002028 0.000000 0.000000 0.000000
# 3 -0.003746 -0.002028 0.017271 0.000000 0.000000 0.000000
# 4 0.000000 0.000000 0.000000 0.071574 0.000000 0.000000
# 5 0.000000 0.000000 0.000000 0.000000 0.337647 0.000000
# 6 0.000000 0.000000 0.000000 0.000000 0.000000 0.029248
#
#
# Mechanical properties :
#
#
# Convention : Reuss Voigt Hill
#
# Bulk Modulus (GPa) = 54.86145 66.59502 60.72823
# Shear Modulus (GPa) = 9.98604 25.05130 17.51867
#
# Velocity S-wave (km/s) = 2.33664 3.70092 3.09489
# Velocity P-wave (km/s) = 6.10536 7.39414 6.78044
#
# Compressibility (1/GPa) = 0.01822774
#
# Stress axis : x y z
#
# Youngs Moduli (GPa) = 81.14325 131.63634 57.90195
#
# Poissons Ratio (x) = 0.48810 0.21691
# Poissons Ratio (y) = 0.30088 0.11740
# Poissons Ratio (z) = 0.30398 0.26689
#
# Static dielectric constant tensor:
#      x y z
#    x 3.454780 0.000000 0.000000 
#    y 0.000000 3.506140 0.000000 
#    z 0.000000 0.000000 3.130310 
# 
# 
# High freq. dielectric constant tensor:
#      x y z
#    x 1.720810 0.000000 0.000000 
#    y 0.000000 1.717110 0.000000 
#    z 0.000000 0.000000 1.653720 
# 
# From -- ./inp_files/19482.got.cif
#   From: 2010.03.12/outbox.cif.g09.slc.cpg/sg50_10_cif.got.tgz:19482.got - 2010.04.16 13:23:21.
