data_PCOD8205298
_publ_section_title
;
Structure prediction by ZEFSAII (Michael W. Deem and Ramdas Pophale) SiO2 
 PCOD8205298
Probable space group: P B A N
;
_chemical_formula_sum "Si O2"
_cell_formula_units_Z 48
_cell_length_a 15.448935
_cell_length_b 5.184097
_cell_length_c 28.563748
_cell_angle_alpha 90.000000
_cell_angle_beta 90.000000
_cell_angle_gamma 90.000000
_cell_volume 2287.635661
_symmetry_space_group_name_H-M "P B A N"
_symmetry_group_IT_number 50
_space_group.IT_coordinate_system_code '2'
_symmetry_cell_setting 'orthorhombic'
loop_
_space_group_symop_operation_xyz
x,y,z
1/2-x,1/2-y,z
x,1/2-y,-z
1/2-x,y,-z
-x,-y,-z
1/2+x,1/2+y,-z
-x,1/2+y,z
1/2+x,-y,z
loop_
_atom_site_type_symbol
_atom_site_label
_atom_site_fract_x
_atom_site_fract_y
_atom_site_fract_z
Si Si1 0.056112 0.901685 0.891082
Si Si2 0.554957 0.725451 0.448150
Si Si3 0.847842 0.497317 0.979488
Si Si4 0.351862 0.238085 0.645109
Si Si5 0.553692 0.403096 0.214970
Si Si6 0.851539 0.265266 0.695621
O O1 0.090232 0.896180 0.837835
O O2 0.016209 0.619764 0.901022
O O3 0.140302 0.969793 0.923328
O O4 0.596692 0.750000 0.500000
O O5 0.521335 0.434047 0.441916
O O6 0.627491 0.786379 0.409709
O O7 0.894971 0.750000 0.000000
O O8 0.750000 0.497667 0.000000
O O9 0.897737 0.250000 0.000000
O O10 0.250000 0.250000 0.651606
O O11 0.392805 0.500396 0.665742
O O12 0.391902 0.999446 0.674993
O O13 0.522891 0.696035 0.223583
O O14 0.629786 0.319803 0.249929
O O15 0.750000 0.250000 0.688708
#
# Coordination Sequence:
#
# PCOD8205298 Si02
#       6
#     8   8   8   8   8   8
#     4  10  21  37  58  83 112 145 182 225 275 325
#     4  10  21  36  54  80 112 144 185 234 282 332
#     4  10  21  37  56  81 114 141 182 227 265 322
#     4  10  21  36  56  79 112 146 188 230 273 333
#     4  10  21  37  58  83 112 143 183 227 272 330
#     4  10  21  37  55  82 112 145 184 229 278 326
#
# _framework density 20.982361000000001
#
# number of rings (size 3 to 8) (size 9 to 14) (size 15 to 20)
#    0.000    2.000    0.000    3.000    0.000    6.333 
#    3.000    0.000    7.333    6.000    0.000    0.000 
#    0.000    0.000    0.000    0.000    0.000    0.000 
#
# Total GULP energy -594804.360938 kJ/mol
# GULP energy per Si atom -12391.757520 kJ/mol
# Density = 2.093460 g / cm^3
# Si number density = 20.982361 Si / 1000 Ang^3
#
#
#
# Elastic Constant Matrix: (Units=GPa)
#
#
# Indices 1 2 3 4 5 6 
#
# 1 23.1510 15.9625 35.8628 0.0000 0.0000 0.0000
# 2 15.9625 167.7533 58.9276 0.0000 0.0000 0.0000
# 3 35.8628 58.9276 175.1091 0.0000 0.0000 0.0000
# 4 0.0000 0.0000 0.0000 35.5180 0.0000 0.0000
# 5 0.0000 0.0000 0.0000 0.0000 32.4412 0.0000
# 6 0.0000 0.0000 0.0000 0.0000 0.0000 8.1486
#
#
#
# Elastic Compliance Matrix: (Units=1/GPa)
#
#
# Indices 1 2 3 4 5 6 
#
# 1 0.063679 -0.001676 -0.012478 0.000000 0.000000 0.000000
# 2 -0.001676 0.006804 -0.001946 0.000000 0.000000 0.000000
# 3 -0.012478 -0.001946 0.008921 0.000000 0.000000 0.000000
# 4 0.000000 0.000000 0.000000 0.028155 0.000000 0.000000
# 5 0.000000 0.000000 0.000000 0.000000 0.030825 0.000000
# 6 0.000000 0.000000 0.000000 0.000000 0.000000 0.122720
#
#
# Mechanical properties :
#
#
# Convention : Reuss Voigt Hill
#
# Bulk Modulus (GPa) = 21.18456 65.27991 43.23224
# Shear Modulus (GPa) = 16.17913 32.23894 24.20903
#
# Velocity S-wave (km/s) = 2.77985 3.92405 3.40042
# Velocity P-wave (km/s) = 4.51904 7.19098 6.00549
#
# Compressibility (1/GPa) = 0.04720419
#
# Stress axis : x y z
#
# Youngs Moduli (GPa) = 15.70366 146.96371 112.09240
#
# Poissons Ratio (x) = 0.24636 1.39865
# Poissons Ratio (y) = 0.02632 0.21819
# Poissons Ratio (z) = 0.19594 0.28606
#
# Static dielectric constant tensor:
#      x y z
#    x 3.130420 0.000000 0.000000 
#    y 0.000000 5.251200 0.000000 
#    z 0.000000 0.000000 3.999900 
# 
# 
# High freq. dielectric constant tensor:
#      x y z
#    x 1.769060 0.000000 0.000000 
#    y 0.000000 1.857190 0.000000 
#    z 0.000000 0.000000 1.834810 
# 
# From -- ./inp_files/31823.got.cif
#   From: 2010.03.12/outbox.cif.g09.slc.cpg/sg50_16_cif.got.tgz:31823.got - 2010.04.16 13:23:21.
