data_PCOD8205842
_publ_section_title
;
Structure prediction by ZEFSAII (Michael W. Deem and Ramdas Pophale) SiO2 
 PCOD8205842
Probable space group: P B A N
;
_chemical_formula_sum "Si O2"
_cell_formula_units_Z 40
_cell_length_a 9.679602
_cell_length_b 21.133955
_cell_length_c 8.230656
_cell_angle_alpha 90.000000
_cell_angle_beta 90.000000
_cell_angle_gamma 90.000000
_cell_volume 1683.731084
_symmetry_space_group_name_H-M "P B A N"
_symmetry_group_IT_number 50
_space_group.IT_coordinate_system_code '2'
_symmetry_cell_setting 'orthorhombic'
loop_
_space_group_symop_operation_xyz
x,y,z
1/2-x,1/2-y,z
x,1/2-y,-z
1/2-x,y,-z
-x,-y,-z
1/2+x,1/2+y,-z
-x,1/2+y,z
1/2+x,-y,z
loop_
_atom_site_type_symbol
_atom_site_label
_atom_site_fract_x
_atom_site_fract_y
_atom_site_fract_z
Si Si1 0.742015 0.862481 0.675646
Si Si2 0.369263 0.002187 0.613890
Si Si3 0.538941 0.814896 0.105567
Si Si4 0.043984 0.891468 0.180687
Si Si5 0.282237 0.679066 0.673040
O O1 0.750000 0.828733 0.500000
O O2 0.579689 0.873037 0.699073
O O3 0.806756 0.818053 0.817039
O O4 0.825952 0.928420 0.673099
O O5 0.250000 0.972121 0.500000
O O6 0.401717 0.962044 0.778103
O O7 0.500000 0.000000 0.500000
O O8 0.437775 0.823266 0.259513
O O9 0.520481 0.750000 0.000000
O O10 0.513522 0.878612 0.999798
O O11 0.176212 0.846309 0.193657
O O12 0.250000 0.750000 0.638753
O O13 0.250000 0.643266 0.500000
#
# Coordination Sequence:
#
# PCOD8205842 Si02
#       5
#     8   8   8   8   8
#     4  11  25  47  75 108 148 201 259 300 378 457
#     4  11  23  46  76 111 153 200 257 313 364 453
#     4  12  27  49  71 108 158 195 247 322 377 444
#     4  12  24  43  75 108 150 196 239 315 382 425
#     4  11  24  45  73 105 142 194 252 296 365 454
#
# _framework density 23.756762999999999
#
# number of rings (size 3 to 8) (size 9 to 14) (size 15 to 20)
#    0.000    0.600    6.000    3.000    2.800    2.400 
#    0.000    3.000    0.000    0.000    0.000    0.000 
#    0.000    0.000    0.000    0.000    0.000    0.000 
#
# Total GULP energy -495614.162861 kJ/mol
# GULP energy per Si atom -12390.354072 kJ/mol
# Density = 2.370269 g / cm^3
# Si number density = 23.756763 Si / 1000 Ang^3
#
#
#
# Elastic Constant Matrix: (Units=GPa)
#
#
# Indices 1 2 3 4 5 6 
#
# 1 90.7000 18.4173 -6.1370 0.0000 0.0000 0.0000
# 2 18.4173 77.1937 33.2064 0.0000 0.0000 0.0000
# 3 -6.1370 33.2064 108.6766 0.0000 0.0000 0.0000
# 4 0.0000 0.0000 0.0000 52.2733 0.0000 0.0000
# 5 0.0000 0.0000 0.0000 0.0000 54.5314 0.0000
# 6 0.0000 0.0000 0.0000 0.0000 0.0000 32.9407
#
#
#
# Elastic Compliance Matrix: (Units=1/GPa)
#
#
# Indices 1 2 3 4 5 6 
#
# 1 0.011875 -0.003594 0.001769 0.000000 0.000000 0.000000
# 2 -0.003594 0.016003 -0.005093 0.000000 0.000000 0.000000
# 3 0.001769 -0.005093 0.010858 0.000000 0.000000 0.000000
# 4 0.000000 0.000000 0.000000 0.019130 0.000000 0.000000
# 5 0.000000 0.000000 0.000000 0.000000 0.018338 0.000000
# 6 0.000000 0.000000 0.000000 0.000000 0.000000 0.030358
#
#
# Mechanical properties :
#
#
# Convention : Reuss Voigt Hill
#
# Bulk Modulus (GPa) = 40.16189 40.83818 40.50003
# Shear Modulus (GPa) = 38.85117 43.35466 41.10292
#
# Velocity S-wave (km/s) = 4.04836 4.27657 4.16403
# Velocity P-wave (km/s) = 6.22852 6.45080 6.34063
#
# Compressibility (1/GPa) = 0.02489923
#
# Stress axis : x y z
#
# Youngs Moduli (GPa) = 84.21180 62.48995 92.10187
#
# Poissons Ratio (x) = 0.22459 -0.16290
# Poissons Ratio (y) = 0.30266 0.46904
# Poissons Ratio (z) = -0.14895 0.31823
#
# Static dielectric constant tensor:
#      x y z
#    x 4.516150 0.000000 0.000000 
#    y 0.000000 4.484670 0.000000 
#    z 0.000000 0.000000 5.678640 
# 
# 
# High freq. dielectric constant tensor:
#      x y z
#    x 1.960140 0.000000 0.000000 
#    y 0.000000 1.926940 0.000000 
#    z 0.000000 0.000000 1.942590 
# 
# From -- ./inp_files/9487.got.cif
#   From: 2010.03.12/outbox.cif.g09.slc.cpg/sg50_5_cif.got.tgz:9487.got - 2010.04.16 13:23:21.
