data_PCOD8205236
_publ_section_title
;
Structure prediction by ZEFSAII (Michael W. Deem and Ramdas Pophale) SiO2 
 PCOD8205236
Probable space group: P B A N
;
_chemical_formula_sum "Si O2"
_cell_formula_units_Z 64
_cell_length_a 21.745920
_cell_length_b 8.991645
_cell_length_c 15.275165
_cell_angle_alpha 90.000000
_cell_angle_beta 90.000000
_cell_angle_gamma 90.000000
_cell_volume 2986.777343
_symmetry_space_group_name_H-M "P B A N"
_symmetry_group_IT_number 50
_space_group.IT_coordinate_system_code '2'
_symmetry_cell_setting 'orthorhombic'
loop_
_space_group_symop_operation_xyz
x,y,z
1/2-x,1/2-y,z
x,1/2-y,-z
1/2-x,y,-z
-x,-y,-z
1/2+x,1/2+y,-z
-x,1/2+y,z
1/2+x,-y,z
loop_
_atom_site_type_symbol
_atom_site_label
_atom_site_fract_x
_atom_site_fract_y
_atom_site_fract_z
Si Si1 0.370050 0.114159 0.578117
Si Si2 0.509558 0.997763 0.796313
Si Si3 0.185662 0.674156 0.808357
Si Si4 0.772710 0.601985 0.282485
Si Si5 0.884183 0.223976 0.633147
Si Si6 0.805513 0.479573 0.565982
Si Si7 0.525784 0.741785 0.676246
Si Si8 0.568790 0.256040 0.899178
O O1 0.321111 0.169438 0.648658
O O2 0.343475 0.121131 0.477399
O O3 0.432322 0.209555 0.591075
O O4 0.379979 0.938644 0.593254
O O5 0.544574 0.898123 0.722343
O O6 0.470950 0.885603 0.855426
O O7 0.462624 0.108204 0.746008
O O8 0.556426 0.095037 0.854620
O O9 0.250000 0.750000 0.829158
O O10 0.198070 0.499826 0.792366
O O11 0.151772 0.740296 0.724143
O O12 0.140592 0.700847 0.890480
O O13 0.750000 0.750000 0.232741
O O14 0.720149 0.514798 0.337528
O O15 0.852387 0.341759 0.568928
O O16 0.955077 0.264029 0.647822
O O17 0.750000 0.437483 0.500000
O O18 0.550235 0.250000 0.000000
#
# Coordination Sequence:
#
# PCOD8205236 Si02
#       8
#     8   8   8   8   8   8   8   8
#     4  10  22  35  57  90 125 162 209 283 324 367
#     4  10  20  39  66  90 131 171 213 255 317 403
#     4  11  21  38  66  95 125 168 217 262 322 402
#     4  10  22  39  62  89 119 162 219 266 319 378
#     4  11  20  37  60  86 121 165 221 260 319 389
#     4  10  22  38  60  87 123 167 222 282 329 385
#     4  11  20  38  61  92 127 169 214 261 319 388
#     4  11  23  41  67 105 135 166 212 271 333 400
#
# _framework density 21.427778
#
# number of rings (size 3 to 8) (size 9 to 14) (size 15 to 20)
#    0.000    1.500    5.000    1.500    0.000    7.500 
#    0.000    0.000    0.000    0.000    0.000    0.875 
#    0.000    0.000    0.000    0.000    0.000    0.000 
#
# Total GULP energy -793404.554404 kJ/mol
# GULP energy per Si atom -12396.946163 kJ/mol
# Density = 2.137901 g / cm^3
# Si number density = 21.427778 Si / 1000 Ang^3
#
#
#
# Elastic Constant Matrix: (Units=GPa)
#
#
# Indices 1 2 3 4 5 6 
#
# 1 129.9589 47.4360 29.7224 0.0000 0.0000 0.0000
# 2 47.4360 100.2337 28.1159 0.0000 0.0000 0.0000
# 3 29.7224 28.1159 61.0065 0.0000 0.0000 0.0000
# 4 0.0000 0.0000 0.0000 22.0495 0.0000 0.0000
# 5 0.0000 0.0000 0.0000 0.0000 24.9059 0.0000
# 6 0.0000 0.0000 0.0000 0.0000 0.0000 31.9361
#
#
#
# Elastic Compliance Matrix: (Units=1/GPa)
#
#
# Indices 1 2 3 4 5 6 
#
# 1 0.009762 -0.003774 -0.003017 0.000000 0.000000 0.000000
# 2 -0.003774 0.012917 -0.004114 0.000000 0.000000 0.000000
# 3 -0.003017 -0.004114 0.019758 0.000000 0.000000 0.000000
# 4 0.000000 0.000000 0.000000 0.045352 0.000000 0.000000
# 5 0.000000 0.000000 0.000000 0.000000 0.040151 0.000000
# 6 0.000000 0.000000 0.000000 0.000000 0.000000 0.031313
#
#
# Mechanical properties :
#
#
# Convention : Reuss Voigt Hill
#
# Bulk Modulus (GPa) = 48.48113 55.74975 52.11544
# Shear Modulus (GPa) = 26.60449 28.17330 27.38890
#
# Velocity S-wave (km/s) = 3.52744 3.62995 3.57907
# Velocity P-wave (km/s) = 6.26617 6.60627 6.43847
#
# Compressibility (1/GPa) = 0.02062658
#
# Stress axis : x y z
#
# Youngs Moduli (GPa) = 102.43626 77.41922 50.61316
#
# Poissons Ratio (x) = 0.29216 0.15270
# Poissons Ratio (y) = 0.38657 0.20824
# Poissons Ratio (z) = 0.30904 0.31853
#
# Static dielectric constant tensor:
#      x y z
#    x 3.973500 0.000000 0.000000 
#    y 0.000000 4.104500 0.000000 
#    z 0.000000 0.000000 3.661530 
# 
# 
# High freq. dielectric constant tensor:
#      x y z
#    x 1.840000 0.000000 0.000000 
#    y 0.000000 1.864760 0.000000 
#    z 0.000000 0.000000 1.801980 
# 
# From -- ./inp_files/29856.got.cif
#   From: 2010.03.12/outbox.cif.g09.slc.cpg/sg50_15_cif.got.tgz:29856.got - 2010.04.16 13:23:21.
