data_PCOD8205425
_publ_section_title
;
Structure prediction by ZEFSAII (Michael W. Deem and Ramdas Pophale) SiO2 
 PCOD8205425
Probable space group: P B A N
;
_chemical_formula_sum "Si O2"
_cell_formula_units_Z 48
_cell_length_a 28.817504
_cell_length_b 8.952941
_cell_length_c 8.214143
_cell_angle_alpha 90.000000
_cell_angle_beta 90.000000
_cell_angle_gamma 90.000000
_cell_volume 2119.260501
_symmetry_space_group_name_H-M "P B A N"
_symmetry_group_IT_number 50
_space_group.IT_coordinate_system_code '2'
_symmetry_cell_setting 'orthorhombic'
loop_
_space_group_symop_operation_xyz
x,y,z
1/2-x,1/2-y,z
x,1/2-y,-z
1/2-x,y,-z
-x,-y,-z
1/2+x,1/2+y,-z
-x,1/2+y,z
1/2+x,-y,z
loop_
_atom_site_type_symbol
_atom_site_label
_atom_site_fract_x
_atom_site_fract_y
_atom_site_fract_z
Si Si1 0.663582 0.420228 0.295249
Si Si2 0.412504 0.113555 0.116505
Si Si3 0.255144 0.084105 0.692386
Si Si4 0.445650 0.542733 0.179488
Si Si5 0.846993 0.079905 0.679199
Si Si6 0.989829 0.734079 0.311897
O O1 0.630152 0.524355 0.190608
O O2 0.715084 0.472763 0.246457
O O3 0.652162 0.434600 0.485295
O O4 0.658979 0.246725 0.250635
O O5 0.443458 0.176162 0.263348
O O6 0.395866 0.250000 0.000000
O O7 0.444023 0.999333 0.010751
O O8 0.250000 0.250000 0.767942
O O9 0.250000 0.093550 0.500000
O O10 0.304699 0.019103 0.747919
O O11 0.394704 0.515166 0.253106
O O12 0.465149 0.709442 0.209083
O O13 0.482790 0.439234 0.273252
O O14 0.001556 0.750000 0.500000
#
# Coordination Sequence:
#
# PCOD8205425 Si02
#       6
#     8   8   8   8   8   8
#     4  10  21  40  68  94 137 172 220 273 330 398
#     4  10  24  43  64  97 133 180 218 270 338 404
#     4   9  19  36  65 101 133 168 216 277 335 388
#     4  11  25  42  64  95 136 170 222 272 336 403
#     4  10  22  39  66 102 129 172 226 276 329 390
#     4  11  24  42  67  92 129 170 228 278 331 389
#
# _framework density 22.649411000000001
#
# number of rings (size 3 to 8) (size 9 to 14) (size 15 to 20)
#    0.000    1.833    0.000    2.500    9.333    2.667 
#    0.000    0.833    0.000    2.000    0.000    0.000 
#    0.000    0.000    0.000    0.000    0.000    0.000 
#
# Total GULP energy -595241.528483 kJ/mol
# GULP energy per Si atom -12400.865177 kJ/mol
# Density = 2.259786 g / cm^3
# Si number density = 22.649411 Si / 1000 Ang^3
#
#
#
# Elastic Constant Matrix: (Units=GPa)
#
#
# Indices 1 2 3 4 5 6 
#
# 1 106.2136 60.2605 11.0475 0.0000 0.0000 0.0000
# 2 60.2605 124.2756 34.7970 0.0000 0.0000 0.0000
# 3 11.0475 34.7970 49.5245 0.0000 0.0000 0.0000
# 4 0.0000 0.0000 0.0000 25.4827 0.0000 0.0000
# 5 0.0000 0.0000 0.0000 0.0000 13.7906 0.0000
# 6 0.0000 0.0000 0.0000 0.0000 0.0000 47.7130
#
#
#
# Elastic Compliance Matrix: (Units=1/GPa)
#
#
# Indices 1 2 3 4 5 6 
#
# 1 0.013134 -0.006907 0.001923 0.000000 0.000000 0.000000
# 2 -0.006907 0.013650 -0.008050 0.000000 0.000000 0.000000
# 3 0.001923 -0.008050 0.025419 0.000000 0.000000 0.000000
# 4 0.000000 0.000000 0.000000 0.039242 0.000000 0.000000
# 5 0.000000 0.000000 0.000000 0.000000 0.072513 0.000000
# 6 0.000000 0.000000 0.000000 0.000000 0.000000 0.020959
#
#
# Mechanical properties :
#
#
# Convention : Reuss Voigt Hill
#
# Bulk Modulus (GPa) = 38.26251 54.69152 46.47701
# Shear Modulus (GPa) = 22.75881 28.99119 25.87500
#
# Velocity S-wave (km/s) = 3.17334 3.58159 3.38363
# Velocity P-wave (km/s) = 5.50971 6.42675 5.98582
#
# Compressibility (1/GPa) = 0.02613525
#
# Stress axis : x y z
#
# Youngs Moduli (GPa) = 76.14066 73.26169 39.34058
#
# Poissons Ratio (x) = 0.50601 -0.07566
# Poissons Ratio (y) = 0.52590 0.31669
# Poissons Ratio (z) = -0.14644 0.58975
#
# Static dielectric constant tensor:
#      x y z
#    x 4.046460 0.000000 0.000000 
#    y 0.000000 4.340660 0.000000 
#    z 0.000000 0.000000 3.799590 
# 
# 
# High freq. dielectric constant tensor:
#      x y z
#    x 1.898120 0.000000 0.000000 
#    y 0.000000 1.908200 0.000000 
#    z 0.000000 0.000000 1.872460 
# 
# From -- ./inp_files/16942.got.cif
#   From: 2010.03.12/outbox.cif.g09.slc.cpg/sg50_9_cif.got.tgz:16942.got - 2010.04.16 13:23:21.
