data_PCOD8205342
_publ_section_title
;
Structure prediction by ZEFSAII (Michael W. Deem and Ramdas Pophale) SiO2 
 PCOD8205342
Probable space group: P B A N
;
_chemical_formula_sum "Si O2"
_cell_formula_units_Z 48
_cell_length_a 19.785297
_cell_length_b 8.961316
_cell_length_c 13.371851
_cell_angle_alpha 90.000000
_cell_angle_beta 90.000000
_cell_angle_gamma 90.000000
_cell_volume 2370.859918
_symmetry_space_group_name_H-M "P B A N"
_symmetry_group_IT_number 50
_space_group.IT_coordinate_system_code '2'
_symmetry_cell_setting 'orthorhombic'
loop_
_space_group_symop_operation_xyz
x,y,z
1/2-x,1/2-y,z
x,1/2-y,-z
1/2-x,y,-z
-x,-y,-z
1/2+x,1/2+y,-z
-x,1/2+y,z
1/2+x,-y,z
loop_
_atom_site_type_symbol
_atom_site_label
_atom_site_fract_x
_atom_site_fract_y
_atom_site_fract_z
Si Si1 0.856851 0.967450 0.783262
Si Si2 0.060853 0.922838 0.620244
Si Si3 0.422569 0.585949 0.397567
Si Si4 0.402833 0.366637 0.797958
Si Si5 0.269352 0.421667 0.895255
Si Si6 0.966352 0.384456 0.072788
O O1 0.875023 0.794416 0.769351
O O2 0.778637 0.993849 0.810969
O O3 0.861700 0.037120 0.673339
O O4 0.903713 0.046898 0.866666
O O5 0.099760 0.928971 0.513302
O O6 0.055916 0.747909 0.644208
O O7 0.098211 0.022401 0.702840
O O8 0.984252 0.974028 0.615669
O O9 0.349105 0.443178 0.874119
O O10 0.476113 0.340954 0.846618
O O11 0.250000 0.250000 0.902975
O O12 0.250000 0.499952 0.000000
O O13 0.942777 0.250000 0.000000
O O14 0.000000 0.500000 0.000000
#
# Coordination Sequence:
#
# PCOD8205342 Si02
#       6
#     8   8   8   8   8   8
#     4  11  22  39  61  90 119 157 201 250 297 356
#     4  10  21  37  59  88 119 155 193 249 309 363
#     4  10  21  37  59  87 121 153 194 249 309 362
#     4  11  22  38  63  89 117 160 202 246 301 354
#     4   9  20  39  61  83 120 163 202 240 291 356
#     4  12  24  36  57  90 121 154 197 253 296 352
#
# _framework density 20.245816999999999
#
# number of rings (size 3 to 8) (size 9 to 14) (size 15 to 20)
#    0.000    1.500    3.333    2.000    4.667    2.000 
#    0.000    1.667    0.000    5.000    0.000    0.000 
#    0.000    0.000    0.000    0.000    0.000    0.000 
#
# Total GULP energy -594839.336705 kJ/mol
# GULP energy per Si atom -12392.486181 kJ/mol
# Density = 2.019974 g / cm^3
# Si number density = 20.245817 Si / 1000 Ang^3
#
#
#
# Elastic Constant Matrix: (Units=GPa)
#
#
# Indices 1 2 3 4 5 6 
#
# 1 71.1038 7.4095 19.6130 0.0000 0.0000 0.0000
# 2 7.4095 91.2265 34.2169 0.0000 0.0000 0.0000
# 3 19.6130 34.2169 110.8844 0.0000 0.0000 0.0000
# 4 0.0000 0.0000 0.0000 44.1238 0.0000 0.0000
# 5 0.0000 0.0000 0.0000 0.0000 27.4330 0.0000
# 6 0.0000 0.0000 0.0000 0.0000 0.0000 20.5896
#
#
#
# Elastic Compliance Matrix: (Units=1/GPa)
#
#
# Indices 1 2 3 4 5 6 
#
# 1 0.014790 -0.000249 -0.002539 0.000000 0.000000 0.000000
# 2 -0.000249 0.012401 -0.003783 0.000000 0.000000 0.000000
# 3 -0.002539 -0.003783 0.010635 0.000000 0.000000 0.000000
# 4 0.000000 0.000000 0.000000 0.022663 0.000000 0.000000
# 5 0.000000 0.000000 0.000000 0.000000 0.036452 0.000000
# 6 0.000000 0.000000 0.000000 0.000000 0.000000 0.048568
#
#
# Mechanical properties :
#
#
# Convention : Reuss Voigt Hill
#
# Bulk Modulus (GPa) = 40.51159 43.96595 42.23877
# Shear Modulus (GPa) = 29.96175 32.56099 31.26137
#
# Velocity S-wave (km/s) = 3.85112 4.01469 3.93375
# Velocity P-wave (km/s) = 6.31095 6.57674 6.44522
#
# Compressibility (1/GPa) = 0.02468430
#
# Stress axis : x y z
#
# Youngs Moduli (GPa) = 67.61185 80.64055 94.03098
#
# Poissons Ratio (x) = 0.02007 0.23877
# Poissons Ratio (y) = 0.01683 0.35568
# Poissons Ratio (z) = 0.17169 0.30503
#
# Static dielectric constant tensor:
#      x y z
#    x 3.745850 0.000000 0.000000 
#    y 0.000000 3.632920 0.000000 
#    z 0.000000 0.000000 4.023440 
# 
# 
# High freq. dielectric constant tensor:
#      x y z
#    x 1.764280 0.000000 0.000000 
#    y 0.000000 1.789900 0.000000 
#    z 0.000000 0.000000 1.804720 
# 
# From -- ./inp_files/24968.got.cif
#   From: 2010.03.12/outbox.cif.g09.slc.cpg/sg50_13_cif.got.tgz:24968.got - 2010.04.16 13:23:21.
