data_PCOD8205915
_publ_section_title
;
Structure prediction by ZEFSAII (Michael W. Deem and Ramdas Pophale) SiO2 
 PCOD8205915
Probable space group: P B A N
;
_chemical_formula_sum "Si O2"
_cell_formula_units_Z 56
_cell_length_a 14.436961
_cell_length_b 9.411288
_cell_length_c 23.882500
_cell_angle_alpha 90.000000
_cell_angle_beta 90.000000
_cell_angle_gamma 90.000000
_cell_volume 3244.924776
_symmetry_space_group_name_H-M "P B A N"
_symmetry_group_IT_number 50
_space_group.IT_coordinate_system_code '2'
_symmetry_cell_setting 'orthorhombic'
loop_
_space_group_symop_operation_xyz
x,y,z
1/2-x,1/2-y,z
x,1/2-y,-z
1/2-x,y,-z
-x,-y,-z
1/2+x,1/2+y,-z
-x,1/2+y,z
1/2+x,-y,z
loop_
_atom_site_type_symbol
_atom_site_label
_atom_site_fract_x
_atom_site_fract_y
_atom_site_fract_z
Si Si1 0.399282 0.070911 0.941546
Si Si2 0.420671 0.104502 0.066400
Si Si3 0.241186 0.081444 0.859428
Si Si4 0.749311 0.581692 0.562297
Si Si5 0.597568 0.579989 0.351220
Si Si6 0.095665 0.416698 0.648451
Si Si7 0.748730 0.581711 0.734875
O O1 0.433147 0.227652 0.925502
O O2 0.315886 0.018640 0.902441
O O3 0.478910 0.959983 0.929023
O O4 0.371476 0.067938 0.007072
O O5 0.358976 0.039652 0.116279
O O6 0.250000 0.250000 0.858049
O O7 0.252746 0.015637 0.797331
O O8 0.750000 0.750000 0.559631
O O9 0.750000 0.514548 0.500000
O O10 0.842155 0.533037 0.594688
O O11 0.655399 0.535264 0.594219
O O12 0.501437 0.496941 0.351424
O O13 0.577610 0.748109 0.351369
O O14 0.657808 0.533237 0.297045
O O15 0.155395 0.465124 0.702616
O O16 0.750000 0.750000 0.737470
#
# Coordination Sequence:
#
# PCOD8205915 Si02
#       7
#     8   8   8   8   8   8   8
#     4   9  17  29  45  65  87 111 141 177 216 258
#     4   9  17  29  45  65  87 111 141 177 216 258
#     4   9  16  28  47  65  83 113 150 180 208 253
#     4   8  15  29  47  66  90 120 150 176 208 258
#     4   9  17  30  48  67  88 116 148 180 215 255
#     4   9  17  30  48  67  88 116 148 180 215 255
#     4   8  16  30  45  63  87 116 148 178 212 258
#
# _framework density 17.257719999999999
#
# number of rings (size 3 to 8) (size 9 to 14) (size 15 to 20)
#    0.000    3.286    0.000    2.143    0.000    3.429 
#    0.000    3.571    0.000    6.000    0.000    0.000 
#    0.000    0.000    0.000    0.000    0.000    0.000 
#
# Total GULP energy -694013.573884 kJ/mol
# GULP energy per Si atom -12393.099534 kJ/mol
# Density = 1.721844 g / cm^3
# Si number density = 17.257720 Si / 1000 Ang^3
#
#
#
# Elastic Constant Matrix: (Units=GPa)
#
#
# Indices 1 2 3 4 5 6 
#
# 1 105.3527 27.7274 42.7700 0.0000 0.0000 0.0000
# 2 27.7274 27.8333 14.4433 0.0000 0.0000 0.0000
# 3 42.7700 14.4433 118.8488 0.0000 0.0000 0.0000
# 4 0.0000 0.0000 0.0000 12.2165 0.0000 0.0000
# 5 0.0000 0.0000 0.0000 0.0000 17.9149 0.0000
# 6 0.0000 0.0000 0.0000 0.0000 0.0000 28.9901
#
#
#
# Elastic Compliance Matrix: (Units=1/GPa)
#
#
# Indices 1 2 3 4 5 6 
#
# 1 0.014185 -0.012255 -0.003615 0.000000 0.000000 0.000000
# 2 -0.012255 0.048934 -0.001537 0.000000 0.000000 0.000000
# 3 -0.003615 -0.001537 0.009902 0.000000 0.000000 0.000000
# 4 0.000000 0.000000 0.000000 0.081857 0.000000 0.000000
# 5 0.000000 0.000000 0.000000 0.000000 0.055820 0.000000
# 6 0.000000 0.000000 0.000000 0.000000 0.000000 0.034495
#
#
# Mechanical properties :
#
#
# Convention : Reuss Voigt Hill
#
# Bulk Modulus (GPa) = 26.17330 46.87959 36.52645
# Shear Modulus (GPa) = 17.07992 22.96388 20.02190
#
# Velocity S-wave (km/s) = 3.14936 3.65176 3.40982
# Velocity P-wave (km/s) = 5.33139 6.70849 6.05919
#
# Compressibility (1/GPa) = 0.03820687
#
# Stress axis : x y z
#
# Youngs Moduli (GPa) = 70.49686 20.43569 100.99093
#
# Poissons Ratio (x) = 0.25044 0.36513
# Poissons Ratio (y) = 0.86394 0.15518
# Poissons Ratio (z) = 0.25488 0.03140
#
# Static dielectric constant tensor:
#      x y z
#    x 3.154190 0.000000 0.000000 
#    y 0.000000 2.745200 0.000000 
#    z 0.000000 0.000000 4.323970 
# 
# 
# High freq. dielectric constant tensor:
#      x y z
#    x 1.669120 0.000000 0.000000 
#    y 0.000000 1.617180 0.000000 
#    z 0.000000 0.000000 1.674970 
# 
# From -- ./inp_files/31684.got.cif
#   From: 2010.03.12/outbox.cif.g09.slc.cpg/sg50_16_cif.got.tgz:31684.got - 2010.04.16 13:23:21.
