data_PCOD8205617
_publ_section_title
;
Structure prediction by ZEFSAII (Michael W. Deem and Ramdas Pophale) SiO2 
 PCOD8205617
Probable space group: P B A N
;
_chemical_formula_sum "Si O2"
_cell_formula_units_Z 32
_cell_length_a 4.962606
_cell_length_b 11.378843
_cell_length_c 22.614276
_cell_angle_alpha 90.000000
_cell_angle_beta 90.000000
_cell_angle_gamma 90.000000
_cell_volume 1276.999096
_symmetry_space_group_name_H-M "P B A N"
_symmetry_group_IT_number 50
_space_group.IT_coordinate_system_code '2'
_symmetry_cell_setting 'orthorhombic'
loop_
_space_group_symop_operation_xyz
x,y,z
1/2-x,1/2-y,z
x,1/2-y,-z
1/2-x,y,-z
-x,-y,-z
1/2+x,1/2+y,-z
-x,1/2+y,z
1/2+x,-y,z
loop_
_atom_site_type_symbol
_atom_site_label
_atom_site_fract_x
_atom_site_fract_y
_atom_site_fract_z
Si Si1 0.034811 0.922097 0.280006
Si Si2 0.750000 0.250000 0.500000
Si Si3 0.022199 0.076184 0.586153
Si Si4 0.750000 0.750000 0.802946
Si Si5 0.750000 0.750000 0.000000
Si Si6 0.105886 0.081783 0.097466
O O1 0.972772 0.813890 0.237198
O O2 0.009588 0.875938 0.347161
O O3 0.835514 0.031982 0.267876
O O4 0.951889 0.176997 0.540634
O O5 0.829452 0.963410 0.575292
O O6 0.917480 0.841996 0.842935
O O7 0.936936 0.667626 0.041320
O O8 0.400938 0.025053 0.095714
#
# Coordination Sequence:
#
# PCOD8205617 Si02
#       6
#     8   2   8   4   2   8
#     4  10  23  42  63  91 127 165 211 265 318 386
#     4  12  24  42  72  96 128 174 216 268 340 404
#     4  10  24  43  63  93 128 162 210 267 320 386
#     4  11  24  41  70  97 128 177 220 264 336 397
#     4  10  24  42  72  96 132 188 228 264 332 394
#     4  11  25  43  65 100 138 173 222 280 326 383
#
# _framework density 25.05875
#
# number of rings (size 3 to 8) (size 9 to 14) (size 15 to 20)
#    0.000    1.500    0.000    3.000    0.000   16.000 
#    0.000    0.000    0.000    0.000    0.000    0.000 
#    0.000    0.000    0.000    0.000    0.000    0.000 
#
# Total GULP energy -397048.226442 kJ/mol
# GULP energy per Si atom -12407.757076 kJ/mol
# Density = 2.500171 g / cm^3
# Si number density = 25.058750 Si / 1000 Ang^3
#
#
#
# Elastic Constant Matrix: (Units=GPa)
#
#
# Indices 1 2 3 4 5 6 
#
# 1 71.0517 12.7318 27.3152 0.0000 0.0000 0.0000
# 2 12.7318 118.6501 88.8102 0.0000 0.0000 0.0000
# 3 27.3152 88.8102 184.3018 0.0000 0.0000 0.0000
# 4 0.0000 0.0000 0.0000 51.3082 0.0000 0.0000
# 5 0.0000 0.0000 0.0000 0.0000 25.4561 0.0000
# 6 0.0000 0.0000 0.0000 0.0000 0.0000 14.8898
#
#
#
# Elastic Compliance Matrix: (Units=1/GPa)
#
#
# Indices 1 2 3 4 5 6 
#
# 1 0.014925 0.000085 -0.002253 0.000000 0.000000 0.000000
# 2 0.000085 0.013184 -0.006365 0.000000 0.000000 0.000000
# 3 -0.002253 -0.006365 0.008827 0.000000 0.000000 0.000000
# 4 0.000000 0.000000 0.000000 0.019490 0.000000 0.000000
# 5 0.000000 0.000000 0.000000 0.000000 0.039283 0.000000
# 6 0.000000 0.000000 0.000000 0.000000 0.000000 0.067160
#
#
# Mechanical properties :
#
#
# Convention : Reuss Voigt Hill
#
# Bulk Modulus (GPa) = 50.33018 70.19090 60.26054
# Shear Modulus (GPa) = 26.80114 34.67392 30.73753
#
# Velocity S-wave (km/s) = 3.27392 3.72385 3.50611
# Velocity P-wave (km/s) = 5.86684 6.82355 6.36320
#
# Compressibility (1/GPa) = 0.01986880
#
# Stress axis : x y z
#
# Youngs Moduli (GPa) = 67.00091 75.85205 113.28770
#
# Poissons Ratio (x) = -0.00643 0.25522
# Poissons Ratio (y) = -0.00568 0.72112
# Poissons Ratio (z) = 0.15094 0.48283
#
# Static dielectric constant tensor:
#      x y z
#    x 4.196180 0.000000 0.000000 
#    y 0.000000 4.392240 0.000000 
#    z 0.000000 0.000000 4.904380 
# 
# 
# High freq. dielectric constant tensor:
#      x y z
#    x 1.988810 0.000000 0.000000 
#    y 0.000000 1.999570 0.000000 
#    z 0.000000 0.000000 2.023320 
# 
# From -- ./inp_files/31334.got.cif
#   From: 2010.03.12/outbox.cif.g09.slc.cpg/sg50_16_cif.got.tgz:31334.got - 2010.04.16 13:23:21.
