data_PCOD8205429
_publ_section_title
;
Structure prediction by ZEFSAII (Michael W. Deem and Ramdas Pophale) SiO2 
 PCOD8205429
Probable space group: P B A N
;
_chemical_formula_sum "Si O2"
_cell_formula_units_Z 56
_cell_length_a 13.287929
_cell_length_b 14.414942
_cell_length_c 13.518006
_cell_angle_alpha 90.000000
_cell_angle_beta 90.000000
_cell_angle_gamma 90.000000
_cell_volume 2589.302753
_symmetry_space_group_name_H-M "P B A N"
_symmetry_group_IT_number 50
_space_group.IT_coordinate_system_code '2'
_symmetry_cell_setting 'orthorhombic'
loop_
_space_group_symop_operation_xyz
x,y,z
1/2-x,1/2-y,z
x,1/2-y,-z
1/2-x,y,-z
-x,-y,-z
1/2+x,1/2+y,-z
-x,1/2+y,z
1/2+x,-y,z
loop_
_atom_site_type_symbol
_atom_site_label
_atom_site_fract_x
_atom_site_fract_y
_atom_site_fract_z
Si Si1 0.559858 0.065116 0.134174
Si Si2 0.406440 0.588894 0.912540
Si Si3 0.051357 0.357973 0.530416
Si Si4 0.541009 0.750613 0.887361
Si Si5 0.747026 0.478968 0.235607
Si Si6 0.850046 0.466975 0.560858
Si Si7 0.678043 0.671395 0.720374
O O1 0.481118 0.147173 0.154390
O O2 0.638874 0.060441 0.225483
O O3 0.500875 0.969033 0.128640
O O4 0.613460 0.080659 0.029010
O O5 0.435489 0.694268 0.884769
O O6 0.304615 0.555284 0.863853
O O7 0.054419 0.250000 0.500000
O O8 0.114074 0.425830 0.456336
O O9 0.099812 0.366491 0.639033
O O10 0.936937 0.394469 0.531382
O O11 0.625034 0.708344 0.817979
O O12 0.583144 0.750000 0.000000
O O13 0.681463 0.443345 0.327354
O O14 0.750171 0.589384 0.243036
O O15 0.750000 0.446242 0.500000
O O16 0.750000 0.750000 0.673063
#
# Coordination Sequence:
#
# PCOD8205429 Si02
#       7
#     8   8   8   8   8   8   8
#     4  10  22  39  64  92 134 178 217 270 333 393
#     4  10  21  41  62  92 135 177 220 266 330 402
#     4  11  26  47  71  98 135 177 223 281 357 413
#     4  10  22  42  63  94 136 176 219 277 329 396
#     4  12  23  39  68  94 131 172 225 274 330 403
#     4  11  25  45  71 100 133 175 225 290 341 409
#     4  12  24  41  67 102 129 173 226 277 338 399
#
# _framework density 21.627444000000001
#
# number of rings (size 3 to 8) (size 9 to 14) (size 15 to 20)
#    0.000    1.143    2.857    3.000    0.000    2.286 
#    2.571    3.571    0.000    0.000    0.000    0.000 
#    0.000    0.000    0.000    0.000    0.000    0.000 
#
# Total GULP energy -694334.179376 kJ/mol
# GULP energy per Si atom -12398.824632 kJ/mol
# Density = 2.157822 g / cm^3
# Si number density = 21.627444 Si / 1000 Ang^3
#
#
#
# Elastic Constant Matrix: (Units=GPa)
#
#
# Indices 1 2 3 4 5 6 
#
# 1 92.0803 12.7420 35.8497 0.0000 0.0000 0.0000
# 2 12.7420 78.8759 20.6950 0.0000 0.0000 0.0000
# 3 35.8497 20.6950 75.1226 0.0000 0.0000 0.0000
# 4 0.0000 0.0000 0.0000 30.3164 0.0000 0.0000
# 5 0.0000 0.0000 0.0000 0.0000 36.4103 0.0000
# 6 0.0000 0.0000 0.0000 0.0000 0.0000 22.6135
#
#
#
# Elastic Compliance Matrix: (Units=1/GPa)
#
#
# Indices 1 2 3 4 5 6 
#
# 1 0.013358 -0.000523 -0.006231 0.000000 0.000000 0.000000
# 2 -0.000523 0.013686 -0.003521 0.000000 0.000000 0.000000
# 3 -0.006231 -0.003521 0.017255 0.000000 0.000000 0.000000
# 4 0.000000 0.000000 0.000000 0.032985 0.000000 0.000000
# 5 0.000000 0.000000 0.000000 0.000000 0.027465 0.000000
# 6 0.000000 0.000000 0.000000 0.000000 0.000000 0.044221
#
#
# Mechanical properties :
#
#
# Convention : Reuss Voigt Hill
#
# Bulk Modulus (GPa) = 42.10451 42.73914 42.42182
# Shear Modulus (GPa) = 28.17902 29.65418 28.91660
#
# Velocity S-wave (km/s) = 3.61353 3.70690 3.66051
# Velocity P-wave (km/s) = 6.07622 6.17462 6.12562
#
# Compressibility (1/GPa) = 0.02375042
#
# Stress axis : x y z
#
# Youngs Moduli (GPa) = 74.86007 73.06527 57.95486
#
# Poissons Ratio (x) = 0.03823 0.36110
# Poissons Ratio (y) = 0.03917 0.20404
# Poissons Ratio (z) = 0.46643 0.25724
#
# Static dielectric constant tensor:
#      x y z
#    x 3.660530 0.000000 0.000000 
#    y 0.000000 4.061440 0.000000 
#    z 0.000000 0.000000 3.756340 
# 
# 
# High freq. dielectric constant tensor:
#      x y z
#    x 1.850940 0.000000 0.000000 
#    y 0.000000 1.853680 0.000000 
#    z 0.000000 0.000000 1.847960 
# 
# From -- ./inp_files/21172.got.cif
#   From: 2010.03.12/outbox.cif.g09.slc.cpg/sg50_11_cif.got.tgz:21172.got - 2010.04.16 13:23:21.
