data_PCOD8205975
_publ_section_title
;
Structure prediction by ZEFSAII (Michael W. Deem and Ramdas Pophale) SiO2 
 PCOD8205975
Probable space group: P M M A
;
_chemical_formula_sum "Si O2"
_cell_formula_units_Z 56
_cell_length_a 18.318922
_cell_length_b 13.600098
_cell_length_c 14.554596
_cell_angle_alpha 90.000000
_cell_angle_beta 90.000000
_cell_angle_gamma 90.000000
_cell_volume 3626.119450
_symmetry_space_group_name_H-M "P M M A"
_symmetry_group_IT_number 51
_symmetry_cell_setting 'orthorhombic'
loop_
_space_group_symop_operation_xyz
x,y,z
1/2-x,-y,z
1/2+x,-y,-z
-x,y,-z
-x,-y,-z
1/2+x,y,-z
1/2-x,y,z
x,-y,z
loop_
_atom_site_type_symbol
_atom_site_label
_atom_site_fract_x
_atom_site_fract_y
_atom_site_fract_z
Si Si1 0.666968 0.385035 0.984966
Si Si2 0.666750 0.389448 0.644502
Si Si3 0.591379 0.704016 0.812975
Si Si4 0.446270 0.108050 0.585088
Si Si5 0.081075 0.114038 0.302157
Si Si6 0.962577 0.391804 0.098545
Si Si7 0.165445 0.796551 0.467749
O O1 0.750000 0.361410 0.009081
O O2 0.654822 0.500000 0.959160
O O3 0.643040 0.318685 0.899014
O O4 0.620586 0.357586 0.076846
O O5 0.750000 0.376805 0.679364
O O6 0.651443 0.500000 0.610279
O O7 0.613683 0.364821 0.728272
O O8 0.652204 0.317299 0.558695
O O9 0.600816 0.818427 0.785468
O O10 0.506296 0.682837 0.836113
O O11 0.500000 0.100505 0.500000
O O12 0.497513 0.142442 0.669638
O O13 0.379838 0.182075 0.561552
O O14 0.413023 0.000000 0.605451
O O15 0.137563 0.134068 0.385040
O O16 0.087429 0.000000 0.273976
O O17 0.963570 0.500000 0.144676
O O18 0.000000 0.397403 0.000000
O O19 0.250000 0.819543 0.486305
#
# Coordination Sequence:
#
# PCOD8205975 Si02
#       7
#     8   8   8   8   8   8   8
#     4   9  16  26  42  64  86 105 126 154 191 233
#     4   9  16  24  35  56  86 113 131 151 189 240
#     4  10  16  24  41  59  79 105 133 162 192 228
#     4   8  14  26  41  54  73 102 132 164 201 235
#     4   9  18  29  40  57  81 106 130 160 201 241
#     4   8  14  24  39  60  82 103 129 160 188 217
#     4   9  16  25  41  62  79 100 132 167 199 231
#
# _framework density 15.443507
#
# number of rings (size 3 to 8) (size 9 to 14) (size 15 to 20)
#    0.000    3.143    0.000    3.857    0.000    2.857 
#    0.000    0.000    0.000   17.143    0.000    0.000 
#    0.000    0.000    0.000    0.000    0.000    0.000 
#
# Total GULP energy -693920.210091 kJ/mol
# GULP energy per Si atom -12391.432323 kJ/mol
# Density = 1.540836 g / cm^3
# Si number density = 15.443507 Si / 1000 Ang^3
#
#
#
# Elastic Constant Matrix: (Units=GPa)
#
#
# Indices 1 2 3 4 5 6 
#
# 1 107.8032 39.1357 25.1649 0.0000 0.0000 0.0000
# 2 39.1357 91.3467 22.2931 0.0000 0.0000 0.0000
# 3 25.1649 22.2931 21.2355 0.0000 0.0000 0.0000
# 4 0.0000 0.0000 0.0000 15.7361 0.0000 0.0000
# 5 0.0000 0.0000 0.0000 0.0000 23.7494 0.0000
# 6 0.0000 0.0000 0.0000 0.0000 0.0000 19.6966
#
#
#
# Elastic Compliance Matrix: (Units=1/GPa)
#
#
# Indices 1 2 3 4 5 6 
#
# 1 0.013227 -0.002476 -0.013076 0.000000 0.000000 0.000000
# 2 -0.002476 0.015182 -0.013004 0.000000 0.000000 0.000000
# 3 -0.013076 -0.013004 0.076237 0.000000 0.000000 0.000000
# 4 0.000000 0.000000 0.000000 0.063548 0.000000 0.000000
# 5 0.000000 0.000000 0.000000 0.000000 0.042106 0.000000
# 6 0.000000 0.000000 0.000000 0.000000 0.000000 0.050770
#
#
# Mechanical properties :
#
#
# Convention : Reuss Voigt Hill
#
# Bulk Modulus (GPa) = 21.03679 43.73033 32.38356
# Shear Modulus (GPa) = 14.96888 20.75588 17.86238
#
# Velocity S-wave (km/s) = 3.11668 3.67002 3.40461
# Velocity P-wave (km/s) = 5.15781 6.80709 6.03902
#
# Compressibility (1/GPa) = 0.04753578
#
# Stress axis : x y z
#
# Youngs Moduli (GPa) = 75.60141 65.86931 13.11693
#
# Poissons Ratio (x) = 0.16308 0.17151
# Poissons Ratio (y) = 0.18718 0.17057
# Poissons Ratio (z) = 0.98854 0.85654
#
# Static dielectric constant tensor:
#      x y z
#    x 3.302080 0.000000 0.000000 
#    y 0.000000 2.915190 0.000000 
#    z 0.000000 0.000000 2.672520 
# 
# 
# High freq. dielectric constant tensor:
#      x y z
#    x 1.595120 0.000000 0.000000 
#    y 0.000000 1.580720 0.000000 
#    z 0.000000 0.000000 1.544330 
# 
# From -- ./inp_files/25252.got.cif
#   From: 2010.03.12/outbox.cif.g09.slc.cpg/sg51_13_cif.got.tgz:25252.got - 2010.04.16 13:43:02.
