data_PCOD8205839
_publ_section_title
;
Structure prediction by ZEFSAII (Michael W. Deem and Ramdas Pophale) SiO2 
 PCOD8205839
Probable space group: P B A N
;
_chemical_formula_sum "Si O2"
_cell_formula_units_Z 40
_cell_length_a 17.294851
_cell_length_b 8.136374
_cell_length_c 12.139550
_cell_angle_alpha 90.000000
_cell_angle_beta 90.000000
_cell_angle_gamma 90.000000
_cell_volume 1708.245622
_symmetry_space_group_name_H-M "P B A N"
_symmetry_group_IT_number 50
_space_group.IT_coordinate_system_code '2'
_symmetry_cell_setting 'orthorhombic'
loop_
_space_group_symop_operation_xyz
x,y,z
1/2-x,1/2-y,z
x,1/2-y,-z
1/2-x,y,-z
-x,-y,-z
1/2+x,1/2+y,-z
-x,1/2+y,z
1/2+x,-y,z
loop_
_atom_site_type_symbol
_atom_site_label
_atom_site_fract_x
_atom_site_fract_y
_atom_site_fract_z
Si Si1 0.649910 0.072703 0.553173
Si Si2 0.408003 0.553654 0.179890
Si Si3 0.793373 0.922564 0.647574
Si Si4 0.838336 0.937079 0.027292
Si Si5 0.924187 0.071288 0.228928
O O1 0.634363 0.250000 0.500000
O O2 0.585321 0.021885 0.643024
O O3 0.731503 0.067438 0.620615
O O4 0.647962 0.933256 0.457102
O O5 0.339918 0.451786 0.240204
O O6 0.489315 0.465286 0.194347
O O7 0.408458 0.736092 0.224246
O O8 0.390280 0.553709 0.049988
O O9 0.750000 0.750000 0.655649
O O10 0.861408 0.975051 0.153498
O O11 0.858668 0.750000 0.000000
O O12 0.750000 0.978033 0.000000
#
# Coordination Sequence:
#
# PCOD8205839 Si02
#       5
#     8   8   8   8   8
#     4  11  23  46  70 104 142 190 245 302 358 430
#     4  12  27  46  74 106 149 195 239 300 372 439
#     4  11  25  44  74 105 141 192 247 305 361 430
#     4  11  26  48  78 110 143 188 247 303 365 441
#     4  12  27  47  73 106 154 193 241 303 371 445
#
# _framework density 23.415835999999999
#
# number of rings (size 3 to 8) (size 9 to 14) (size 15 to 20)
#    0.000    0.600    2.000    6.000    8.400    4.000 
#    3.600    0.000    0.000    0.000    0.000    0.000 
#    0.000    0.000    0.000    0.000    0.000    0.000 
#
# Total GULP energy -496051.207789 kJ/mol
# GULP energy per Si atom -12401.280195 kJ/mol
# Density = 2.336254 g / cm^3
# Si number density = 23.415836 Si / 1000 Ang^3
#
#
#
# Elastic Constant Matrix: (Units=GPa)
#
#
# Indices 1 2 3 4 5 6 
#
# 1 84.5096 28.4505 26.3328 0.0000 0.0000 0.0000
# 2 28.4505 115.7508 34.4953 0.0000 0.0000 0.0000
# 3 26.3328 34.4953 117.0497 0.0000 0.0000 0.0000
# 4 0.0000 0.0000 0.0000 36.2369 0.0000 0.0000
# 5 0.0000 0.0000 0.0000 0.0000 27.4350 0.0000
# 6 0.0000 0.0000 0.0000 0.0000 0.0000 26.8784
#
#
#
# Elastic Compliance Matrix: (Units=1/GPa)
#
#
# Indices 1 2 3 4 5 6 
#
# 1 0.013417 -0.002629 -0.002244 0.000000 0.000000 0.000000
# 2 -0.002629 0.009986 -0.002352 0.000000 0.000000 0.000000
# 3 -0.002244 -0.002352 0.009741 0.000000 0.000000 0.000000
# 4 0.000000 0.000000 0.000000 0.027596 0.000000 0.000000
# 5 0.000000 0.000000 0.000000 0.000000 0.036450 0.000000
# 6 0.000000 0.000000 0.000000 0.000000 0.000000 0.037205
#
#
# Mechanical properties :
#
#
# Convention : Reuss Voigt Hill
#
# Bulk Modulus (GPa) = 53.48766 55.09637 54.29201
# Shear Modulus (GPa) = 32.24226 33.31215 32.77721
#
# Velocity S-wave (km/s) = 3.71474 3.77587 3.74543
# Velocity P-wave (km/s) = 6.42582 6.52612 6.47617
#
# Compressibility (1/GPa) = 0.01869590
#
# Stress axis : x y z
#
# Youngs Moduli (GPa) = 74.53110 100.13749 102.65736
#
# Poissons Ratio (x) = 0.26328 0.23033
# Poissons Ratio (y) = 0.19596 0.24140
# Poissons Ratio (z) = 0.16722 0.23548
#
# Static dielectric constant tensor:
#      x y z
#    x 4.137020 0.000000 0.000000 
#    y 0.000000 4.098870 0.000000 
#    z 0.000000 0.000000 4.612550 
# 
# 
# High freq. dielectric constant tensor:
#      x y z
#    x 1.915210 0.000000 0.000000 
#    y 0.000000 1.925140 0.000000 
#    z 0.000000 0.000000 1.948040 
# 
# From -- ./inp_files/21632.got.cif
#   From: 2010.03.12/outbox.cif.g09.slc.cpg/sg50_11_cif.got.tgz:21632.got - 2010.04.16 13:23:21.
