data_PCOD8205143
_publ_section_title
;
Structure prediction by ZEFSAII (Michael W. Deem and Ramdas Pophale) SiO2 
 PCOD8205143
Probable space group: P B A N
;
_chemical_formula_sum "Si O2"
_cell_formula_units_Z 64
_cell_length_a 12.052707
_cell_length_b 22.512196
_cell_length_c 10.086306
_cell_angle_alpha 90.000000
_cell_angle_beta 90.000000
_cell_angle_gamma 90.000000
_cell_volume 2736.746681
_symmetry_space_group_name_H-M "P B A N"
_symmetry_group_IT_number 50
_space_group.IT_coordinate_system_code '2'
_symmetry_cell_setting 'orthorhombic'
loop_
_space_group_symop_operation_xyz
x,y,z
1/2-x,1/2-y,z
x,1/2-y,-z
1/2-x,y,-z
-x,-y,-z
1/2+x,1/2+y,-z
-x,1/2+y,z
1/2+x,-y,z
loop_
_atom_site_type_symbol
_atom_site_label
_atom_site_fract_x
_atom_site_fract_y
_atom_site_fract_z
Si Si1 0.801834 0.406407 0.857705
Si Si2 0.373961 0.724875 0.365527
Si Si3 0.326349 0.978578 0.663302
Si Si4 0.469444 0.824501 0.233620
Si Si5 0.159930 0.415978 0.315320
Si Si6 0.216978 0.181687 0.149198
Si Si7 0.544567 0.388037 0.516925
Si Si8 0.479176 0.498225 0.846310
O O1 0.712396 0.419998 0.744747
O O2 0.861183 0.342108 0.855328
O O3 0.900973 0.448130 0.814186
O O4 0.750000 0.419947 0.000000
O O5 0.250000 0.750000 0.346410
O O6 0.425257 0.750000 0.500000
O O7 0.452913 0.753684 0.253800
O O8 0.389844 0.654377 0.377176
O O9 0.385586 0.950804 0.530305
O O10 0.412766 0.011418 0.759616
O O11 0.236924 0.029806 0.631742
O O12 0.585694 0.831311 0.159808
O O13 0.456980 0.863214 0.368775
O O14 0.225881 0.359261 0.260312
O O15 0.079791 0.436842 0.195825
O O16 0.083628 0.396817 0.439821
O O17 0.250000 0.250000 0.178416
O O18 0.250000 0.163347 0.000000
O O19 0.500000 0.500000 0.000000
#
# Coordination Sequence:
#
# PCOD8205143 Si02
#       8
#     8   8   8   8   8   8   8   8
#     4  11  22  36  60  96 130 168 222 275 326 393
#     4   9  18  37  68  98 130 175 220 270 328 399
#     4  10  21  39  64  98 134 175 221 282 335 391
#     4  11  24  42  68 100 133 175 223 275 344 410
#     4  10  23  39  67  95 130 183 222 277 335 406
#     4  11  26  46  68  97 132 173 222 282 344 406
#     4  10  22  43  66  99 139 175 228 279 336 410
#     4  10  20  36  61  91 125 174 231 272 317 389
#
# _framework density 23.385432000000002
#
# number of rings (size 3 to 8) (size 9 to 14) (size 15 to 20)
#    0.000    1.750    1.250    2.250    3.500    2.000 
#    0.000   16.875    0.000    0.750    0.000    0.000 
#    0.000    0.000    0.000    0.000    0.000    0.000 
#
# Total GULP energy -792856.012442 kJ/mol
# GULP energy per Si atom -12388.375194 kJ/mol
# Density = 2.333221 g / cm^3
# Si number density = 23.385432 Si / 1000 Ang^3
#
#
#
# Elastic Constant Matrix: (Units=GPa)
#
#
# Indices 1 2 3 4 5 6 
#
# 1 125.6679 39.1328 28.5728 0.0000 0.0000 0.0000
# 2 39.1328 92.2022 22.2214 0.0000 0.0000 0.0000
# 3 28.5728 22.2214 71.1080 0.0000 0.0000 0.0000
# 4 0.0000 0.0000 0.0000 22.8096 0.0000 0.0000
# 5 0.0000 0.0000 0.0000 0.0000 30.7502 0.0000
# 6 0.0000 0.0000 0.0000 0.0000 0.0000 36.1857
#
#
#
# Elastic Compliance Matrix: (Units=1/GPa)
#
#
# Indices 1 2 3 4 5 6 
#
# 1 0.009663 -0.003423 -0.002813 0.000000 0.000000 0.000000
# 2 -0.003423 0.012942 -0.002669 0.000000 0.000000 0.000000
# 3 -0.002813 -0.002669 0.016027 0.000000 0.000000 0.000000
# 4 0.000000 0.000000 0.000000 0.043841 0.000000 0.000000
# 5 0.000000 0.000000 0.000000 0.000000 0.032520 0.000000
# 6 0.000000 0.000000 0.000000 0.000000 0.000000 0.027635
#
#
# Mechanical properties :
#
#
# Convention : Reuss Voigt Hill
#
# Bulk Modulus (GPa) = 48.02586 52.09245 50.05916
# Shear Modulus (GPa) = 29.87220 31.21921 30.54570
#
# Velocity S-wave (km/s) = 3.57793 3.65771 3.61804
# Velocity P-wave (km/s) = 6.13596 6.33738 6.23748
#
# Compressibility (1/GPa) = 0.02082212
#
# Stress axis : x y z
#
# Youngs Moduli (GPa) = 103.48673 77.26878 62.39292
#
# Poissons Ratio (x) = 0.26451 0.17551
# Poissons Ratio (y) = 0.35426 0.16651
# Poissons Ratio (z) = 0.29111 0.20622
#
# Static dielectric constant tensor:
#      x y z
#    x 4.184560 0.000000 0.000000 
#    y 0.000000 4.681750 0.000000 
#    z 0.000000 0.000000 4.511020 
# 
# 
# High freq. dielectric constant tensor:
#      x y z
#    x 1.939780 0.000000 0.000000 
#    y 0.000000 1.928620 0.000000 
#    z 0.000000 0.000000 1.912930 
# 
# From -- ./inp_files/20522.got.cif
#   From: 2010.03.12/outbox.cif.g09.slc.cpg/sg50_11_cif.got.tgz:20522.got - 2010.04.16 13:23:21.
