data_PCOD8205393
_publ_section_title
;
Structure prediction by ZEFSAII (Michael W. Deem and Ramdas Pophale) SiO2 
 PCOD8205393
Probable space group: P B A N
;
_chemical_formula_sum "Si O2"
_cell_formula_units_Z 52
_cell_length_a 10.265938
_cell_length_b 8.888839
_cell_length_c 27.575626
_cell_angle_alpha 90.000000
_cell_angle_beta 90.000000
_cell_angle_gamma 90.000000
_cell_volume 2516.338471
_symmetry_space_group_name_H-M "P B A N"
_symmetry_group_IT_number 50
_space_group.IT_coordinate_system_code '2'
_symmetry_cell_setting 'orthorhombic'
loop_
_space_group_symop_operation_xyz
x,y,z
1/2-x,1/2-y,z
x,1/2-y,-z
1/2-x,y,-z
-x,-y,-z
1/2+x,1/2+y,-z
-x,1/2+y,z
1/2+x,-y,z
loop_
_atom_site_type_symbol
_atom_site_label
_atom_site_fract_x
_atom_site_fract_y
_atom_site_fract_z
Si Si1 0.906382 0.597671 0.126336
Si Si2 0.250000 0.250000 0.500000
Si Si3 0.750000 0.750000 0.000000
Si Si4 0.896458 0.230132 0.614580
Si Si5 0.610196 0.169525 0.280084
Si Si6 0.638001 0.915261 0.912725
Si Si7 0.381726 0.149444 0.765410
Si Si8 0.053839 0.451696 0.551220
O O1 0.777429 0.519033 0.104304
O O2 0.901585 0.777006 0.121393
O O3 0.909965 0.566468 0.183472
O O4 0.029243 0.541291 0.094837
O O5 0.171244 0.342107 0.539668
O O6 0.654691 0.855558 0.967862
O O7 0.750000 0.250000 0.630291
O O8 0.958918 0.191305 0.666723
O O9 0.953363 0.377134 0.588559
O O10 0.896064 0.100252 0.575556
O O11 0.750000 0.250000 0.273057
O O12 0.505236 0.243416 0.244179
O O13 0.628132 0.989996 0.272136
O O14 0.250000 0.250000 0.764715
O O15 0.000000 0.500000 0.500000
#
# Coordination Sequence:
#
# PCOD8205393 Si02
#       8
#     8   2   2   8   8   8   8   8
#     4  10  22  39  61  96 124 172 213 281 317 394
#     4  12  24  40  64 100 114 156 210 242 316 372
#     4   8  20  40  64  92 134 180 204 288 316 408
#     4  11  25  45  63  92 131 161 208 261 316 387
#     4  11  26  43  66  97 128 177 218 266 338 399
#     4  10  21  39  62  93 133 165 225 258 341 374
#     4  12  23  44  67  94 134 172 223 279 335 398
#     4  12  23  43  68  94 121 163 206 259 315 378
#
# _framework density 20.664947000000002
#
# number of rings (size 3 to 8) (size 9 to 14) (size 15 to 20)
#    0.000    1.231    3.077    3.692    2.154    4.923 
#    2.769    0.000    0.000    7.385    0.000    0.000 
#    0.000    0.000    0.000    0.000    0.000    0.000 
#
# Total GULP energy -644527.238025 kJ/mol
# GULP energy per Si atom -12394.754577 kJ/mol
# Density = 2.061791 g / cm^3
# Si number density = 20.664947 Si / 1000 Ang^3
#
#
#
# Elastic Constant Matrix: (Units=GPa)
#
#
# Indices 1 2 3 4 5 6 
#
# 1 121.9911 30.7554 37.3845 0.0000 0.0000 0.0000
# 2 30.7554 79.8246 24.5530 0.0000 0.0000 0.0000
# 3 37.3845 24.5530 139.5330 0.0000 0.0000 0.0000
# 4 0.0000 0.0000 0.0000 32.4881 0.0000 0.0000
# 5 0.0000 0.0000 0.0000 0.0000 33.7789 0.0000
# 6 0.0000 0.0000 0.0000 0.0000 0.0000 34.4163
#
#
#
# Elastic Compliance Matrix: (Units=1/GPa)
#
#
# Indices 1 2 3 4 5 6 
#
# 1 0.009594 -0.003072 -0.002030 0.000000 0.000000 0.000000
# 2 -0.003072 0.014228 -0.001681 0.000000 0.000000 0.000000
# 3 -0.002030 -0.001681 0.008006 0.000000 0.000000 0.000000
# 4 0.000000 0.000000 0.000000 0.030781 0.000000 0.000000
# 5 0.000000 0.000000 0.000000 0.000000 0.029604 0.000000
# 6 0.000000 0.000000 0.000000 0.000000 0.000000 0.029056
#
#
# Mechanical properties :
#
#
# Convention : Reuss Voigt Hill
#
# Bulk Modulus (GPa) = 54.75468 58.52604 56.64036
# Shear Modulus (GPa) = 35.48071 36.71372 36.09722
#
# Velocity S-wave (km/s) = 4.14811 4.21957 4.18399
# Velocity P-wave (km/s) = 7.03536 7.21960 7.12807
#
# Compressibility (1/GPa) = 0.01826328
#
# Stress axis : x y z
#
# Youngs Moduli (GPa) = 104.23317 70.28399 124.90103
#
# Poissons Ratio (x) = 0.21591 0.25353
# Poissons Ratio (y) = 0.32021 0.20990
# Poissons Ratio (z) = 0.21158 0.11812
#
# Static dielectric constant tensor:
#      x y z
#    x 3.823760 0.000000 0.000000 
#    y 0.000000 3.538360 0.000000 
#    z 0.000000 0.000000 3.714730 
# 
# 
# High freq. dielectric constant tensor:
#      x y z
#    x 1.810830 0.000000 0.000000 
#    y 0.000000 1.805360 0.000000 
#    z 0.000000 0.000000 1.824410 
# 
# From -- ./inp_files/32176.got.cif
#   From: 2010.03.12/outbox.cif.g09.slc.cpg/sg50_17_cif.got.tgz:32176.got - 2010.04.16 13:23:21.
