data_PCOD8205982
_publ_section_title
;
Structure prediction by ZEFSAII (Michael W. Deem and Ramdas Pophale) SiO2 
 PCOD8205982
Probable space group: P M M A
;
_chemical_formula_sum "Si O2"
_cell_formula_units_Z 48
_cell_length_a 18.387204
_cell_length_b 13.957607
_cell_length_c 10.374262
_cell_angle_alpha 90.000000
_cell_angle_beta 90.000000
_cell_angle_gamma 90.000000
_cell_volume 2662.464784
_symmetry_space_group_name_H-M "P M M A"
_symmetry_group_IT_number 51
_symmetry_cell_setting 'orthorhombic'
loop_
_space_group_symop_operation_xyz
x,y,z
1/2-x,-y,z
1/2+x,-y,-z
-x,y,-z
-x,-y,-z
1/2+x,y,-z
1/2-x,y,z
x,-y,z
loop_
_atom_site_type_symbol
_atom_site_label
_atom_site_fract_x
_atom_site_fract_y
_atom_site_fract_z
Si Si1 0.928396 0.608324 0.575943
Si Si2 0.076942 0.780885 0.256700
Si Si3 0.913187 0.106751 0.499263
Si Si4 0.413380 0.109228 0.009758
Si Si5 0.093944 0.790895 0.755200
Si Si6 0.834333 0.608011 0.332232
O O1 0.943690 0.500000 0.621409
O O2 0.911289 0.669140 0.705360
O O3 0.860674 0.615756 0.479803
O O4 0.000000 0.649100 0.500000
O O5 0.113318 0.841665 0.371382
O O6 0.113027 0.818573 0.124091
O O7 0.991992 0.797346 0.242262
O O8 0.878337 0.160323 0.376507
O O9 0.000000 0.107311 0.500000
O O10 0.882094 0.000000 0.498206
O O11 0.386180 0.000000 0.034274
O O12 0.500000 0.108840 0.000000
O O13 0.377122 0.150304 0.879001
O O14 0.122466 0.681455 0.760069
O O15 0.750000 0.634297 0.329373
O O16 0.848760 0.500000 0.280825
#
# Coordination Sequence:
#
# PCOD8205982 Si02
#       6
#     8   8   8   8   8   8
#     4  10  17  29  50  75 102 130 166 214 264 306
#     4  10  16  27  45  74 102 131 162 201 254 304
#     4   9  15  23  41  68  96 125 164 206 243 288
#     4   9  18  29  44  70 106 137 162 200 250 300
#     4  10  17  29  46  70 100 131 167 205 251 297
#     4  10  20  33  51  75 101 132 171 214 259 305
#
# _framework density 18.028407000000001
#
# number of rings (size 3 to 8) (size 9 to 14) (size 15 to 20)
#    0.000    2.333    3.333    1.500    0.000    4.000 
#    0.000    0.833    0.000    6.000    0.000    2.333 
#    0.000    0.000    0.000    0.000    0.000    0.000 
#
# Total GULP energy -594876.780666 kJ/mol
# GULP energy per Si atom -12393.266264 kJ/mol
# Density = 1.798737 g / cm^3
# Si number density = 18.028407 Si / 1000 Ang^3
#
#
#
# Elastic Constant Matrix: (Units=GPa)
#
#
# Indices 1 2 3 4 5 6 
#
# 1 19.6595 12.7936 17.6432 0.0000 0.0000 0.0000
# 2 12.7936 142.3685 70.5687 0.0000 0.0000 0.0000
# 3 17.6432 70.5687 133.1874 0.0000 0.0000 0.0000
# 4 0.0000 0.0000 0.0000 34.1728 0.0000 0.0000
# 5 0.0000 0.0000 0.0000 0.0000 7.2815 0.0000
# 6 0.0000 0.0000 0.0000 0.0000 0.0000 9.5208
#
#
#
# Elastic Compliance Matrix: (Units=1/GPa)
#
#
# Indices 1 2 3 4 5 6 
#
# 1 0.058108 -0.001907 -0.006687 0.000000 0.000000 0.000000
# 2 -0.001907 0.009588 -0.004828 0.000000 0.000000 0.000000
# 3 -0.006687 -0.004828 0.010952 0.000000 0.000000 0.000000
# 4 0.000000 0.000000 0.000000 0.029263 0.000000 0.000000
# 5 0.000000 0.000000 0.000000 0.000000 0.137334 0.000000
# 6 0.000000 0.000000 0.000000 0.000000 0.000000 0.105033
#
#
# Mechanical properties :
#
#
# Convention : Reuss Voigt Hill
#
# Bulk Modulus (GPa) = 19.30323 55.24739 37.27531
# Shear Modulus (GPa) = 12.67777 23.14234 17.91006
#
# Velocity S-wave (km/s) = 2.65469 3.58671 3.15530
# Velocity P-wave (km/s) = 4.48630 6.91837 5.83055
#
# Compressibility (1/GPa) = 0.05180479
#
# Stress axis : x y z
#
# Youngs Moduli (GPa) = 17.20925 104.29274 91.30760
#
# Poissons Ratio (x) = 0.19890 0.61058
# Poissons Ratio (y) = 0.03282 0.44081
# Poissons Ratio (z) = 0.11508 0.50350
#
# Static dielectric constant tensor:
#      x y z
#    x 2.760390 0.000000 0.000000 
#    y 0.000000 3.603710 0.000000 
#    z 0.000000 0.000000 3.530820 
# 
# 
# High freq. dielectric constant tensor:
#      x y z
#    x 1.631570 0.000000 0.000000 
#    y 0.000000 1.716660 0.000000 
#    z 0.000000 0.000000 1.682630 
# 
# From -- ./inp_files/9577.got.cif
#   From: 2010.03.12/outbox.cif.g09.slc.cpg/sg51_5_cif.got.tgz:9577.got - 2010.04.16 13:43:02.
