data_PCOD8205658
_publ_section_title
;
Structure prediction by ZEFSAII (Michael W. Deem and Ramdas Pophale) SiO2 
 PCOD8205658
Probable space group: P B A N
;
_chemical_formula_sum "Si O2"
_cell_formula_units_Z 48
_cell_length_a 24.363326
_cell_length_b 11.160620
_cell_length_c 8.801471
_cell_angle_alpha 90.000000
_cell_angle_beta 90.000000
_cell_angle_gamma 90.000000
_cell_volume 2393.206425
_symmetry_space_group_name_H-M "P B A N"
_symmetry_group_IT_number 50
_space_group.IT_coordinate_system_code '2'
_symmetry_cell_setting 'orthorhombic'
loop_
_space_group_symop_operation_xyz
x,y,z
1/2-x,1/2-y,z
x,1/2-y,-z
1/2-x,y,-z
-x,-y,-z
1/2+x,1/2+y,-z
-x,1/2+y,z
1/2+x,-y,z
loop_
_atom_site_type_symbol
_atom_site_label
_atom_site_fract_x
_atom_site_fract_y
_atom_site_fract_z
Si Si1 0.058485 0.348019 0.746572
Si Si2 0.246910 0.086788 0.166456
Si Si3 0.515509 0.250000 0.000000
Si Si4 0.203010 0.678193 0.840903
Si Si5 0.167318 0.234995 0.679800
Si Si6 0.915372 0.380364 0.248339
Si Si7 0.517627 0.250000 0.500000
O O1 0.104711 0.243701 0.739178
O O2 0.087370 0.476580 0.748703
O O3 0.019484 0.337996 0.600454
O O4 0.022609 0.333421 0.896986
O O5 0.199873 0.151501 0.259348
O O6 0.304753 0.111330 0.257600
O O7 0.230145 0.950942 0.140142
O O8 0.250000 0.146107 0.000000
O O9 0.552936 0.161637 0.098303
O O10 0.250000 0.750000 0.746113
O O11 0.146046 0.672297 0.751648
O O12 0.194117 0.750000 0.000000
O O13 0.168554 0.250000 0.500000
O O14 0.944624 0.334904 0.398945
#
# Coordination Sequence:
#
# PCOD8205658 Si02
#       7
#     8   8   4   8   8   8   4
#     4  11  22  41  67  97 129 166 216 269 325 386
#     4  11  22  40  66  92 128 169 212 266 317 380
#     4  10  24  38  67  97 124 162 224 266 324 386
#     4  11  22  42  64  93 129 169 214 263 325 374
#     4  11  23  40  62  95 135 166 207 268 330 376
#     4  11  22  44  65  91 131 172 210 275 317 389
#     4  10  24  44  63  95 132 174 216 258 330 390
#
# _framework density 20.056773
#
# number of rings (size 3 to 8) (size 9 to 14) (size 15 to 20)
#    0.000    1.167    5.000    3.000    2.333    0.000 
#    3.000    2.083    0.000    0.000    0.000    0.000 
#    0.000    0.000    0.000    0.000    0.000    0.000 
#
# Total GULP energy -594911.372881 kJ/mol
# GULP energy per Si atom -12393.986935 kJ/mol
# Density = 2.001112 g / cm^3
# Si number density = 20.056773 Si / 1000 Ang^3
#
#
#
# Elastic Constant Matrix: (Units=GPa)
#
#
# Indices 1 2 3 4 5 6 
#
# 1 169.1531 45.0337 59.7536 0.0000 0.0000 0.0000
# 2 45.0337 98.7087 28.6899 0.0000 0.0000 0.0000
# 3 59.7536 28.6899 107.7878 0.0000 0.0000 0.0000
# 4 0.0000 0.0000 0.0000 58.3697 0.0000 0.0000
# 5 0.0000 0.0000 0.0000 0.0000 -8.2211 0.0000
# 6 0.0000 0.0000 0.0000 0.0000 0.0000 2.2517
#
#
#
# Elastic Compliance Matrix: (Units=1/GPa)
#
#
# Indices 1 2 3 4 5 6 
#
# 1 0.007892 -0.002524 -0.003703 0.000000 0.000000 0.000000
# 2 -0.002524 0.011788 -0.001738 0.000000 0.000000 0.000000
# 3 -0.003703 -0.001738 0.011793 0.000000 0.000000 0.000000
# 4 0.000000 0.000000 0.000000 0.017132 0.000000 0.000000
# 5 0.000000 0.000000 0.000000 0.000000 -0.121638 0.000000
# 6 0.000000 0.000000 0.000000 0.000000 0.000000 0.444100
#
#
# Mechanical properties :
#
#
# Convention : Reuss Voigt Hill
#
# Bulk Modulus (GPa) = 64.34364 71.40044 67.87204
# Shear Modulus (GPa) = 12.74930 26.62491 19.68710
#
# Velocity S-wave (km/s) = 2.52397 3.64741 3.13640
# Velocity P-wave (km/s) = 6.37529 7.30853 6.85780
#
# Compressibility (1/GPa) = 0.01554155
#
# Stress axis : x y z
#
# Youngs Moduli (GPa) = 126.71109 84.83456 84.79588
#
# Poissons Ratio (x) = 0.21414 0.31401
# Poissons Ratio (y) = 0.31985 0.14739
# Poissons Ratio (z) = 0.46923 0.14746
#
# Static dielectric constant tensor:
#      x y z
#    x 3.988490 0.000000 0.000000 
#    y 0.000000 3.549800 0.000000 
#    z 0.000000 0.000000 3.514120 
# 
# 
# High freq. dielectric constant tensor:
#      x y z
#    x 1.800950 0.000000 0.000000 
#    y 0.000000 1.778110 0.000000 
#    z 0.000000 0.000000 1.781650 
# 
# From -- ./inp_files/16017.got.cif
#   From: 2010.03.12/outbox.cif.g09.slc.cpg/sg50_9_cif.got.tgz:16017.got - 2010.04.16 13:23:21.
