data_PCOD8205877
_publ_section_title
;
Structure prediction by ZEFSAII (Michael W. Deem and Ramdas Pophale) SiO2 
 PCOD8205877
Probable space group: P B A N
;
_chemical_formula_sum "Si O2"
_cell_formula_units_Z 40
_cell_length_a 15.242502
_cell_length_b 14.904227
_cell_length_c 7.837956
_cell_angle_alpha 90.000000
_cell_angle_beta 90.000000
_cell_angle_gamma 90.000000
_cell_volume 1780.608894
_symmetry_space_group_name_H-M "P B A N"
_symmetry_group_IT_number 50
_space_group.IT_coordinate_system_code '2'
_symmetry_cell_setting 'orthorhombic'
loop_
_space_group_symop_operation_xyz
x,y,z
1/2-x,1/2-y,z
x,1/2-y,-z
1/2-x,y,-z
-x,-y,-z
1/2+x,1/2+y,-z
-x,1/2+y,z
1/2+x,-y,z
loop_
_atom_site_type_symbol
_atom_site_label
_atom_site_fract_x
_atom_site_fract_y
_atom_site_fract_z
Si Si1 0.022726 0.735788 0.806381
Si Si2 0.724466 0.522265 0.187214
Si Si3 0.666499 0.795506 0.686147
Si Si4 0.062238 0.930233 0.706481
Si Si5 0.095143 0.948855 0.318921
O O1 0.919228 0.717588 0.798639
O O2 0.044442 0.824523 0.699939
O O3 0.076494 0.653505 0.730149
O O4 0.051300 0.750000 0.000000
O O5 0.689985 0.599182 0.316922
O O6 0.643533 0.452186 0.167421
O O7 0.806978 0.472269 0.266482
O O8 0.750000 0.559506 0.000000
O O9 0.750000 0.750000 0.777738
O O10 0.652987 0.750000 0.500000
O O11 0.089079 0.962733 0.519953
O O12 0.975229 0.983735 0.769236
#
# Coordination Sequence:
#
# PCOD8205877 Si02
#       5
#     8   8   8   8   8
#     4  12  26  44  72 106 144 185 239 303 359 421
#     4  12  27  44  72 108 145 187 238 301 364 417
#     4  11  26  42  69 102 144 182 242 287 353 429
#     4  11  25  45  74 102 143 195 239 294 357 434
#     4  11  25  46  73 101 146 191 245 288 358 437
#
# _framework density 22.464226
#
# number of rings (size 3 to 8) (size 9 to 14) (size 15 to 20)
#    0.000    0.600    2.000    4.800   14.000    2.400 
#    0.000    4.000    0.000    0.000    0.000    0.000 
#    0.000    0.000    0.000    0.000    0.000    0.000 
#
# Total GULP energy -496080.023280 kJ/mol
# GULP energy per Si atom -12402.000582 kJ/mol
# Density = 2.241310 g / cm^3
# Si number density = 22.464226 Si / 1000 Ang^3
#
#
#
# Elastic Constant Matrix: (Units=GPa)
#
#
# Indices 1 2 3 4 5 6 
#
# 1 151.5511 68.1899 10.9966 0.0000 0.0000 0.0000
# 2 68.1899 175.5782 16.6858 0.0000 0.0000 0.0000
# 3 10.9966 16.6858 61.6105 0.0000 0.0000 0.0000
# 4 0.0000 0.0000 0.0000 28.9399 0.0000 0.0000
# 5 0.0000 0.0000 0.0000 0.0000 25.3638 0.0000
# 6 0.0000 0.0000 0.0000 0.0000 0.0000 44.4287
#
#
#
# Elastic Compliance Matrix: (Units=1/GPa)
#
#
# Indices 1 2 3 4 5 6 
#
# 1 0.008017 -0.003056 -0.000603 0.000000 0.000000 0.000000
# 2 -0.003056 0.007011 -0.001353 0.000000 0.000000 0.000000
# 3 -0.000603 -0.001353 0.016705 0.000000 0.000000 0.000000
# 4 0.000000 0.000000 0.000000 0.034554 0.000000 0.000000
# 5 0.000000 0.000000 0.000000 0.000000 0.039426 0.000000
# 6 0.000000 0.000000 0.000000 0.000000 0.000000 0.022508
#
#
# Mechanical properties :
#
#
# Convention : Reuss Voigt Hill
#
# Bulk Modulus (GPa) = 46.06628 64.49825 55.28227
# Shear Modulus (GPa) = 34.36801 39.27098 36.81950
#
# Velocity S-wave (km/s) = 3.91564 4.18563 4.05288
# Velocity P-wave (km/s) = 6.40265 7.22033 6.82375
#
# Compressibility (1/GPa) = 0.02170785
#
# Stress axis : x y z
#
# Youngs Moduli (GPa) = 124.72819 142.63077 59.86171
#
# Poissons Ratio (x) = 0.43594 0.03611
# Poissons Ratio (y) = 0.38122 0.08101
# Poissons Ratio (z) = 0.07524 0.19302
#
# Static dielectric constant tensor:
#      x y z
#    x 4.265350 0.000000 0.000000 
#    y 0.000000 4.172520 0.000000 
#    z 0.000000 0.000000 3.864320 
# 
# 
# High freq. dielectric constant tensor:
#      x y z
#    x 1.899660 0.000000 0.000000 
#    y 0.000000 1.894540 0.000000 
#    z 0.000000 0.000000 1.877870 
# 
# From -- ./inp_files/12563.got.cif
#   From: 2010.03.12/outbox.cif.g09.slc.cpg/sg50_7_cif.got.tgz:12563.got - 2010.04.16 13:23:21.
