data_PCOD8205133
_publ_section_title
;
Structure prediction by ZEFSAII (Michael W. Deem and Ramdas Pophale) SiO2 
 PCOD8205133
Probable space group: P B A N
;
_chemical_formula_sum "Si O2"
_cell_formula_units_Z 64
_cell_length_a 9.782679
_cell_length_b 25.552629
_cell_length_c 13.593200
_cell_angle_alpha 90.000000
_cell_angle_beta 90.000000
_cell_angle_gamma 90.000000
_cell_volume 3397.935255
_symmetry_space_group_name_H-M "P B A N"
_symmetry_group_IT_number 50
_space_group.IT_coordinate_system_code '2'
_symmetry_cell_setting 'orthorhombic'
loop_
_space_group_symop_operation_xyz
x,y,z
1/2-x,1/2-y,z
x,1/2-y,-z
1/2-x,y,-z
-x,-y,-z
1/2+x,1/2+y,-z
-x,1/2+y,z
1/2+x,-y,z
loop_
_atom_site_type_symbol
_atom_site_label
_atom_site_fract_x
_atom_site_fract_y
_atom_site_fract_z
Si Si1 0.069861 0.192969 0.450418
Si Si2 0.334134 0.156600 0.357330
Si Si3 0.734305 0.472642 0.110516
Si Si4 0.776621 0.581334 0.809635
Si Si5 0.636068 0.316308 0.285647
Si Si6 0.427777 0.795971 0.760923
Si Si7 0.018783 0.893545 0.867354
Si Si8 0.453013 0.882861 0.911443
O O1 0.073468 0.250000 0.500000
O O2 0.191291 0.187091 0.370926
O O3 0.093281 0.149143 0.535916
O O4 0.928566 0.182509 0.394714
O O5 0.312094 0.101149 0.301139
O O6 0.430169 0.193781 0.292983
O O7 0.755421 0.519258 0.189141
O O8 0.579188 0.452527 0.128656
O O9 0.840748 0.425034 0.124717
O O10 0.750000 0.495708 0.000000
O O11 0.641928 0.610357 0.848331
O O12 0.899100 0.594361 0.883764
O O13 0.584939 0.266035 0.222959
O O14 0.798764 0.315216 0.304571
O O15 0.596820 0.365920 0.221515
O O16 0.423680 0.826776 0.863287
O O17 0.054730 0.869352 0.973501
#
# Coordination Sequence:
#
# PCOD8205133 Si02
#       8
#     8   8   8   8   8   8   8   8
#     4  11  21  38  63  87 109 147 191 239 289 353
#     4  10  21  36  58  85 114 142 183 242 298 340
#     4  10  20  36  59  84 114 157 200 236 281 337
#     4  11  21  35  58  86 114 149 191 248 287 340
#     4  11  22  37  58  85 116 150 196 236 288 347
#     4  10  22  37  54  86 119 152 188 235 289 344
#     4  11  21  36  57  86 117 156 195 237 280 345
#     4  10  21  37  55  84 123 153 193 236 284 339
#
# _framework density 18.834968
#
# number of rings (size 3 to 8) (size 9 to 14) (size 15 to 20)
#    0.000    1.500    3.750    2.625    0.000    3.000 
#    0.000    1.250    0.000    2.250    3.250    0.000 
#    0.000    0.000    0.000    0.000    0.000    0.000 
#
# Total GULP energy -793342.579807 kJ/mol
# GULP energy per Si atom -12395.977809 kJ/mol
# Density = 1.879210 g / cm^3
# Si number density = 18.834968 Si / 1000 Ang^3
#
#
#
# Elastic Constant Matrix: (Units=GPa)
#
#
# Indices 1 2 3 4 5 6 
#
# 1 77.0527 8.8868 25.3318 0.0000 0.0000 0.0000
# 2 8.8868 69.7955 46.0426 0.0000 0.0000 0.0000
# 3 25.3318 46.0426 96.0074 0.0000 0.0000 0.0000
# 4 0.0000 0.0000 0.0000 33.5987 0.0000 0.0000
# 5 0.0000 0.0000 0.0000 0.0000 29.7565 0.0000
# 6 0.0000 0.0000 0.0000 0.0000 0.0000 22.1021
#
#
#
# Elastic Compliance Matrix: (Units=1/GPa)
#
#
# Indices 1 2 3 4 5 6 
#
# 1 0.014256 0.000975 -0.004229 0.000000 0.000000 0.000000
# 2 0.000975 0.021025 -0.010340 0.000000 0.000000 0.000000
# 3 -0.004229 -0.010340 0.016490 0.000000 0.000000 0.000000
# 4 0.000000 0.000000 0.000000 0.029763 0.000000 0.000000
# 5 0.000000 0.000000 0.000000 0.000000 0.033606 0.000000
# 6 0.000000 0.000000 0.000000 0.000000 0.000000 0.045244
#
#
# Mechanical properties :
#
#
# Convention : Reuss Voigt Hill
#
# Bulk Modulus (GPa) = 40.67944 44.81976 42.74960
# Shear Modulus (GPa) = 25.54054 27.93110 26.73582
#
# Velocity S-wave (km/s) = 3.68641 3.85507 3.77168
# Velocity P-wave (km/s) = 6.30589 6.60781 6.45861
#
# Compressibility (1/GPa) = 0.02458244
#
# Stress axis : x y z
#
# Youngs Moduli (GPa) = 70.14583 47.56351 60.64129
#
# Poissons Ratio (x) = -0.04635 0.25644
# Poissons Ratio (y) = -0.06836 0.62703
# Poissons Ratio (z) = 0.29664 0.49180
#
# Static dielectric constant tensor:
#      x y z
#    x 3.736080 0.000000 0.000000 
#    y 0.000000 3.310970 0.000000 
#    z 0.000000 0.000000 3.486640 
# 
# 
# High freq. dielectric constant tensor:
#      x y z
#    x 1.755510 0.000000 0.000000 
#    y 0.000000 1.709760 0.000000 
#    z 0.000000 0.000000 1.715610 
# 
# From -- ./inp_files/25422.got.cif
#   From: 2010.03.12/outbox.cif.g09.slc.cpg/sg50_13_cif.got.tgz:25422.got - 2010.04.16 13:23:21.
