data_PCOD8205176
_publ_section_title
;
Structure prediction by ZEFSAII (Michael W. Deem and Ramdas Pophale) SiO2 
 PCOD8205176
Probable space group: P B A N
;
_chemical_formula_sum "Si O2"
_cell_formula_units_Z 56
_cell_length_a 9.170718
_cell_length_b 14.933906
_cell_length_c 19.671723
_cell_angle_alpha 90.000000
_cell_angle_beta 90.000000
_cell_angle_gamma 90.000000
_cell_volume 2694.133753
_symmetry_space_group_name_H-M "P B A N"
_symmetry_group_IT_number 50
_space_group.IT_coordinate_system_code '2'
_symmetry_cell_setting 'orthorhombic'
loop_
_space_group_symop_operation_xyz
x,y,z
1/2-x,1/2-y,z
x,1/2-y,-z
1/2-x,y,-z
-x,-y,-z
1/2+x,1/2+y,-z
-x,1/2+y,z
1/2+x,-y,z
loop_
_atom_site_type_symbol
_atom_site_label
_atom_site_fract_x
_atom_site_fract_y
_atom_site_fract_z
Si Si1 0.829375 0.902631 0.564207
Si Si2 0.829379 0.409837 0.565128
Si Si3 0.170609 0.661037 0.287253
Si Si4 0.576328 0.354929 0.999558
Si Si5 0.718408 0.502085 0.798749
Si Si6 0.832517 0.664007 0.289664
Si Si7 0.968127 0.995666 0.105637
O O1 0.750000 0.854649 0.500000
O O2 0.811119 0.840397 0.629420
O O3 0.999367 0.921479 0.549392
O O4 0.744836 0.994735 0.577431
O O5 0.750000 0.363244 0.500000
O O6 0.802253 0.352750 0.632631
O O7 0.250000 0.750000 0.263878
O O8 0.243181 0.587114 0.240642
O O9 0.001065 0.668191 0.269903
O O10 0.514901 0.405340 0.933350
O O11 0.525224 0.250000 0.000000
O O12 0.750000 0.359744 0.000000
O O13 0.513130 0.411798 0.063188
O O14 0.746439 0.581143 0.745810
O O15 0.801647 0.514569 0.870545
O O16 0.551222 0.501788 0.822452
O O17 0.750000 0.750000 0.261268
#
# Coordination Sequence:
#
# PCOD8205176 Si02
#       7
#     8   8   8   8   8   8   8
#     4  10  20  37  61  89 121 166 217 271 334 388
#     4  10  20  37  61  90 120 164 218 273 334 388
#     4  11  26  42  64  94 128 174 221 271 330 390
#     4  10  22  43  71 102 132 168 216 261 310 373
#     4  12  24  45  65  94 138 174 218 257 324 384
#     4  11  26  42  63  95 130 172 221 272 328 388
#     4  11  24  42  70  99 132 175 209 263 315 376
#
# _framework density 20.785902
#
# number of rings (size 3 to 8) (size 9 to 14) (size 15 to 20)
#    0.000    1.286    4.286    1.714    2.000    5.143 
#    0.000    3.571    0.000    0.000    0.000    0.000 
#    0.000    0.000    0.000    0.000    0.000    0.000 
#
# Total GULP energy -694319.293718 kJ/mol
# GULP energy per Si atom -12398.558816 kJ/mol
# Density = 2.073859 g / cm^3
# Si number density = 20.785902 Si / 1000 Ang^3
#
#
#
# Elastic Constant Matrix: (Units=GPa)
#
#
# Indices 1 2 3 4 5 6 
#
# 1 84.4790 49.3206 38.4850 0.0000 0.0000 0.0000
# 2 49.3206 157.7986 55.5720 0.0000 0.0000 0.0000
# 3 38.4850 55.5720 100.1473 0.0000 0.0000 0.0000
# 4 0.0000 0.0000 0.0000 -6.6491 0.0000 0.0000
# 5 0.0000 0.0000 0.0000 0.0000 47.4478 0.0000
# 6 0.0000 0.0000 0.0000 0.0000 0.0000 27.8139
#
#
#
# Elastic Compliance Matrix: (Units=1/GPa)
#
#
# Indices 1 2 3 4 5 6 
#
# 1 0.015741 -0.003467 -0.004125 0.000000 0.000000 0.000000
# 2 -0.003467 0.008640 -0.003462 0.000000 0.000000 0.000000
# 3 -0.004125 -0.003462 0.013492 0.000000 0.000000 0.000000
# 4 0.000000 0.000000 0.000000 -0.150396 0.000000 0.000000
# 5 0.000000 0.000000 0.000000 0.000000 0.021076 0.000000
# 6 0.000000 0.000000 0.000000 0.000000 0.000000 0.035953
#
#
# Mechanical properties :
#
#
# Convention : Reuss Voigt Hill
#
# Bulk Modulus (GPa) = 63.43565 69.90887 66.67226
# Shear Modulus (GPa) = -177.73575 26.99233 -75.37171
#
# Velocity S-wave (km/s) = -9.25708 3.60750 -6.02824
# Velocity P-wave (km/s) = 9.14730 7.14548 4.03826
#
# Compressibility (1/GPa) = 0.01576401
#
# Stress axis : x y z
#
# Youngs Moduli (GPa) = 63.53012 115.73968 74.12050
#
# Poissons Ratio (x) = 0.40128 0.30574
# Poissons Ratio (y) = 0.22026 0.25661
# Poissons Ratio (z) = 0.26206 0.40070
#
# Static dielectric constant tensor:
#      x y z
#    x 3.950060 0.000000 0.000000 
#    y 0.000000 3.647580 0.000000 
#    z 0.000000 0.000000 3.886730 
# 
# 
# High freq. dielectric constant tensor:
#      x y z
#    x 1.821940 0.000000 0.000000 
#    y 0.000000 1.805430 0.000000 
#    z 0.000000 0.000000 1.823490 
# 
# From -- ./inp_files/30661.got.cif
#   From: 2010.03.12/outbox.cif.g09.slc.cpg/sg50_16_cif.got.tgz:30661.got - 2010.04.16 13:23:21.
