data_PCOD8205588
_publ_section_title
;
Structure prediction by ZEFSAII (Michael W. Deem and Ramdas Pophale) SiO2 
 PCOD8205588
Probable space group: P B A N
;
_chemical_formula_sum "Si O2"
_cell_formula_units_Z 28
_cell_length_a 11.368058
_cell_length_b 16.158716
_cell_length_c 7.696618
_cell_angle_alpha 90.000000
_cell_angle_beta 90.000000
_cell_angle_gamma 90.000000
_cell_volume 1413.816549
_symmetry_space_group_name_H-M "P B A N"
_symmetry_group_IT_number 50
_space_group.IT_coordinate_system_code '2'
_symmetry_cell_setting 'orthorhombic'
loop_
_space_group_symop_operation_xyz
x,y,z
1/2-x,1/2-y,z
x,1/2-y,-z
1/2-x,y,-z
-x,-y,-z
1/2+x,1/2+y,-z
-x,1/2+y,z
1/2+x,-y,z
loop_
_atom_site_type_symbol
_atom_site_label
_atom_site_fract_x
_atom_site_fract_y
_atom_site_fract_z
Si Si1 0.750000 0.900812 0.500000
Si Si2 0.538648 0.685719 0.649216
Si Si3 0.250000 0.619904 0.000000
Si Si4 0.833419 0.058444 0.353251
Si Si5 0.052353 0.750000 0.000000
O O1 0.673429 0.842570 0.374386
O O2 0.841379 0.959567 0.392238
O O3 0.500140 0.750000 0.500000
O O4 0.458010 0.603884 0.643127
O O5 0.529359 0.730610 0.834884
O O6 0.226361 0.563243 0.165488
O O7 0.135778 0.673473 0.953143
O O8 0.750000 0.100829 0.500000
#
# Coordination Sequence:
#
# PCOD8205588 Si02
#       5
#     4   8   4   8   4
#     4  10  23  40  55  86 124 158 194 240 295 356
#     4  11  21  40  60  84 119 158 198 243 291 353
#     4   9  16  36  58  92 115 146 198 252 295 348
#     4   9  20  36  60  87 116 153 194 246 295 347
#     4   9  20  34  61  88 116 148 203 251 292 342
#
# _framework density 19.804549999999999
#
# number of rings (size 3 to 8) (size 9 to 14) (size 15 to 20)
#    0.857    1.429    0.000    3.000    0.000    2.857 
#    5.143    4.286    0.000    0.000    0.000    0.000 
#    0.000    0.000    0.000    0.000    0.000    0.000 
#
# Total GULP energy -347036.352720 kJ/mol
# GULP energy per Si atom -12394.155454 kJ/mol
# Density = 1.975947 g / cm^3
# Si number density = 19.804550 Si / 1000 Ang^3
#
#
#
# Elastic Constant Matrix: (Units=GPa)
#
#
# Indices 1 2 3 4 5 6 
#
# 1 93.9264 38.4322 66.1023 0.0000 0.0000 0.0000
# 2 38.4322 73.9683 54.3936 0.0000 0.0000 0.0000
# 3 66.1023 54.3936 160.1780 0.0000 0.0000 0.0000
# 4 0.0000 0.0000 0.0000 21.5134 0.0000 0.0000
# 5 0.0000 0.0000 0.0000 0.0000 33.9834 0.0000
# 6 0.0000 0.0000 0.0000 0.0000 0.0000 25.2319
#
#
#
# Elastic Compliance Matrix: (Units=1/GPa)
#
#
# Indices 1 2 3 4 5 6 
#
# 1 0.016118 -0.004642 -0.005075 0.000000 0.000000 0.000000
# 2 -0.004642 0.019356 -0.004657 0.000000 0.000000 0.000000
# 3 -0.005075 -0.004657 0.009919 0.000000 0.000000 0.000000
# 4 0.000000 0.000000 0.000000 0.046483 0.000000 0.000000
# 5 0.000000 0.000000 0.000000 0.000000 0.029426 0.000000
# 6 0.000000 0.000000 0.000000 0.000000 0.000000 0.039632
#
#
# Mechanical properties :
#
#
# Convention : Reuss Voigt Hill
#
# Bulk Modulus (GPa) = 60.08313 71.76986 65.92649
# Shear Modulus (GPa) = 25.61067 27.42204 26.51636
#
# Velocity S-wave (km/s) = 3.59997 3.72510 3.66307
# Velocity P-wave (km/s) = 6.90533 7.40403 7.15902
#
# Compressibility (1/GPa) = 0.01664361
#
# Stress axis : x y z
#
# Youngs Moduli (GPa) = 62.04300 51.66330 100.81763
#
# Poissons Ratio (x) = 0.23985 0.51165
# Poissons Ratio (y) = 0.28803 0.46952
# Poissons Ratio (z) = 0.31487 0.24060
#
# Static dielectric constant tensor:
#      x y z
#    x 3.334950 0.000000 0.000000 
#    y 0.000000 3.487670 0.000000 
#    z 0.000000 0.000000 3.658500 
# 
# 
# High freq. dielectric constant tensor:
#      x y z
#    x 1.759320 0.000000 0.000000 
#    y 0.000000 1.766720 0.000000 
#    z 0.000000 0.000000 1.773840 
# 
# From -- ./inp_files/10517.got.cif
#   From: 2010.03.12/outbox.cif.g09.slc.cpg/sg50_6_cif.got.tgz:10517.got - 2010.04.16 13:23:21.
