data_PCOD8205356
_publ_section_title
;
Structure prediction by ZEFSAII (Michael W. Deem and Ramdas Pophale) SiO2 
 PCOD8205356
Probable space group: P B A N
;
_chemical_formula_sum "Si O2"
_cell_formula_units_Z 40
_cell_length_a 15.666992
_cell_length_b 5.282751
_cell_length_c 22.289998
_cell_angle_alpha 90.000000
_cell_angle_beta 90.000000
_cell_angle_gamma 90.000000
_cell_volume 1844.827620
_symmetry_space_group_name_H-M "P B A N"
_symmetry_group_IT_number 50
_space_group.IT_coordinate_system_code '2'
_symmetry_cell_setting 'orthorhombic'
loop_
_space_group_symop_operation_xyz
x,y,z
1/2-x,1/2-y,z
x,1/2-y,-z
1/2-x,y,-z
-x,-y,-z
1/2+x,1/2+y,-z
-x,1/2+y,z
1/2+x,-y,z
loop_
_atom_site_type_symbol
_atom_site_label
_atom_site_fract_x
_atom_site_fract_y
_atom_site_fract_z
Si Si1 0.307901 0.501953 0.855343
Si Si2 0.945650 0.473100 0.757874
Si Si3 0.783540 0.500314 0.567638
Si Si4 0.452815 0.928765 0.379055
Si Si5 0.597496 0.500243 0.025530
O O1 0.250000 0.750000 0.865094
O O2 0.355518 0.518391 0.791904
O O3 0.250000 0.250000 0.859235
O O4 0.386843 0.496082 0.903131
O O5 0.001138 0.721138 0.774377
O O6 0.918698 0.471435 0.688229
O O7 0.750000 0.250000 0.601895
O O8 0.750000 0.500504 0.500000
O O9 0.884920 0.501275 0.570254
O O10 0.750000 0.750000 0.601669
O O11 0.472862 0.633453 0.389676
O O12 0.643734 0.250000 0.000000
O O13 0.500000 0.500000 0.000000
O O14 0.644012 0.750000 0.000000
#
# Coordination Sequence:
#
# PCOD8205356 Si02
#       5
#     8   8   8   8   8
#     4  12  26  41  64  98 127 154 204 266 312 359
#     4  10  23  41  67  90 123 166 208 250 311 376
#     4  10  21  38  58  88 125 164 205 246 315 367
#     4  10  21  40  63  92 120 165 214 258 298 364
#     4  10  23  40  63  88 117 168 208 235 310 372
#
# _framework density 21.682241000000001
#
# number of rings (size 3 to 8) (size 9 to 14) (size 15 to 20)
#    0.000    1.600    0.000    3.600    5.600    4.000 
#    0.000   12.000    0.000    0.000    0.000    0.000 
#    0.000    0.000    0.000    0.000    0.000    0.000 
#
# Total GULP energy -495591.510692 kJ/mol
# GULP energy per Si atom -12389.787767 kJ/mol
# Density = 2.163289 g / cm^3
# Si number density = 21.682241 Si / 1000 Ang^3
#
#
#
# Elastic Constant Matrix: (Units=GPa)
#
#
# Indices 1 2 3 4 5 6 
#
# 1 101.4572 33.1396 55.7654 0.0000 0.0000 0.0000
# 2 33.1396 207.8515 22.7051 0.0000 0.0000 0.0000
# 3 55.7654 22.7051 78.3411 0.0000 0.0000 0.0000
# 4 0.0000 0.0000 0.0000 0.1935 0.0000 0.0000
# 5 0.0000 0.0000 0.0000 0.0000 44.8258 0.0000
# 6 0.0000 0.0000 0.0000 0.0000 0.0000 20.0562
#
#
#
# Elastic Compliance Matrix: (Units=1/GPa)
#
#
# Indices 1 2 3 4 5 6 
#
# 1 0.016576 -0.001398 -0.011394 0.000000 0.000000 0.000000
# 2 -0.001398 0.005086 -0.000479 0.000000 0.000000 0.000000
# 3 -0.011394 -0.000479 0.021014 0.000000 0.000000 0.000000
# 4 0.000000 0.000000 0.000000 5.168054 0.000000 0.000000
# 5 0.000000 0.000000 0.000000 0.000000 0.022309 0.000000
# 6 0.000000 0.000000 0.000000 0.000000 0.000000 0.049860
#
#
# Mechanical properties :
#
#
# Convention : Reuss Voigt Hill
#
# Bulk Modulus (GPa) = 61.98009 67.87443 64.92726
# Shear Modulus (GPa) = 0.94077 31.41773 16.17925
#
# Velocity S-wave (km/s) = 0.65942 3.81071 2.73463
# Velocity P-wave (km/s) = 5.40624 7.12279 6.32304
#
# Compressibility (1/GPa) = 0.01613421
#
# Stress axis : x y z
#
# Youngs Moduli (GPa) = 60.32972 196.60412 47.58760
#
# Poissons Ratio (x) = 0.27489 0.54220
# Poissons Ratio (y) = 0.08435 0.02279
# Poissons Ratio (z) = 0.68738 0.09415
#
# Static dielectric constant tensor:
#      x y z
#    x 3.623570 0.000000 0.000000 
#    y 0.000000 5.052350 0.000000 
#    z 0.000000 0.000000 3.715760 
# 
# 
# High freq. dielectric constant tensor:
#      x y z
#    x 1.833880 0.000000 0.000000 
#    y 0.000000 1.894240 0.000000 
#    z 0.000000 0.000000 1.835970 
# 
# From -- ./inp_files/31715.got.cif
#   From: 2010.03.12/outbox.cif.g09.slc.cpg/sg50_16_cif.got.tgz:31715.got - 2010.04.16 13:23:21.
