data_PCOD8205886
_publ_section_title
;
Structure prediction by ZEFSAII (Michael W. Deem and Ramdas Pophale) SiO2 
 PCOD8205886
Probable space group: P B A N
;
_chemical_formula_sum "Si O2"
_cell_formula_units_Z 34
_cell_length_a 7.396382
_cell_length_b 20.308689
_cell_length_c 9.627207
_cell_angle_alpha 90.000000
_cell_angle_beta 90.000000
_cell_angle_gamma 90.000000
_cell_volume 1446.110675
_symmetry_space_group_name_H-M "P B A N"
_symmetry_group_IT_number 50
_space_group.IT_coordinate_system_code '2'
_symmetry_cell_setting 'orthorhombic'
loop_
_space_group_symop_operation_xyz
x,y,z
1/2-x,1/2-y,z
x,1/2-y,-z
1/2-x,y,-z
-x,-y,-z
1/2+x,1/2+y,-z
-x,1/2+y,z
1/2+x,-y,z
loop_
_atom_site_type_symbol
_atom_site_label
_atom_site_fract_x
_atom_site_fract_y
_atom_site_fract_z
Si Si1 0.952831 0.413737 0.767609
Si Si2 0.897411 0.355604 0.322946
Si Si3 0.314108 0.457738 0.646710
Si Si4 0.963156 0.824943 0.020322
Si Si5 0.750000 0.250000 0.500000
O O1 0.815191 0.373647 0.671280
O O2 0.876918 0.489045 0.762967
O O3 0.156530 0.412357 0.710992
O O4 0.945080 0.378254 0.917453
O O5 0.898230 0.288703 0.408427
O O6 0.016003 0.412344 0.394929
O O7 0.980284 0.347502 0.171455
O O8 0.250000 0.489968 0.500000
O O9 0.034586 0.750000 0.000000
O O10 0.750000 0.827247 0.000000
#
# Coordination Sequence:
#
# PCOD8205886 Si02
#       5
#     8   8   8   8   2
#     4  12  25  47  76 108 149 197 250 313 379 447
#     4  12  26  49  74 111 150 197 252 310 374 462
#     4  12  26  45  72 111 155 195 248 314 381 448
#     4  11  25  49  75 105 150 198 252 309 375 447
#     4  12  28  48  80 112 152 206 254 302 398 448
#
# _framework density 23.511341000000002
#
# number of rings (size 3 to 8) (size 9 to 14) (size 15 to 20)
#    0.000    0.235    4.706    4.235    1.647    1.882 
#    4.235    1.176    0.000    0.000    0.000    0.000 
#    0.000    0.000    0.000    0.000    0.000    0.000 
#
# Total GULP energy -421475.235272 kJ/mol
# GULP energy per Si atom -12396.330449 kJ/mol
# Density = 2.345783 g / cm^3
# Si number density = 23.511341 Si / 1000 Ang^3
#
#
#
# Elastic Constant Matrix: (Units=GPa)
#
#
# Indices 1 2 3 4 5 6 
#
# 1 134.0429 55.6529 46.8601 0.0000 0.0000 0.0000
# 2 55.6529 160.4704 73.1553 0.0000 0.0000 0.0000
# 3 46.8601 73.1553 119.8923 0.0000 0.0000 0.0000
# 4 0.0000 0.0000 0.0000 51.8188 0.0000 0.0000
# 5 0.0000 0.0000 0.0000 0.0000 28.9151 0.0000
# 6 0.0000 0.0000 0.0000 0.0000 0.0000 19.4575
#
#
#
# Elastic Compliance Matrix: (Units=1/GPa)
#
#
# Indices 1 2 3 4 5 6 
#
# 1 0.009140 -0.002135 -0.002270 0.000000 0.000000 0.000000
# 2 -0.002135 0.009132 -0.004738 0.000000 0.000000 0.000000
# 3 -0.002270 -0.004738 0.012119 0.000000 0.000000 0.000000
# 4 0.000000 0.000000 0.000000 0.019298 0.000000 0.000000
# 5 0.000000 0.000000 0.000000 0.000000 0.034584 0.000000
# 6 0.000000 0.000000 0.000000 0.000000 0.000000 0.051394
#
#
# Mechanical properties :
#
#
# Convention : Reuss Voigt Hill
#
# Bulk Modulus (GPa) = 82.60329 85.08245 83.84287
# Shear Modulus (GPa) = 31.64818 35.95411 33.80114
#
# Velocity S-wave (km/s) = 3.67288 3.91477 3.79575
# Velocity P-wave (km/s) = 7.29358 7.52996 7.41271
#
# Compressibility (1/GPa) = 0.01210605
#
# Stress axis : x y z
#
# Youngs Moduli (GPa) = 109.40596 109.50553 82.51782
#
# Poissons Ratio (x) = 0.23383 0.18728
# Poissons Ratio (y) = 0.23361 0.39093
# Poissons Ratio (z) = 0.24831 0.51878
#
# Static dielectric constant tensor:
#      x y z
#    x 4.481450 0.000000 0.000000 
#    y 0.000000 4.409200 0.000000 
#    z 0.000000 0.000000 4.087500 
# 
# 
# High freq. dielectric constant tensor:
#      x y z
#    x 1.950130 0.000000 0.000000 
#    y 0.000000 1.933680 0.000000 
#    z 0.000000 0.000000 1.928680 
# 
# From -- ./inp_files/9244.got.cif
#   From: 2010.03.12/outbox.cif.g09.slc.cpg/sg50_5_cif.got.tgz:9244.got - 2010.04.16 13:23:21.
