data_PCOD8205659
_publ_section_title
;
Structure prediction by ZEFSAII (Michael W. Deem and Ramdas Pophale) SiO2 
 PCOD8205659
Probable space group: P B A N
;
_chemical_formula_sum "Si O2"
_cell_formula_units_Z 36
_cell_length_a 21.154443
_cell_length_b 8.969417
_cell_length_c 8.777043
_cell_angle_alpha 90.000000
_cell_angle_beta 90.000000
_cell_angle_gamma 90.000000
_cell_volume 1665.382651
_symmetry_space_group_name_H-M "P B A N"
_symmetry_group_IT_number 50
_space_group.IT_coordinate_system_code '2'
_symmetry_cell_setting 'orthorhombic'
loop_
_space_group_symop_operation_xyz
x,y,z
1/2-x,1/2-y,z
x,1/2-y,-z
1/2-x,y,-z
-x,-y,-z
1/2+x,1/2+y,-z
-x,1/2+y,z
1/2+x,-y,z
loop_
_atom_site_type_symbol
_atom_site_label
_atom_site_fract_x
_atom_site_fract_y
_atom_site_fract_z
Si Si1 0.578637 0.010014 0.129724
Si Si2 0.432090 0.576492 0.467897
Si Si3 0.988772 0.750000 0.000000
Si Si4 0.313989 0.412089 0.934390
Si Si5 0.314897 0.408719 0.576824
O O1 0.551944 0.841632 0.122845
O O2 0.598140 0.040465 0.302505
O O3 0.632422 0.024525 0.999053
O O4 0.526739 0.133875 0.099456
O O5 0.441038 0.750000 0.500000
O O6 0.500000 0.500000 0.500000
O O7 0.375905 0.515459 0.572986
O O8 0.304982 0.393221 0.755750
O O9 0.328686 0.250000 0.000000
O O10 0.250000 0.480541 0.000000
O O11 0.330474 0.250000 0.500000
O O12 0.250000 0.473495 0.500000
#
# Coordination Sequence:
#
# PCOD8205659 Si02
#       5
#     8   8   4   8   8
#     4  11  23  42  65  96 132 172 224 268 336 400
#     4  12  27  43  69 100 142 179 228 283 348 411
#     4  10  24  38  68  90 134 170 218 268 330 392
#     4  11  22  40  69  97 129 173 227 277 330 401
#     4  11  24  44  70  99 137 181 229 282 346 410
#
# _framework density 21.616654
#
# number of rings (size 3 to 8) (size 9 to 14) (size 15 to 20)
#    0.000    0.889    1.111    7.333    9.333    0.444 
#    0.000    0.556    0.000    0.000    0.000    0.000 
#    0.000    0.000    0.000    0.000    0.000    0.000 
#
# Total GULP energy -446161.497754 kJ/mol
# GULP energy per Si atom -12393.374938 kJ/mol
# Density = 2.156745 g / cm^3
# Si number density = 21.616654 Si / 1000 Ang^3
#
#
#
# Elastic Constant Matrix: (Units=GPa)
#
#
# Indices 1 2 3 4 5 6 
#
# 1 155.1594 58.3366 43.5414 0.0000 0.0000 0.0000
# 2 58.3366 122.4496 36.9638 0.0000 0.0000 0.0000
# 3 43.5414 36.9638 183.2231 0.0000 0.0000 0.0000
# 4 0.0000 0.0000 0.0000 26.4243 0.0000 0.0000
# 5 0.0000 0.0000 0.0000 0.0000 9.9394 0.0000
# 6 0.0000 0.0000 0.0000 0.0000 0.0000 12.1065
#
#
#
# Elastic Compliance Matrix: (Units=1/GPa)
#
#
# Indices 1 2 3 4 5 6 
#
# 1 0.008100 -0.003490 -0.001221 0.000000 0.000000 0.000000
# 2 -0.003490 0.010200 -0.001228 0.000000 0.000000 0.000000
# 3 -0.001221 -0.001228 0.005996 0.000000 0.000000 0.000000
# 4 0.000000 0.000000 0.000000 0.037844 0.000000 0.000000
# 5 0.000000 0.000000 0.000000 0.000000 0.100610 0.000000
# 6 0.000000 0.000000 0.000000 0.000000 0.000000 0.082600
#
#
# Mechanical properties :
#
#
# Convention : Reuss Voigt Hill
#
# Bulk Modulus (GPa) = 80.53496 82.05730 81.29613
# Shear Modulus (GPa) = 19.13012 31.16007 25.14510
#
# Velocity S-wave (km/s) = 2.97807 3.80081 3.41431
# Velocity P-wave (km/s) = 7.01157 7.56995 7.29610
#
# Compressibility (1/GPa) = 0.01241697
#
# Stress axis : x y z
#
# Youngs Moduli (GPa) = 123.45910 98.03640 166.78540
#
# Poissons Ratio (x) = 0.34218 0.20360
# Poissons Ratio (y) = 0.43092 0.20487
# Poissons Ratio (z) = 0.15071 0.12042
#
# Static dielectric constant tensor:
#      x y z
#    x 4.301040 0.000000 0.000000 
#    y 0.000000 4.042010 0.000000 
#    z 0.000000 0.000000 4.090680 
# 
# 
# High freq. dielectric constant tensor:
#      x y z
#    x 1.866130 0.000000 0.000000 
#    y 0.000000 1.834290 0.000000 
#    z 0.000000 0.000000 1.862350 
# 
# From -- ./inp_files/9263.got.cif
#   From: 2010.03.12/outbox.cif.g09.slc.cpg/sg50_5_cif.got.tgz:9263.got - 2010.04.16 13:23:21.
