data_PCOD8205873
_publ_section_title
;
Structure prediction by ZEFSAII (Michael W. Deem and Ramdas Pophale) SiO2 
 PCOD8205873
Probable space group: P B A N
;
_chemical_formula_sum "Si O2"
_cell_formula_units_Z 48
_cell_length_a 8.893638
_cell_length_b 15.163176
_cell_length_c 17.250873
_cell_angle_alpha 90.000000
_cell_angle_beta 90.000000
_cell_angle_gamma 90.000000
_cell_volume 2326.380249
_symmetry_space_group_name_H-M "P B A N"
_symmetry_group_IT_number 50
_space_group.IT_coordinate_system_code '2'
_symmetry_cell_setting 'orthorhombic'
loop_
_space_group_symop_operation_xyz
x,y,z
1/2-x,1/2-y,z
x,1/2-y,-z
1/2-x,y,-z
-x,-y,-z
1/2+x,1/2+y,-z
-x,1/2+y,z
1/2+x,-y,z
loop_
_atom_site_type_symbol
_atom_site_label
_atom_site_fract_x
_atom_site_fract_y
_atom_site_fract_z
Si Si1 0.071455 0.151604 0.413278
Si Si2 0.679083 0.342039 0.917729
Si Si3 0.040804 0.506194 0.303525
Si Si4 0.424523 0.148300 0.411501
Si Si5 0.789112 0.503347 0.191950
Si Si6 0.319353 0.156224 0.081559
O O1 0.977471 0.091867 0.355680
O O2 0.247109 0.132423 0.406426
O O3 0.035330 0.251858 0.388605
O O4 0.018457 0.131304 0.500983
O O5 0.750000 0.250000 0.888752
O O6 0.731720 0.416069 0.858319
O O7 0.499080 0.335995 0.924952
O O8 0.750000 0.367825 0.000000
O O9 0.960935 0.513457 0.219140
O O10 0.995067 0.418827 0.352318
O O11 0.213023 0.503033 0.276733
O O12 0.730116 0.588271 0.146835
O O13 0.250000 0.250000 0.105188
O O14 0.250000 0.124219 0.000000
#
# Coordination Sequence:
#
# PCOD8205873 Si02
#       6
#     8   8   8   8   8   8
#     4   9  19  38  64  87 120 163 212 257 303 373
#     4  11  25  44  68  95 125 165 211 260 309 368
#     4  12  23  40  59  94 127 165 203 257 317 368
#     4   9  19  38  63  90 117 164 213 254 307 368
#     4  12  27  40  63  92 131 167 206 255 316 378
#     4  11  25  44  69  94 122 168 214 256 309 372
#
# _framework density 20.632912999999999
#
# number of rings (size 3 to 8) (size 9 to 14) (size 15 to 20)
#    0.000    1.333    3.333    4.000    4.667    4.000 
#    0.000    0.000    0.000    2.000    0.000    0.000 
#    0.000    0.000    0.000    0.000    0.000    0.000 
#
# Total GULP energy -595199.210164 kJ/mol
# GULP energy per Si atom -12399.983545 kJ/mol
# Density = 2.058595 g / cm^3
# Si number density = 20.632913 Si / 1000 Ang^3
#
#
#
# Elastic Constant Matrix: (Units=GPa)
#
#
# Indices 1 2 3 4 5 6 
#
# 1 70.1370 40.4031 35.8848 0.0000 0.0000 0.0000
# 2 40.4031 140.1599 86.9759 0.0000 0.0000 0.0000
# 3 35.8848 86.9759 114.7952 0.0000 0.0000 0.0000
# 4 0.0000 0.0000 0.0000 5.3342 0.0000 0.0000
# 5 0.0000 0.0000 0.0000 0.0000 21.9705 0.0000
# 6 0.0000 0.0000 0.0000 0.0000 0.0000 28.5588
#
#
#
# Elastic Compliance Matrix: (Units=1/GPa)
#
#
# Indices 1 2 3 4 5 6 
#
# 1 0.017678 -0.003146 -0.003143 0.000000 0.000000 0.000000
# 2 -0.003146 0.014026 -0.009643 0.000000 0.000000 0.000000
# 3 -0.003143 -0.009643 0.017000 0.000000 0.000000 0.000000
# 4 0.000000 0.000000 0.000000 0.187469 0.000000 0.000000
# 5 0.000000 0.000000 0.000000 0.000000 0.045516 0.000000
# 6 0.000000 0.000000 0.000000 0.000000 0.000000 0.035015
#
#
# Mechanical properties :
#
#
# Convention : Reuss Voigt Hill
#
# Bulk Modulus (GPa) = 59.38252 72.40216 65.89234
# Shear Modulus (GPa) = 14.11709 21.96127 18.03918
#
# Velocity S-wave (km/s) = 2.61856 3.26602 2.96005
# Velocity P-wave (km/s) = 6.16324 7.02776 6.60964
#
# Compressibility (1/GPa) = 0.01683997
#
# Stress axis : x y z
#
# Youngs Moduli (GPa) = 56.56799 71.29781 58.82360
#
# Poissons Ratio (x) = 0.22428 0.18486
# Poissons Ratio (y) = 0.17795 0.56726
# Poissons Ratio (z) = 0.17778 0.68755
#
# Static dielectric constant tensor:
#      x y z
#    x 3.646360 0.000000 0.000000 
#    y 0.000000 3.792150 0.000000 
#    z 0.000000 0.000000 3.744530 
# 
# 
# High freq. dielectric constant tensor:
#      x y z
#    x 1.803080 0.000000 0.000000 
#    y 0.000000 1.816070 0.000000 
#    z 0.000000 0.000000 1.814590 
# 
# From -- ./inp_files/28721.got.cif
#   From: 2010.03.12/outbox.cif.g09.slc.cpg/sg50_15_cif.got.tgz:28721.got - 2010.04.16 13:23:21.
