data_PCOD8205317
_publ_section_title
;
Structure prediction by ZEFSAII (Michael W. Deem and Ramdas Pophale) SiO2 
 PCOD8205317
Probable space group: P B A N
;
_chemical_formula_sum "Si O2"
_cell_formula_units_Z 58
_cell_length_a 8.689236
_cell_length_b 12.398266
_cell_length_c 25.813394
_cell_angle_alpha 90.000000
_cell_angle_beta 90.000000
_cell_angle_gamma 90.000000
_cell_volume 2780.914604
_symmetry_space_group_name_H-M "P B A N"
_symmetry_group_IT_number 50
_space_group.IT_coordinate_system_code '2'
_symmetry_cell_setting 'orthorhombic'
loop_
_space_group_symop_operation_xyz
x,y,z
1/2-x,1/2-y,z
x,1/2-y,-z
1/2-x,y,-z
-x,-y,-z
1/2+x,1/2+y,-z
-x,1/2+y,z
1/2+x,-y,z
loop_
_atom_site_type_symbol
_atom_site_label
_atom_site_fract_x
_atom_site_fract_y
_atom_site_fract_z
Si Si1 0.704646 0.130447 0.204884
Si Si2 0.772454 0.631071 0.662236
Si Si3 0.843917 0.581211 0.549021
Si Si4 0.194417 0.360449 0.901235
Si Si5 0.393429 0.926399 0.684148
Si Si6 0.750000 0.750000 0.000000
Si Si7 0.188442 0.633752 0.571509
Si Si8 0.945007 0.995228 0.148394
O O1 0.750000 0.250000 0.186573
O O2 0.679801 0.129885 0.266242
O O3 0.551914 0.095764 0.173891
O O4 0.841088 0.046605 0.193348
O O5 0.750000 0.750000 0.685136
O O6 0.775520 0.637705 0.599978
O O7 0.635240 0.554957 0.681706
O O8 0.924625 0.581375 0.686473
O O9 0.750000 0.628720 0.500000
O O10 0.816412 0.452190 0.553319
O O11 0.026008 0.603969 0.544135
O O12 0.250000 0.250000 0.872251
O O13 0.154929 0.330011 0.961506
O O14 0.336681 0.444034 0.896108
O O15 0.041031 0.407963 0.876829
O O16 0.326332 0.867160 0.633581
O O17 0.250000 0.750000 0.553367
#
# Coordination Sequence:
#
# PCOD8205317 Si02
#       8
#     8   8   8   8   8   2   8   8
#     4  11  22  37  60  90 117 165 197 243 302 356
#     4  10  23  41  62  86 120 159 191 252 303 346
#     4  10  22  41  63  90 121 151 201 249 301 374
#     4   9  19  38  56  86 118 158 201 251 295 353
#     4  10  22  40  61  89 123 152 210 244 290 367
#     4   8  20  36  64  82 118 168 204 246 312 344
#     4  10  22  40  64  91 122 161 192 253 305 351
#     4  10  21  36  60  84 126 156 199 251 301 348
#
# _framework density 20.856446999999999
#
# number of rings (size 3 to 8) (size 9 to 14) (size 15 to 20)
#    0.414    1.655    0.000    2.483    0.000   12.138 
#    0.000    7.586    0.000    1.655    0.000    0.000 
#    0.000    0.000    0.000    0.000    0.000    0.000 
#
# Total GULP energy -719046.531389 kJ/mol
# GULP energy per Si atom -12397.353989 kJ/mol
# Density = 2.080898 g / cm^3
# Si number density = 20.856447 Si / 1000 Ang^3
#
#
#
# Elastic Constant Matrix: (Units=GPa)
#
#
# Indices 1 2 3 4 5 6 
#
# 1 136.4241 71.6842 49.7025 0.0000 0.0000 0.0000
# 2 71.6842 139.7755 21.3405 0.0000 0.0000 0.0000
# 3 49.7025 21.3405 113.3102 0.0000 0.0000 0.0000
# 4 0.0000 0.0000 0.0000 -27.1068 0.0000 0.0000
# 5 0.0000 0.0000 0.0000 0.0000 19.5826 0.0000
# 6 0.0000 0.0000 0.0000 0.0000 0.0000 27.9948
#
#
#
# Elastic Compliance Matrix: (Units=1/GPa)
#
#
# Indices 1 2 3 4 5 6 
#
# 1 0.011626 -0.005337 -0.004095 0.000000 0.000000 0.000000
# 2 -0.005337 0.009816 0.000492 0.000000 0.000000 0.000000
# 3 -0.004095 0.000492 0.010529 0.000000 0.000000 0.000000
# 4 0.000000 0.000000 0.000000 -0.036891 0.000000 0.000000
# 5 0.000000 0.000000 0.000000 0.000000 0.051066 0.000000
# 6 0.000000 0.000000 0.000000 0.000000 0.000000 0.035721
#
#
# Mechanical properties :
#
#
# Convention : Reuss Voigt Hill
#
# Bulk Modulus (GPa) = 70.96084 74.99603 72.97844
# Shear Modulus (GPa) = 47.87266 20.54630 34.20948
#
# Velocity S-wave (km/s) = 4.79617 3.14208 4.05438
# Velocity P-wave (km/s) = 8.04788 7.01426 7.54878
#
# Compressibility (1/GPa) = 0.01409228
#
# Stress axis : x y z
#
# Youngs Moduli (GPa) = 86.01092 101.86932 94.97907
#
# Poissons Ratio (x) = 0.54373 0.38890
# Poissons Ratio (y) = 0.45908 -0.04677
# Poissons Ratio (z) = 0.35218 -0.05016
#
# Static dielectric constant tensor:
#      x y z
#    x 3.710430 0.000000 0.000000 
#    y 0.000000 3.755870 0.000000 
#    z 0.000000 0.000000 3.605950 
# 
# 
# High freq. dielectric constant tensor:
#      x y z
#    x 1.814790 0.000000 0.000000 
#    y 0.000000 1.822370 0.000000 
#    z 0.000000 0.000000 1.801250 
# 
# From -- ./inp_files/32461.got.cif
#   From: 2010.03.12/outbox.cif.g09.slc.cpg/sg50_17_cif.got.tgz:32461.got - 2010.04.16 13:23:21.
