data_PCOD8205146
_publ_section_title
;
Structure prediction by ZEFSAII (Michael W. Deem and Ramdas Pophale) SiO2 
 PCOD8205146
Probable space group: P B A N
;
_chemical_formula_sum "Si O2"
_cell_formula_units_Z 58
_cell_length_a 8.921893
_cell_length_b 12.472477
_cell_length_c 26.210017
_cell_angle_alpha 90.000000
_cell_angle_beta 90.000000
_cell_angle_gamma 90.000000
_cell_volume 2916.601030
_symmetry_space_group_name_H-M "P B A N"
_symmetry_group_IT_number 50
_space_group.IT_coordinate_system_code '2'
_symmetry_cell_setting 'orthorhombic'
loop_
_space_group_symop_operation_xyz
x,y,z
1/2-x,1/2-y,z
x,1/2-y,-z
1/2-x,y,-z
-x,-y,-z
1/2+x,1/2+y,-z
-x,1/2+y,z
1/2+x,-y,z
loop_
_atom_site_type_symbol
_atom_site_label
_atom_site_fract_x
_atom_site_fract_y
_atom_site_fract_z
Si Si1 0.221793 0.489126 0.888141
Si Si2 0.184185 0.133999 0.790860
Si Si3 0.603898 0.303332 0.842210
Si Si4 0.743456 0.622404 0.322991
Si Si5 0.460542 0.871345 0.077827
Si Si6 0.759593 0.125587 0.440270
Si Si7 0.250000 0.750000 0.000000
Si Si8 0.507563 0.996793 0.382213
O O1 0.233894 0.440779 0.831609
O O2 0.149233 0.607122 0.883407
O O3 0.387146 0.512712 0.908974
O O4 0.133564 0.411243 0.928410
O O5 0.250000 0.250000 0.796285
O O6 0.215340 0.085834 0.735206
O O7 0.005513 0.145897 0.800109
O O8 0.750000 0.250000 0.814886
O O9 0.526725 0.210140 0.875154
O O10 0.750000 0.750000 0.328741
O O11 0.605969 0.578354 0.355616
O O12 0.901540 0.572915 0.340753
O O13 0.367434 0.822942 0.031045
O O14 0.750000 0.250000 0.426583
O O15 0.750000 0.103994 0.500000
O O16 0.917643 0.082923 0.419217
O O17 0.620513 0.066069 0.415293
#
# Coordination Sequence:
#
# PCOD8205146 Si02
#       8
#     8   8   8   8   8   8   2   8
#     4  11  21  38  64  87 115 157 193 244 299 340
#     4  11  22  37  63  90 120 151 210 246 282 369
#     4  10  21  40  59  90 117 153 190 250 298 341
#     4  10  23  39  56  88 125 167 198 250 312 368
#     4  11  23  40  64  87 120 154 193 247 299 361
#     4  10  20  36  62  89 114 160 215 263 311 367
#     4  12  24  44  60  90 130 152 198 244 308 376
#     4  10  21  39  58  83 129 162 202 257 316 370
#
# _framework density 19.886161999999999
#
# number of rings (size 3 to 8) (size 9 to 14) (size 15 to 20)
#    0.000    1.517    4.828    1.241    1.931    0.552 
#    2.483    0.690    0.000    8.276    0.000    0.000 
#    0.000    0.000    0.000    0.000    0.000    0.000 
#
# Total GULP energy -718780.746711 kJ/mol
# GULP energy per Si atom -12392.771495 kJ/mol
# Density = 1.984090 g / cm^3
# Si number density = 19.886162 Si / 1000 Ang^3
#
#
#
# Elastic Constant Matrix: (Units=GPa)
#
#
# Indices 1 2 3 4 5 6 
#
# 1 99.0049 32.4908 37.5711 0.0000 0.0000 0.0000
# 2 32.4908 75.7428 38.2567 0.0000 0.0000 0.0000
# 3 37.5711 38.2567 97.8917 0.0000 0.0000 0.0000
# 4 0.0000 0.0000 0.0000 31.7806 0.0000 0.0000
# 5 0.0000 0.0000 0.0000 0.0000 49.4496 0.0000
# 6 0.0000 0.0000 0.0000 0.0000 0.0000 24.3876
#
#
#
# Elastic Compliance Matrix: (Units=1/GPa)
#
#
# Indices 1 2 3 4 5 6 
#
# 1 0.012599 -0.003691 -0.003393 0.000000 0.000000 0.000000
# 2 -0.003691 0.017531 -0.005435 0.000000 0.000000 0.000000
# 3 -0.003393 -0.005435 0.013642 0.000000 0.000000 0.000000
# 4 0.000000 0.000000 0.000000 0.031466 0.000000 0.000000
# 5 0.000000 0.000000 0.000000 0.000000 0.020223 0.000000
# 6 0.000000 0.000000 0.000000 0.000000 0.000000 0.041004
#
#
# Mechanical properties :
#
#
# Convention : Reuss Voigt Hill
#
# Bulk Modulus (GPa) = 53.37775 54.36410 53.87092
# Shear Modulus (GPa) = 29.80684 32.07828 30.94256
#
# Velocity S-wave (km/s) = 3.87573 4.02069 3.94888
# Velocity P-wave (km/s) = 6.85042 6.99654 6.92387
#
# Compressibility (1/GPa) = 0.01873440
#
# Stress axis : x y z
#
# Youngs Moduli (GPa) = 79.36859 57.04275 73.30509
#
# Poissons Ratio (x) = 0.21053 0.24875
# Poissons Ratio (y) = 0.29293 0.39838
# Poissons Ratio (z) = 0.26932 0.31000
#
# Static dielectric constant tensor:
#      x y z
#    x 2.761910 0.000000 0.000000 
#    y 0.000000 3.626860 0.000000 
#    z 0.000000 0.000000 3.580490 
# 
# 
# High freq. dielectric constant tensor:
#      x y z
#    x 1.790890 0.000000 0.000000 
#    y 0.000000 1.791380 0.000000 
#    z 0.000000 0.000000 1.754890 
# 
# From -- ./inp_files/32150.got.cif
#   From: 2010.03.12/outbox.cif.g09.slc.cpg/sg50_17_cif.got.tgz:32150.got - 2010.04.16 13:23:21.
