data_PCOD8205850
_publ_section_title
;
Structure prediction by ZEFSAII (Michael W. Deem and Ramdas Pophale) SiO2 
 PCOD8205850
Probable space group: P B A N
;
_chemical_formula_sum "Si O2"
_cell_formula_units_Z 48
_cell_length_a 14.201230
_cell_length_b 22.246777
_cell_length_c 6.927785
_cell_angle_alpha 90.000000
_cell_angle_beta 90.000000
_cell_angle_gamma 90.000000
_cell_volume 2188.706178
_symmetry_space_group_name_H-M "P B A N"
_symmetry_group_IT_number 50
_space_group.IT_coordinate_system_code '2'
_symmetry_cell_setting 'orthorhombic'
loop_
_space_group_symop_operation_xyz
x,y,z
1/2-x,1/2-y,z
x,1/2-y,-z
1/2-x,y,-z
-x,-y,-z
1/2+x,1/2+y,-z
-x,1/2+y,z
1/2+x,-y,z
loop_
_atom_site_type_symbol
_atom_site_label
_atom_site_fract_x
_atom_site_fract_y
_atom_site_fract_z
Si Si1 0.911671 0.567595 0.628302
Si Si2 0.666290 0.311959 0.884768
Si Si3 0.333710 0.188041 0.884768
Si Si4 0.088329 0.932405 0.628302
Si Si5 0.750000 0.844123 0.500000
Si Si6 0.250000 0.844123 0.500000
Si Si7 0.000000 0.108976 0.000000
O O1 0.879149 0.500000 0.574605
O O2 0.827088 0.613499 0.599394
O O3 0.000000 0.587669 0.500000
O O4 0.942898 0.567950 0.851725
O O5 0.700632 0.302431 0.663098
O O6 0.571343 0.349664 0.878832
O O7 0.648336 0.250000 0.000000
O O8 0.750000 0.346565 0.000000
O O9 0.299368 0.197569 0.663098
O O10 0.351664 0.250000 0.000000
O O11 0.250000 0.153435 0.000000
O O12 0.428657 0.150336 0.878832
O O13 0.172912 0.886501 0.599394
O O14 0.057102 0.932050 0.851725
#
# Coordination Sequence:
#
# PCOD8205850 Si02
#       7
#     8   8   8   8   4   4   8
#     4  11  24  42  69 103 137 177 222 274 336 398
#     4  11  25  43  69  97 133 175 227 273 337 393
#     4  11  25  43  69  97 133 175 227 273 337 393
#     4  11  24  42  69 103 137 177 222 274 336 398
#     4  12  23  47  70  98 138 176 220 286 328 398
#     4  12  23  47  70  98 138 176 220 286 328 398
#     4  12  22  46  68 100 136 178 220 278 328 402
#
# _framework density 21.930762999999999
#
# number of rings (size 3 to 8) (size 9 to 14) (size 15 to 20)
#    0.000    0.667    6.667    1.500    0.000    2.667 
#    0.000    1.667    0.000    0.000    0.000    0.000 
#    0.000    0.000    0.000    0.000    0.000    0.000 
#
# Total GULP energy -595040.244741 kJ/mol
# GULP energy per Si atom -12396.671765 kJ/mol
# Density = 2.188085 g / cm^3
# Si number density = 21.930763 Si / 1000 Ang^3
#
#
#
# Elastic Constant Matrix: (Units=GPa)
#
#
# Indices 1 2 3 4 5 6 
#
# 1 79.5296 20.8111 19.8882 0.0000 0.0000 0.0000
# 2 20.8111 73.7782 23.2913 0.0000 0.0000 0.0000
# 3 19.8882 23.2913 143.3069 0.0000 0.0000 0.0000
# 4 0.0000 0.0000 0.0000 9.4777 0.0000 0.0000
# 5 0.0000 0.0000 0.0000 0.0000 47.7919 0.0000
# 6 0.0000 0.0000 0.0000 0.0000 0.0000 33.0792
#
#
#
# Elastic Compliance Matrix: (Units=1/GPa)
#
#
# Indices 1 2 3 4 5 6 
#
# 1 0.013821 -0.003471 -0.001354 0.000000 0.000000 0.000000
# 2 -0.003471 0.015159 -0.001982 0.000000 0.000000 0.000000
# 3 -0.001354 -0.001982 0.007488 0.000000 0.000000 0.000000
# 4 0.000000 0.000000 0.000000 0.105511 0.000000 0.000000
# 5 0.000000 0.000000 0.000000 0.000000 0.020924 0.000000
# 6 0.000000 0.000000 0.000000 0.000000 0.000000 0.030230
#
#
# Mechanical properties :
#
#
# Convention : Reuss Voigt Hill
#
# Bulk Modulus (GPa) = 43.75645 47.17730 45.46688
# Shear Modulus (GPa) = 23.32464 33.57804 28.45134
#
# Velocity S-wave (km/s) = 3.26476 3.91716 3.60575
# Velocity P-wave (km/s) = 5.84867 6.48209 6.17351
#
# Compressibility (1/GPa) = 0.02285377
#
# Stress axis : x y z
#
# Youngs Moduli (GPa) = 72.35463 65.96752 133.54599
#
# Poissons Ratio (x) = 0.22898 0.18081
# Poissons Ratio (y) = 0.25115 0.26469
# Poissons Ratio (z) = 0.09796 0.13075
#
# Static dielectric constant tensor:
#      x y z
#    x 4.169940 0.000000 0.000000 
#    y 0.000000 3.569180 0.000000 
#    z 0.000000 0.000000 4.136970 
# 
# 
# High freq. dielectric constant tensor:
#      x y z
#    x 1.870780 0.000000 0.000000 
#    y 0.000000 1.841480 0.000000 
#    z 0.000000 0.000000 1.878640 
# 
# From -- ./inp_files/3616.got.cif
#   From: 2010.03.12/outbox.cif.g09.slc.cpg/sg50_2_cif.got.tgz:3616.got - 2010.04.16 13:23:21.
