data_PCOD8205013
_publ_section_title
;
Structure prediction by ZEFSAII (Michael W. Deem and Ramdas Pophale) SiO2 
 PCOD8205013
Probable space group: P B A N
;
_chemical_formula_sum "Si O2"
_cell_formula_units_Z 56
_cell_length_a 16.088888
_cell_length_b 14.300481
_cell_length_c 10.861170
_cell_angle_alpha 90.000000
_cell_angle_beta 90.000000
_cell_angle_gamma 90.000000
_cell_volume 2498.925364
_symmetry_space_group_name_H-M "P B A N"
_symmetry_group_IT_number 50
_space_group.IT_coordinate_system_code '2'
_symmetry_cell_setting 'orthorhombic'
loop_
_space_group_symop_operation_xyz
x,y,z
1/2-x,1/2-y,z
x,1/2-y,-z
1/2-x,y,-z
-x,-y,-z
1/2+x,1/2+y,-z
-x,1/2+y,z
1/2+x,-y,z
loop_
_atom_site_type_symbol
_atom_site_label
_atom_site_fract_x
_atom_site_fract_y
_atom_site_fract_z
Si Si1 0.086559 0.155402 0.568034
Si Si2 0.978301 0.924362 0.825039
Si Si3 0.715648 0.852665 0.768662
Si Si4 0.147968 0.025269 0.370494
Si Si5 0.894847 0.323488 0.392309
Si Si6 0.545748 0.228617 0.134944
Si Si7 0.412443 0.430117 0.920370
O O1 0.111840 0.250000 0.500000
O O2 0.127078 0.158692 0.701307
O O3 0.133879 0.070245 0.502862
O O4 0.988041 0.143119 0.576321
O O5 0.938779 0.960996 0.699888
O O6 0.988330 0.813541 0.819196
O O7 0.914824 0.951631 0.934584
O O8 0.067440 0.974637 0.845090
O O9 0.750000 0.750000 0.792829
O O10 0.778168 0.922676 0.701337
O O11 0.682207 0.896954 0.896090
O O12 0.164993 0.914814 0.393271
O O13 0.866001 0.250000 0.500000
O O14 0.890515 0.285560 0.250316
O O15 0.486467 0.141084 0.113595
O O16 0.588891 0.250000 0.000000
#
# Coordination Sequence:
#
# PCOD8205013 Si02
#       7
#     8   8   8   8   8   8   8
#     4  11  21  38  62  89 126 173 216 264 328 395
#     4  10  20  38  65  91 123 168 219 266 316 379
#     4  12  23  38  62  93 138 174 204 256 347 420
#     4  12  23  36  62  92 130 171 211 268 330 390
#     4  11  23  40  64  96 128 166 237 288 313 378
#     4  10  19  37  64  93 124 164 214 271 328 381
#     4  10  21  39  61  94 129 166 214 264 322 402
#
# _framework density 22.409632999999999
#
# number of rings (size 3 to 8) (size 9 to 14) (size 15 to 20)
#    0.000    1.143    4.286    3.429    0.000    1.714 
#    0.000    0.714    0.000    6.000    0.000    1.000 
#    0.000    0.000    0.000    0.000    0.000    0.000 
#
# Total GULP energy -694028.134226 kJ/mol
# GULP energy per Si atom -12393.359540 kJ/mol
# Density = 2.235863 g / cm^3
# Si number density = 22.409633 Si / 1000 Ang^3
#
#
#
# Elastic Constant Matrix: (Units=GPa)
#
#
# Indices 1 2 3 4 5 6 
#
# 1 53.5497 27.5451 11.8609 0.0000 0.0000 0.0000
# 2 27.5451 105.5352 34.1613 0.0000 0.0000 0.0000
# 3 11.8609 34.1613 103.9488 0.0000 0.0000 0.0000
# 4 0.0000 0.0000 0.0000 34.8467 0.0000 0.0000
# 5 0.0000 0.0000 0.0000 0.0000 34.8102 0.0000
# 6 0.0000 0.0000 0.0000 0.0000 0.0000 15.5285
#
#
#
# Elastic Compliance Matrix: (Units=1/GPa)
#
#
# Indices 1 2 3 4 5 6 
#
# 1 0.021614 -0.005419 -0.000685 0.000000 0.000000 0.000000
# 2 -0.005419 0.011962 -0.003313 0.000000 0.000000 0.000000
# 3 -0.000685 -0.003313 0.010787 0.000000 0.000000 0.000000
# 4 0.000000 0.000000 0.000000 0.028697 0.000000 0.000000
# 5 0.000000 0.000000 0.000000 0.000000 0.028727 0.000000
# 6 0.000000 0.000000 0.000000 0.000000 0.000000 0.064398
#
#
# Mechanical properties :
#
#
# Convention : Reuss Voigt Hill
#
# Bulk Modulus (GPa) = 39.17257 45.57426 42.37341
# Shear Modulus (GPa) = 25.83586 29.66818 27.75202
#
# Velocity S-wave (km/s) = 3.39911 3.64250 3.52290
# Velocity P-wave (km/s) = 5.73789 6.17020 5.95797
#
# Compressibility (1/GPa) = 0.02552807
#
# Stress axis : x y z
#
# Youngs Moduli (GPa) = 46.26695 83.59535 92.70392
#
# Poissons Ratio (x) = 0.45304 0.06352
# Poissons Ratio (y) = 0.25074 0.30712
# Poissons Ratio (z) = 0.03170 0.27694
#
# Static dielectric constant tensor:
#      x y z
#    x 3.513540 0.000000 0.000000 
#    y 0.000000 3.839230 0.000000 
#    z 0.000000 0.000000 4.708150 
# 
# 
# High freq. dielectric constant tensor:
#      x y z
#    x 1.828940 0.000000 0.000000 
#    y 0.000000 1.893950 0.000000 
#    z 0.000000 0.000000 1.901910 
# 
# From -- ./inp_files/21170.got.cif
#   From: 2010.03.12/outbox.cif.g09.slc.cpg/sg50_11_cif.got.tgz:21170.got - 2010.04.16 13:23:21.
