data_PCOD8205357
_publ_section_title
;
Structure prediction by ZEFSAII (Michael W. Deem and Ramdas Pophale) SiO2 
 PCOD8205357
Probable space group: P B A N
;
_chemical_formula_sum "Si O2"
_cell_formula_units_Z 56
_cell_length_a 5.111615
_cell_length_b 23.980782
_cell_length_c 22.707025
_cell_angle_alpha 90.000000
_cell_angle_beta 90.000000
_cell_angle_gamma 90.000000
_cell_volume 2783.439045
_symmetry_space_group_name_H-M "P B A N"
_symmetry_group_IT_number 50
_space_group.IT_coordinate_system_code '2'
_symmetry_cell_setting 'orthorhombic'
loop_
_space_group_symop_operation_xyz
x,y,z
1/2-x,1/2-y,z
x,1/2-y,-z
1/2-x,y,-z
-x,-y,-z
1/2+x,1/2+y,-z
-x,1/2+y,z
1/2+x,-y,z
loop_
_atom_site_type_symbol
_atom_site_label
_atom_site_fract_x
_atom_site_fract_y
_atom_site_fract_z
Si Si1 0.560309 0.976056 0.565000
Si Si2 0.221554 0.120130 0.832620
Si Si3 0.286873 0.685230 0.794397
Si Si4 0.752042 0.185728 0.656359
Si Si5 0.195156 0.035931 0.270259
Si Si6 0.255720 0.464028 0.068563
Si Si7 0.743996 0.877779 0.374397
O O1 0.666083 0.912282 0.566764
O O2 0.500000 0.000000 0.500000
O O3 0.280576 0.984485 0.597467
O O4 0.444891 0.166356 0.824446
O O5 0.263962 0.067910 0.790372
O O6 0.227984 0.095040 0.898240
O O7 0.946140 0.149506 0.821366
O O8 0.250000 0.750000 0.808555
O O9 0.310646 0.674820 0.724573
O O10 0.750000 0.250000 0.639442
O O11 0.536540 0.151954 0.617971
O O12 0.043568 0.168576 0.639981
O O13 0.250375 0.077231 0.323301
O O14 0.398071 0.985063 0.273190
O O15 0.524136 0.494090 0.086426
O O16 0.250000 0.448884 0.000000
#
# Coordination Sequence:
#
# PCOD8205357 Si02
#       7
#     8   8   8   8   8   8   8
#     4  10  21  38  59  86 117 154 196 227 276 345
#     4  12  21  37  57  82 113 153 196 238 304 345
#     4  11  22  38  57  81 114 154 201 239 290 360
#     4  11  22  38  57  84 118 157 200 241 289 349
#     4  12  22  32  49  80 118 148 180 229 286 349
#     4  10  21  38  59  83 112 150 196 243 293 358
#     4  12  21  37  57  85 120 157 190 240 286 345
#
# _framework density 20.118998000000001
#
# number of rings (size 3 to 8) (size 9 to 14) (size 15 to 20)
#    0.000    0.857    2.857    6.000    0.000    2.286 
#    0.000    0.000    0.000    2.571    0.000   30.000 
#    0.000    0.000    0.000    0.000    0.000    0.000 
#
# Total GULP energy -694365.986202 kJ/mol
# GULP energy per Si atom -12399.392611 kJ/mol
# Density = 2.007321 g / cm^3
# Si number density = 20.118998 Si / 1000 Ang^3
#
#
#
# Elastic Constant Matrix: (Units=GPa)
#
#
# Indices 1 2 3 4 5 6 
#
# 1 104.2968 25.0412 9.5653 0.0000 0.0000 0.0000
# 2 25.0412 104.5136 37.7652 0.0000 0.0000 0.0000
# 3 9.5653 37.7652 57.9135 0.0000 0.0000 0.0000
# 4 0.0000 0.0000 0.0000 27.0760 0.0000 0.0000
# 5 0.0000 0.0000 0.0000 0.0000 10.0989 0.0000
# 6 0.0000 0.0000 0.0000 0.0000 0.0000 45.2393
#
#
#
# Elastic Compliance Matrix: (Units=1/GPa)
#
#
# Indices 1 2 3 4 5 6 
#
# 1 0.010174 -0.002395 -0.000119 0.000000 0.000000 0.000000
# 2 -0.002395 0.013081 -0.008135 0.000000 0.000000 0.000000
# 3 -0.000119 -0.008135 0.022591 0.000000 0.000000 0.000000
# 4 0.000000 0.000000 0.000000 0.036933 0.000000 0.000000
# 5 0.000000 0.000000 0.000000 0.000000 0.099021 0.000000
# 6 0.000000 0.000000 0.000000 0.000000 0.000000 0.022105
#
#
# Mechanical properties :
#
#
# Convention : Reuss Voigt Hill
#
# Bulk Modulus (GPa) = 40.73309 45.71861 43.22585
# Shear Modulus (GPa) = 21.42381 29.43966 25.43173
#
# Velocity S-wave (km/s) = 3.26675 3.82943 3.55923
# Velocity P-wave (km/s) = 5.87528 6.50585 6.19859
#
# Compressibility (1/GPa) = 0.02455006
#
# Stress axis : x y z
#
# Youngs Moduli (GPa) = 98.29094 76.44479 44.26460
#
# Poissons Ratio (x) = 0.18306 0.00526
# Poissons Ratio (y) = 0.23538 0.36008
# Poissons Ratio (z) = 0.01168 0.62186
#
# Static dielectric constant tensor:
#      x y z
#    x 3.325710 0.000000 0.000000 
#    y 0.000000 3.784050 0.000000 
#    z 0.000000 0.000000 3.531780 
# 
# 
# High freq. dielectric constant tensor:
#      x y z
#    x 1.817430 0.000000 0.000000 
#    y 0.000000 1.784930 0.000000 
#    z 0.000000 0.000000 1.759730 
# 
# From -- ./inp_files/31505.got.cif
#   From: 2010.03.12/outbox.cif.g09.slc.cpg/sg50_16_cif.got.tgz:31505.got - 2010.04.16 13:23:21.
