data_PCOD8205987
_publ_section_title
;
Structure prediction by ZEFSAII (Michael W. Deem and Ramdas Pophale) SiO2 
 PCOD8205987
Probable space group: P M M A
;
_chemical_formula_sum "Si O2"
_cell_formula_units_Z 64
_cell_length_a 17.786857
_cell_length_b 13.161157
_cell_length_c 15.692124
_cell_angle_alpha 90.000000
_cell_angle_beta 90.000000
_cell_angle_gamma 90.000000
_cell_volume 3673.457458
_symmetry_space_group_name_H-M "P M M A"
_symmetry_group_IT_number 51
_symmetry_cell_setting 'orthorhombic'
loop_
_space_group_symop_operation_xyz
x,y,z
1/2-x,-y,z
1/2+x,-y,-z
-x,y,-z
-x,-y,-z
1/2+x,y,-z
1/2-x,y,z
x,-y,z
loop_
_atom_site_type_symbol
_atom_site_label
_atom_site_fract_x
_atom_site_fract_y
_atom_site_fract_z
Si Si1 0.441345 0.266543 0.071623
Si Si2 0.334844 0.885496 0.834492
Si Si3 0.434553 0.206725 0.690415
Si Si4 0.404918 0.882424 0.336967
Si Si5 0.335888 0.314448 0.934559
Si Si6 0.587806 0.113147 0.480217
Si Si7 0.833479 0.117903 0.835418
Si Si8 0.949180 0.614930 0.194260
O O1 0.400425 0.171608 0.114533
O O2 0.482130 0.333972 0.142847
O O3 0.500000 0.227145 0.000000
O O4 0.377776 0.334217 0.024315
O O5 0.250000 0.874535 0.798654
O O6 0.392581 0.863145 0.759018
O O7 0.346100 0.805452 0.911336
O O8 0.349073 0.000000 0.869082
O O9 0.521391 0.178302 0.689395
O O10 0.395570 0.190207 0.597877
O O11 0.431221 0.324675 0.718385
O O12 0.373343 0.849591 0.430974
O O13 0.341501 0.863081 0.266136
O O14 0.428647 0.000000 0.342716
O O15 0.250000 0.347835 0.943130
O O16 0.373753 0.383869 0.862377
O O17 0.500000 0.110635 0.500000
O O18 0.615774 0.000000 0.454103
O O19 0.750000 0.157328 0.861898
O O20 0.841129 0.000000 0.857070
O O21 0.970733 0.500000 0.217891
#
# Coordination Sequence:
#
# PCOD8205987 Si02
#       8
#     8   8   8   8   8   8   8   8
#     4  10  20  35  51  73  96 128 168 211 254 298
#     4   9  17  28  43  67 100 131 155 186 232 288
#     4  10  16  29  49  69  93 129 163 196 240 292
#     4   9  16  28  48  74  99 130 166 192 227 284
#     4   9  19  33  50  71  96 127 164 202 250 306
#     4   8  14  24  44  74 101 125 158 196 228 273
#     4  10  20  33  50  75 107 138 165 197 241 296
#     4  10  21  35  51  71  96 124 163 218 264 295
#
# _framework density 17.422279
#
# number of rings (size 3 to 8) (size 9 to 14) (size 15 to 20)
#    0.000    2.625    1.250    2.250    0.000    3.250 
#    0.000    1.875    0.000    6.750    0.000    0.000 
#    0.000    0.000    0.000    0.000    0.000    0.000 
#
# Total GULP energy -793148.064812 kJ/mol
# GULP energy per Si atom -12392.938513 kJ/mol
# Density = 1.738262 g / cm^3
# Si number density = 17.422279 Si / 1000 Ang^3
#
#
#
# Elastic Constant Matrix: (Units=GPa)
#
#
# Indices 1 2 3 4 5 6 
#
# 1 79.8428 27.0504 28.8578 0.0000 0.0000 0.0000
# 2 27.0504 84.9857 38.2667 0.0000 0.0000 0.0000
# 3 28.8578 38.2667 95.3420 0.0000 0.0000 0.0000
# 4 0.0000 0.0000 0.0000 12.4300 0.0000 0.0000
# 5 0.0000 0.0000 0.0000 0.0000 16.3445 0.0000
# 6 0.0000 0.0000 0.0000 0.0000 0.0000 12.7347
#
#
#
# Elastic Compliance Matrix: (Units=1/GPa)
#
#
# Indices 1 2 3 4 5 6 
#
# 1 0.014777 -0.003283 -0.003155 0.000000 0.000000 0.000000
# 2 -0.003283 0.015092 -0.005064 0.000000 0.000000 0.000000
# 3 -0.003155 -0.005064 0.013476 0.000000 0.000000 0.000000
# 4 0.000000 0.000000 0.000000 0.080451 0.000000 0.000000
# 5 0.000000 0.000000 0.000000 0.000000 0.061183 0.000000
# 6 0.000000 0.000000 0.000000 0.000000 0.000000 0.078526
#
#
# Mechanical properties :
#
#
# Convention : Reuss Voigt Hill
#
# Bulk Modulus (GPa) = 49.16027 49.83560 49.49793
# Shear Modulus (GPa) = 17.04813 19.36821 18.20817
#
# Velocity S-wave (km/s) = 3.13153 3.33782 3.23632
# Velocity P-wave (km/s) = 6.43067 6.59707 6.51440
#
# Compressibility (1/GPa) = 0.02034163
#
# Stress axis : x y z
#
# Youngs Moduli (GPa) = 67.67199 66.26218 74.20679
#
# Poissons Ratio (x) = 0.21753 0.23413
# Poissons Ratio (y) = 0.22215 0.37575
# Poissons Ratio (z) = 0.21351 0.33552
#
# Static dielectric constant tensor:
#      x y z
#    x 3.260560 0.000000 0.000000 
#    y 0.000000 2.930200 0.000000 
#    z 0.000000 0.000000 3.598250 
# 
# 
# High freq. dielectric constant tensor:
#      x y z
#    x 1.666710 0.000000 0.000000 
#    y 0.000000 1.633940 0.000000 
#    z 0.000000 0.000000 1.673880 
# 
# From -- ./inp_files/30322.got.cif
#   From: 2010.03.12/outbox.cif.g09.slc.cpg/sg51_16_cif.got.tgz:30322.got - 2010.04.16 13:43:02.
