data_PCOD8205496
_publ_section_title
;
Structure prediction by ZEFSAII (Michael W. Deem and Ramdas Pophale) SiO2 
 PCOD8205496
Probable space group: P B A N
;
_chemical_formula_sum "Si O2"
_cell_formula_units_Z 64
_cell_length_a 8.307682
_cell_length_b 24.297552
_cell_length_c 13.889254
_cell_angle_alpha 90.000000
_cell_angle_beta 90.000000
_cell_angle_gamma 90.000000
_cell_volume 2803.633914
_symmetry_space_group_name_H-M "P B A N"
_symmetry_group_IT_number 50
_space_group.IT_coordinate_system_code '2'
_symmetry_cell_setting 'orthorhombic'
loop_
_space_group_symop_operation_xyz
x,y,z
1/2-x,1/2-y,z
x,1/2-y,-z
1/2-x,y,-z
-x,-y,-z
1/2+x,1/2+y,-z
-x,1/2+y,z
1/2+x,-y,z
loop_
_atom_site_type_symbol
_atom_site_label
_atom_site_fract_x
_atom_site_fract_y
_atom_site_fract_z
Si Si1 0.913407 0.126196 0.442684
Si Si2 0.460279 0.631602 0.201654
Si Si3 0.937537 0.758822 0.110822
Si Si4 0.095286 0.415580 0.394013
Si Si5 0.165163 0.534556 0.903700
Si Si6 0.595733 0.166664 0.761488
Si Si7 0.011529 0.946515 0.826489
Si Si8 0.429154 0.474930 0.371636
O O1 0.750000 0.138902 0.500000
O O2 0.942490 0.169330 0.353926
O O3 0.060089 0.128535 0.520571
O O4 0.917833 0.065336 0.393824
O O5 0.542638 0.678461 0.139660
O O6 0.569943 0.615734 0.293608
O O7 0.463628 0.579877 0.129517
O O8 0.283843 0.652729 0.231611
O O9 0.750000 0.750000 0.124483
O O10 0.046049 0.722269 0.183979
O O11 0.993430 0.750000 0.000000
O O12 0.267832 0.444503 0.407641
O O13 0.961878 0.464152 0.413652
O O14 0.304033 0.534912 0.822974
O O15 0.081298 0.474094 0.918353
O O16 0.250000 0.555585 0.000000
O O17 0.491216 0.118969 0.815272
O O18 0.922050 0.980806 0.742825
#
# Coordination Sequence:
#
# PCOD8205496 Si02
#       8
#     8   8   8   8   8   8   8   8
#     4  11  22  41  68 101 141 185 236 287 344 423
#     4  11  25  42  73  98 137 181 239 289 352 427
#     4  11  28  52  78 107 132 178 241 304 366 427
#     4  12  23  40  65 104 143 196 241 281 355 414
#     4  11  23  39  61 103 140 185 232 281 364 434
#     4  10  24  46  71 102 139 183 237 296 350 417
#     4  10  22  39  62  95 143 185 221 288 349 419
#     4  11  23  38  62  97 148 189 236 283 334 426
#
# _framework density 22.827517
#
# number of rings (size 3 to 8) (size 9 to 14) (size 15 to 20)
#    0.000    1.125    2.500    3.000    8.750    0.500 
#    2.250    0.625    0.000    0.750    0.000    0.000 
#    0.000    0.000    0.000    0.000    0.000    0.000 
#
# Total GULP energy -792983.464750 kJ/mol
# GULP energy per Si atom -12390.366637 kJ/mol
# Density = 2.277556 g / cm^3
# Si number density = 22.827517 Si / 1000 Ang^3
#
#
#
# Elastic Constant Matrix: (Units=GPa)
#
#
# Indices 1 2 3 4 5 6 
#
# 1 77.4620 25.0802 18.9555 0.0000 0.0000 0.0000
# 2 25.0802 77.5107 46.1783 0.0000 0.0000 0.0000
# 3 18.9555 46.1783 119.5000 0.0000 0.0000 0.0000
# 4 0.0000 0.0000 0.0000 36.7219 0.0000 0.0000
# 5 0.0000 0.0000 0.0000 0.0000 22.7914 0.0000
# 6 0.0000 0.0000 0.0000 0.0000 0.0000 29.1705
#
#
#
# Elastic Compliance Matrix: (Units=1/GPa)
#
#
# Indices 1 2 3 4 5 6 
#
# 1 0.014457 -0.004302 -0.000631 0.000000 0.000000 0.000000
# 2 -0.004302 0.018040 -0.006289 0.000000 0.000000 0.000000
# 3 -0.000631 -0.006289 0.010898 0.000000 0.000000 0.000000
# 4 0.000000 0.000000 0.000000 0.027232 0.000000 0.000000
# 5 0.000000 0.000000 0.000000 0.000000 0.043876 0.000000
# 6 0.000000 0.000000 0.000000 0.000000 0.000000 0.034281
#
#
# Mechanical properties :
#
#
# Convention : Reuss Voigt Hill
#
# Bulk Modulus (GPa) = 47.72781 50.54453 49.13617
# Shear Modulus (GPa) = 28.05651 30.02067 29.03859
#
# Velocity S-wave (km/s) = 3.50961 3.63038 3.57050
# Velocity P-wave (km/s) = 6.11363 6.30578 6.21045
#
# Compressibility (1/GPa) = 0.02095215
#
# Stress axis : x y z
#
# Youngs Moduli (GPa) = 69.17171 55.43193 91.75616
#
# Poissons Ratio (x) = 0.23847 0.05788
# Poissons Ratio (y) = 0.29758 0.57704
# Poissons Ratio (z) = 0.04363 0.34860
#
# Static dielectric constant tensor:
#      x y z
#    x 4.216150 0.000000 0.000000 
#    y 0.000000 3.960780 0.000000 
#    z 0.000000 0.000000 4.382750 
# 
# 
# High freq. dielectric constant tensor:
#      x y z
#    x 1.902180 0.000000 0.000000 
#    y 0.000000 1.866370 0.000000 
#    z 0.000000 0.000000 1.922490 
# 
# From -- ./inp_files/25403.got.cif
#   From: 2010.03.12/outbox.cif.g09.slc.cpg/sg50_13_cif.got.tgz:25403.got - 2010.04.16 13:23:21.
