data_PCOD8205464
_publ_section_title
;
Structure prediction by ZEFSAII (Michael W. Deem and Ramdas Pophale) SiO2 
 PCOD8205464
Probable space group: P B A N
;
_chemical_formula_sum "Si O2"
_cell_formula_units_Z 48
_cell_length_a 18.895141
_cell_length_b 9.647399
_cell_length_c 12.703164
_cell_angle_alpha 90.000000
_cell_angle_beta 90.000000
_cell_angle_gamma 90.000000
_cell_volume 2315.646610
_symmetry_space_group_name_H-M "P B A N"
_symmetry_group_IT_number 50
_space_group.IT_coordinate_system_code '2'
_symmetry_cell_setting 'orthorhombic'
loop_
_space_group_symop_operation_xyz
x,y,z
1/2-x,1/2-y,z
x,1/2-y,-z
1/2-x,y,-z
-x,-y,-z
1/2+x,1/2+y,-z
-x,1/2+y,z
1/2+x,-y,z
loop_
_atom_site_type_symbol
_atom_site_label
_atom_site_fract_x
_atom_site_fract_y
_atom_site_fract_z
Si Si1 0.026835 0.539496 0.884784
Si Si2 0.750000 0.750000 0.000000
Si Si3 0.009407 0.285690 0.742105
Si Si4 0.250000 0.750000 0.779234
Si Si5 0.188101 0.487663 0.862505
Si Si6 0.250000 0.250000 0.500000
Si Si7 0.855905 0.605760 0.350076
Si Si8 0.623897 0.204494 0.382312
O O1 0.993166 0.681026 0.841113
O O2 0.111684 0.552829 0.888591
O O3 0.001889 0.433117 0.796836
O O4 0.000000 0.500000 0.000000
O O5 0.798718 0.642195 0.062134
O O6 0.949221 0.271746 0.654662
O O7 0.083362 0.281142 0.677123
O O8 0.244839 0.615434 0.857735
O O9 0.317815 0.746557 0.702619
O O10 0.193083 0.417285 0.749955
O O11 0.198281 0.347813 0.562971
O O12 0.889756 0.459739 0.384435
O O13 0.645070 0.250000 0.500000
#
# Coordination Sequence:
#
# PCOD8205464 Si02
#       8
#     8   2   8   4   8   2   8   8
#     4  11  24  44  71 100 133 184 234 285 358 414
#     4  12  26  42  68  94 144 182 214 310 348 416
#     4  11  22  47  67 101 142 169 232 299 327 421
#     4  10  21  47  66  98 142 178 235 289 334 420
#     4  10  24  46  64 102 137 179 236 282 353 418
#     4  12  26  44  70  98 140 194 226 282 352 426
#     4  10  25  45  65 102 138 177 239 279 347 420
#     4  11  24  42  70 101 138 183 233 282 353 412
#
# _framework density 20.728549999999998
#
# number of rings (size 3 to 8) (size 9 to 14) (size 15 to 20)
#    0.000    1.333    5.000    1.250   10.500    3.667 
#    3.000    0.000    0.000    0.000    0.000    0.000 
#    0.000    0.000    0.000    0.000    0.000    0.000 
#
# Total GULP energy -594846.645842 kJ/mol
# GULP energy per Si atom -12392.638455 kJ/mol
# Density = 2.068137 g / cm^3
# Si number density = 20.728550 Si / 1000 Ang^3
#
#
#
# Elastic Constant Matrix: (Units=GPa)
#
#
# Indices 1 2 3 4 5 6 
#
# 1 117.8187 66.2327 44.5213 0.0000 0.0000 0.0000
# 2 66.2327 112.2089 40.4113 0.0000 0.0000 0.0000
# 3 44.5213 40.4113 101.4691 0.0000 0.0000 0.0000
# 4 0.0000 0.0000 0.0000 82.4753 0.0000 0.0000
# 5 0.0000 0.0000 0.0000 0.0000 21.9429 0.0000
# 6 0.0000 0.0000 0.0000 0.0000 0.0000 29.6100
#
#
#
# Elastic Compliance Matrix: (Units=1/GPa)
#
#
# Indices 1 2 3 4 5 6 
#
# 1 0.013548 -0.006837 -0.003222 0.000000 0.000000 0.000000
# 2 -0.006837 0.013854 -0.002518 0.000000 0.000000 0.000000
# 3 -0.003222 -0.002518 0.012272 0.000000 0.000000 0.000000
# 4 0.000000 0.000000 0.000000 0.012125 0.000000 0.000000
# 5 0.000000 0.000000 0.000000 0.000000 0.045573 0.000000
# 6 0.000000 0.000000 0.000000 0.000000 0.000000 0.033772
#
#
# Mechanical properties :
#
#
# Convention : Reuss Voigt Hill
#
# Bulk Modulus (GPa) = 68.86390 70.42526 69.64458
# Shear Modulus (GPa) = 31.02938 38.82775 34.92857
#
# Velocity S-wave (km/s) = 3.87323 4.33269 4.10938
# Velocity P-wave (km/s) = 7.30044 7.68624 7.49582
#
# Compressibility (1/GPa) = 0.01452140
#
# Stress axis : x y z
#
# Youngs Moduli (GPa) = 73.80925 72.17997 81.48916
#
# Poissons Ratio (x) = 0.49348 0.26254
# Poissons Ratio (y) = 0.50462 0.20518
# Poissons Ratio (z) = 0.23779 0.18174
#
# Static dielectric constant tensor:
#      x y z
#    x 3.823010 0.000000 0.000000 
#    y 0.000000 3.908000 0.000000 
#    z 0.000000 0.000000 3.758510 
# 
# 
# High freq. dielectric constant tensor:
#      x y z
#    x 1.809020 0.000000 0.000000 
#    y 0.000000 1.819100 0.000000 
#    z 0.000000 0.000000 1.821600 
# 
# From -- ./inp_files/26914.got.cif
#   From: 2010.03.12/outbox.cif.g09.slc.cpg/sg50_14_cif.got.tgz:26914.got - 2010.04.16 13:23:21.
