data_PCOD8205653
_publ_section_title
;
Structure prediction by ZEFSAII (Michael W. Deem and Ramdas Pophale) SiO2 
 PCOD8205653
Probable space group: P B A N
;
_chemical_formula_sum "Si O2"
_cell_formula_units_Z 64
_cell_length_a 15.433451
_cell_length_b 17.267799
_cell_length_c 11.487557
_cell_angle_alpha 90.000000
_cell_angle_beta 90.000000
_cell_angle_gamma 90.000000
_cell_volume 3061.453811
_symmetry_space_group_name_H-M "P B A N"
_symmetry_group_IT_number 50
_space_group.IT_coordinate_system_code '2'
_symmetry_cell_setting 'orthorhombic'
loop_
_space_group_symop_operation_xyz
x,y,z
1/2-x,1/2-y,z
x,1/2-y,-z
1/2-x,y,-z
-x,-y,-z
1/2+x,1/2+y,-z
-x,1/2+y,z
1/2+x,-y,z
loop_
_atom_site_type_symbol
_atom_site_label
_atom_site_fract_x
_atom_site_fract_y
_atom_site_fract_z
Si Si1 0.846304 0.237010 0.635540
Si Si2 0.329094 0.568895 0.296724
Si Si3 0.652884 0.998125 0.684158
Si Si4 0.421164 0.451414 0.454846
Si Si5 0.022849 0.865565 0.711770
Si Si6 0.158394 0.896026 0.032397
Si Si7 0.020909 0.334729 0.968475
Si Si8 0.164852 0.057743 0.928229
O O1 0.750000 0.250000 0.687619
O O2 0.848618 0.250000 0.500000
O O3 0.872014 0.148067 0.657153
O O4 0.912522 0.293458 0.699609
O O5 0.229341 0.560683 0.336911
O O6 0.378438 0.495752 0.347249
O O7 0.337362 0.566347 0.158845
O O8 0.641852 0.944766 0.567541
O O9 0.676411 0.937477 0.787811
O O10 0.569442 0.050677 0.713724
O O11 0.500000 0.500000 0.500000
O O12 0.454778 0.370014 0.397757
O O13 0.971879 0.852019 0.831621
O O14 0.250000 0.853744 0.000000
O O15 0.078087 0.838732 0.015236
O O16 0.145502 0.967361 0.945593
O O17 0.056027 0.250000 0.000000
O O18 0.081043 0.394352 0.036444
O O19 0.250000 0.085688 0.000000
#
# Coordination Sequence:
#
# PCOD8205653 Si02
#       8
#     8   8   8   8   8   8   8   8
#     4  11  23  36  60  89 134 181 210 256 331 410
#     4  12  21  39  64  96 130 169 225 265 336 394
#     4  11  21  39  65  96 129 168 224 277 320 396
#     4  10  24  36  62  92 131 170 220 274 320 381
#     4  11  22  43  58  94 137 171 217 268 327 404
#     4  11  22  40  66 100 131 172 210 270 340 406
#     4  12  26  42  64  97 133 175 222 273 341 404
#     4  11  23  43  70  94 125 172 226 280 337 392
#
# _framework density 20.905101999999999
#
# number of rings (size 3 to 8) (size 9 to 14) (size 15 to 20)
#    0.000    0.875    5.000    3.750    5.250    0.500 
#    2.250    0.000    0.000    0.000    0.000    0.000 
#    0.000    0.000    0.000    0.000    0.000    0.000 
#
# Total GULP energy -793440.178112 kJ/mol
# GULP energy per Si atom -12397.502783 kJ/mol
# Density = 2.085752 g / cm^3
# Si number density = 20.905102 Si / 1000 Ang^3
#
#
#
# Elastic Constant Matrix: (Units=GPa)
#
#
# Indices 1 2 3 4 5 6 
#
# 1 72.7699 36.3178 43.2429 0.0000 0.0000 0.0000
# 2 36.3178 65.9820 28.6287 0.0000 0.0000 0.0000
# 3 43.2429 28.6287 154.5001 0.0000 0.0000 0.0000
# 4 0.0000 0.0000 0.0000 24.7128 0.0000 0.0000
# 5 0.0000 0.0000 0.0000 0.0000 335.4914 0.0000
# 6 0.0000 0.0000 0.0000 0.0000 0.0000 32.7590
#
#
#
# Elastic Compliance Matrix: (Units=1/GPa)
#
#
# Indices 1 2 3 4 5 6 
#
# 1 0.021069 -0.009828 -0.004076 0.000000 0.000000 0.000000
# 2 -0.009828 0.021065 -0.001153 0.000000 0.000000 0.000000
# 3 -0.004076 -0.001153 0.007827 0.000000 0.000000 0.000000
# 4 0.000000 0.000000 0.000000 0.040465 0.000000 0.000000
# 5 0.000000 0.000000 0.000000 0.000000 0.002981 0.000000
# 6 0.000000 0.000000 0.000000 0.000000 0.000000 0.030526
#
#
# Mechanical properties :
#
#
# Convention : Reuss Voigt Hill
#
# Bulk Modulus (GPa) = 50.38327 56.62564 53.50446
# Shear Modulus (GPa) = 31.12115 90.93015 61.02565
#
# Velocity S-wave (km/s) = 3.86254 6.60235 5.40880
# Velocity P-wave (km/s) = 6.63668 9.23402 8.04092
#
# Compressibility (1/GPa) = 0.01984786
#
# Stress axis : x y z
#
# Youngs Moduli (GPa) = 47.46287 47.47102 127.76559
#
# Poissons Ratio (x) = 0.46656 0.52075
# Poissons Ratio (y) = 0.46648 0.14725
# Poissons Ratio (z) = 0.19345 0.05471
#
# Static dielectric constant tensor:
#      x y z
#    x 3.862560 0.000000 0.000000 
#    y 0.000000 4.060610 0.000000 
#    z 0.000000 0.000000 4.169130 
# 
# 
# High freq. dielectric constant tensor:
#      x y z
#    x 1.814030 0.000000 0.000000 
#    y 0.000000 1.779070 0.000000 
#    z 0.000000 0.000000 1.841430 
# 
# From -- ./inp_files/21357.got.cif
#   From: 2010.03.12/outbox.cif.g09.slc.cpg/sg50_11_cif.got.tgz:21357.got - 2010.04.16 13:23:21.
