data_PCOD8205436
_publ_section_title
;
Structure prediction by ZEFSAII (Michael W. Deem and Ramdas Pophale) SiO2 
 PCOD8205436
Probable space group: P B A N
;
_chemical_formula_sum "Si O2"
_cell_formula_units_Z 28
_cell_length_a 11.519177
_cell_length_b 17.494676
_cell_length_c 5.717496
_cell_angle_alpha 90.000000
_cell_angle_beta 90.000000
_cell_angle_gamma 90.000000
_cell_volume 1152.214204
_symmetry_space_group_name_H-M "P B A N"
_symmetry_group_IT_number 50
_space_group.IT_coordinate_system_code '2'
_symmetry_cell_setting 'orthorhombic'
loop_
_space_group_symop_operation_xyz
x,y,z
1/2-x,1/2-y,z
x,1/2-y,-z
1/2-x,y,-z
-x,-y,-z
1/2+x,1/2+y,-z
-x,1/2+y,z
1/2+x,-y,z
loop_
_atom_site_type_symbol
_atom_site_label
_atom_site_fract_x
_atom_site_fract_y
_atom_site_fract_z
Si Si1 0.879926 0.907236 0.068522
Si Si2 0.250000 0.657835 0.000000
Si Si3 0.941746 0.319732 0.333584
Si Si4 0.571298 0.439346 0.274673
O O1 0.947529 0.832507 0.165247
O O2 0.885750 0.972597 0.273028
O O3 0.750000 0.884020 0.000000
O O4 0.940854 0.936333 0.829279
O O5 0.175942 0.706453 0.807061
O O6 0.347655 0.604252 0.901841
O O7 0.975117 0.250000 0.500000
O O8 0.918256 0.399659 0.471630
#
# Coordination Sequence:
#
# PCOD8205436 Si02
#       4
#     8   4   8   8
#     4  10  22  43  69 103 139 186 236 290 340 418
#     4  10  22  41  66 100 138 173 232 296 352 409
#     4  11  25  43  68 103 142 187 228 291 360 429
#     4  10  21  41  68 101 135 181 236 290 344 409
#
# _framework density 24.301038999999999
#
# number of rings (size 3 to 8) (size 9 to 14) (size 15 to 20)
#    0.000    1.714    1.429    1.714    0.000    9.143 
#    5.143    4.286    0.000    1.714    3.714    0.000 
#    0.000    0.000    0.000    0.000    0.000    0.000 
#
# Total GULP energy -347037.402846 kJ/mol
# GULP energy per Si atom -12394.192959 kJ/mol
# Density = 2.424573 g / cm^3
# Si number density = 24.301039 Si / 1000 Ang^3
#
#
#
# Elastic Constant Matrix: (Units=GPa)
#
#
# Indices 1 2 3 4 5 6 
#
# 1 196.0392 52.4481 57.6177 0.0000 0.0000 0.0000
# 2 52.4481 99.5840 36.1981 0.0000 0.0000 0.0000
# 3 57.6177 36.1981 103.7572 0.0000 0.0000 0.0000
# 4 0.0000 0.0000 0.0000 919.4975 0.0000 0.0000
# 5 0.0000 0.0000 0.0000 0.0000 27.5955 0.0000
# 6 0.0000 0.0000 0.0000 0.0000 0.0000 27.6362
#
#
#
# Elastic Compliance Matrix: (Units=1/GPa)
#
#
# Indices 1 2 3 4 5 6 
#
# 1 0.006578 -0.002447 -0.002799 0.000000 0.000000 0.000000
# 2 -0.002447 0.012410 -0.002971 0.000000 0.000000 0.000000
# 3 -0.002799 -0.002971 0.012229 0.000000 0.000000 0.000000
# 4 0.000000 0.000000 0.000000 0.001088 0.000000 0.000000
# 5 0.000000 0.000000 0.000000 0.000000 0.036238 0.000000
# 6 0.000000 0.000000 0.000000 0.000000 0.000000 0.036184
#
#
# Mechanical properties :
#
#
# Convention : Reuss Voigt Hill
#
# Bulk Modulus (GPa) = 67.64418 76.87871 72.26144
# Shear Modulus (GPa) = 39.65428 211.82028 125.73728
#
# Velocity S-wave (km/s) = 4.04393 9.34635 7.20096
# Velocity P-wave (km/s) = 7.04988 12.17280 9.94681
#
# Compressibility (1/GPa) = 0.01478324
#
# Stress axis : x y z
#
# Youngs Moduli (GPa) = 152.01059 80.57715 81.77398
#
# Poissons Ratio (x) = 0.19718 0.22892
# Poissons Ratio (y) = 0.37199 0.24293
# Poissons Ratio (z) = 0.42553 0.23937
#
# Static dielectric constant tensor:
#      x y z
#    x 6.228530 0.000000 0.000000 
#    y 0.000000 4.334130 0.000000 
#    z 0.000000 0.000000 4.929300 
# 
# 
# High freq. dielectric constant tensor:
#      x y z
#    x 1.969320 0.000000 0.000000 
#    y 0.000000 1.962600 0.000000 
#    z 0.000000 0.000000 1.965110 
# 
# From -- ./inp_files/1847.got.cif
#   From: 2010.03.12/outbox.cif.g09.slc.cpg/sg50_1_cif.got.tgz:1847.got - 2010.04.16 13:23:21.
