data_PCOD8205132
_publ_section_title
;
Structure prediction by ZEFSAII (Michael W. Deem and Ramdas Pophale) SiO2 
 PCOD8205132
Probable space group: P B A N
;
_chemical_formula_sum "Si O2"
_cell_formula_units_Z 34
_cell_length_a 5.228854
_cell_length_b 17.536081
_cell_length_c 18.688401
_cell_angle_alpha 90.000000
_cell_angle_beta 90.000000
_cell_angle_gamma 90.000000
_cell_volume 1713.606902
_symmetry_space_group_name_H-M "P B A N"
_symmetry_group_IT_number 50
_space_group.IT_coordinate_system_code '2'
_symmetry_cell_setting 'orthorhombic'
loop_
_space_group_symop_operation_xyz
x,y,z
1/2-x,1/2-y,z
x,1/2-y,-z
1/2-x,y,-z
-x,-y,-z
1/2+x,1/2+y,-z
-x,1/2+y,z
1/2+x,-y,z
loop_
_atom_site_type_symbol
_atom_site_label
_atom_site_fract_x
_atom_site_fract_y
_atom_site_fract_z
Si Si1 0.481374 0.453316 0.213800
Si Si2 0.499930 0.216711 0.579551
Si Si3 0.508850 0.952799 0.380692
Si Si4 0.250000 0.250000 0.000000
Si Si5 0.990086 0.794904 0.863350
O O1 0.709350 0.510609 0.193490
O O2 0.494413 0.432332 0.297173
O O3 0.519906 0.378066 0.168300
O O4 0.250000 0.250000 0.620269
O O5 0.500426 0.250000 0.500000
O O6 0.499458 0.125650 0.575733
O O7 0.750000 0.250000 0.620339
O O8 0.763533 0.997756 0.402946
O O9 0.068605 0.301922 0.948843
O O10 0.750000 0.750000 0.826778
O O11 0.250000 0.750000 0.848230
#
# Coordination Sequence:
#
# PCOD8205132 Si02
#       5
#     8   8   8   2   8
#     4  10  21  37  57  86 116 143 186 237 282 329
#     4  10  21  38  56  82 115 145 187 238 271 328
#     4  10  21  38  59  82 114 151 184 228 288 340
#     4   8  22  36  58  80 118 148 194 216 274 332
#     4  10  20  36  59  81 112 153 189 229 270 335
#
# _framework density 19.841187999999999
#
# number of rings (size 3 to 8) (size 9 to 14) (size 15 to 20)
#    0.706    1.412    0.000    3.176    0.000    1.882 
#    0.000   15.294    0.000    0.000    0.000    0.000 
#    0.000    0.000    0.000    0.000    0.000    0.000 
#
# Total GULP energy -421466.588335 kJ/mol
# GULP energy per Si atom -12396.076127 kJ/mol
# Density = 1.979603 g / cm^3
# Si number density = 19.841188 Si / 1000 Ang^3
#
#
#
# Elastic Constant Matrix: (Units=GPa)
#
#
# Indices 1 2 3 4 5 6 
#
# 1 177.5695 56.3922 18.6135 0.0000 0.0000 0.0000
# 2 56.3922 158.7014 53.3762 0.0000 0.0000 0.0000
# 3 18.6135 53.3762 50.6230 0.0000 0.0000 0.0000
# 4 0.0000 0.0000 0.0000 35.8309 0.0000 0.0000
# 5 0.0000 0.0000 0.0000 0.0000 4.5804 0.0000
# 6 0.0000 0.0000 0.0000 0.0000 0.0000 37.0177
#
#
#
# Elastic Compliance Matrix: (Units=1/GPa)
#
#
# Indices 1 2 3 4 5 6 
#
# 1 0.006348 -0.002279 0.000069 0.000000 0.000000 0.000000
# 2 -0.002279 0.010581 -0.010319 0.000000 0.000000 0.000000
# 3 0.000069 -0.010319 0.030609 0.000000 0.000000 0.000000
# 4 0.000000 0.000000 0.000000 0.027909 0.000000 0.000000
# 5 0.000000 0.000000 0.000000 0.000000 0.218323 0.000000
# 6 0.000000 0.000000 0.000000 0.000000 0.000000 0.027014
#
#
# Mechanical properties :
#
#
# Convention : Reuss Voigt Hill
#
# Bulk Modulus (GPa) = 44.48402 71.51752 58.00077
# Shear Modulus (GPa) = 14.15084 32.71994 23.43539
#
# Velocity S-wave (km/s) = 2.67349 4.06531 3.44051
# Velocity P-wave (km/s) = 5.65674 7.62620 6.71408
#
# Compressibility (1/GPa) = 0.02247998
#
# Stress axis : x y z
#
# Youngs Moduli (GPa) = 157.52751 94.50456 32.67014
#
# Poissons Ratio (x) = 0.21535 -0.00224
# Poissons Ratio (y) = 0.35897 0.33713
# Poissons Ratio (z) = -0.01080 0.97520
#
# Static dielectric constant tensor:
#      x y z
#    x -2.344500 0.000000 0.000000 
#    y 0.000000 3.566860 0.000000 
#    z 0.000000 0.000000 3.311730 
# 
# 
# High freq. dielectric constant tensor:
#      x y z
#    x 1.806230 0.000000 0.000000 
#    y 0.000000 1.771440 0.000000 
#    z 0.000000 0.000000 1.741630 
# 
# From -- ./inp_files/30228.got.cif
#   From: 2010.03.12/outbox.cif.g09.slc.cpg/sg50_16_cif.got.tgz:30228.got - 2010.04.16 13:23:21.
