data_PCOD8205068
_publ_section_title
;
Structure prediction by ZEFSAII (Michael W. Deem and Ramdas Pophale) SiO2 
 PCOD8205068
Probable space group: P B A N
;
_chemical_formula_sum "Si O2"
_cell_formula_units_Z 64
_cell_length_a 16.592840
_cell_length_b 23.296277
_cell_length_c 9.517121
_cell_angle_alpha 90.000000
_cell_angle_beta 90.000000
_cell_angle_gamma 90.000000
_cell_volume 3678.856417
_symmetry_space_group_name_H-M "P B A N"
_symmetry_group_IT_number 50
_space_group.IT_coordinate_system_code '2'
_symmetry_cell_setting 'orthorhombic'
loop_
_space_group_symop_operation_xyz
x,y,z
1/2-x,1/2-y,z
x,1/2-y,-z
1/2-x,y,-z
-x,-y,-z
1/2+x,1/2+y,-z
-x,1/2+y,z
1/2+x,-y,z
loop_
_atom_site_type_symbol
_atom_site_label
_atom_site_fract_x
_atom_site_fract_y
_atom_site_fract_z
Si Si1 0.367123 0.820519 0.362909
Si Si2 0.971695 0.898348 0.346206
Si Si3 0.091878 0.697271 0.668841
Si Si4 0.815592 0.540174 0.615539
Si Si5 0.939104 0.059134 0.385955
Si Si6 0.969509 0.490185 0.155387
Si Si7 0.771206 0.149990 0.836938
Si Si8 0.781901 0.017852 0.846681
O O1 0.352785 0.817867 0.531566
O O2 0.422473 0.765591 0.320053
O O3 0.410386 0.879776 0.326411
O O4 0.286918 0.815573 0.269098
O O5 0.874814 0.904927 0.359539
O O6 0.003695 0.832813 0.347199
O O7 0.008525 0.935116 0.474144
O O8 0.003060 0.926657 0.201947
O O9 0.138734 0.673017 0.805252
O O10 0.750000 0.556709 0.500000
O O11 0.865481 0.483034 0.573572
O O12 0.768112 0.527336 0.757020
O O13 0.991176 0.036219 0.257953
O O14 0.874689 0.497776 0.163722
O O15 0.000000 0.500000 0.000000
O O16 0.765942 0.083015 0.798336
O O17 0.750000 0.162031 0.000000
O O18 0.750000 0.008274 0.000000
#
# Coordination Sequence:
#
# PCOD8205068 Si02
#       8
#     8   8   8   8   8   8   8   8
#     4  10  21  35  54  75 100 144 185 223 258 315
#     4  10  20  35  51  74 104 139 178 221 263 314
#     4  10  21  37  53  72 104 145 187 221 259 313
#     4  11  20  31  53  78 104 136 173 220 268 319
#     4  10  20  34  51  76 104 135 174 218 265 316
#     4  11  21  34  53  74 105 139 173 213 268 325
#     4  11  22  33  49  74 110 142 178 218 261 311
#     4  11  21  33  48  75 105 140 171 209 263 315
#
# _framework density 17.396709999999999
#
# number of rings (size 3 to 8) (size 9 to 14) (size 15 to 20)
#    0.000    1.500    2.500    5.250    3.500    2.000 
#    0.000    0.000    0.000    0.000    0.000   14.875 
#    0.000    1.000    0.000    0.000    0.000    0.000 
#
# Total GULP energy -793441.042885 kJ/mol
# GULP energy per Si atom -12397.516295 kJ/mol
# Density = 1.735711 g / cm^3
# Si number density = 17.396710 Si / 1000 Ang^3
#
#
#
# Elastic Constant Matrix: (Units=GPa)
#
#
# Indices 1 2 3 4 5 6 
#
# 1 118.1993 43.2927 32.1434 0.0000 0.0000 0.0000
# 2 43.2927 86.4185 27.9203 0.0000 0.0000 0.0000
# 3 32.1434 27.9203 69.8331 0.0000 0.0000 0.0000
# 4 0.0000 0.0000 0.0000 19.0557 0.0000 0.0000
# 5 0.0000 0.0000 0.0000 0.0000 28.7962 0.0000
# 6 0.0000 0.0000 0.0000 0.0000 0.0000 20.0379
#
#
#
# Elastic Compliance Matrix: (Units=1/GPa)
#
#
# Indices 1 2 3 4 5 6 
#
# 1 0.010978 -0.004441 -0.003278 0.000000 0.000000 0.000000
# 2 -0.004441 0.015084 -0.003987 0.000000 0.000000 0.000000
# 3 -0.003278 -0.003987 0.017423 0.000000 0.000000 0.000000
# 4 0.000000 0.000000 0.000000 0.052478 0.000000 0.000000
# 5 0.000000 0.000000 0.000000 0.000000 0.034727 0.000000
# 6 0.000000 0.000000 0.000000 0.000000 0.000000 0.049905
#
#
# Mechanical properties :
#
#
# Convention : Reuss Voigt Hill
#
# Bulk Modulus (GPa) = 49.81457 53.46261 51.63859
# Shear Modulus (GPa) = 23.73077 24.98428 24.35753
#
# Velocity S-wave (km/s) = 3.69737 3.79377 3.74588
# Velocity P-wave (km/s) = 6.85011 7.07025 6.96105
#
# Compressibility (1/GPa) = 0.02007445
#
# Stress axis : x y z
#
# Youngs Moduli (GPa) = 91.09037 66.29391 57.39693
#
# Poissons Ratio (x) = 0.29439 0.18813
# Poissons Ratio (y) = 0.40451 0.22884
# Poissons Ratio (z) = 0.29856 0.26431
#
# Static dielectric constant tensor:
#      x y z
#    x 3.253700 0.000000 0.000000 
#    y 0.000000 3.208580 0.000000 
#    z 0.000000 0.000000 3.296080 
# 
# 
# High freq. dielectric constant tensor:
#      x y z
#    x 1.660900 0.000000 0.000000 
#    y 0.000000 1.652270 0.000000 
#    z 0.000000 0.000000 1.680610 
# 
# From -- ./inp_files/14676.got.cif
#   From: 2010.03.12/outbox.cif.g09.slc.cpg/sg50_8_cif.got.tgz:14676.got - 2010.04.16 13:23:21.
