data_PCOD8205986
_publ_section_title
;
Structure prediction by ZEFSAII (Michael W. Deem and Ramdas Pophale) SiO2 
 PCOD8205986
Probable space group: P M M A
;
_chemical_formula_sum "Si O2"
_cell_formula_units_Z 56
_cell_length_a 16.865197
_cell_length_b 12.874087
_cell_length_c 16.561094
_cell_angle_alpha 90.000000
_cell_angle_beta 90.000000
_cell_angle_gamma 90.000000
_cell_volume 3595.811196
_symmetry_space_group_name_H-M "P M M A"
_symmetry_group_IT_number 51
_symmetry_cell_setting 'orthorhombic'
loop_
_space_group_symop_operation_xyz
x,y,z
1/2-x,-y,z
1/2+x,-y,-z
-x,y,-z
-x,-y,-z
1/2+x,y,-z
1/2-x,y,z
x,-y,z
loop_
_atom_site_type_symbol
_atom_site_label
_atom_site_fract_x
_atom_site_fract_y
_atom_site_fract_z
Si Si1 0.659435 0.754942 0.864459
Si Si2 0.578216 0.303647 0.167178
Si Si3 0.409307 0.380693 0.998491
Si Si4 0.661295 0.619877 0.314167
Si Si5 0.988696 0.881294 0.904821
Si Si6 0.073048 0.619997 0.253526
Si Si7 0.513146 0.378390 0.412271
O O1 0.750000 0.794750 0.863441
O O2 0.600510 0.852095 0.876652
O O3 0.642865 0.693232 0.780475
O O4 0.646612 0.677201 0.938829
O O5 0.621394 0.359450 0.091880
O O6 0.641641 0.304433 0.239399
O O7 0.552891 0.186448 0.144566
O O8 0.501076 0.370783 0.192197
O O9 0.405617 0.500000 0.022607
O O10 0.500000 0.337790 0.000000
O O11 0.750000 0.641228 0.344323
O O12 0.649016 0.500000 0.286941
O O13 0.603633 0.646447 0.388348
O O14 0.004210 0.000000 0.881043
O O15 0.000000 0.863390 0.000000
O O16 0.100533 0.500000 0.256476
O O17 0.046916 0.662028 0.342446
O O18 0.500000 0.325137 0.500000
O O19 0.497912 0.500000 0.419329
#
# Coordination Sequence:
#
# PCOD8205986 Si02
#       7
#     8   8   8   8   8   8   8
#     4  11  21  31  42  63  91 116 146 186 227 263
#     4  10  16  29  45  64  82 115 151 186 221 264
#     4  11  18  27  43  62  86 120 155 183 212 253
#     4   9  17  27  42  67  98 124 146 182 228 264
#     4  10  19  35  52  62  76 109 156 197 231 267
#     4   9  16  27  43  62  88 120 150 179 215 259
#     4   8  14  26  44  63  86 123 164 186 202 246
#
# _framework density 15.573676000000001
#
# number of rings (size 3 to 8) (size 9 to 14) (size 15 to 20)
#    0.000    2.286    4.286    2.571    0.000    2.000 
#    0.000    0.714    0.000    3.000    0.000    0.000 
#    0.000   46.286    0.000    5.143    0.000    0.000 
#
# Total GULP energy -694158.398643 kJ/mol
# GULP energy per Si atom -12395.685690 kJ/mol
# Density = 1.553823 g / cm^3
# Si number density = 15.573676 Si / 1000 Ang^3
#
#
#
# Elastic Constant Matrix: (Units=GPa)
#
#
# Indices 1 2 3 4 5 6 
#
# 1 76.3856 17.2094 37.0495 0.0000 0.0000 0.0000
# 2 17.2094 62.1788 25.3962 0.0000 0.0000 0.0000
# 3 37.0495 25.3962 111.9172 0.0000 0.0000 0.0000
# 4 0.0000 0.0000 0.0000 8.7644 0.0000 0.0000
# 5 0.0000 0.0000 0.0000 0.0000 15.4595 0.0000
# 6 0.0000 0.0000 0.0000 0.0000 0.0000 10.8182
#
#
#
# Elastic Compliance Matrix: (Units=1/GPa)
#
#
# Indices 1 2 3 4 5 6 
#
# 1 0.015937 -0.002487 -0.004712 0.000000 0.000000 0.000000
# 2 -0.002487 0.018113 -0.003287 0.000000 0.000000 0.000000
# 3 -0.004712 -0.003287 0.011241 0.000000 0.000000 0.000000
# 4 0.000000 0.000000 0.000000 0.114098 0.000000 0.000000
# 5 0.000000 0.000000 0.000000 0.000000 0.064685 0.000000
# 6 0.000000 0.000000 0.000000 0.000000 0.000000 0.092437
#
#
# Mechanical properties :
#
#
# Convention : Reuss Voigt Hill
#
# Bulk Modulus (GPa) = 41.11721 45.53243 43.32482
# Shear Modulus (GPa) = 14.46808 18.39686 16.43247
#
# Velocity S-wave (km/s) = 3.05127 3.44070 3.25182
# Velocity P-wave (km/s) = 6.23480 6.71452 6.47910
#
# Compressibility (1/GPa) = 0.02432072
#
# Stress axis : x y z
#
# Youngs Moduli (GPa) = 62.74720 55.20762 88.96137
#
# Poissons Ratio (x) = 0.13728 0.41915
# Poissons Ratio (y) = 0.15602 0.29243
# Poissons Ratio (z) = 0.29564 0.18147
#
# Static dielectric constant tensor:
#      x y z
#    x 2.832440 0.000000 0.000000 
#    y 0.000000 2.706000 0.000000 
#    z 0.000000 0.000000 3.200750 
# 
# 
# High freq. dielectric constant tensor:
#      x y z
#    x 1.579000 0.000000 0.000000 
#    y 0.000000 1.558710 0.000000 
#    z 0.000000 0.000000 1.592720 
# 
# From -- ./inp_files/25269.got.cif
#   From: 2010.03.12/outbox.cif.g09.slc.cpg/sg51_13_cif.got.tgz:25269.got - 2010.04.16 13:43:02.
