data_PCOD8205274
_publ_section_title
;
Structure prediction by ZEFSAII (Michael W. Deem and Ramdas Pophale) SiO2 
 PCOD8205274
Probable space group: P B A N
;
_chemical_formula_sum "Si O2"
_cell_formula_units_Z 40
_cell_length_a 30.939968
_cell_length_b 5.079285
_cell_length_c 12.713290
_cell_angle_alpha 90.000000
_cell_angle_beta 90.000000
_cell_angle_gamma 90.000000
_cell_volume 1997.930587
_symmetry_space_group_name_H-M "P B A N"
_symmetry_group_IT_number 50
_space_group.IT_coordinate_system_code '2'
_symmetry_cell_setting 'orthorhombic'
loop_
_space_group_symop_operation_xyz
x,y,z
1/2-x,1/2-y,z
x,1/2-y,-z
1/2-x,y,-z
-x,-y,-z
1/2+x,1/2+y,-z
-x,1/2+y,z
1/2+x,-y,z
loop_
_atom_site_type_symbol
_atom_site_label
_atom_site_fract_x
_atom_site_fract_y
_atom_site_fract_z
Si Si1 0.611425 0.262808 0.830316
Si Si2 0.481669 0.561529 0.883021
Si Si3 0.201457 0.197050 0.329465
Si Si4 0.350703 0.704250 0.615018
Si Si5 0.337257 0.262148 0.884021
O O1 0.566517 0.171695 0.880505
O O2 0.611968 0.255032 0.702426
O O3 0.622808 0.555094 0.871985
O O4 0.647378 0.060481 0.869636
O O5 0.487540 0.280216 0.825280
O O6 0.500000 0.500000 0.000000
O O7 0.250000 0.250000 0.366988
O O8 0.168605 0.411010 0.377380
O O9 0.199128 0.197651 0.202243
O O10 0.188496 0.909513 0.370062
O O11 0.371657 0.750000 0.500000
O O12 0.316632 0.250000 0.000000
#
# Coordination Sequence:
#
# PCOD8205274 Si02
#       5
#     8   8   8   8   8
#     4  10  21  36  52  77 111 138 179 220 259 322
#     4  10  21  32  50  79 107 138 167 216 270 316
#     4  10  21  36  53  82 111 135 181 230 266 313
#     4  10  21  37  57  79 103 143 182 220 274 315
#     4  10  21  33  54  75 106 152 177 209 262 325
#
# _framework density 20.020717000000001
#
# number of rings (size 3 to 8) (size 9 to 14) (size 15 to 20)
#    0.000    2.000    0.000    3.000    8.400    2.800 
#    0.000    0.000    0.000    8.400    0.000    0.000 
#    0.000    0.000    0.000    0.000    0.000    0.000 
#
# Total GULP energy -495709.531706 kJ/mol
# GULP energy per Si atom -12392.738293 kJ/mol
# Density = 1.997515 g / cm^3
# Si number density = 20.020717 Si / 1000 Ang^3
#
#
#
# Elastic Constant Matrix: (Units=GPa)
#
#
# Indices 1 2 3 4 5 6 
#
# 1 56.9739 1.6936 4.2550 0.0000 0.0000 0.0000
# 2 1.6936 113.0917 3.9452 0.0000 0.0000 0.0000
# 3 4.2550 3.9452 133.0552 0.0000 0.0000 0.0000
# 4 0.0000 0.0000 0.0000 18.4988 0.0000 0.0000
# 5 0.0000 0.0000 0.0000 0.0000 11.4013 0.0000
# 6 0.0000 0.0000 0.0000 0.0000 0.0000 23.5638
#
#
#
# Elastic Compliance Matrix: (Units=1/GPa)
#
#
# Indices 1 2 3 4 5 6 
#
# 1 0.017601 -0.000244 -0.000556 0.000000 0.000000 0.000000
# 2 -0.000244 0.008855 -0.000255 0.000000 0.000000 0.000000
# 3 -0.000556 -0.000255 0.007541 0.000000 0.000000 0.000000
# 4 0.000000 0.000000 0.000000 0.054057 0.000000 0.000000
# 5 0.000000 0.000000 0.000000 0.000000 0.087709 0.000000
# 6 0.000000 0.000000 0.000000 0.000000 0.000000 0.042438
#
#
# Mechanical properties :
#
#
# Convention : Reuss Voigt Hill
#
# Bulk Modulus (GPa) = 31.36031 35.87872 33.61952
# Shear Modulus (GPa) = 21.65071 30.24127 25.94599
#
# Velocity S-wave (km/s) = 3.29206 3.89073 3.60385
# Velocity P-wave (km/s) = 5.49073 6.17604 5.84344
#
# Compressibility (1/GPa) = 0.03188744
#
# Stress axis : x y z
#
# Youngs Moduli (GPa) = 56.81613 112.93153 132.60842
#
# Poissons Ratio (x) = 0.02758 0.07368
# Poissons Ratio (y) = 0.01387 0.03378
# Poissons Ratio (z) = 0.03157 0.02877
#
# Static dielectric constant tensor:
#      x y z
#    x 3.184280 0.000000 0.000000 
#    y 0.000000 1.181820 0.000000 
#    z 0.000000 0.000000 3.829840 
# 
# 
# High freq. dielectric constant tensor:
#      x y z
#    x 1.733890 0.000000 0.000000 
#    y 0.000000 1.818940 0.000000 
#    z 0.000000 0.000000 1.767770 
# 
# From -- ./inp_files/17988.got.cif
#   From: 2010.03.12/outbox.cif.g09.slc.cpg/sg50_9_cif.got.tgz:17988.got - 2010.04.16 13:23:21.
