data_PCOD8205927
_publ_section_title
;
Structure prediction by ZEFSAII (Michael W. Deem and Ramdas Pophale) SiO2 
 PCOD8205927
Probable space group: P M M A
;
_chemical_formula_sum "Si O2"
_cell_formula_units_Z 52
_cell_length_a 8.776853
_cell_length_b 26.940089
_cell_length_c 13.753501
_cell_angle_alpha 90.000000
_cell_angle_beta 90.000000
_cell_angle_gamma 90.000000
_cell_volume 3252.004322
_symmetry_space_group_name_H-M "P M M A"
_symmetry_group_IT_number 51
_symmetry_cell_setting 'orthorhombic'
loop_
_space_group_symop_operation_xyz
x,y,z
1/2-x,-y,z
1/2+x,-y,-z
-x,y,-z
-x,-y,-z
1/2+x,y,-z
1/2-x,y,z
x,-y,z
loop_
_atom_site_type_symbol
_atom_site_label
_atom_site_fract_x
_atom_site_fract_y
_atom_site_fract_z
Si Si1 0.428178 0.403462 0.105634
Si Si2 0.931064 0.856000 0.601925
Si Si3 0.930159 0.898660 0.896610
Si Si4 0.574019 0.943206 0.287465
Si Si5 0.930205 0.500000 0.108227
Si Si6 0.571410 0.294848 0.894535
Si Si7 0.070383 0.800678 0.210361
O O1 0.250000 0.414896 0.098097
O O2 0.509068 0.449701 0.162009
O O3 0.460164 0.349346 0.153634
O O4 0.500000 0.400206 0.000000
O O5 0.750000 0.858258 0.595562
O O6 0.988743 0.816214 0.682687
O O7 0.000000 0.838636 0.500000
O O8 0.991133 0.910355 0.630798
O O9 0.750000 0.905348 0.899811
O O10 0.977558 0.842555 0.867560
O O11 0.997158 0.936335 0.817579
O O12 0.000000 0.912349 0.000000
O O13 0.750000 0.927470 0.280837
O O14 0.555370 0.000000 0.319842
O O15 0.750000 0.500000 0.106015
O O16 0.000000 0.500000 0.000000
O O17 0.750000 0.287011 0.909090
O O18 0.502400 0.252561 0.823135
O O19 0.500000 0.289121 0.000000
O O20 0.250000 0.796875 0.215725
#
# Coordination Sequence:
#
# PCOD8205927 Si02
#       7
#     8   8   8   8   4   8   8
#     4   9  15  22  33  49  71 101 138 176 209 242
#     4  10  20  35  54  72  91 113 139 172 211 259
#     4  10  19  31  48  68  92 121 150 179 211 251
#     4  10  21  36  52  70  91 114 143 178 214 254
#     4  10  16  22  32  44  66 100 139 180 213 242
#     4   9  16  26  40  59  84 112 142 175 210 246
#     4   8  16  30  46  65  87 112 141 174 212 251
#
# _framework density 15.990138
#
# number of rings (size 3 to 8) (size 9 to 14) (size 15 to 20)
#    0.000    2.615    0.000    4.846    0.000    2.462 
#    0.000    3.846    0.000    0.000    0.000    0.000 
#    0.000    0.000    0.000    0.692    0.000    6.538 
#
# Total GULP energy -644419.302175 kJ/mol
# GULP energy per Si atom -12392.678888 kJ/mol
# Density = 1.595374 g / cm^3
# Si number density = 15.990138 Si / 1000 Ang^3
#
#
#
# Elastic Constant Matrix: (Units=GPa)
#
#
# Indices 1 2 3 4 5 6 
#
# 1 81.2299 39.2475 23.7953 0.0000 0.0000 0.0000
# 2 39.2475 122.3531 33.0902 0.0000 0.0000 0.0000
# 3 23.7953 33.0902 74.3414 0.0000 0.0000 0.0000
# 4 0.0000 0.0000 0.0000 12.0464 0.0000 0.0000
# 5 0.0000 0.0000 0.0000 0.0000 21.4620 0.0000
# 6 0.0000 0.0000 0.0000 0.0000 0.0000 19.8525
#
#
#
# Elastic Compliance Matrix: (Units=1/GPa)
#
#
# Indices 1 2 3 4 5 6 
#
# 1 0.015155 -0.004035 -0.003055 0.000000 0.000000 0.000000
# 2 -0.004035 0.010366 -0.003322 0.000000 0.000000 0.000000
# 3 -0.003055 -0.003322 0.015908 0.000000 0.000000 0.000000
# 4 0.000000 0.000000 0.000000 0.083012 0.000000 0.000000
# 5 0.000000 0.000000 0.000000 0.000000 0.046594 0.000000
# 6 0.000000 0.000000 0.000000 0.000000 0.000000 0.050372
#
#
# Mechanical properties :
#
#
# Convention : Reuss Voigt Hill
#
# Bulk Modulus (GPa) = 48.53315 52.24337 50.38826
# Shear Modulus (GPa) = 20.07224 22.79159 21.43192
#
# Velocity S-wave (km/s) = 3.54685 3.77948 3.66501
# Velocity P-wave (km/s) = 6.86960 7.19647 7.03493
#
# Compressibility (1/GPa) = 0.02060447
#
# Stress axis : x y z
#
# Youngs Moduli (GPa) = 65.98355 96.46916 62.86115
#
# Poissons Ratio (x) = 0.38928 0.19203
# Poissons Ratio (y) = 0.26626 0.20885
# Poissons Ratio (z) = 0.20157 0.32051
#
# Static dielectric constant tensor:
#      x y z
#    x 3.314640 0.000000 0.000000 
#    y 0.000000 3.921290 0.000000 
#    z 0.000000 0.000000 2.784830 
# 
# 
# High freq. dielectric constant tensor:
#      x y z
#    x 1.620260 0.000000 0.000000 
#    y 0.000000 1.623160 0.000000 
#    z 0.000000 0.000000 1.564210 
# 
# From -- ./inp_files/22426.got.cif
#   From: 2010.03.12/outbox.cif.g09.slc.cpg/sg51_12_cif.got.tgz:22426.got - 2010.04.16 13:43:02.
