data_PCOD8205983
_publ_section_title
;
Structure prediction by ZEFSAII (Michael W. Deem and Ramdas Pophale) SiO2 
 PCOD8205983
Probable space group: P M M A
;
_chemical_formula_sum "Si O2"
_cell_formula_units_Z 40
_cell_length_a 9.200327
_cell_length_b 11.716097
_cell_length_c 20.369473
_cell_angle_alpha 90.000000
_cell_angle_beta 90.000000
_cell_angle_gamma 90.000000
_cell_volume 2195.664677
_symmetry_space_group_name_H-M "P M M A"
_symmetry_group_IT_number 51
_symmetry_cell_setting 'orthorhombic'
loop_
_space_group_symop_operation_xyz
x,y,z
1/2-x,-y,z
1/2+x,-y,-z
-x,y,-z
-x,-y,-z
1/2+x,y,-z
1/2-x,y,z
x,-y,z
loop_
_atom_site_type_symbol
_atom_site_label
_atom_site_fract_x
_atom_site_fract_y
_atom_site_fract_z
Si Si1 0.090217 0.500000 0.599884
Si Si2 0.080447 0.632517 0.065281
Si Si3 0.421462 0.718481 0.200839
Si Si4 0.579017 0.131274 0.681827
Si Si5 0.921672 0.500000 0.727107
Si Si6 0.583696 0.751242 0.437029
O O1 0.250000 0.500000 0.634067
O O2 0.075211 0.385913 0.556647
O O3 0.961654 0.500000 0.651527
O O4 0.250000 0.649464 0.052721
O O5 0.045748 0.500000 0.081901
O O6 0.023105 0.713413 0.125290
O O7 0.000000 0.673846 0.000000
O O8 0.250000 0.703349 0.197480
O O9 0.462913 0.830637 0.243354
O O10 0.489873 0.611046 0.238875
O O11 0.750000 0.151627 0.669567
O O12 0.490918 0.205720 0.629665
O O13 0.535192 0.000000 0.674206
O O14 0.750000 0.500000 0.732731
O O15 0.500000 0.803449 0.500000
O O16 0.750000 0.794334 0.438221
#
# Coordination Sequence:
#
# PCOD8205983 Si02
#       6
#     4   8   8   8   4   8
#     4  10  21  35  51  79 111 133 161 205 255 308
#     4   9  16  27  44  70 103 135 166 200 244 300
#     4   9  16  29  51  76 101 132 169 209 253 304
#     4  10  21  37  57  79 100 129 175 222 260 302
#     4  10  16  27  52  77  98 133 172 205 254 312
#     4  11  23  38  56  78 106 137 168 207 256 309
#
# _framework density 18.217718999999999
#
# number of rings (size 3 to 8) (size 9 to 14) (size 15 to 20)
#    0.000    2.200    3.000    0.900    0.000    1.600 
#    0.000    2.000    0.000    0.600    0.000    0.000 
#    0.000    0.000    0.000    0.000    0.000    0.000 
#
# Total GULP energy -495714.208272 kJ/mol
# GULP energy per Si atom -12392.855207 kJ/mol
# Density = 1.817625 g / cm^3
# Si number density = 18.217719 Si / 1000 Ang^3
#
#
#
# Elastic Constant Matrix: (Units=GPa)
#
#
# Indices 1 2 3 4 5 6 
#
# 1 53.9622 30.0391 49.3519 0.0000 0.0000 0.0000
# 2 30.0391 71.2558 30.6747 0.0000 0.0000 0.0000
# 3 49.3519 30.6747 141.9285 0.0000 0.0000 0.0000
# 4 0.0000 0.0000 0.0000 14.3169 0.0000 0.0000
# 5 0.0000 0.0000 0.0000 0.0000 28.2916 0.0000
# 6 0.0000 0.0000 0.0000 0.0000 0.0000 12.1713
#
#
#
# Elastic Compliance Matrix: (Units=1/GPa)
#
#
# Indices 1 2 3 4 5 6 
#
# 1 0.032264 -0.009672 -0.009129 0.000000 0.000000 0.000000
# 2 -0.009672 0.018373 -0.000608 0.000000 0.000000 0.000000
# 3 -0.009129 -0.000608 0.010351 0.000000 0.000000 0.000000
# 4 0.000000 0.000000 0.000000 0.069848 0.000000 0.000000
# 5 0.000000 0.000000 0.000000 0.000000 0.035346 0.000000
# 6 0.000000 0.000000 0.000000 0.000000 0.000000 0.082161
#
#
# Mechanical properties :
#
#
# Convention : Reuss Voigt Hill
#
# Bulk Modulus (GPa) = 45.10181 54.14198 49.62190
# Shear Modulus (GPa) = 16.97504 21.42802 19.20153
#
# Velocity S-wave (km/s) = 3.05583 3.43333 3.25006
# Velocity P-wave (km/s) = 6.10423 6.74543 6.43283
#
# Compressibility (1/GPa) = 0.02217206
#
# Stress axis : x y z
#
# Youngs Moduli (GPa) = 30.99407 54.42810 96.60495
#
# Poissons Ratio (x) = 0.52641 0.88188
# Poissons Ratio (y) = 0.29977 0.05872
# Poissons Ratio (z) = 0.28294 0.03308
#
# Static dielectric constant tensor:
#      x y z
#    x 3.169180 0.000000 0.000000 
#    y 0.000000 3.252710 0.000000 
#    z 0.000000 0.000000 3.449140 
# 
# 
# High freq. dielectric constant tensor:
#      x y z
#    x 1.682880 0.000000 0.000000 
#    y 0.000000 1.680530 0.000000 
#    z 0.000000 0.000000 1.711320 
# 
# From -- ./inp_files/31410.got.cif
#   From: 2010.03.12/outbox.cif.g09.slc.cpg/sg51_16_cif.got.tgz:31410.got - 2010.04.16 13:43:02.
