data_PCOD8205732
_publ_section_title
;
Structure prediction by ZEFSAII (Michael W. Deem and Ramdas Pophale) SiO2 
 PCOD8205732
Probable space group: P B A N
;
_chemical_formula_sum "Si O2"
_cell_formula_units_Z 48
_cell_length_a 8.814052
_cell_length_b 17.152905
_cell_length_c 15.292977
_cell_angle_alpha 90.000000
_cell_angle_beta 90.000000
_cell_angle_gamma 90.000000
_cell_volume 2312.093145
_symmetry_space_group_name_H-M "P B A N"
_symmetry_group_IT_number 50
_space_group.IT_coordinate_system_code '2'
_symmetry_cell_setting 'orthorhombic'
loop_
_space_group_symop_operation_xyz
x,y,z
1/2-x,1/2-y,z
x,1/2-y,-z
1/2-x,y,-z
-x,-y,-z
1/2+x,1/2+y,-z
-x,1/2+y,z
1/2+x,-y,z
loop_
_atom_site_type_symbol
_atom_site_label
_atom_site_fract_x
_atom_site_fract_y
_atom_site_fract_z
Si Si1 0.713734 0.433873 0.598240
Si Si2 0.687333 0.830280 0.225489
Si Si3 0.103316 0.439346 0.323083
Si Si4 0.037602 0.018565 0.155627
Si Si5 0.355117 0.680950 0.729255
Si Si6 0.729238 0.103119 0.904720
O O1 0.750000 0.408459 0.500000
O O2 0.536701 0.418426 0.614181
O O3 0.763338 0.522657 0.618058
O O4 0.819533 0.389480 0.666128
O O5 0.750000 0.750000 0.178732
O O6 0.824195 0.859216 0.287494
O O7 0.647596 0.905062 0.164137
O O8 0.534989 0.803737 0.276815
O O9 0.042221 0.497983 0.247708
O O10 0.906514 0.040318 0.086925
O O11 0.119062 0.941957 0.121806
O O12 0.250000 0.750000 0.694509
O O13 0.310466 0.665821 0.830799
O O14 0.750000 0.143172 0.000000
#
# Coordination Sequence:
#
# PCOD8205732 Si02
#       6
#     8   8   8   8   8   8
#     4  12  23  38  65  94 124 171 223 270 318 387
#     4  11  22  37  66  95 124 174 215 261 336 394
#     4  12  19  41  63  93 129 164 217 271 323 387
#     4  11  19  39  63  90 128 162 214 269 322 381
#     4  11  23  42  62  89 132 173 216 267 333 391
#     4  11  22  37  64  94 121 168 220 267 319 388
#
# _framework density 20.76041
#
# number of rings (size 3 to 8) (size 9 to 14) (size 15 to 20)
#    0.000    0.667    8.333    2.000    0.000    0.667 
#    0.000    0.000    0.000    4.000    0.000    0.000 
#    0.000    0.000    0.000    0.000    0.000    0.000 
#
# Total GULP energy -594789.290194 kJ/mol
# GULP energy per Si atom -12391.443546 kJ/mol
# Density = 2.071316 g / cm^3
# Si number density = 20.760410 Si / 1000 Ang^3
#
#
#
# Elastic Constant Matrix: (Units=GPa)
#
#
# Indices 1 2 3 4 5 6 
#
# 1 109.9639 17.6955 27.7524 0.0000 0.0000 0.0000
# 2 17.6955 66.9679 15.8614 0.0000 0.0000 0.0000
# 3 27.7524 15.8614 113.2093 0.0000 0.0000 0.0000
# 4 0.0000 0.0000 0.0000 -10.5389 0.0000 0.0000
# 5 0.0000 0.0000 0.0000 0.0000 25.9786 0.0000
# 6 0.0000 0.0000 0.0000 0.0000 0.0000 40.2966
#
#
#
# Elastic Compliance Matrix: (Units=1/GPa)
#
#
# Indices 1 2 3 4 5 6 
#
# 1 0.009978 -0.002128 -0.002148 0.000000 0.000000 0.000000
# 2 -0.002128 0.015899 -0.001706 0.000000 0.000000 0.000000
# 3 -0.002148 -0.001706 0.009599 0.000000 0.000000 0.000000
# 4 0.000000 0.000000 0.000000 -0.094887 0.000000 0.000000
# 5 0.000000 0.000000 0.000000 0.000000 0.038493 0.000000
# 6 0.000000 0.000000 0.000000 0.000000 0.000000 0.024816
#
#
# Mechanical properties :
#
#
# Convention : Reuss Voigt Hill
#
# Bulk Modulus (GPa) = 42.53073 45.86218 44.19646
# Shear Modulus (GPa) = 210.97436 26.40273 118.68854
#
# Velocity S-wave (km/s) = 10.09178 3.57008 7.56933
# Velocity P-wave (km/s) = 12.50292 6.25564 9.88575
#
# Compressibility (1/GPa) = 0.02351241
#
# Stress axis : x y z
#
# Youngs Moduli (GPa) = 100.21624 62.89764 104.18007
#
# Poissons Ratio (x) = 0.13384 0.22378
# Poissons Ratio (y) = 0.21325 0.17772
# Poissons Ratio (z) = 0.21526 0.10730
#
# Static dielectric constant tensor:
#      x y z
#    x 4.121450 0.000000 0.000000 
#    y 0.000000 3.648130 0.000000 
#    z 0.000000 0.000000 3.483230 
# 
# 
# High freq. dielectric constant tensor:
#      x y z
#    x 1.838110 0.000000 0.000000 
#    y 0.000000 1.801730 0.000000 
#    z 0.000000 0.000000 1.774910 
# 
# From -- ./inp_files/25031.got.cif
#   From: 2010.03.12/outbox.cif.g09.slc.cpg/sg50_13_cif.got.tgz:25031.got - 2010.04.16 13:23:21.
