data_PCOD8205749
_publ_section_title
;
Structure prediction by ZEFSAII (Michael W. Deem and Ramdas Pophale) SiO2 
 PCOD8205749
Probable space group: P B A N
;
_chemical_formula_sum "Si O2"
_cell_formula_units_Z 58
_cell_length_a 24.461671
_cell_length_b 9.730763
_cell_length_c 12.141537
_cell_angle_alpha 90.000000
_cell_angle_beta 90.000000
_cell_angle_gamma 90.000000
_cell_volume 2890.058831
_symmetry_space_group_name_H-M "P B A N"
_symmetry_group_IT_number 50
_space_group.IT_coordinate_system_code '2'
_symmetry_cell_setting 'orthorhombic'
loop_
_space_group_symop_operation_xyz
x,y,z
1/2-x,1/2-y,z
x,1/2-y,-z
1/2-x,y,-z
-x,-y,-z
1/2+x,1/2+y,-z
-x,1/2+y,z
1/2+x,-y,z
loop_
_atom_site_type_symbol
_atom_site_label
_atom_site_fract_x
_atom_site_fract_y
_atom_site_fract_z
Si Si1 0.297964 0.051664 0.826835
Si Si2 0.405416 0.030821 0.732992
Si Si3 0.354679 0.897312 0.010120
Si Si4 0.707842 0.129474 0.769580
Si Si5 0.608880 0.230470 0.629967
Si Si6 0.504148 0.873202 0.421689
Si Si7 0.250000 0.250000 0.000000
Si Si8 0.553133 0.913362 0.026072
O O1 0.344852 0.099315 0.740518
O O2 0.243796 0.011319 0.757235
O O3 0.289196 0.163937 0.921121
O O4 0.323697 0.921188 0.893164
O O5 0.442970 0.118467 0.653599
O O6 0.434910 0.046297 0.849136
O O7 0.398937 0.874202 0.692362
O O8 0.310085 0.880468 0.104515
O O9 0.385898 0.750000 0.000000
O O10 0.396430 0.020175 0.042684
O O11 0.750000 0.250000 0.744563
O O12 0.657460 0.140580 0.684518
O O13 0.621476 0.250000 0.500000
O O14 0.552287 0.146720 0.646149
O O15 0.516606 0.750000 0.500000
O O16 0.500000 0.000000 0.500000
O O17 0.547702 0.750000 0.000000
O O18 0.500000 0.000000 0.000000
#
# Coordination Sequence:
#
# PCOD8205749 Si02
#       8
#     8   8   8   8   8   8   2   8
#     4  11  24  40  64  94 138 180 227 278 335 423
#     4  11  24  44  68  97 136 172 230 283 348 414
#     4  11  21  38  65  93 132 175 230 273 333 420
#     4  12  21  38  68  98 128 176 223 278 348 401
#     4  11  24  44  69 104 135 173 234 297 350 411
#     4  11  23  46  73  96 129 181 231 288 347 416
#     4  12  24  44  62  96 146 188 230 280 330 424
#     4  11  27  42  62 100 142 180 222 284 353 418
#
# _framework density 20.068795999999999
#
# number of rings (size 3 to 8) (size 9 to 14) (size 15 to 20)
#    0.000    0.828    6.897    1.241    7.724    0.276 
#    2.483    0.000    0.000    0.000    0.000    0.000 
#    0.000    0.000    0.000    0.000    0.000    0.000 
#
# Total GULP energy -718632.666849 kJ/mol
# GULP energy per Si atom -12390.218394 kJ/mol
# Density = 2.002312 g / cm^3
# Si number density = 20.068796 Si / 1000 Ang^3
#
#
#
# Elastic Constant Matrix: (Units=GPa)
#
#
# Indices 1 2 3 4 5 6 
#
# 1 175.8727 68.1998 64.7567 0.0000 0.0000 0.0000
# 2 68.1998 129.6319 40.7853 0.0000 0.0000 0.0000
# 3 64.7567 40.7853 99.0430 0.0000 0.0000 0.0000
# 4 0.0000 0.0000 0.0000 28.1291 0.0000 0.0000
# 5 0.0000 0.0000 0.0000 0.0000 44.2534 0.0000
# 6 0.0000 0.0000 0.0000 0.0000 0.0000 38.5743
#
#
#
# Elastic Compliance Matrix: (Units=1/GPa)
#
#
# Indices 1 2 3 4 5 6 
#
# 1 0.008457 -0.003113 -0.004248 0.000000 0.000000 0.000000
# 2 -0.003113 0.010008 -0.002086 0.000000 0.000000 0.000000
# 3 -0.004248 -0.002086 0.013733 0.000000 0.000000 0.000000
# 4 0.000000 0.000000 0.000000 0.035550 0.000000 0.000000
# 5 0.000000 0.000000 0.000000 0.000000 0.022597 0.000000
# 6 0.000000 0.000000 0.000000 0.000000 0.000000 0.025924
#
#
# Mechanical properties :
#
#
# Convention : Reuss Voigt Hill
#
# Bulk Modulus (GPa) = 75.15928 83.55899 79.35914
# Shear Modulus (GPa) = 35.81731 37.57841 36.69786
#
# Velocity S-wave (km/s) = 4.22919 4.33191 4.28086
# Velocity P-wave (km/s) = 7.83455 8.16990 8.00398
#
# Compressibility (1/GPa) = 0.01330508
#
# Stress axis : x y z
#
# Youngs Moduli (GPa) = 118.24545 99.91844 72.81856
#
# Poissons Ratio (x) = 0.31103 0.30930
# Poissons Ratio (y) = 0.36808 0.15190
# Poissons Ratio (z) = 0.50225 0.20843
#
# Static dielectric constant tensor:
#      x y z
#    x 4.315840 0.000000 0.000000 
#    y 0.000000 3.562250 0.000000 
#    z 0.000000 0.000000 3.518090 
# 
# 
# High freq. dielectric constant tensor:
#      x y z
#    x 1.803030 0.000000 0.000000 
#    y 0.000000 1.779190 0.000000 
#    z 0.000000 0.000000 1.768040 
# 
# From -- ./inp_files/23173.got.cif
#   From: 2010.03.12/outbox.cif.g09.slc.cpg/sg50_12_cif.got.tgz:23173.got - 2010.04.16 13:23:21.
