data_PCOD8205876
_publ_section_title
;
Structure prediction by ZEFSAII (Michael W. Deem and Ramdas Pophale) SiO2 
 PCOD8205876
Probable space group: P B A N
;
_chemical_formula_sum "Si O2"
_cell_formula_units_Z 34
_cell_length_a 8.930204
_cell_length_b 20.455017
_cell_length_c 8.132165
_cell_angle_alpha 90.000000
_cell_angle_beta 90.000000
_cell_angle_gamma 90.000000
_cell_volume 1485.482044
_symmetry_space_group_name_H-M "P B A N"
_symmetry_group_IT_number 50
_space_group.IT_coordinate_system_code '2'
_symmetry_cell_setting 'orthorhombic'
loop_
_space_group_symop_operation_xyz
x,y,z
1/2-x,1/2-y,z
x,1/2-y,-z
1/2-x,y,-z
-x,-y,-z
1/2+x,1/2+y,-z
-x,1/2+y,z
1/2+x,-y,z
loop_
_atom_site_type_symbol
_atom_site_label
_atom_site_fract_x
_atom_site_fract_y
_atom_site_fract_z
Si Si1 0.250000 0.750000 0.500000
Si Si2 0.756870 0.676880 0.193282
Si Si3 0.759109 0.470358 0.188606
Si Si4 0.937147 0.365545 0.655974
Si Si5 0.444692 0.073092 0.331733
O O1 0.142486 0.702513 0.393898
O O2 0.750000 0.750000 0.259129
O O3 0.610971 0.643639 0.271804
O O4 0.910909 0.645569 0.248709
O O5 0.750000 0.671648 0.000000
O O6 0.675279 0.401920 0.220300
O O7 0.699290 0.525251 0.317084
O O8 0.934677 0.460209 0.214431
O O9 0.750000 0.494228 0.000000
O O10 0.977297 0.415504 0.507695
#
# Coordination Sequence:
#
# PCOD8205876 Si02
#       5
#     2   8   8   8   8
#     4  12  24  48  72 108 144 188 250 300 364 424
#     4  11  25  45  71 103 142 188 242 300 362 424
#     4  12  25  44  71 105 147 187 237 299 361 426
#     4  12  25  45  71 102 142 188 242 294 358 434
#     4  12  24  45  69 108 141 191 238 294 363 430
#
# _framework density 22.888192
#
# number of rings (size 3 to 8) (size 9 to 14) (size 15 to 20)
#    0.000    0.235    2.353    7.059    0.000    2.824 
#    0.000    0.000    0.000    0.000    0.000    0.000 
#    0.000    0.000    0.000    0.000    0.000    0.000 
#
# Total GULP energy -421656.466274 kJ/mol
# GULP energy per Si atom -12401.660773 kJ/mol
# Density = 2.283610 g / cm^3
# Si number density = 22.888192 Si / 1000 Ang^3
#
#
#
# Elastic Constant Matrix: (Units=GPa)
#
#
# Indices 1 2 3 4 5 6 
#
# 1 122.3901 41.0201 21.5936 0.0000 0.0000 0.0000
# 2 41.0201 118.9534 29.5597 0.0000 0.0000 0.0000
# 3 21.5936 29.5597 71.1457 0.0000 0.0000 0.0000
# 4 0.0000 0.0000 0.0000 6.5508 0.0000 0.0000
# 5 0.0000 0.0000 0.0000 0.0000 41.2163 0.0000
# 6 0.0000 0.0000 0.0000 0.0000 0.0000 45.7899
#
#
#
# Elastic Compliance Matrix: (Units=1/GPa)
#
#
# Indices 1 2 3 4 5 6 
#
# 1 0.009416 -0.002829 -0.001682 0.000000 0.000000 0.000000
# 2 -0.002829 0.010224 -0.003389 0.000000 0.000000 0.000000
# 3 -0.001682 -0.003389 0.015975 0.000000 0.000000 0.000000
# 4 0.000000 0.000000 0.000000 0.152654 0.000000 0.000000
# 5 0.000000 0.000000 0.000000 0.000000 0.024262 0.000000
# 6 0.000000 0.000000 0.000000 0.000000 0.000000 0.021839
#
#
# Mechanical properties :
#
#
# Convention : Reuss Voigt Hill
#
# Bulk Modulus (GPa) = 50.47157 55.20398 52.83778
# Shear Modulus (GPa) = 19.47229 33.39912 26.43570
#
# Velocity S-wave (km/s) = 2.91994 3.82413 3.40221
# Velocity P-wave (km/s) = 5.78509 6.60833 6.21036
#
# Compressibility (1/GPa) = 0.01981313
#
# Stress axis : x y z
#
# Youngs Moduli (GPa) = 106.20760 97.80513 62.59953
#
# Poissons Ratio (x) = 0.27667 0.10532
# Poissons Ratio (y) = 0.30044 0.21218
# Poissons Ratio (z) = 0.17869 0.33151
#
# Static dielectric constant tensor:
#      x y z
#    x 8.643470 0.000000 0.000000 
#    y 0.000000 4.435920 0.000000 
#    z 0.000000 0.000000 3.950770 
# 
# 
# High freq. dielectric constant tensor:
#      x y z
#    x 1.927350 0.000000 0.000000 
#    y 0.000000 1.921090 0.000000 
#    z 0.000000 0.000000 1.896890 
# 
# From -- ./inp_files/9220.got.cif
#   From: 2010.03.12/outbox.cif.g09.slc.cpg/sg50_5_cif.got.tgz:9220.got - 2010.04.16 13:23:21.
