data_PCOD8205493
_publ_section_title
;
Structure prediction by ZEFSAII (Michael W. Deem and Ramdas Pophale) SiO2 
 PCOD8205493
Probable space group: P B A N
;
_chemical_formula_sum "Si O2"
_cell_formula_units_Z 40
_cell_length_a 9.456217
_cell_length_b 19.425576
_cell_length_c 10.636227
_cell_angle_alpha 90.000000
_cell_angle_beta 90.000000
_cell_angle_gamma 90.000000
_cell_volume 1953.794724
_symmetry_space_group_name_H-M "P B A N"
_symmetry_group_IT_number 50
_space_group.IT_coordinate_system_code '2'
_symmetry_cell_setting 'orthorhombic'
loop_
_space_group_symop_operation_xyz
x,y,z
1/2-x,1/2-y,z
x,1/2-y,-z
1/2-x,y,-z
-x,-y,-z
1/2+x,1/2+y,-z
-x,1/2+y,z
1/2+x,-y,z
loop_
_atom_site_type_symbol
_atom_site_label
_atom_site_fract_x
_atom_site_fract_y
_atom_site_fract_z
Si Si1 0.750000 0.750000 0.500000
Si Si2 0.750000 0.250000 0.000000
Si Si3 0.141474 0.064767 0.778711
Si Si4 0.750000 0.013825 0.000000
Si Si5 0.159942 0.570299 0.375892
Si Si6 0.140407 0.870858 0.171374
Si Si7 0.353682 0.377444 0.393822
O O1 0.651030 0.704962 0.591648
O O2 0.843025 0.200159 0.908666
O O3 0.291451 0.099987 0.741462
O O4 0.016594 0.122046 0.768752
O O5 0.151044 0.036153 0.919148
O O6 0.114366 0.001182 0.686138
O O7 0.650525 0.062107 0.083702
O O8 0.250000 0.556902 0.500000
O O9 0.241488 0.622146 0.280482
O O10 0.014130 0.603788 0.417133
O O11 0.250000 0.411151 0.500000
#
# Coordination Sequence:
#
# PCOD8205493 Si02
#       7
#     2   2   8   4   8   8   8
#     4   8  24  44  54  78 120 168 198 242 294 368
#     4  10  24  44  58  86 128 166 220 246 296 362
#     4  11  21  37  65  94 123 159 205 255 318 363
#     4   9  20  37  60  91 124 155 198 260 316 357
#     4  11  22  38  64 101 124 153 202 261 326 368
#     4  10  22  39  62  89 127 164 203 258 300 365
#     4  10  22  41  61  84 126 165 200 252 304 374
#
# _framework density 20.472981999999998
#
# number of rings (size 3 to 8) (size 9 to 14) (size 15 to 20)
#    0.600    1.200    0.000    4.800    0.000    7.200 
#    0.000    0.000    0.000    1.200    0.000    0.000 
#    0.000    0.000    0.000    0.000    0.000    0.000 
#
# Total GULP energy -495699.955481 kJ/mol
# GULP energy per Si atom -12392.498887 kJ/mol
# Density = 2.042638 g / cm^3
# Si number density = 20.472982 Si / 1000 Ang^3
#
#
#
# Elastic Constant Matrix: (Units=GPa)
#
#
# Indices 1 2 3 4 5 6 
#
# 1 146.5028 47.6172 47.4586 0.0000 0.0000 0.0000
# 2 47.6172 115.9696 41.7535 0.0000 0.0000 0.0000
# 3 47.4586 41.7535 110.5334 0.0000 0.0000 0.0000
# 4 0.0000 0.0000 0.0000 18.8075 0.0000 0.0000
# 5 0.0000 0.0000 0.0000 0.0000 25.8188 0.0000
# 6 0.0000 0.0000 0.0000 0.0000 0.0000 14.3389
#
#
#
# Elastic Compliance Matrix: (Units=1/GPa)
#
#
# Indices 1 2 3 4 5 6 
#
# 1 0.008523 -0.002526 -0.002705 0.000000 0.000000 0.000000
# 2 -0.002526 0.010729 -0.002968 0.000000 0.000000 0.000000
# 3 -0.002705 -0.002968 0.011330 0.000000 0.000000 0.000000
# 4 0.000000 0.000000 0.000000 0.053170 0.000000 0.000000
# 5 0.000000 0.000000 0.000000 0.000000 0.038732 0.000000
# 6 0.000000 0.000000 0.000000 0.000000 0.000000 0.069740
#
#
# Mechanical properties :
#
#
# Convention : Reuss Voigt Hill
#
# Bulk Modulus (GPa) = 70.50686 71.85160 71.17923
# Shear Modulus (GPa) = 23.43567 27.53814 25.48690
#
# Velocity S-wave (km/s) = 3.38703 3.67153 3.53215
# Velocity P-wave (km/s) = 7.05760 7.29010 7.17479
#
# Compressibility (1/GPa) = 0.01418302
#
# Stress axis : x y z
#
# Youngs Moduli (GPa) = 117.32841 93.20844 88.26174
#
# Poissons Ratio (x) = 0.23540 0.23879
# Poissons Ratio (y) = 0.29631 0.26199
# Poissons Ratio (z) = 0.31743 0.27667
#
# Static dielectric constant tensor:
#      x y z
#    x 3.546230 0.000000 0.000000 
#    y 0.000000 3.629960 0.000000 
#    z 0.000000 0.000000 3.880810 
# 
# 
# High freq. dielectric constant tensor:
#      x y z
#    x 1.796470 0.000000 0.000000 
#    y 0.000000 1.785550 0.000000 
#    z 0.000000 0.000000 1.806590 
# 
# From -- ./inp_files/19028.got.cif
#   From: 2010.03.12/outbox.cif.g09.slc.cpg/sg50_10_cif.got.tgz:19028.got - 2010.04.16 13:23:21.
