data_PCOD8205178
_publ_section_title
;
Structure prediction by ZEFSAII (Michael W. Deem and Ramdas Pophale) SiO2 
 PCOD8205178
Probable space group: P B A N
;
_chemical_formula_sum "Si O2"
_cell_formula_units_Z 48
_cell_length_a 11.665474
_cell_length_b 22.908898
_cell_length_c 9.182736
_cell_angle_alpha 90.000000
_cell_angle_beta 90.000000
_cell_angle_gamma 90.000000
_cell_volume 2454.023331
_symmetry_space_group_name_H-M "P B A N"
_symmetry_group_IT_number 50
_space_group.IT_coordinate_system_code '2'
_symmetry_cell_setting 'orthorhombic'
loop_
_space_group_symop_operation_xyz
x,y,z
1/2-x,1/2-y,z
x,1/2-y,-z
1/2-x,y,-z
-x,-y,-z
1/2+x,1/2+y,-z
-x,1/2+y,z
1/2+x,-y,z
loop_
_atom_site_type_symbol
_atom_site_label
_atom_site_fract_x
_atom_site_fract_y
_atom_site_fract_z
Si Si1 0.887246 0.917491 0.156254
Si Si2 0.131215 0.101689 0.173511
Si Si3 0.958086 0.304408 0.828719
Si Si4 0.917923 0.329305 0.149446
Si Si5 0.711030 0.373024 0.343253
Si Si6 0.043005 0.974882 0.653650
O O1 0.763508 0.899501 0.220211
O O2 0.970621 0.864775 0.194602
O O3 0.936469 0.974500 0.231530
O O4 0.883222 0.928870 0.983578
O O5 0.087825 0.169518 0.166608
O O6 0.058807 0.066000 0.290481
O O7 0.949085 0.235978 0.800927
O O8 0.895533 0.332423 0.692490
O O9 0.894307 0.326245 0.976357
O O10 0.810968 0.361260 0.225830
O O11 0.750000 0.352023 0.500000
O O12 0.664117 0.439677 0.353020
O O13 0.000000 0.000000 0.500000
#
# Coordination Sequence:
#
# PCOD8205178 Si02
#       6
#     8   8   8   8   8   8
#     4  10  21  37  61  85 116 151 194 243 281 358
#     4   9  21  40  57  86 115 152 197 232 299 341
#     4   9  20  39  60  86 121 151 187 243 289 360
#     4  10  20  37  62  89 116 151 193 236 301 346
#     4  11  23  37  56  86 115 155 197 240 295 344
#     4  11  24  39  58  79 118 158 197 247 290 347
#
# _framework density 19.559715000000001
#
# number of rings (size 3 to 8) (size 9 to 14) (size 15 to 20)
#    0.000    2.000    0.000    2.500    4.667    3.333 
#    6.000    3.333    0.000    0.000    0.000    4.667 
#    0.000    0.000    0.000    0.000    0.000    0.000 
#
# Total GULP energy -594941.549177 kJ/mol
# GULP energy per Si atom -12394.615608 kJ/mol
# Density = 1.951520 g / cm^3
# Si number density = 19.559715 Si / 1000 Ang^3
#
#
#
# Elastic Constant Matrix: (Units=GPa)
#
#
# Indices 1 2 3 4 5 6 
#
# 1 115.7360 54.6327 31.3347 0.0000 0.0000 0.0000
# 2 54.6327 131.1188 46.8406 0.0000 0.0000 0.0000
# 3 31.3347 46.8406 71.4292 0.0000 0.0000 0.0000
# 4 0.0000 0.0000 0.0000 24.2884 0.0000 0.0000
# 5 0.0000 0.0000 0.0000 0.0000 23.7625 0.0000
# 6 0.0000 0.0000 0.0000 0.0000 0.0000 30.4747
#
#
#
# Elastic Compliance Matrix: (Units=1/GPa)
#
#
# Indices 1 2 3 4 5 6 
#
# 1 0.011060 -0.003755 -0.002390 0.000000 0.000000 0.000000
# 2 -0.003755 0.011234 -0.005720 0.000000 0.000000 0.000000
# 3 -0.002390 -0.005720 0.018799 0.000000 0.000000 0.000000
# 4 0.000000 0.000000 0.000000 0.041172 0.000000 0.000000
# 5 0.000000 0.000000 0.000000 0.000000 0.042083 0.000000
# 6 0.000000 0.000000 0.000000 0.000000 0.000000 0.032814
#
#
# Mechanical properties :
#
#
# Convention : Reuss Voigt Hill
#
# Bulk Modulus (GPa) = 57.58760 64.87780 61.23270
# Shear Modulus (GPa) = 26.78392 28.07019 27.42706
#
# Velocity S-wave (km/s) = 3.70448 3.79238 3.74869
# Velocity P-wave (km/s) = 6.91400 7.23998 7.07887
#
# Compressibility (1/GPa) = 0.01736485
#
# Stress axis : x y z
#
# Youngs Moduli (GPa) = 90.41903 89.01163 53.19379
#
# Poissons Ratio (x) = 0.33420 0.12711
# Poissons Ratio (y) = 0.33948 0.30427
# Poissons Ratio (z) = 0.21606 0.50916
#
# Static dielectric constant tensor:
#      x y z
#    x 3.729220 0.000000 0.000000 
#    y 0.000000 3.688840 0.000000 
#    z 0.000000 0.000000 3.545150 
# 
# 
# High freq. dielectric constant tensor:
#      x y z
#    x 1.768670 0.000000 0.000000 
#    y 0.000000 1.763310 0.000000 
#    z 0.000000 0.000000 1.757480 
# 
# From -- ./inp_files/11566.got.cif
#   From: 2010.03.12/outbox.cif.g09.slc.cpg/sg50_6_cif.got.tgz:11566.got - 2010.04.16 13:23:21.
