data_PCOD8205572
_publ_section_title
;
Structure prediction by ZEFSAII (Michael W. Deem and Ramdas Pophale) SiO2 
 PCOD8205572
Probable space group: P B A N
;
_chemical_formula_sum "Si O2"
_cell_formula_units_Z 30
_cell_length_a 12.454862
_cell_length_b 20.283784
_cell_length_c 5.234691
_cell_angle_alpha 90.000000
_cell_angle_beta 90.000000
_cell_angle_gamma 90.000000
_cell_volume 1322.449046
_symmetry_space_group_name_H-M "P B A N"
_symmetry_group_IT_number 50
_space_group.IT_coordinate_system_code '2'
_symmetry_cell_setting 'orthorhombic'
loop_
_space_group_symop_operation_xyz
x,y,z
1/2-x,1/2-y,z
x,1/2-y,-z
1/2-x,y,-z
-x,-y,-z
1/2+x,1/2+y,-z
-x,1/2+y,z
1/2+x,-y,z
loop_
_atom_site_type_symbol
_atom_site_label
_atom_site_fract_x
_atom_site_fract_y
_atom_site_fract_z
Si Si1 0.990431 0.043863 0.247786
Si Si2 0.822082 0.157742 0.249238
Si Si3 0.358235 0.153279 0.626833
Si Si4 0.021753 0.750000 0.500000
Si Si5 0.250000 0.250000 0.000000
O O1 0.882684 0.087613 0.238046
O O2 0.093244 0.090607 0.234951
O O3 0.000000 0.000000 0.500000
O O4 0.000000 0.000000 0.000000
O O5 0.750000 0.156894 0.500000
O O6 0.903523 0.220768 0.271422
O O7 0.750000 0.167770 0.000000
O O8 0.250000 0.127738 0.500000
O O9 0.443436 0.187517 0.426335
O O10 0.331421 0.208128 0.833022
#
# Coordination Sequence:
#
# PCOD8205572 Si02
#       5
#     8   8   8   4   2
#     4  11  27  48  72 104 144 195 249 298 363 441
#     4  11  25  45  70 102 143 193 241 300 360 439
#     4  11  24  44  71 109 147 186 239 313 379 444
#     4  10  22  44  68 102 144 176 240 298 374 438
#     4  12  22  40  76 110 150 180 250 302 402 436
#
# _framework density 22.685184
#
# number of rings (size 3 to 8) (size 9 to 14) (size 15 to 20)
#    0.000    1.067    2.667    2.000    3.733    9.600 
#    0.000    0.000    0.000    0.000    0.000    0.000 
#    0.000    0.000    0.000    0.000    0.000    0.000 
#
# Total GULP energy -371761.555013 kJ/mol
# GULP energy per Si atom -12392.051834 kJ/mol
# Density = 2.263355 g / cm^3
# Si number density = 22.685184 Si / 1000 Ang^3
#
#
#
# Elastic Constant Matrix: (Units=GPa)
#
#
# Indices 1 2 3 4 5 6 
#
# 1 176.2270 84.1858 76.4675 0.0000 0.0000 0.0000
# 2 84.1858 165.9629 79.4388 0.0000 0.0000 0.0000
# 3 76.4675 79.4388 160.3672 0.0000 0.0000 0.0000
# 4 0.0000 0.0000 0.0000 -30.3229 0.0000 0.0000
# 5 0.0000 0.0000 0.0000 0.0000 33.3816 0.0000
# 6 0.0000 0.0000 0.0000 0.0000 0.0000 51.3593
#
#
#
# Elastic Compliance Matrix: (Units=1/GPa)
#
#
# Indices 1 2 3 4 5 6 
#
# 1 0.008141 -0.002978 -0.002407 0.000000 0.000000 0.000000
# 2 -0.002978 0.008987 -0.003032 0.000000 0.000000 0.000000
# 3 -0.002407 -0.003032 0.008885 0.000000 0.000000 0.000000
# 4 0.000000 0.000000 0.000000 -0.032978 0.000000 0.000000
# 5 0.000000 0.000000 0.000000 0.000000 0.029957 0.000000
# 6 0.000000 0.000000 0.000000 0.000000 0.000000 0.019471
#
#
# Mechanical properties :
#
#
# Convention : Reuss Voigt Hill
#
# Bulk Modulus (GPa) = 108.92648 109.19349 109.05999
# Shear Modulus (GPa) = 80.18415 28.38126 54.28271
#
# Velocity S-wave (km/s) = 5.95174 3.54092 4.89700
# Velocity P-wave (km/s) = 9.76482 8.05954 8.95288
#
# Compressibility (1/GPa) = 0.00918050
#
# Stress axis : x y z
#
# Youngs Moduli (GPa) = 122.82876 111.26985 112.54456
#
# Poissons Ratio (x) = 0.33132 0.27090
# Poissons Ratio (y) = 0.36574 0.34124
# Poissons Ratio (z) = 0.29566 0.33737
#
# Static dielectric constant tensor:
#      x y z
#    x 4.601020 0.000000 0.000000 
#    y 0.000000 4.134690 0.000000 
#    z 0.000000 0.000000 1.885010 
# 
# 
# High freq. dielectric constant tensor:
#      x y z
#    x 1.923040 0.000000 0.000000 
#    y 0.000000 1.905730 0.000000 
#    z 0.000000 0.000000 1.880050 
# 
# From -- ./inp_files/1912.got.cif
#   From: 2010.03.12/outbox.cif.g09.slc.cpg/sg50_1_cif.got.tgz:1912.got - 2010.04.16 13:23:21.
