data_PCOD8205366
_publ_section_title
;
Structure prediction by ZEFSAII (Michael W. Deem and Ramdas Pophale) SiO2 
 PCOD8205366
Probable space group: P B A N
;
_chemical_formula_sum "Si O2"
_cell_formula_units_Z 48
_cell_length_a 8.303116
_cell_length_b 15.265948
_cell_length_c 16.032550
_cell_angle_alpha 90.000000
_cell_angle_beta 90.000000
_cell_angle_gamma 90.000000
_cell_volume 2032.204867
_symmetry_space_group_name_H-M "P B A N"
_symmetry_group_IT_number 50
_space_group.IT_coordinate_system_code '2'
_symmetry_cell_setting 'orthorhombic'
loop_
_space_group_symop_operation_xyz
x,y,z
1/2-x,1/2-y,z
x,1/2-y,-z
1/2-x,y,-z
-x,-y,-z
1/2+x,1/2+y,-z
-x,1/2+y,z
1/2+x,-y,z
loop_
_atom_site_type_symbol
_atom_site_label
_atom_site_fract_x
_atom_site_fract_y
_atom_site_fract_z
Si Si1 0.171387 0.935742 0.910473
Si Si2 0.550936 0.415578 0.649870
Si Si3 0.369496 0.929544 0.421619
Si Si4 0.063410 0.227773 0.358336
Si Si5 0.565910 0.223335 0.819530
Si Si6 0.493346 0.911874 0.835404
O O1 0.052270 0.854841 0.887425
O O2 0.306441 0.936018 0.840224
O O3 0.084655 0.029385 0.903951
O O4 0.250000 0.920408 0.000000
O O5 0.470133 0.479711 0.581093
O O6 0.744020 0.430256 0.656366
O O7 0.531817 0.315899 0.619910
O O8 0.462657 0.430678 0.738910
O O9 0.250000 0.921462 0.500000
O O10 0.498002 0.849731 0.417965
O O11 0.250000 0.250000 0.373437
O O12 0.029610 0.195614 0.263676
O O13 0.750000 0.250000 0.797733
O O14 0.478516 0.309674 0.857943
#
# Coordination Sequence:
#
# PCOD8205366 Si02
#       6
#     8   8   8   8   8   8
#     4  11  22  38  61  93 132 172 222 283 354 412
#     4  11  23  42  67  95 132 182 235 288 350 427
#     4  12  25  44  68 101 140 180 230 295 365 422
#     4  11  23  41  67  99 133 180 237 292 351 426
#     4   9  20  39  63  90 125 176 230 281 345 423
#     4  10  21  38  62  90 124 172 225 275 334 414
#
# _framework density 23.619665000000001
#
# number of rings (size 3 to 8) (size 9 to 14) (size 15 to 20)
#    0.000    1.333    0.000    7.500    0.000    8.333 
#    0.000    0.833    0.000    1.000    0.000    0.000 
#    0.000    0.000    0.000    0.000    0.000    0.000 
#
# Total GULP energy -594984.500088 kJ/mol
# GULP energy per Si atom -12395.510418 kJ/mol
# Density = 2.356591 g / cm^3
# Si number density = 23.619665 Si / 1000 Ang^3
#
#
#
# Elastic Constant Matrix: (Units=GPa)
#
#
# Indices 1 2 3 4 5 6 
#
# 1 84.0968 41.5547 21.6538 0.0000 0.0000 0.0000
# 2 41.5547 180.1320 63.4720 0.0000 0.0000 0.0000
# 3 21.6538 63.4720 102.4500 0.0000 0.0000 0.0000
# 4 0.0000 0.0000 0.0000 26.6747 0.0000 0.0000
# 5 0.0000 0.0000 0.0000 0.0000 37.0335 0.0000
# 6 0.0000 0.0000 0.0000 0.0000 0.0000 49.3604
#
#
#
# Elastic Compliance Matrix: (Units=1/GPa)
#
#
# Indices 1 2 3 4 5 6 
#
# 1 0.013532 -0.002704 -0.001185 0.000000 0.000000 0.000000
# 2 -0.002704 0.007642 -0.004163 0.000000 0.000000 0.000000
# 3 -0.001185 -0.004163 0.012590 0.000000 0.000000 0.000000
# 4 0.000000 0.000000 0.000000 0.037489 0.000000 0.000000
# 5 0.000000 0.000000 0.000000 0.000000 0.027003 0.000000
# 6 0.000000 0.000000 0.000000 0.000000 0.000000 0.020259
#
#
# Mechanical properties :
#
#
# Convention : Reuss Voigt Hill
#
# Bulk Modulus (GPa) = 56.62270 68.89330 62.75800
# Shear Modulus (GPa) = 35.58543 38.61361 37.09952
#
# Velocity S-wave (km/s) = 3.88571 4.04766 3.96751
# Velocity P-wave (km/s) = 6.64503 7.14674 6.90044
#
# Compressibility (1/GPa) = 0.01766076
#
# Stress axis : x y z
#
# Youngs Moduli (GPa) = 73.89674 130.85106 79.42503
#
# Poissons Ratio (x) = 0.35386 0.09410
# Poissons Ratio (y) = 0.19984 0.33066
# Poissons Ratio (z) = 0.08755 0.54475
#
# Static dielectric constant tensor:
#      x y z
#    x 4.365520 0.000000 0.000000 
#    y 0.000000 4.527330 0.000000 
#    z 0.000000 0.000000 4.013690 
# 
# 
# High freq. dielectric constant tensor:
#      x y z
#    x 1.926110 0.000000 0.000000 
#    y 0.000000 1.948340 0.000000 
#    z 0.000000 0.000000 1.922650 
# 
# From -- ./inp_files/28683.got.cif
#   From: 2010.03.12/outbox.cif.g09.slc.cpg/sg50_15_cif.got.tgz:28683.got - 2010.04.16 13:23:21.
