data_PCOD8205092
_publ_section_title
;
Structure prediction by ZEFSAII (Michael W. Deem and Ramdas Pophale) SiO2 
 PCOD8205092
Probable space group: P B A N
;
_chemical_formula_sum "Si O2"
_cell_formula_units_Z 40
_cell_length_a 24.893407
_cell_length_b 8.742041
_cell_length_c 7.731173
_cell_angle_alpha 90.000000
_cell_angle_beta 90.000000
_cell_angle_gamma 90.000000
_cell_volume 1682.451564
_symmetry_space_group_name_H-M "P B A N"
_symmetry_group_IT_number 50
_space_group.IT_coordinate_system_code '2'
_symmetry_cell_setting 'orthorhombic'
loop_
_space_group_symop_operation_xyz
x,y,z
1/2-x,1/2-y,z
x,1/2-y,-z
1/2-x,y,-z
-x,-y,-z
1/2+x,1/2+y,-z
-x,1/2+y,z
1/2+x,-y,z
loop_
_atom_site_type_symbol
_atom_site_label
_atom_site_fract_x
_atom_site_fract_y
_atom_site_fract_z
Si Si1 0.463317 0.457556 0.338667
Si Si2 0.643516 0.409891 0.771846
Si Si3 0.957920 0.652231 0.827880
Si Si4 0.249455 0.422943 0.205860
Si Si5 0.639465 0.060405 0.819860
O O1 0.500000 0.500000 0.500000
O O2 0.401091 0.507733 0.346843
O O3 0.488765 0.545075 0.168565
O O4 0.466649 0.275952 0.322255
O O5 0.701702 0.476282 0.715530
O O6 0.635659 0.229896 0.742151
O O7 0.637273 0.446187 0.973430
O O8 0.909236 0.546849 0.761454
O O9 0.946334 0.750000 0.000000
O O10 0.250000 0.250000 0.277171
O O11 0.193761 0.496980 0.264732
O O12 0.250000 0.424809 0.000000
#
# Coordination Sequence:
#
# PCOD8205092 Si02
#       5
#     8   8   8   8   8
#     4  12  26  42  62  91 132 177 224 282 350 415
#     4  10  20  36  58  91 134 175 219 271 337 401
#     4  12  24  41  65  93 127 175 233 286 345 406
#     4   9  17  30  55  92 134 169 212 272 337 394
#     4  10  20  34  61  94 129 170 221 281 330 392
#
# _framework density 23.774829
#
# number of rings (size 3 to 8) (size 9 to 14) (size 15 to 20)
#    0.000    1.400    2.000    4.200    5.600    2.400 
#    0.000    0.000    0.000    1.200    0.000    7.000 
#    0.000    0.000    0.000    0.000    0.000    0.000 
#
# Total GULP energy -495882.994704 kJ/mol
# GULP energy per Si atom -12397.074868 kJ/mol
# Density = 2.372072 g / cm^3
# Si number density = 23.774829 Si / 1000 Ang^3
#
#
#
# Elastic Constant Matrix: (Units=GPa)
#
#
# Indices 1 2 3 4 5 6 
#
# 1 192.1681 76.5726 11.7927 0.0000 0.0000 0.0000
# 2 76.5726 184.8288 8.7582 0.0000 0.0000 0.0000
# 3 11.7927 8.7582 39.0293 0.0000 0.0000 0.0000
# 4 0.0000 0.0000 0.0000 19.4948 0.0000 0.0000
# 5 0.0000 0.0000 0.0000 0.0000 23.3731 0.0000
# 6 0.0000 0.0000 0.0000 0.0000 0.0000 60.5367
#
#
#
# Elastic Compliance Matrix: (Units=1/GPa)
#
#
# Indices 1 2 3 4 5 6 
#
# 1 0.006300 -0.002547 -0.001332 0.000000 0.000000 0.000000
# 2 -0.002547 0.006498 -0.000689 0.000000 0.000000 0.000000
# 3 -0.001332 -0.000689 0.026179 0.000000 0.000000 0.000000
# 4 0.000000 0.000000 0.000000 0.051296 0.000000 0.000000
# 5 0.000000 0.000000 0.000000 0.000000 0.042784 0.000000
# 6 0.000000 0.000000 0.000000 0.000000 0.000000 0.016519
#
#
# Mechanical properties :
#
#
# Convention : Reuss Voigt Hill
#
# Bulk Modulus (GPa) = 33.50995 67.80813 50.65904
# Shear Modulus (GPa) = 29.64557 41.94111 35.79334
#
# Velocity S-wave (km/s) = 3.53502 4.20467 3.88430
# Velocity P-wave (km/s) = 5.54862 7.22186 6.43981
#
# Compressibility (1/GPa) = 0.02984188
#
# Stress axis : x y z
#
# Youngs Moduli (GPa) = 158.71877 153.88702 38.19888
#
# Poissons Ratio (x) = 0.39196 0.05089
# Poissons Ratio (y) = 0.40427 0.02630
# Poissons Ratio (z) = 0.21143 0.10597
#
# Static dielectric constant tensor:
#      x y z
#    x 4.504090 0.000000 0.000000 
#    y 0.000000 4.686590 0.000000 
#    z 0.000000 0.000000 3.753940 
# 
# 
# High freq. dielectric constant tensor:
#      x y z
#    x 1.953070 0.000000 0.000000 
#    y 0.000000 1.964590 0.000000 
#    z 0.000000 0.000000 1.906760 
# 
# From -- ./inp_files/9553.got.cif
#   From: 2010.03.12/outbox.cif.g09.slc.cpg/sg50_5_cif.got.tgz:9553.got - 2010.04.16 13:23:21.
