data_PCOD8205579
_publ_section_title
;
Structure prediction by ZEFSAII (Michael W. Deem and Ramdas Pophale) SiO2 
 PCOD8205579
Probable space group: P B A N
;
_chemical_formula_sum "Si O2"
_cell_formula_units_Z 56
_cell_length_a 10.926515
_cell_length_b 14.391730
_cell_length_c 15.443978
_cell_angle_alpha 90.000000
_cell_angle_beta 90.000000
_cell_angle_gamma 90.000000
_cell_volume 2428.587992
_symmetry_space_group_name_H-M "P B A N"
_symmetry_group_IT_number 50
_space_group.IT_coordinate_system_code '2'
_symmetry_cell_setting 'orthorhombic'
loop_
_space_group_symop_operation_xyz
x,y,z
1/2-x,1/2-y,z
x,1/2-y,-z
1/2-x,y,-z
-x,-y,-z
1/2+x,1/2+y,-z
-x,1/2+y,z
1/2+x,-y,z
loop_
_atom_site_type_symbol
_atom_site_label
_atom_site_fract_x
_atom_site_fract_y
_atom_site_fract_z
Si Si1 0.891328 0.229198 0.766859
Si Si2 0.113561 0.785061 0.586917
Si Si3 0.126947 0.506277 0.443896
Si Si4 0.110966 0.351264 0.990086
Si Si5 0.547213 0.895881 0.195627
Si Si6 0.274967 0.144740 0.307250
Si Si7 0.954330 0.584152 0.830678
O O1 0.750000 0.250000 0.766683
O O2 0.946527 0.233565 0.668836
O O3 0.965720 0.305562 0.818952
O O4 0.912842 0.129534 0.810301
O O5 0.250000 0.750000 0.577511
O O6 0.042220 0.750000 0.500000
O O7 0.110574 0.895670 0.605650
O O8 0.250000 0.514992 0.500000
O O9 0.155600 0.419941 0.378732
O O10 0.000000 0.500000 0.500000
O O11 0.066118 0.419015 0.066838
O O12 0.043116 0.250000 0.000000
O O13 0.250000 0.327880 0.000000
O O14 0.104044 0.407056 0.899768
O O15 0.644081 0.895737 0.275077
O O16 0.455847 0.982178 0.211022
O O17 0.250000 0.250000 0.342337
O O18 0.356418 0.148918 0.219969
#
# Coordination Sequence:
#
# PCOD8205579 Si02
#       7
#     8   8   8   8   8   8   8
#     4  11  26  43  69 105 144 190 243 309 382 451
#     4  10  22  45  74  98 135 194 247 291 368 454
#     4  12  30  49  74 112 150 196 251 316 383 452
#     4  11  21  44  72 102 143 194 251 308 386 460
#     4  12  26  45  73 109 145 191 258 315 383 460
#     4  12  27  50  77 110 148 200 254 314 377 460
#     4  12  26  44  73 107 145 191 245 314 375 456
#
# _framework density 23.058665999999999
#
# number of rings (size 3 to 8) (size 9 to 14) (size 15 to 20)
#    0.000    0.571    5.714    1.286   12.000    0.286 
#    0.000    1.429    0.000    0.000    0.000    0.000 
#    0.000    0.000    0.000    0.000    0.000    0.000 
#
# Total GULP energy -693752.764273 kJ/mol
# GULP energy per Si atom -12388.442219 kJ/mol
# Density = 2.300618 g / cm^3
# Si number density = 23.058666 Si / 1000 Ang^3
#
#
#
# Elastic Constant Matrix: (Units=GPa)
#
#
# Indices 1 2 3 4 5 6 
#
# 1 80.5221 16.8589 32.0959 0.0000 0.0000 0.0000
# 2 16.8589 124.0469 36.7002 0.0000 0.0000 0.0000
# 3 32.0959 36.7002 116.2881 0.0000 0.0000 0.0000
# 4 0.0000 0.0000 0.0000 48.3514 0.0000 0.0000
# 5 0.0000 0.0000 0.0000 0.0000 29.5854 0.0000
# 6 0.0000 0.0000 0.0000 0.0000 0.0000 32.7522
#
#
#
# Elastic Compliance Matrix: (Units=1/GPa)
#
#
# Indices 1 2 3 4 5 6 
#
# 1 0.014033 -0.000840 -0.003608 0.000000 0.000000 0.000000
# 2 -0.000840 0.008942 -0.002590 0.000000 0.000000 0.000000
# 3 -0.003608 -0.002590 0.010413 0.000000 0.000000 0.000000
# 4 0.000000 0.000000 0.000000 0.020682 0.000000 0.000000
# 5 0.000000 0.000000 0.000000 0.000000 0.033800 0.000000
# 6 0.000000 0.000000 0.000000 0.000000 0.000000 0.030532
#
#
# Mechanical properties :
#
#
# Convention : Reuss Voigt Hill
#
# Bulk Modulus (GPa) = 51.78309 54.68525 53.23417
# Shear Modulus (GPa) = 35.99307 37.81793 36.90550
#
# Velocity S-wave (km/s) = 3.95515 4.05418 4.00497
# Velocity P-wave (km/s) = 6.58510 6.75887 6.67255
#
# Compressibility (1/GPa) = 0.01931132
#
# Stress axis : x y z
#
# Youngs Moduli (GPa) = 71.26088 111.83250 96.03676
#
# Poissons Ratio (x) = 0.09390 0.34651
# Poissons Ratio (y) = 0.05984 0.24876
# Poissons Ratio (z) = 0.25712 0.28968
#
# Static dielectric constant tensor:
#      x y z
#    x 4.101040 0.000000 0.000000 
#    y 0.000000 4.314550 0.000000 
#    z 0.000000 0.000000 5.207600 
# 
# 
# High freq. dielectric constant tensor:
#      x y z
#    x 1.900180 0.000000 0.000000 
#    y 0.000000 1.917370 0.000000 
#    z 0.000000 0.000000 1.918220 
# 
# From -- ./inp_files/25944.got.cif
#   From: 2010.03.12/outbox.cif.g09.slc.cpg/sg50_13_cif.got.tgz:25944.got - 2010.04.16 13:23:21.
