data_PCOD8205910
_publ_section_title
;
Structure prediction by ZEFSAII (Michael W. Deem and Ramdas Pophale) SiO2 
 PCOD8205910
Probable space group: P B A N
;
_chemical_formula_sum "Si O2"
_cell_formula_units_Z 28
_cell_length_a 15.251039
_cell_length_b 14.216807
_cell_length_c 5.086725
_cell_angle_alpha 90.000000
_cell_angle_beta 90.000000
_cell_angle_gamma 90.000000
_cell_volume 1102.909198
_symmetry_space_group_name_H-M "P B A N"
_symmetry_group_IT_number 50
_space_group.IT_coordinate_system_code '2'
_symmetry_cell_setting 'orthorhombic'
loop_
_space_group_symop_operation_xyz
x,y,z
1/2-x,1/2-y,z
x,1/2-y,-z
1/2-x,y,-z
-x,-y,-z
1/2+x,1/2+y,-z
-x,1/2+y,z
1/2+x,-y,z
loop_
_atom_site_type_symbol
_atom_site_label
_atom_site_fract_x
_atom_site_fract_y
_atom_site_fract_z
Si Si1 0.326599 0.582710 0.297154
Si Si2 0.119811 0.096902 0.052021
Si Si3 0.750000 0.750000 0.000000
Si Si4 0.250000 0.750000 0.000000
Si Si5 0.012201 0.360237 0.467109
O O1 0.250000 0.555765 0.500000
O O2 0.330363 0.503569 0.067368
O O3 0.312132 0.685270 0.175204
O O4 0.420508 0.587116 0.433936
O O5 0.186166 0.178885 0.158408
O O6 0.041258 0.095282 0.258043
O O7 0.083166 0.117493 0.761334
O O8 0.998173 0.250000 0.500000
#
# Coordination Sequence:
#
# PCOD8205910 Si02
#       5
#     8   8   2   2   8
#     4  12  30  50  81 115 160 214 271 331 398 481
#     4  12  29  49  82 115 163 203 268 328 404 474
#     4  12  26  52  80 120 154 214 254 338 394 472
#     4  12  28  50  76 112 152 214 268 336 384 482
#     4  12  26  52  79 119 160 212 258 332 400 473
#
# _framework density 25.387404
#
# number of rings (size 3 to 8) (size 9 to 14) (size 15 to 20)
#    0.000    0.000    2.857    4.714   16.000    1.143 
#    0.000    0.000    0.000    0.000    0.000    0.000 
#    0.000    0.000    0.000    0.000    0.000    0.000 
#
# Total GULP energy -347181.053606 kJ/mol
# GULP energy per Si atom -12399.323343 kJ/mol
# Density = 2.532962 g / cm^3
# Si number density = 25.387404 Si / 1000 Ang^3
#
#
#
# Elastic Constant Matrix: (Units=GPa)
#
#
# Indices 1 2 3 4 5 6 
#
# 1 129.7042 28.0075 1.6064 0.0000 0.0000 0.0000
# 2 28.0075 173.0122 2.7573 0.0000 0.0000 0.0000
# 3 1.6064 2.7573 62.1441 0.0000 0.0000 0.0000
# 4 0.0000 0.0000 0.0000 8.6503 0.0000 0.0000
# 5 0.0000 0.0000 0.0000 0.0000 5.6648 0.0000
# 6 0.0000 0.0000 0.0000 0.0000 0.0000 77.6386
#
#
#
# Elastic Compliance Matrix: (Units=1/GPa)
#
#
# Indices 1 2 3 4 5 6 
#
# 1 0.007990 -0.001291 -0.000149 0.000000 0.000000 0.000000
# 2 -0.001291 0.005993 -0.000233 0.000000 0.000000 0.000000
# 3 -0.000149 -0.000233 0.016106 0.000000 0.000000 0.000000
# 4 0.000000 0.000000 0.000000 0.115603 0.000000 0.000000
# 5 0.000000 0.000000 0.000000 0.000000 0.176528 0.000000
# 6 0.000000 0.000000 0.000000 0.000000 0.000000 0.012880
#
#
# Mechanical properties :
#
#
# Convention : Reuss Voigt Hill
#
# Bulk Modulus (GPa) = 37.39277 47.73365 42.56321
# Shear Modulus (GPa) = 14.39431 40.55671 27.47551
#
# Velocity S-wave (km/s) = 2.38373 4.00123 3.29333
# Velocity P-wave (km/s) = 4.72621 6.33951 5.59135
#
# Compressibility (1/GPa) = 0.02674314
#
# Stress axis : x y z
#
# Youngs Moduli (GPa) = 125.14867 166.87094 62.08941
#
# Poissons Ratio (x) = 0.21545 0.00927
# Poissons Ratio (y) = 0.16158 0.01444
# Poissons Ratio (z) = 0.01868 0.03880
#
# Static dielectric constant tensor:
#      x y z
#    x 4.789770 0.000000 0.000000 
#    y 0.000000 5.064620 0.000000 
#    z 0.000000 0.000000 4.298220 
# 
# 
# High freq. dielectric constant tensor:
#      x y z
#    x 2.035720 0.000000 0.000000 
#    y 0.000000 2.047490 0.000000 
#    z 0.000000 0.000000 1.993820 
# 
# From -- ./inp_files/3972.got.cif
#   From: 2010.03.12/outbox.cif.g09.slc.cpg/sg50_2_cif.got.tgz:3972.got - 2010.04.16 13:23:21.
