data_PCOD8205875
_publ_section_title
;
Structure prediction by ZEFSAII (Michael W. Deem and Ramdas Pophale) SiO2 
 PCOD8205875
Probable space group: P B A N
;
_chemical_formula_sum "Si O2"
_cell_formula_units_Z 32
_cell_length_a 18.292752
_cell_length_b 8.952747
_cell_length_c 8.088767
_cell_angle_alpha 90.000000
_cell_angle_beta 90.000000
_cell_angle_gamma 90.000000
_cell_volume 1324.700450
_symmetry_space_group_name_H-M "P B A N"
_symmetry_group_IT_number 50
_space_group.IT_coordinate_system_code '2'
_symmetry_cell_setting 'orthorhombic'
loop_
_space_group_symop_operation_xyz
x,y,z
1/2-x,1/2-y,z
x,1/2-y,-z
1/2-x,y,-z
-x,-y,-z
1/2+x,1/2+y,-z
-x,1/2+y,z
1/2+x,-y,z
loop_
_atom_site_type_symbol
_atom_site_label
_atom_site_fract_x
_atom_site_fract_y
_atom_site_fract_z
Si Si1 0.104098 0.103092 0.692396
Si Si2 0.272534 0.579857 0.816704
Si Si3 0.352660 0.425795 0.324084
Si Si4 0.039010 0.612573 0.883496
O O1 0.107309 0.061565 0.499566
O O2 0.147273 0.254873 0.736248
O O3 0.020452 0.142557 0.739209
O O4 0.141228 0.962644 0.791308
O O5 0.250000 0.750000 0.781517
O O6 0.231501 0.478823 0.678075
O O7 0.250000 0.531529 0.000000
O O8 0.389466 0.540960 0.195670
O O9 0.063047 0.750000 0.000000
O O10 0.000000 0.500000 0.000000
#
# Coordination Sequence:
#
# PCOD8205875 Si02
#       4
#     8   8   8   8
#     4  11  25  46  68 100 139 183 230 285 352 420
#     4  11  26  43  69 101 137 179 232 289 347 412
#     4  11  25  45  70  99 138 184 230 285 352 420
#     4  12  25  44  71 100 138 180 230 286 345 415
#
# _framework density 24.156403000000001
#
# number of rings (size 3 to 8) (size 9 to 14) (size 15 to 20)
#    0.000    0.750    2.500    3.750    7.000    5.000 
#    0.000    0.000    0.000    0.000    0.000    0.000 
#    0.000    0.000    0.000    0.000    0.000    0.000 
#
# Total GULP energy -396698.640839 kJ/mol
# GULP energy per Si atom -12396.832526 kJ/mol
# Density = 2.410142 g / cm^3
# Si number density = 24.156403 Si / 1000 Ang^3
#
#
#
# Elastic Constant Matrix: (Units=GPa)
#
#
# Indices 1 2 3 4 5 6 
#
# 1 67.6859 19.3136 11.2080 0.0000 0.0000 0.0000
# 2 19.3136 136.3215 41.5968 0.0000 0.0000 0.0000
# 3 11.2080 41.5968 101.1414 0.0000 0.0000 0.0000
# 4 0.0000 0.0000 0.0000 45.4457 0.0000 0.0000
# 5 0.0000 0.0000 0.0000 0.0000 35.0443 0.0000
# 6 0.0000 0.0000 0.0000 0.0000 0.0000 44.8772
#
#
#
# Elastic Compliance Matrix: (Units=1/GPa)
#
#
# Indices 1 2 3 4 5 6 
#
# 1 0.015473 -0.001908 -0.000930 0.000000 0.000000 0.000000
# 2 -0.001908 0.008624 -0.003335 0.000000 0.000000 0.000000
# 3 -0.000930 -0.003335 0.011362 0.000000 0.000000 0.000000
# 4 0.000000 0.000000 0.000000 0.022004 0.000000 0.000000
# 5 0.000000 0.000000 0.000000 0.000000 0.028535 0.000000
# 6 0.000000 0.000000 0.000000 0.000000 0.000000 0.022283
#
#
# Mechanical properties :
#
#
# Convention : Reuss Voigt Hill
#
# Bulk Modulus (GPa) = 43.26858 49.93174 46.60016
# Shear Modulus (GPa) = 38.96165 40.60880 39.78522
#
# Velocity S-wave (km/s) = 4.02044 4.10454 4.06271
# Velocity P-wave (km/s) = 6.28511 6.57100 6.42965
#
# Compressibility (1/GPa) = 0.02311146
#
# Stress axis : x y z
#
# Youngs Moduli (GPa) = 64.63032 115.95977 88.01378
#
# Poissons Ratio (x) = 0.22130 0.08183
# Poissons Ratio (y) = 0.12334 0.29354
# Poissons Ratio (z) = 0.06009 0.38675
#
# Static dielectric constant tensor:
#      x y z
#    x 5.208090 0.000000 0.000000 
#    y 0.000000 4.220810 0.000000 
#    z 0.000000 0.000000 3.908960 
# 
# 
# High freq. dielectric constant tensor:
#      x y z
#    x 1.967340 0.000000 0.000000 
#    y 0.000000 1.964020 0.000000 
#    z 0.000000 0.000000 1.963100 
# 
# From -- ./inp_files/14848.got.cif
#   From: 2010.03.12/outbox.cif.g09.slc.cpg/sg50_8_cif.got.tgz:14848.got - 2010.04.16 13:23:21.
