data_PCOD8205325
_publ_section_title
;
Structure prediction by ZEFSAII (Michael W. Deem and Ramdas Pophale) SiO2 
 PCOD8205325
Probable space group: P B A N
;
_chemical_formula_sum "Si O2"
_cell_formula_units_Z 58
_cell_length_a 11.069310
_cell_length_b 28.521239
_cell_length_c 9.138217
_cell_angle_alpha 90.000000
_cell_angle_beta 90.000000
_cell_angle_gamma 90.000000
_cell_volume 2885.030474
_symmetry_space_group_name_H-M "P B A N"
_symmetry_group_IT_number 50
_space_group.IT_coordinate_system_code '2'
_symmetry_cell_setting 'orthorhombic'
loop_
_space_group_symop_operation_xyz
x,y,z
1/2-x,1/2-y,z
x,1/2-y,-z
1/2-x,y,-z
-x,-y,-z
1/2+x,1/2+y,-z
-x,1/2+y,z
1/2+x,-y,z
loop_
_atom_site_type_symbol
_atom_site_label
_atom_site_fract_x
_atom_site_fract_y
_atom_site_fract_z
Si Si1 0.436200 0.818102 0.630716
Si Si2 0.250000 0.750000 0.500000
Si Si3 0.272185 0.105121 0.170057
Si Si4 0.978899 0.442164 0.128837
Si Si5 0.706137 0.367559 0.843927
Si Si6 0.364343 0.895478 0.407996
Si Si7 0.203027 0.200487 0.660259
Si Si8 0.462193 0.452589 0.207523
O O1 0.332300 0.781385 0.601226
O O2 0.406791 0.836191 0.793654
O O3 0.439651 0.860701 0.512864
O O4 0.561300 0.791895 0.641802
O O5 0.405132 0.083655 0.201536
O O6 0.259922 0.156533 0.240165
O O7 0.170638 0.069655 0.234130
O O8 0.250000 0.111717 0.000000
O O9 0.847898 0.419836 0.155271
O O10 0.962740 0.491424 0.210324
O O11 0.990626 0.440153 0.953758
O O12 0.814739 0.364535 0.727288
O O13 0.750000 0.349455 0.000000
O O14 0.250000 0.916770 0.500000
O O15 0.450302 0.935268 0.338837
O O16 0.250000 0.250000 0.725952
O O17 0.250000 0.189996 0.500000
#
# Coordination Sequence:
#
# PCOD8205325 Si02
#       8
#     8   2   8   8   8   8   8   8
#     4  11  23  41  64  89 124 163 205 259 319 372
#     4  12  20  40  64  88 120 160 210 254 312 384
#     4  10  22  40  63  92 126 160 205 260 316 365
#     4  10  21  36  62  93 126 164 208 253 306 374
#     4  11  20  38  66  91 122 162 205 255 305 374
#     4  10  21  39  60  91 122 164 206 248 316 370
#     4  11  23  42  66  92 118 164 216 256 310 378
#     4  10  21  36  62  93 126 168 205 255 308 379
#
# _framework density 20.103773
#
# number of rings (size 3 to 8) (size 9 to 14) (size 15 to 20)
#    0.000    1.517    4.828    1.655    1.931    0.828 
#    0.000    3.793    3.034    0.000    0.000    0.000 
#    0.000    0.000    0.000    0.000    0.000    0.000 
#
# Total GULP energy -718836.717050 kJ/mol
# GULP energy per Si atom -12393.736501 kJ/mol
# Density = 2.005802 g / cm^3
# Si number density = 20.103773 Si / 1000 Ang^3
#
#
#
# Elastic Constant Matrix: (Units=GPa)
#
#
# Indices 1 2 3 4 5 6 
#
# 1 120.5131 50.9821 44.4035 0.0000 0.0000 0.0000
# 2 50.9821 131.1786 40.7540 0.0000 0.0000 0.0000
# 3 44.4035 40.7540 99.7386 0.0000 0.0000 0.0000
# 4 0.0000 0.0000 0.0000 -55.6221 0.0000 0.0000
# 5 0.0000 0.0000 0.0000 0.0000 31.0468 0.0000
# 6 0.0000 0.0000 0.0000 0.0000 0.0000 41.7559
#
#
#
# Elastic Compliance Matrix: (Units=1/GPa)
#
#
# Indices 1 2 3 4 5 6 
#
# 1 0.010949 -0.003140 -0.003592 0.000000 0.000000 0.000000
# 2 -0.003140 0.009632 -0.002538 0.000000 0.000000 0.000000
# 3 -0.003592 -0.002538 0.012662 0.000000 0.000000 0.000000
# 4 0.000000 0.000000 0.000000 -0.017978 0.000000 0.000000
# 5 0.000000 0.000000 0.000000 0.000000 0.032209 0.000000
# 6 0.000000 0.000000 0.000000 0.000000 0.000000 0.023949
#
#
# Mechanical properties :
#
#
# Convention : Reuss Voigt Hill
#
# Bulk Modulus (GPa) = 68.00425 69.30106 68.65265
# Shear Modulus (GPa) = 52.70732 17.78885 35.24808
#
# Velocity S-wave (km/s) = 5.12587 2.97787 4.19179
# Velocity P-wave (km/s) = 8.30258 6.80956 7.59285
#
# Compressibility (1/GPa) = 0.01470496
#
# Stress axis : x y z
#
# Youngs Moduli (GPa) = 91.32893 103.82228 78.97460
#
# Poissons Ratio (x) = 0.32596 0.28366
# Poissons Ratio (y) = 0.28673 0.20043
# Poissons Ratio (z) = 0.32804 0.26349
#
# Static dielectric constant tensor:
#      x y z
#    x 3.922580 0.000000 0.000000 
#    y 0.000000 3.776910 0.000000 
#    z 0.000000 0.000000 3.678020 
# 
# 
# High freq. dielectric constant tensor:
#      x y z
#    x 1.798180 0.000000 0.000000 
#    y 0.000000 1.776120 0.000000 
#    z 0.000000 0.000000 1.779440 
# 
# From -- ./inp_files/11746.got.cif
#   From: 2010.03.12/outbox.cif.g09.slc.cpg/sg50_6_cif.got.tgz:11746.got - 2010.04.16 13:23:21.
