data_PCOD8205833
_publ_section_title
;
Structure prediction by ZEFSAII (Michael W. Deem and Ramdas Pophale) SiO2 
 PCOD8205833
Probable space group: P B A N
;
_chemical_formula_sum "Si O2"
_cell_formula_units_Z 32
_cell_length_a 10.162716
_cell_length_b 8.617162
_cell_length_c 15.139811
_cell_angle_alpha 90.000000
_cell_angle_beta 90.000000
_cell_angle_gamma 90.000000
_cell_volume 1325.850328
_symmetry_space_group_name_H-M "P B A N"
_symmetry_group_IT_number 50
_space_group.IT_coordinate_system_code '2'
_symmetry_cell_setting 'orthorhombic'
loop_
_space_group_symop_operation_xyz
x,y,z
1/2-x,1/2-y,z
x,1/2-y,-z
1/2-x,y,-z
-x,-y,-z
1/2+x,1/2+y,-z
-x,1/2+y,z
1/2+x,-y,z
loop_
_atom_site_type_symbol
_atom_site_label
_atom_site_fract_x
_atom_site_fract_y
_atom_site_fract_z
Si Si1 0.645393 0.079017 0.354888
Si Si2 0.365277 0.849154 0.843201
Si Si3 0.575601 0.410601 0.419683
Si Si4 0.387223 0.188444 0.901651
O O1 0.683885 0.125421 0.256569
O O2 0.593929 0.222992 0.417958
O O3 0.779396 0.015881 0.401870
O O4 0.530592 0.950711 0.343006
O O5 0.250000 0.750000 0.890464
O O6 0.498843 0.751458 0.838896
O O7 0.386823 0.002850 0.900661
O O8 0.500000 0.500000 0.500000
O O9 0.250000 0.250000 0.862670
O O10 0.410817 0.250000 0.000000
#
# Coordination Sequence:
#
# PCOD8205833 Si02
#       4
#     8   8   8   8
#     4  11  25  44  68 111 142 194 249 298 380 444
#     4  12  24  46  73 106 156 192 255 323 375 456
#     4  11  23  44  71 100 149 183 244 305 364 450
#     4  11  26  45  72 109 149 200 257 307 389 462
#
# _framework density 24.135453999999999
#
# number of rings (size 3 to 8) (size 9 to 14) (size 15 to 20)
#    0.000    0.750    2.500    5.250    3.500    5.500 
#    0.000    2.500    0.000    0.000    0.000    0.000 
#    0.000    0.000    0.000    0.000    0.000    0.000 
#
# Total GULP energy -396513.069615 kJ/mol
# GULP energy per Si atom -12391.033425 kJ/mol
# Density = 2.408052 g / cm^3
# Si number density = 24.135454 Si / 1000 Ang^3
#
#
#
# Elastic Constant Matrix: (Units=GPa)
#
#
# Indices 1 2 3 4 5 6 
#
# 1 242.7872 85.3209 29.6337 0.0000 0.0000 0.0000
# 2 85.3209 141.3520 38.1578 0.0000 0.0000 0.0000
# 3 29.6337 38.1578 101.7533 0.0000 0.0000 0.0000
# 4 0.0000 0.0000 0.0000 14.9013 0.0000 0.0000
# 5 0.0000 0.0000 0.0000 0.0000 13.7406 0.0000
# 6 0.0000 0.0000 0.0000 0.0000 0.0000 62.5882
#
#
#
# Elastic Compliance Matrix: (Units=1/GPa)
#
#
# Indices 1 2 3 4 5 6 
#
# 1 0.005241 -0.003061 -0.000378 0.000000 0.000000 0.000000
# 2 -0.003061 0.009660 -0.002731 0.000000 0.000000 0.000000
# 3 -0.000378 -0.002731 0.010962 0.000000 0.000000 0.000000
# 4 0.000000 0.000000 0.000000 0.067108 0.000000 0.000000
# 5 0.000000 0.000000 0.000000 0.000000 0.072777 0.000000
# 6 0.000000 0.000000 0.000000 0.000000 0.000000 0.015977
#
#
# Mechanical properties :
#
#
# Convention : Reuss Voigt Hill
#
# Bulk Modulus (GPa) = 73.95632 88.01303 80.98468
# Shear Modulus (GPa) = 25.17969 40.43136 32.80552
#
# Velocity S-wave (km/s) = 3.23347 4.09734 3.69077
# Velocity P-wave (km/s) = 6.68200 7.67657 7.19649
#
# Compressibility (1/GPa) = 0.01352150
#
# Stress axis : x y z
#
# Youngs Moduli (GPa) = 190.81051 103.52497 91.22485
#
# Poissons Ratio (x) = 0.31692 0.03451
# Poissons Ratio (y) = 0.58412 0.24912
# Poissons Ratio (z) = 0.07218 0.28271
#
# Static dielectric constant tensor:
#      x y z
#    x 5.258270 0.000000 0.000000 
#    y 0.000000 5.175360 0.000000 
#    z 0.000000 0.000000 4.319610 
# 
# 
# High freq. dielectric constant tensor:
#      x y z
#    x 1.984400 0.000000 0.000000 
#    y 0.000000 1.953270 0.000000 
#    z 0.000000 0.000000 1.958770 
# 
# From -- ./inp_files/25595.got.cif
#   From: 2010.03.12/outbox.cif.g09.slc.cpg/sg50_13_cif.got.tgz:25595.got - 2010.04.16 13:23:21.
