data_PCOD8205405
_publ_section_title
;
Structure prediction by ZEFSAII (Michael W. Deem and Ramdas Pophale) SiO2 
 PCOD8205405
Probable space group: P B A N
;
_chemical_formula_sum "Si O2"
_cell_formula_units_Z 30
_cell_length_a 10.120848
_cell_length_b 24.730578
_cell_length_c 6.901954
_cell_angle_alpha 90.000000
_cell_angle_beta 90.000000
_cell_angle_gamma 90.000000
_cell_volume 1727.520579
_symmetry_space_group_name_H-M "P B A N"
_symmetry_group_IT_number 50
_space_group.IT_coordinate_system_code '2'
_symmetry_cell_setting 'orthorhombic'
loop_
_space_group_symop_operation_xyz
x,y,z
1/2-x,1/2-y,z
x,1/2-y,-z
1/2-x,y,-z
-x,-y,-z
1/2+x,1/2+y,-z
-x,1/2+y,z
1/2+x,-y,z
loop_
_atom_site_type_symbol
_atom_site_label
_atom_site_fract_x
_atom_site_fract_y
_atom_site_fract_z
Si Si1 0.054495 0.980453 0.798419
Si Si2 0.638119 0.146808 0.356723
Si Si3 0.250000 0.750000 0.500000
Si Si4 0.102091 0.421799 0.482390
Si Si5 0.750000 0.094270 0.000000
O O1 0.941288 0.947724 0.685937
O O2 0.103323 0.031793 0.678929
O O3 0.176782 0.941522 0.839908
O O4 0.000000 0.000000 0.000000
O O5 0.750000 0.120499 0.500000
O O6 0.653420 0.212103 0.369746
O O7 0.494230 0.127393 0.425452
O O8 0.653897 0.130948 0.131017
O O9 0.250000 0.398188 0.500000
#
# Coordination Sequence:
#
# PCOD8205405 Si02
#       5
#     8   8   2   8   4
#     4  11  21  33  52  82 120 160 189 218 274 345
#     4  10  21  40  58  83 112 144 198 243 287 342
#     4   8  20  42  66  80 106 144 206 254 292 334
#     4  11  23  35  53  83 124 156 185 232 287 344
#     4  12  20  35  60  86 112 156 197 232 278 354
#
# _framework density 17.365928
#
# number of rings (size 3 to 8) (size 9 to 14) (size 15 to 20)
#    0.800    0.533    5.333    1.600    3.733    0.533 
#    0.000    0.667    0.000    0.000    0.000    0.000 
#    0.000    0.000    0.000    0.000    0.000    0.000 
#
# Total GULP energy -371853.547761 kJ/mol
# GULP energy per Si atom -12395.118259 kJ/mol
# Density = 1.732640 g / cm^3
# Si number density = 17.365928 Si / 1000 Ang^3
#
#
#
# Elastic Constant Matrix: (Units=GPa)
#
#
# Indices 1 2 3 4 5 6 
#
# 1 137.1243 56.3772 41.5089 0.0000 0.0000 0.0000
# 2 56.3772 116.7350 44.2434 0.0000 0.0000 0.0000
# 3 41.5089 44.2434 111.2163 0.0000 0.0000 0.0000
# 4 0.0000 0.0000 0.0000 12.0254 0.0000 0.0000
# 5 0.0000 0.0000 0.0000 0.0000 25.8688 0.0000
# 6 0.0000 0.0000 0.0000 0.0000 0.0000 16.8240
#
#
#
# Elastic Compliance Matrix: (Units=1/GPa)
#
#
# Indices 1 2 3 4 5 6 
#
# 1 0.009470 -0.003808 -0.002019 0.000000 0.000000 0.000000
# 2 -0.003808 0.011619 -0.003201 0.000000 0.000000 0.000000
# 3 -0.002019 -0.003201 0.011019 0.000000 0.000000 0.000000
# 4 0.000000 0.000000 0.000000 0.083157 0.000000 0.000000
# 5 0.000000 0.000000 0.000000 0.000000 0.038657 0.000000
# 6 0.000000 0.000000 0.000000 0.000000 0.000000 0.059439
#
#
# Mechanical properties :
#
#
# Convention : Reuss Voigt Hill
#
# Bulk Modulus (GPa) = 71.17295 72.14829 71.66062
# Shear Modulus (GPa) = 21.17755 25.80672 23.49214
#
# Velocity S-wave (km/s) = 3.49591 3.85912 3.68199
# Velocity P-wave (km/s) = 7.57419 7.84176 7.70914
#
# Compressibility (1/GPa) = 0.01405028
#
# Stress axis : x y z
#
# Youngs Moduli (GPa) = 105.60167 86.06897 90.75631
#
# Poissons Ratio (x) = 0.32775 0.18328
# Poissons Ratio (y) = 0.40212 0.29049
# Poissons Ratio (z) = 0.21326 0.27549
#
# Static dielectric constant tensor:
#      x y z
#    x 3.307830 0.000000 0.000000 
#    y 0.000000 3.152380 0.000000 
#    z 0.000000 0.000000 3.145540 
# 
# 
# High freq. dielectric constant tensor:
#      x y z
#    x 1.660380 0.000000 0.000000 
#    y 0.000000 1.644780 0.000000 
#    z 0.000000 0.000000 1.684780 
# 
# From -- ./inp_files/1165.got.cif
#   From: 2010.03.12/outbox.cif.g09.slc.cpg/sg50_1_cif.got.tgz:1165.got - 2010.04.16 13:23:21.
