data_PCOD8205370
_publ_section_title
;
Structure prediction by ZEFSAII (Michael W. Deem and Ramdas Pophale) SiO2 
 PCOD8205370
Probable space group: P B A N
;
_chemical_formula_sum "Si O2"
_cell_formula_units_Z 48
_cell_length_a 18.867253
_cell_length_b 8.581340
_cell_length_c 13.379887
_cell_angle_alpha 90.000000
_cell_angle_beta 90.000000
_cell_angle_gamma 90.000000
_cell_volume 2166.288171
_symmetry_space_group_name_H-M "P B A N"
_symmetry_group_IT_number 50
_space_group.IT_coordinate_system_code '2'
_symmetry_cell_setting 'orthorhombic'
loop_
_space_group_symop_operation_xyz
x,y,z
1/2-x,1/2-y,z
x,1/2-y,-z
1/2-x,y,-z
-x,-y,-z
1/2+x,1/2+y,-z
-x,1/2+y,z
1/2+x,-y,z
loop_
_atom_site_type_symbol
_atom_site_label
_atom_site_fract_x
_atom_site_fract_y
_atom_site_fract_z
Si Si1 0.847310 0.936353 0.792122
Si Si2 0.069253 0.916786 0.616253
Si Si3 0.417191 0.559963 0.395101
Si Si4 0.398904 0.403202 0.809911
Si Si5 0.274908 0.572579 0.893613
Si Si6 0.960796 0.388478 0.073558
O O1 0.855804 0.755351 0.813396
O O2 0.861807 0.975376 0.676737
O O3 0.765273 0.975315 0.808334
O O4 0.893740 0.039796 0.869739
O O5 0.109288 0.942631 0.510255
O O6 0.072036 0.735124 0.645402
O O7 0.104604 0.023352 0.699885
O O8 0.987523 0.958368 0.608715
O O9 0.359078 0.533063 0.880338
O O10 0.478725 0.355292 0.842650
O O11 0.250000 0.750000 0.880980
O O12 0.250000 0.508079 0.000000
O O13 0.935219 0.250000 0.000000
O O14 0.000000 0.500000 0.000000
#
# Coordination Sequence:
#
# PCOD8205370 Si02
#       6
#     8   8   8   8   8   8
#     4  12  25  42  67  95 131 173 219 271 328 391
#     4  10  21  38  63  95 132 165 213 271 329 395
#     4  10  21  38  63  96 129 169 211 269 334 388
#     4  12  25  43  65  97 131 173 218 272 329 388
#     4  11  27  45  67  91 131 179 220 265 325 398
#     4  12  26  40  63  96 130 169 218 274 321 381
#
# _framework density 22.157717999999999
#
# number of rings (size 3 to 8) (size 9 to 14) (size 15 to 20)
#    0.000    0.833    3.333    3.500    7.000    2.667 
#    0.000    0.833    0.000    5.000    0.000    0.000 
#    0.000    0.000    0.000    0.000    0.000    0.000 
#
# Total GULP energy -594994.953808 kJ/mol
# GULP energy per Si atom -12395.728204 kJ/mol
# Density = 2.210729 g / cm^3
# Si number density = 22.157718 Si / 1000 Ang^3
#
#
#
# Elastic Constant Matrix: (Units=GPa)
#
#
# Indices 1 2 3 4 5 6 
#
# 1 59.9543 6.9149 14.9307 0.0000 0.0000 0.0000
# 2 6.9149 106.3667 26.4028 0.0000 0.0000 0.0000
# 3 14.9307 26.4028 119.3967 0.0000 0.0000 0.0000
# 4 0.0000 0.0000 0.0000 41.6033 0.0000 0.0000
# 5 0.0000 0.0000 0.0000 0.0000 26.4441 0.0000
# 6 0.0000 0.0000 0.0000 0.0000 0.0000 34.6759
#
#
#
# Elastic Compliance Matrix: (Units=1/GPa)
#
#
# Indices 1 2 3 4 5 6 
#
# 1 0.017254 -0.000620 -0.002021 0.000000 0.000000 0.000000
# 2 -0.000620 0.009970 -0.002127 0.000000 0.000000 0.000000
# 3 -0.002021 -0.002127 0.009098 0.000000 0.000000 0.000000
# 4 0.000000 0.000000 0.000000 0.024037 0.000000 0.000000
# 5 0.000000 0.000000 0.000000 0.000000 0.037816 0.000000
# 6 0.000000 0.000000 0.000000 0.000000 0.000000 0.028838
#
#
# Mechanical properties :
#
#
# Convention : Reuss Voigt Hill
#
# Bulk Modulus (GPa) = 37.33185 42.46828 39.90007
# Shear Modulus (GPa) = 34.36959 36.37595 35.37277
#
# Velocity S-wave (km/s) = 3.94272 4.05616 3.99984
# Velocity P-wave (km/s) = 6.13282 6.41441 6.27519
#
# Compressibility (1/GPa) = 0.02678678
#
# Stress axis : x y z
#
# Youngs Moduli (GPa) = 57.95735 100.30332 109.90839
#
# Poissons Ratio (x) = 0.06220 0.22207
# Poissons Ratio (y) = 0.03594 0.23379
# Poissons Ratio (z) = 0.11710 0.21336
#
# Static dielectric constant tensor:
#      x y z
#    x 4.138580 0.000000 0.000000 
#    y 0.000000 3.735900 0.000000 
#    z 0.000000 0.000000 3.512450 
# 
# 
# High freq. dielectric constant tensor:
#      x y z
#    x 1.849960 0.000000 0.000000 
#    y 0.000000 1.885370 0.000000 
#    z 0.000000 0.000000 1.884370 
# 
# From -- ./inp_files/26855.got.cif
#   From: 2010.03.12/outbox.cif.g09.slc.cpg/sg50_14_cif.got.tgz:26855.got - 2010.04.16 13:23:21.
