data_PCOD8205175
_publ_section_title
;
Structure prediction by ZEFSAII (Michael W. Deem and Ramdas Pophale) SiO2 
 PCOD8205175
Probable space group: P B A N
;
_chemical_formula_sum "Si O2"
_cell_formula_units_Z 60
_cell_length_a 5.217326
_cell_length_b 26.148290
_cell_length_c 19.821275
_cell_angle_alpha 90.000000
_cell_angle_beta 90.000000
_cell_angle_gamma 90.000000
_cell_volume 2704.100659
_symmetry_space_group_name_H-M "P B A N"
_symmetry_group_IT_number 50
_space_group.IT_coordinate_system_code '2'
_symmetry_cell_setting 'orthorhombic'
loop_
_space_group_symop_operation_xyz
x,y,z
1/2-x,1/2-y,z
x,1/2-y,-z
1/2-x,y,-z
-x,-y,-z
1/2+x,1/2+y,-z
-x,1/2+y,z
1/2+x,-y,z
loop_
_atom_site_type_symbol
_atom_site_label
_atom_site_fract_x
_atom_site_fract_y
_atom_site_fract_z
Si Si1 0.293240 0.350524 0.650081
Si Si2 0.743793 0.856821 0.923578
Si Si3 0.715123 0.189672 0.577591
Si Si4 0.287172 0.513386 0.172673
Si Si5 0.266805 0.876373 0.157684
Si Si6 0.750000 0.750000 0.127316
Si Si7 0.577370 0.292030 0.757628
Si Si8 0.738761 0.529054 0.681081
O O1 0.567863 0.343024 0.614858
O O2 0.332927 0.316185 0.718336
O O3 0.244377 0.410538 0.663453
O O4 0.063472 0.327185 0.605639
O O5 0.459729 0.865700 0.895420
O O6 0.820606 0.797040 0.921026
O O7 0.961515 0.884442 0.879279
O O8 0.750000 0.876698 0.000000
O O9 0.750000 0.250000 0.587907
O O10 0.750000 0.174871 0.500000
O O11 0.535654 0.499176 0.128087
O O12 0.293458 0.571461 0.196826
O O13 0.266607 0.476271 0.237835
O O14 0.275149 0.836113 0.218730
O O15 0.512129 0.736010 0.174712
O O16 0.750000 0.250000 0.715819
O O17 0.485740 0.501076 0.650823
#
# Coordination Sequence:
#
# PCOD8205175 Si02
#       8
#     8   8   8   8   8   4   8   8
#     4  12  25  40  72 103 133 180 228 284 338 404
#     4  11  23  41  63  87 124 175 231 270 317 396
#     4  11  26  48  70  98 140 191 237 270 314 390
#     4  10  20  37  61  88 120 159 203 255 327 403
#     4  11  23  40  64  92 127 172 213 271 337 401
#     4  10  23  38  56  90 133 176 206 266 338 402
#     4  11  23  38  58  97 145 170 209 270 354 418
#     4  10  21  39  62  97 134 168 215 272 338 412
#
# _framework density 22.188521000000001
#
# number of rings (size 3 to 8) (size 9 to 14) (size 15 to 20)
#    0.000    1.200    1.333    5.000    3.733    5.333 
#    0.000    1.333    0.000   16.000    0.000    0.000 
#    0.000    0.000    0.000    0.000    0.000    0.000 
#
# Total GULP energy -743375.455585 kJ/mol
# GULP energy per Si atom -12389.590926 kJ/mol
# Density = 2.213802 g / cm^3
# Si number density = 22.188521 Si / 1000 Ang^3
#
#
#
# Elastic Constant Matrix: (Units=GPa)
#
#
# Indices 1 2 3 4 5 6 
#
# 1 153.6556 38.7420 17.6051 0.0000 0.0000 0.0000
# 2 38.7420 130.7012 10.0725 0.0000 0.0000 0.0000
# 3 17.6051 10.0725 71.6141 0.0000 0.0000 0.0000
# 4 0.0000 0.0000 0.0000 -21.4796 0.0000 0.0000
# 5 0.0000 0.0000 0.0000 0.0000 29.7575 0.0000
# 6 0.0000 0.0000 0.0000 0.0000 0.0000 35.8839
#
#
#
# Elastic Compliance Matrix: (Units=1/GPa)
#
#
# Indices 1 2 3 4 5 6 
#
# 1 0.007186 -0.002016 -0.001483 0.000000 0.000000 0.000000
# 2 -0.002016 0.008300 -0.000672 0.000000 0.000000 0.000000
# 3 -0.001483 -0.000672 0.014423 0.000000 0.000000 0.000000
# 4 0.000000 0.000000 0.000000 -0.046556 0.000000 0.000000
# 5 0.000000 0.000000 0.000000 0.000000 0.033605 0.000000
# 6 0.000000 0.000000 0.000000 0.000000 0.000000 0.027868
#
#
# Mechanical properties :
#
#
# Convention : Reuss Voigt Hill
#
# Bulk Modulus (GPa) = 46.36539 54.31223 50.33881
# Shear Modulus (GPa) = 82.84043 28.13579 55.48811
#
# Velocity S-wave (km/s) = 6.11685 3.56481 5.00618
# Velocity P-wave (km/s) = 8.41601 6.44008 7.49346
#
# Compressibility (1/GPa) = 0.02156781
#
# Stress axis : x y z
#
# Youngs Moduli (GPa) = 139.15468 120.47696 69.33451
#
# Poissons Ratio (x) = 0.24286 0.10283
# Poissons Ratio (y) = 0.28051 0.04659
# Poissons Ratio (z) = 0.20638 0.08095
#
# Static dielectric constant tensor:
#      x y z
#    x 5.090400 0.000000 0.000000 
#    y 0.000000 4.258140 0.000000 
#    z 0.000000 0.000000 3.717880 
# 
# 
# High freq. dielectric constant tensor:
#      x y z
#    x 1.902490 0.000000 0.000000 
#    y 0.000000 1.888360 0.000000 
#    z 0.000000 0.000000 1.827190 
# 
# From -- ./inp_files/30460.got.cif
#   From: 2010.03.12/outbox.cif.g09.slc.cpg/sg50_16_cif.got.tgz:30460.got - 2010.04.16 13:23:21.
