data_PCOD8205879
_publ_section_title
;
Structure prediction by ZEFSAII (Michael W. Deem and Ramdas Pophale) SiO2 
 PCOD8205879
Probable space group: P B A N
;
_chemical_formula_sum "Si O2"
_cell_formula_units_Z 40
_cell_length_a 8.690253
_cell_length_b 24.852762
_cell_length_c 8.012691
_cell_angle_alpha 90.000000
_cell_angle_beta 90.000000
_cell_angle_gamma 90.000000
_cell_volume 1730.555278
_symmetry_space_group_name_H-M "P B A N"
_symmetry_group_IT_number 50
_space_group.IT_coordinate_system_code '2'
_symmetry_cell_setting 'orthorhombic'
loop_
_space_group_symop_operation_xyz
x,y,z
1/2-x,1/2-y,z
x,1/2-y,-z
1/2-x,y,-z
-x,-y,-z
1/2+x,1/2+y,-z
-x,1/2+y,z
1/2+x,-y,z
loop_
_atom_site_type_symbol
_atom_site_label
_atom_site_fract_x
_atom_site_fract_y
_atom_site_fract_z
Si Si1 0.466091 0.968723 0.668679
Si Si2 0.943902 0.854044 0.832311
Si Si3 0.399353 0.138342 0.216473
Si Si4 0.431093 0.753487 0.692828
Si Si5 0.659545 0.051215 0.826940
O O1 0.536105 0.909075 0.668470
O O2 0.283489 0.963911 0.686591
O O3 0.500000 0.000000 0.500000
O O4 0.537419 0.002054 0.826235
O O5 0.780621 0.857130 0.737036
O O6 0.998493 0.793265 0.807353
O O7 0.072593 0.894959 0.762448
O O8 0.920917 0.873167 0.021584
O O9 0.497863 0.191245 0.246823
O O10 0.250000 0.750000 0.720266
O O11 0.476725 0.750000 0.500000
O O12 0.750000 0.059940 0.000000
#
# Coordination Sequence:
#
# PCOD8205879 Si02
#       5
#     8   8   8   8   8
#     4  12  27  45  71 105 150 190 243 309 376 444
#     4  11  25  45  76 105 142 192 246 306 364 445
#     4  11  25  47  72 106 145 190 248 302 369 439
#     4  11  26  46  72 106 147 190 240 303 373 444
#     4  12  25  46  73 107 143 195 252 305 371 450
#
# _framework density 23.113966000000001
#
# number of rings (size 3 to 8) (size 9 to 14) (size 15 to 20)
#    0.000    0.600    2.000    4.800    5.600    4.000 
#    0.000    0.000    0.000    0.000    0.000    0.000 
#    0.000    0.000    0.000    0.000    0.000    0.000 
#
# Total GULP energy -496033.467855 kJ/mol
# GULP energy per Si atom -12400.836696 kJ/mol
# Density = 2.306136 g / cm^3
# Si number density = 23.113966 Si / 1000 Ang^3
#
#
#
# Elastic Constant Matrix: (Units=GPa)
#
#
# Indices 1 2 3 4 5 6 
#
# 1 152.1110 82.4722 40.5847 0.0000 0.0000 0.0000
# 2 82.4722 196.9238 28.4493 0.0000 0.0000 0.0000
# 3 40.5847 28.4493 71.6592 0.0000 0.0000 0.0000
# 4 0.0000 0.0000 0.0000 35.9684 0.0000 0.0000
# 5 0.0000 0.0000 0.0000 0.0000 31.6290 0.0000
# 6 0.0000 0.0000 0.0000 0.0000 0.0000 46.5881
#
#
#
# Elastic Compliance Matrix: (Units=1/GPa)
#
#
# Indices 1 2 3 4 5 6 
#
# 1 0.009487 -0.003392 -0.004027 0.000000 0.000000 0.000000
# 2 -0.003392 0.006600 -0.000699 0.000000 0.000000 0.000000
# 3 -0.004027 -0.000699 0.016513 0.000000 0.000000 0.000000
# 4 0.000000 0.000000 0.000000 0.027802 0.000000 0.000000
# 5 0.000000 0.000000 0.000000 0.000000 0.031617 0.000000
# 6 0.000000 0.000000 0.000000 0.000000 0.000000 0.021465
#
#
# Mechanical properties :
#
#
# Convention : Reuss Voigt Hill
#
# Bulk Modulus (GPa) = 61.10638 80.41182 70.75910
# Shear Modulus (GPa) = 36.98946 40.78296 38.88621
#
# Velocity S-wave (km/s) = 4.00472 4.20507 4.10612
# Velocity P-wave (km/s) = 6.91940 7.64471 7.29108
#
# Compressibility (1/GPa) = 0.01636490
#
# Stress axis : x y z
#
# Youngs Moduli (GPa) = 105.40292 151.52587 60.55785
#
# Poissons Ratio (x) = 0.51392 0.24385
# Poissons Ratio (y) = 0.35749 0.04234
# Poissons Ratio (z) = 0.42443 0.10595
#
# Static dielectric constant tensor:
#      x y z
#    x 4.762600 0.000000 0.000000 
#    y 0.000000 4.193890 0.000000 
#    z 0.000000 0.000000 4.560920 
# 
# 
# High freq. dielectric constant tensor:
#      x y z
#    x 1.940310 0.000000 0.000000 
#    y 0.000000 1.924800 0.000000 
#    z 0.000000 0.000000 1.905850 
# 
# From -- ./inp_files/9523.got.cif
#   From: 2010.03.12/outbox.cif.g09.slc.cpg/sg50_5_cif.got.tgz:9523.got - 2010.04.16 13:23:21.
