data_PCOD8205504
_publ_section_title
;
Structure prediction by ZEFSAII (Michael W. Deem and Ramdas Pophale) SiO2 
 PCOD8205504
Probable space group: P B A N
;
_chemical_formula_sum "Si O2"
_cell_formula_units_Z 32
_cell_length_a 33.788005
_cell_length_b 4.728161
_cell_length_c 8.916199
_cell_angle_alpha 90.000000
_cell_angle_beta 90.000000
_cell_angle_gamma 90.000000
_cell_volume 1424.408508
_symmetry_space_group_name_H-M "P B A N"
_symmetry_group_IT_number 50
_space_group.IT_coordinate_system_code '2'
_symmetry_cell_setting 'orthorhombic'
loop_
_space_group_symop_operation_xyz
x,y,z
1/2-x,1/2-y,z
x,1/2-y,-z
1/2-x,y,-z
-x,-y,-z
1/2+x,1/2+y,-z
-x,1/2+y,z
1/2+x,-y,z
loop_
_atom_site_type_symbol
_atom_site_label
_atom_site_fract_x
_atom_site_fract_y
_atom_site_fract_z
Si Si1 0.704400 0.793604 0.173266
Si Si2 0.971863 0.650714 0.156822
Si Si3 0.831358 0.214125 0.329009
Si Si4 0.088994 0.504614 0.600657
O O1 0.750000 0.750000 0.212466
O O2 0.674469 0.608244 0.275731
O O3 0.696376 0.116711 0.214999
O O4 0.694713 0.750000 0.000000
O O5 0.940214 0.665906 0.289377
O O6 0.987961 0.332386 0.168676
O O7 0.951150 0.750000 0.000000
O O8 0.817061 0.250000 0.500000
O O9 0.876460 0.325810 0.312583
O O10 0.067325 0.750000 0.500000
O O11 0.107405 0.250000 0.500000
#
# Coordination Sequence:
#
# PCOD8205504 Si02
#       4
#     8   8   8   8
#     4  11  24  42  64  92 125 161 206 258 311 373
#     4  10  22  40  62  90 124 163 209 258 309 370
#     4  11  23  41  63  91 126 163 207 255 310 373
#     4  11  23  40  62  91 127 164 208 260 310 370
#
# _framework density 22.465464999999998
#
# number of rings (size 3 to 8) (size 9 to 14) (size 15 to 20)
#    0.000    1.250    0.000    6.750    0.000    9.000 
#    0.000   10.000    0.000    0.000    0.000    0.000 
#    0.000    0.000    0.000    0.000    0.000    0.000 
#
# Total GULP energy -396611.456632 kJ/mol
# GULP energy per Si atom -12394.108020 kJ/mol
# Density = 2.241433 g / cm^3
# Si number density = 22.465465 Si / 1000 Ang^3
#
#
#
# Elastic Constant Matrix: (Units=GPa)
#
#
# Indices 1 2 3 4 5 6 
#
# 1 83.3497 14.5318 53.5929 0.0000 0.0000 0.0000
# 2 14.5318 76.5999 24.2741 0.0000 0.0000 0.0000
# 3 53.5929 24.2741 121.2087 0.0000 0.0000 0.0000
# 4 0.0000 0.0000 0.0000 44.3724 0.0000 0.0000
# 5 0.0000 0.0000 0.0000 0.0000 43.6808 0.0000
# 6 0.0000 0.0000 0.0000 0.0000 0.0000 27.6147
#
#
#
# Elastic Compliance Matrix: (Units=1/GPa)
#
#
# Indices 1 2 3 4 5 6 
#
# 1 0.016820 -0.000891 -0.007259 0.000000 0.000000 0.000000
# 2 -0.000891 0.013987 -0.002407 0.000000 0.000000 0.000000
# 3 -0.007259 -0.002407 0.011942 0.000000 0.000000 0.000000
# 4 0.000000 0.000000 0.000000 0.022537 0.000000 0.000000
# 5 0.000000 0.000000 0.000000 0.000000 0.022893 0.000000
# 6 0.000000 0.000000 0.000000 0.000000 0.000000 0.036213
#
#
# Mechanical properties :
#
#
# Convention : Reuss Voigt Hill
#
# Bulk Modulus (GPa) = 46.22074 51.77287 48.99681
# Shear Modulus (GPa) = 32.74043 35.71755 34.22899
#
# Velocity S-wave (km/s) = 3.82169 3.99166 3.90760
# Velocity P-wave (km/s) = 6.33187 6.65883 6.49741
#
# Compressibility (1/GPa) = 0.02163531
#
# Stress axis : x y z
#
# Youngs Moduli (GPa) = 59.45220 71.49668 83.73941
#
# Poissons Ratio (x) = 0.06368 0.60784
# Poissons Ratio (y) = 0.05295 0.20158
# Poissons Ratio (z) = 0.43155 0.17211
#
# Static dielectric constant tensor:
#      x y z
#    x 3.588040 0.000000 0.000000 
#    y 0.000000 4.271320 0.000000 
#    z 0.000000 0.000000 4.089600 
# 
# 
# High freq. dielectric constant tensor:
#      x y z
#    x 1.862620 0.000000 0.000000 
#    y 0.000000 1.912450 0.000000 
#    z 0.000000 0.000000 1.887020 
# 
# From -- ./inp_files/16706.got.cif
#   From: 2010.03.12/outbox.cif.g09.slc.cpg/sg50_9_cif.got.tgz:16706.got - 2010.04.16 13:23:21.
