data_PCOD8205747
_publ_section_title
;
Structure prediction by ZEFSAII (Michael W. Deem and Ramdas Pophale) SiO2 
 PCOD8205747
Probable space group: P B A N
;
_chemical_formula_sum "Si O2"
_cell_formula_units_Z 58
_cell_length_a 10.995460
_cell_length_b 30.446677
_cell_length_c 9.008484
_cell_angle_alpha 90.000000
_cell_angle_beta 90.000000
_cell_angle_gamma 90.000000
_cell_volume 3015.817205
_symmetry_space_group_name_H-M "P B A N"
_symmetry_group_IT_number 50
_space_group.IT_coordinate_system_code '2'
_symmetry_cell_setting 'orthorhombic'
loop_
_space_group_symop_operation_xyz
x,y,z
1/2-x,1/2-y,z
x,1/2-y,-z
1/2-x,y,-z
-x,-y,-z
1/2+x,1/2+y,-z
-x,1/2+y,z
1/2+x,-y,z
loop_
_atom_site_type_symbol
_atom_site_label
_atom_site_fract_x
_atom_site_fract_y
_atom_site_fract_z
Si Si1 0.750549 0.611961 0.326576
Si Si2 0.396591 0.796405 0.666210
Si Si3 0.255917 0.024733 0.176820
Si Si4 0.612565 0.303079 0.334830
Si Si5 0.985188 0.027459 0.147762
Si Si6 0.899557 0.825670 0.138588
Si Si7 0.021466 0.373466 0.851124
Si Si8 0.750000 0.750000 0.000000
O O1 0.750000 0.606529 0.500000
O O2 0.693295 0.569196 0.248713
O O3 0.676909 0.653969 0.272291
O O4 0.889745 0.618198 0.284533
O O5 0.439901 0.745926 0.683279
O O6 0.255095 0.801213 0.690941
O O7 0.425066 0.816877 0.502777
O O8 0.464536 0.821728 0.797624
O O9 0.114581 0.017647 0.234734
O O10 0.357853 0.988431 0.225603
O O11 0.250000 0.030492 0.000000
O O12 0.570120 0.336371 0.206976
O O13 0.961987 0.079116 0.112852
O O14 0.000000 0.000000 0.000000
O O15 0.904118 0.856263 0.993440
O O16 0.837380 0.779361 0.102170
#
# Coordination Sequence:
#
# PCOD8205747 Si02
#       8
#     8   8   8   8   8   8   8   2
#     4  11  22  38  60  82 113 159 196 237 299 361
#     4   9  20  37  62  79 120 160 192 243 294 356
#     4   9  18  37  60  84 112 150 194 237 301 353
#     4   9  19  40  58  85 114 160 201 234 296 353
#     4   9  18  35  59  85 113 154 189 244 300 358
#     4  12  22  38  55  88 115 153 195 248 296 339
#     4  11  21  38  61  85 123 151 201 250 293 355
#     4  12  24  36  58  86 128 148 198 260 298 336
#
# _framework density 19.231933999999999
#
# number of rings (size 3 to 8) (size 9 to 14) (size 15 to 20)
#    0.000    1.931    1.379    4.966    0.000    0.552 
#    9.931    4.138    3.034    0.000    0.000    0.000 
#    0.000    0.000    0.000    0.000    0.000    0.000 
#
# Total GULP energy -718583.009201 kJ/mol
# GULP energy per Si atom -12389.362228 kJ/mol
# Density = 1.918816 g / cm^3
# Si number density = 19.231934 Si / 1000 Ang^3
#
#
#
# Elastic Constant Matrix: (Units=GPa)
#
#
# Indices 1 2 3 4 5 6 
#
# 1 87.4511 47.6495 35.4943 0.0000 0.0000 0.0000
# 2 47.6495 115.8322 32.1463 0.0000 0.0000 0.0000
# 3 35.4943 32.1463 79.4195 0.0000 0.0000 0.0000
# 4 0.0000 0.0000 0.0000 23.0537 0.0000 0.0000
# 5 0.0000 0.0000 0.0000 0.0000 29.4051 0.0000
# 6 0.0000 0.0000 0.0000 0.0000 0.0000 34.7612
#
#
#
# Elastic Compliance Matrix: (Units=1/GPa)
#
#
# Indices 1 2 3 4 5 6 
#
# 1 0.016443 -0.005323 -0.005194 0.000000 0.000000 0.000000
# 2 -0.005323 0.011449 -0.002255 0.000000 0.000000 0.000000
# 3 -0.005194 -0.002255 0.015826 0.000000 0.000000 0.000000
# 4 0.000000 0.000000 0.000000 0.043377 0.000000 0.000000
# 5 0.000000 0.000000 0.000000 0.000000 0.034008 0.000000
# 6 0.000000 0.000000 0.000000 0.000000 0.000000 0.028768
#
#
# Mechanical properties :
#
#
# Convention : Reuss Voigt Hill
#
# Bulk Modulus (GPa) = 55.02649 57.03143 56.02896
# Shear Modulus (GPa) = 27.55236 28.60486 28.07861
#
# Velocity S-wave (km/s) = 3.78912 3.86082 3.82514
# Velocity P-wave (km/s) = 6.91502 7.04226 6.97893
#
# Compressibility (1/GPa) = 0.01817307
#
# Stress axis : x y z
#
# Youngs Moduli (GPa) = 60.81446 87.34679 63.18832
#
# Poissons Ratio (x) = 0.46492 0.32823
# Poissons Ratio (y) = 0.32370 0.14250
# Poissons Ratio (z) = 0.31590 0.19698
#
# Static dielectric constant tensor:
#      x y z
#    x 4.003720 0.000000 0.000000 
#    y 0.000000 3.906210 0.000000 
#    z 0.000000 0.000000 3.354130 
# 
# 
# High freq. dielectric constant tensor:
#      x y z
#    x 1.753340 0.000000 0.000000 
#    y 0.000000 1.748320 0.000000 
#    z 0.000000 0.000000 1.727580 
# 
# From -- ./inp_files/11758.got.cif
#   From: 2010.03.12/outbox.cif.g09.slc.cpg/sg50_6_cif.got.tgz:11758.got - 2010.04.16 13:23:21.
