data_PCOD8205243
_publ_section_title
;
Structure prediction by ZEFSAII (Michael W. Deem and Ramdas Pophale) SiO2 
 PCOD8205243
Probable space group: P B A N
;
_chemical_formula_sum "Si O2"
_cell_formula_units_Z 64
_cell_length_a 9.327648
_cell_length_b 22.496212
_cell_length_c 14.883289
_cell_angle_alpha 90.000000
_cell_angle_beta 90.000000
_cell_angle_gamma 90.000000
_cell_volume 3123.060946
_symmetry_space_group_name_H-M "P B A N"
_symmetry_group_IT_number 50
_space_group.IT_coordinate_system_code '2'
_symmetry_cell_setting 'orthorhombic'
loop_
_space_group_symop_operation_xyz
x,y,z
1/2-x,1/2-y,z
x,1/2-y,-z
1/2-x,y,-z
-x,-y,-z
1/2+x,1/2+y,-z
-x,1/2+y,z
1/2+x,-y,z
loop_
_atom_site_type_symbol
_atom_site_label
_atom_site_fract_x
_atom_site_fract_y
_atom_site_fract_z
Si Si1 0.913945 0.262967 0.899351
Si Si2 0.021652 0.961622 0.413328
Si Si3 0.711048 0.022022 0.700846
Si Si4 0.392982 0.288959 0.744205
Si Si5 0.587712 0.365373 0.217435
Si Si6 0.703457 0.603162 0.713053
Si Si7 0.400010 0.141381 0.523253
Si Si8 0.603153 0.277225 0.374913
O O1 0.750000 0.250000 0.882098
O O2 0.909629 0.334051 0.879736
O O3 0.016698 0.223628 0.834965
O O4 0.965962 0.250000 0.000000
O O5 0.185450 0.953144 0.379041
O O6 0.951306 0.898105 0.438213
O O7 0.000000 0.000000 0.500000
O O8 0.937757 0.997191 0.336965
O O9 0.676896 0.073275 0.774138
O O10 0.778201 0.964289 0.747979
O O11 0.250000 0.250000 0.742740
O O12 0.347629 0.357957 0.731052
O O13 0.491508 0.272626 0.658882
O O14 0.418286 0.369765 0.226127
O O15 0.647014 0.320956 0.293789
O O16 0.641508 0.601393 0.610669
O O17 0.250000 0.174656 0.500000
O O18 0.526660 0.187668 0.543645
O O19 0.750000 0.250000 0.412877
#
# Coordination Sequence:
#
# PCOD8205243 Si02
#       8
#     8   8   8   8   8   8   8   8
#     4  10  22  42  71 107 135 162 199 258 330 395
#     4  12  21  35  58  85 120 170 231 285 334 372
#     4  12  23  37  62  88 123 172 220 275 332 390
#     4  11  19  38  69  93 125 165 215 267 327 405
#     4  10  20  40  64  95 129 161 213 269 313 404
#     4  11  21  38  59  93 122 172 224 272 326 384
#     4  11  20  38  63  81 121 173 227 290 337 386
#     4  10  22  41  64  85 122 167 221 281 344 390
#
# _framework density 20.492715
#
# number of rings (size 3 to 8) (size 9 to 14) (size 15 to 20)
#    0.000    1.125    7.500    2.625    0.000    2.250 
#    0.000    1.250    8.250    0.750    0.000    0.000 
#    0.000    0.000    0.000    0.000    0.000    0.000 
#
# Total GULP energy -792979.602983 kJ/mol
# GULP energy per Si atom -12390.306297 kJ/mol
# Density = 2.044607 g / cm^3
# Si number density = 20.492715 Si / 1000 Ang^3
#
#
#
# Elastic Constant Matrix: (Units=GPa)
#
#
# Indices 1 2 3 4 5 6 
#
# 1 115.1400 46.4619 34.1951 0.0000 0.0000 0.0000
# 2 46.4619 128.5871 47.6815 0.0000 0.0000 0.0000
# 3 34.1951 47.6815 81.1844 0.0000 0.0000 0.0000
# 4 0.0000 0.0000 0.0000 21.1160 0.0000 0.0000
# 5 0.0000 0.0000 0.0000 0.0000 16.8642 0.0000
# 6 0.0000 0.0000 0.0000 0.0000 0.0000 35.1277
#
#
#
# Elastic Compliance Matrix: (Units=1/GPa)
#
#
# Indices 1 2 3 4 5 6 
#
# 1 0.010659 -0.002795 -0.002848 0.000000 0.000000 0.000000
# 2 -0.002795 0.010675 -0.005092 0.000000 0.000000 0.000000
# 3 -0.002848 -0.005092 0.016508 0.000000 0.000000 0.000000
# 4 0.000000 0.000000 0.000000 0.047358 0.000000 0.000000
# 5 0.000000 0.000000 0.000000 0.000000 0.059297 0.000000
# 6 0.000000 0.000000 0.000000 0.000000 0.000000 0.028468
#
#
# Mechanical properties :
#
#
# Convention : Reuss Voigt Hill
#
# Bulk Modulus (GPa) = 61.08346 64.62095 62.85220
# Shear Modulus (GPa) = 25.01347 27.72644 26.36995
#
# Velocity S-wave (km/s) = 3.49750 3.68229 3.59109
# Velocity P-wave (km/s) = 6.79574 7.04848 6.92327
#
# Compressibility (1/GPa) = 0.01637104
#
# Stress axis : x y z
#
# Youngs Moduli (GPa) = 93.81908 93.67545 60.57673
#
# Poissons Ratio (x) = 0.26185 0.17251
# Poissons Ratio (y) = 0.26225 0.30848
# Poissons Ratio (z) = 0.26717 0.47703
#
# Static dielectric constant tensor:
#      x y z
#    x 4.031840 0.000000 0.000000 
#    y 0.000000 4.057950 0.000000 
#    z 0.000000 0.000000 3.354430 
# 
# 
# High freq. dielectric constant tensor:
#      x y z
#    x 1.823920 0.000000 0.000000 
#    y 0.000000 1.805010 0.000000 
#    z 0.000000 0.000000 1.743460 
# 
# From -- ./inp_files/25398.got.cif
#   From: 2010.03.12/outbox.cif.g09.slc.cpg/sg50_13_cif.got.tgz:25398.got - 2010.04.16 13:23:21.
