data_PCOD8205362
_publ_section_title
;
Structure prediction by ZEFSAII (Michael W. Deem and Ramdas Pophale) SiO2 
 PCOD8205362
Probable space group: P B A N
;
_chemical_formula_sum "Si O2"
_cell_formula_units_Z 40
_cell_length_a 9.386799
_cell_length_b 12.743222
_cell_length_c 15.430261
_cell_angle_alpha 90.000000
_cell_angle_beta 90.000000
_cell_angle_gamma 90.000000
_cell_volume 1845.737941
_symmetry_space_group_name_H-M "P B A N"
_symmetry_group_IT_number 50
_space_group.IT_coordinate_system_code '2'
_symmetry_cell_setting 'orthorhombic'
loop_
_space_group_symop_operation_xyz
x,y,z
1/2-x,1/2-y,z
x,1/2-y,-z
1/2-x,y,-z
-x,-y,-z
1/2+x,1/2+y,-z
-x,1/2+y,z
1/2+x,-y,z
loop_
_atom_site_type_symbol
_atom_site_label
_atom_site_fract_x
_atom_site_fract_y
_atom_site_fract_z
Si Si1 0.090820 0.625494 0.008804
Si Si2 0.085428 0.143926 0.166058
Si Si3 0.245956 0.871145 0.397510
Si Si4 0.499931 0.006000 0.689342
Si Si5 0.099531 0.119364 0.851591
O O1 0.992186 0.575984 0.933233
O O2 0.084382 0.750000 0.000000
O O3 0.250000 0.581381 0.000000
O O4 0.035532 0.592767 0.104326
O O5 0.047993 0.265419 0.175663
O O6 0.236238 0.123097 0.119523
O O7 0.091521 0.095715 0.262455
O O8 0.250000 0.750000 0.362756
O O9 0.250000 0.870363 0.500000
O O10 0.102102 0.928294 0.364576
O O11 0.384534 0.937000 0.370458
O O12 0.581859 0.947363 0.765504
#
# Coordination Sequence:
#
# PCOD8205362 Si02
#       5
#     8   8   8   8   8
#     4   9  19  34  57  90 129 175 224 275 325 380
#     4  10  21  38  60  89 129 175 222 271 326 389
#     4  11  26  48  73 102 137 174 217 276 344 413
#     4  12  23  43  68 100 132 174 220 279 333 406
#     4  10  21  38  60  89 129 175 222 271 326 389
#
# _framework density 21.67155
#
# number of rings (size 3 to 8) (size 9 to 14) (size 15 to 20)
#    0.000    1.600    2.000    2.400    2.800    3.200 
#    0.000    0.000    0.000    4.800    0.000    0.000 
#    0.000    0.000    0.000    0.000    0.000    0.000 
#
# Total GULP energy -495894.453862 kJ/mol
# GULP energy per Si atom -12397.361347 kJ/mol
# Density = 2.162222 g / cm^3
# Si number density = 21.671550 Si / 1000 Ang^3
#
#
#
# Elastic Constant Matrix: (Units=GPa)
#
#
# Indices 1 2 3 4 5 6 
#
# 1 118.8388 26.2069 41.0234 0.0000 0.0000 0.0000
# 2 26.2069 82.8187 37.2780 0.0000 0.0000 0.0000
# 3 41.0234 37.2780 110.0816 0.0000 0.0000 0.0000
# 4 0.0000 0.0000 0.0000 34.9037 0.0000 0.0000
# 5 0.0000 0.0000 0.0000 0.0000 41.1458 0.0000
# 6 0.0000 0.0000 0.0000 0.0000 0.0000 31.9941
#
#
#
# Elastic Compliance Matrix: (Units=1/GPa)
#
#
# Indices 1 2 3 4 5 6 
#
# 1 0.009863 -0.001730 -0.003090 0.000000 0.000000 0.000000
# 2 -0.001730 0.014550 -0.004282 0.000000 0.000000 0.000000
# 3 -0.003090 -0.004282 0.011686 0.000000 0.000000 0.000000
# 4 0.000000 0.000000 0.000000 0.028650 0.000000 0.000000
# 5 0.000000 0.000000 0.000000 0.000000 0.024304 0.000000
# 6 0.000000 0.000000 0.000000 0.000000 0.000000 0.031256
#
#
# Mechanical properties :
#
#
# Convention : Reuss Voigt Hill
#
# Bulk Modulus (GPa) = 55.88502 57.86173 56.87338
# Shear Modulus (GPa) = 34.60760 35.42411 35.01585
#
# Velocity S-wave (km/s) = 4.00048 4.04739 4.02400
# Velocity P-wave (km/s) = 6.86889 6.97131 6.92029
#
# Compressibility (1/GPa) = 0.01789388
#
# Stress axis : x y z
#
# Youngs Moduli (GPa) = 101.39042 68.73034 85.57473
#
# Poissons Ratio (x) = 0.11892 0.26439
# Poissons Ratio (y) = 0.17544 0.36645
# Poissons Ratio (z) = 0.31325 0.29432
#
# Static dielectric constant tensor:
#      x y z
#    x 3.912170 0.000000 0.000000 
#    y 0.000000 4.260890 0.000000 
#    z 0.000000 0.000000 3.777850 
# 
# 
# High freq. dielectric constant tensor:
#      x y z
#    x 1.852500 0.000000 0.000000 
#    y 0.000000 1.885850 0.000000 
#    z 0.000000 0.000000 1.839650 
# 
# From -- ./inp_files/24641.got.cif
#   From: 2010.03.12/outbox.cif.g09.slc.cpg/sg50_13_cif.got.tgz:24641.got - 2010.04.16 13:23:21.
