data_PCOD8205447
_publ_section_title
;
Structure prediction by ZEFSAII (Michael W. Deem and Ramdas Pophale) SiO2 
 PCOD8205447
Probable space group: P B A N
;
_chemical_formula_sum "Si O2"
_cell_formula_units_Z 64
_cell_length_a 12.045855
_cell_length_b 14.396402
_cell_length_c 17.240445
_cell_angle_alpha 90.000000
_cell_angle_beta 90.000000
_cell_angle_gamma 90.000000
_cell_volume 2989.785751
_symmetry_space_group_name_H-M "P B A N"
_symmetry_group_IT_number 50
_space_group.IT_coordinate_system_code '2'
_symmetry_cell_setting 'orthorhombic'
loop_
_space_group_symop_operation_xyz
x,y,z
1/2-x,1/2-y,z
x,1/2-y,-z
1/2-x,y,-z
-x,-y,-z
1/2+x,1/2+y,-z
-x,1/2+y,z
1/2+x,-y,z
loop_
_atom_site_type_symbol
_atom_site_label
_atom_site_fract_x
_atom_site_fract_y
_atom_site_fract_z
Si Si1 0.890518 0.275748 0.914675
Si Si2 0.928485 0.583022 0.033769
Si Si3 0.289216 0.908824 0.195937
Si Si4 0.054982 0.297110 0.201893
Si Si5 0.076665 0.570936 0.698146
Si Si6 0.125524 0.767137 0.409294
Si Si7 0.492544 0.633454 0.699668
Si Si8 0.209605 0.409031 0.113644
O O1 0.786640 0.325715 0.869442
O O2 0.991159 0.345157 0.927904
O O3 0.952664 0.198269 0.861788
O O4 0.845599 0.250000 0.000000
O O5 0.839384 0.564819 0.102684
O O6 0.853271 0.620562 0.964439
O O7 0.000000 0.500000 0.000000
O O8 0.173604 0.924208 0.238180
O O9 0.375101 0.882518 0.261438
O O10 0.339193 0.998069 0.152092
O O11 0.176831 0.321649 0.168039
O O12 0.028440 0.377751 0.264078
O O13 0.066519 0.196024 0.241865
O O14 0.101254 0.626605 0.618063
O O15 0.053069 0.462959 0.677804
O O16 0.250000 0.750000 0.378829
O O17 0.117163 0.750000 0.500000
O O18 0.035632 0.694493 0.375750
#
# Coordination Sequence:
#
# PCOD8205447 Si02
#       8
#     8   8   8   8   8   8   8   8
#     4  11  23  40  58  80 123 158 228 288 338 399
#     4  11  24  42  55  81 115 163 228 286 339 403
#     4  11  23  38  63  91 119 176 216 279 341 391
#     4  10  23  40  61  89 122 172 218 284 336 399
#     4  11  23  43  66  96 136 170 219 273 327 402
#     4  10  21  42  73 106 139 172 215 263 317 397
#     4  10  22  41  67 102 136 172 221 266 329 407
#     4  11  23  39  62  81 118 169 221 281 348 395
#
# _framework density 21.406215
#
# number of rings (size 3 to 8) (size 9 to 14) (size 15 to 20)
#    0.000    1.375    5.000    0.000    5.250    1.000 
#    0.000    1.875    0.000    0.000    0.000    0.875 
#    0.000    0.000    0.000    0.000    0.000    0.000 
#
# Total GULP energy -792860.214423 kJ/mol
# GULP energy per Si atom -12388.440850 kJ/mol
# Density = 2.135749 g / cm^3
# Si number density = 21.406215 Si / 1000 Ang^3
#
#
#
# Elastic Constant Matrix: (Units=GPa)
#
#
# Indices 1 2 3 4 5 6 
#
# 1 88.4026 48.4793 34.1325 0.0000 0.0000 0.0000
# 2 48.4793 140.8656 47.2314 0.0000 0.0000 0.0000
# 3 34.1325 47.2314 95.6929 0.0000 0.0000 0.0000
# 4 0.0000 0.0000 0.0000 30.2931 0.0000 0.0000
# 5 0.0000 0.0000 0.0000 0.0000 27.4348 0.0000
# 6 0.0000 0.0000 0.0000 0.0000 0.0000 30.1513
#
#
#
# Elastic Compliance Matrix: (Units=1/GPa)
#
#
# Indices 1 2 3 4 5 6 
#
# 1 0.014768 -0.003974 -0.003306 0.000000 0.000000 0.000000
# 2 -0.003974 0.009576 -0.003309 0.000000 0.000000 0.000000
# 3 -0.003306 -0.003309 0.013263 0.000000 0.000000 0.000000
# 4 0.000000 0.000000 0.000000 0.033011 0.000000 0.000000
# 5 0.000000 0.000000 0.000000 0.000000 0.036450 0.000000
# 6 0.000000 0.000000 0.000000 0.000000 0.000000 0.033166
#
#
# Mechanical properties :
#
#
# Convention : Reuss Voigt Hill
#
# Bulk Modulus (GPa) = 60.87032 64.96084 62.91558
# Shear Modulus (GPa) = 29.96037 30.58371 30.27204
#
# Velocity S-wave (km/s) = 3.74520 3.78396 3.76463
# Velocity P-wave (km/s) = 6.87019 7.03589 6.95353
#
# Compressibility (1/GPa) = 0.01642837
#
# Stress axis : x y z
#
# Youngs Moduli (GPa) = 67.71602 104.42686 75.40001
#
# Poissons Ratio (x) = 0.41497 0.24928
# Poissons Ratio (y) = 0.26909 0.24951
# Poissons Ratio (z) = 0.22387 0.34556
#
# Static dielectric constant tensor:
#      x y z
#    x 3.864970 0.000000 0.000000 
#    y 0.000000 4.114040 0.000000 
#    z 0.000000 0.000000 3.650520 
# 
# 
# High freq. dielectric constant tensor:
#      x y z
#    x 1.839200 0.000000 0.000000 
#    y 0.000000 1.845790 0.000000 
#    z 0.000000 0.000000 1.819130 
# 
# From -- ./inp_files/29248.got.cif
#   From: 2010.03.12/outbox.cif.g09.slc.cpg/sg50_15_cif.got.tgz:29248.got - 2010.04.16 13:23:21.
