data_PCOD8205487
_publ_section_title
;
Structure prediction by ZEFSAII (Michael W. Deem and Ramdas Pophale) SiO2 
 PCOD8205487
Probable space group: P B A N
;
_chemical_formula_sum "Si O2"
_cell_formula_units_Z 48
_cell_length_a 7.830171
_cell_length_b 13.633292
_cell_length_c 18.259187
_cell_angle_alpha 90.000000
_cell_angle_beta 90.000000
_cell_angle_gamma 90.000000
_cell_volume 1949.186611
_symmetry_space_group_name_H-M "P B A N"
_symmetry_group_IT_number 50
_space_group.IT_coordinate_system_code '2'
_symmetry_cell_setting 'orthorhombic'
loop_
_space_group_symop_operation_xyz
x,y,z
1/2-x,1/2-y,z
x,1/2-y,-z
1/2-x,y,-z
-x,-y,-z
1/2+x,1/2+y,-z
-x,1/2+y,z
1/2+x,-y,z
loop_
_atom_site_type_symbol
_atom_site_label
_atom_site_fract_x
_atom_site_fract_y
_atom_site_fract_z
Si Si1 0.083655 0.317796 0.829783
Si Si2 0.575589 0.374184 0.843641
Si Si3 0.742335 0.867700 0.583170
Si Si4 0.769906 0.975975 0.084495
Si Si5 0.949679 0.139143 0.322852
Si Si6 0.927300 0.369116 0.323528
O O1 0.250000 0.250000 0.810172
O O2 0.125386 0.396238 0.892471
O O3 0.932611 0.243397 0.856057
O O4 0.019164 0.377975 0.759168
O O5 0.756245 0.422981 0.866936
O O6 0.451820 0.429254 0.900171
O O7 0.524091 0.396689 0.759702
O O8 0.750000 0.750000 0.588116
O O9 0.750000 0.904747 0.500000
O O10 0.571526 0.911777 0.621838
O O11 0.911382 0.909690 0.623326
O O12 0.750000 0.001028 0.000000
O O13 0.927229 0.253694 0.335658
O O14 0.764379 0.089526 0.338519
#
# Coordination Sequence:
#
# PCOD8205487 Si02
#       6
#     8   8   8   8   8   8
#     4   9  19  37  62  84 119 169 210 251 321 382
#     4  10  22  39  59  88 121 158 210 260 307 381
#     4   9  16  27  47  82 124 159 198 254 313 370
#     4  11  23  40  62  89 125 159 203 264 319 381
#     4   9  16  30  54  78 114 159 206 254 304 367
#     4   9  18  32  51  80 115 157 207 254 303 373
#
# _framework density 24.625657
#
# number of rings (size 3 to 8) (size 9 to 14) (size 15 to 20)
#    0.000    2.500    0.000    4.000    2.333    3.667 
#    0.000    3.333    0.000    0.000    0.000    4.667 
#    0.000    0.000    0.000    0.000    0.000    0.000 
#
# Total GULP energy -594948.722704 kJ/mol
# GULP energy per Si atom -12394.765056 kJ/mol
# Density = 2.456961 g / cm^3
# Si number density = 24.625657 Si / 1000 Ang^3
#
#
#
# Elastic Constant Matrix: (Units=GPa)
#
#
# Indices 1 2 3 4 5 6 
#
# 1 117.5990 14.4522 63.1914 0.0000 0.0000 0.0000
# 2 14.4522 63.5222 20.0635 0.0000 0.0000 0.0000
# 3 63.1914 20.0635 169.2077 0.0000 0.0000 0.0000
# 4 0.0000 0.0000 0.0000 -107.5899 0.0000 0.0000
# 5 0.0000 0.0000 0.0000 0.0000 23.9399 0.0000
# 6 0.0000 0.0000 0.0000 0.0000 0.0000 22.7194
#
#
#
# Elastic Compliance Matrix: (Units=1/GPa)
#
#
# Indices 1 2 3 4 5 6 
#
# 1 0.010729 -0.001221 -0.003862 0.000000 0.000000 0.000000
# 2 -0.001221 0.016494 -0.001500 0.000000 0.000000 0.000000
# 3 -0.003862 -0.001500 0.007530 0.000000 0.000000 0.000000
# 4 0.000000 0.000000 0.000000 -0.009295 0.000000 0.000000
# 5 0.000000 0.000000 0.000000 0.000000 0.041771 0.000000
# 6 0.000000 0.000000 0.000000 0.000000 0.000000 0.044015
#
#
# Mechanical properties :
#
#
# Convention : Reuss Voigt Hill
#
# Bulk Modulus (GPa) = 46.32375 60.63815 53.48095
# Shear Modulus (GPa) = 37.99220 4.65533 21.32376
#
# Velocity S-wave (km/s) = 3.93210 1.37642 2.94584
# Velocity P-wave (km/s) = 6.28229 5.21570 5.77368
#
# Compressibility (1/GPa) = 0.02158720
#
# Stress axis : x y z
#
# Youngs Moduli (GPa) = 93.20768 60.62798 132.80274
#
# Poissons Ratio (x) = 0.07404 0.51287
# Poissons Ratio (y) = 0.11382 0.19917
# Poissons Ratio (z) = 0.35996 0.09092
#
# Static dielectric constant tensor:
#      x y z
#    x 5.027460 0.000000 0.000000 
#    y 0.000000 4.338020 0.000000 
#    z 0.000000 0.000000 4.076940 
# 
# 
# High freq. dielectric constant tensor:
#      x y z
#    x 1.999420 0.000000 0.000000 
#    y 0.000000 1.974720 0.000000 
#    z 0.000000 0.000000 1.948510 
# 
# From -- ./inp_files/28704.got.cif
#   From: 2010.03.12/outbox.cif.g09.slc.cpg/sg50_15_cif.got.tgz:28704.got - 2010.04.16 13:23:21.
