data_PCOD8205002
_publ_section_title
;
Structure prediction by ZEFSAII (Michael W. Deem and Ramdas Pophale) SiO2 
 PCOD8205002
Probable space group: P B A N
;
_chemical_formula_sum "Si O2"
_cell_formula_units_Z 58
_cell_length_a 17.148007
_cell_length_b 16.792690
_cell_length_c 11.179667
_cell_angle_alpha 90.000000
_cell_angle_beta 90.000000
_cell_angle_gamma 90.000000
_cell_volume 3219.309941
_symmetry_space_group_name_H-M "P B A N"
_symmetry_group_IT_number 50
_space_group.IT_coordinate_system_code '2'
_symmetry_cell_setting 'orthorhombic'
loop_
_space_group_symop_operation_xyz
x,y,z
1/2-x,1/2-y,z
x,1/2-y,-z
1/2-x,y,-z
-x,-y,-z
1/2+x,1/2+y,-z
-x,1/2+y,z
1/2+x,-y,z
loop_
_atom_site_type_symbol
_atom_site_label
_atom_site_fract_x
_atom_site_fract_y
_atom_site_fract_z
Si Si1 0.016562 0.588889 0.463524
Si Si2 0.575057 0.598858 0.883330
Si Si3 0.385058 0.310498 0.345972
Si Si4 0.250000 0.250000 0.500000
Si Si5 0.432070 0.517993 0.758054
Si Si6 0.048442 0.670418 0.944169
Si Si7 0.481158 0.344725 0.693415
Si Si8 0.839495 0.465822 0.986555
O O1 0.078380 0.580497 0.353760
O O2 0.000000 0.500000 0.500000
O O3 0.937036 0.628352 0.419538
O O4 0.041875 0.638453 0.582182
O O5 0.619510 0.656430 0.789929
O O6 0.514031 0.537742 0.822886
O O7 0.641736 0.549503 0.950755
O O8 0.530048 0.650329 0.982770
O O9 0.301653 0.305890 0.412060
O O10 0.420193 0.221960 0.346919
O O11 0.433647 0.425735 0.720199
O O12 0.359952 0.531824 0.845937
O O13 0.112027 0.602077 0.947765
O O14 0.029289 0.686773 0.805837
O O15 0.085516 0.750000 0.000000
O O16 0.750000 0.444830 0.000000
#
# Coordination Sequence:
#
# PCOD8205002 Si02
#       8
#     8   8   8   2   8   8   8   8
#     4   9  19  34  57  81 105 146 205 238 268 328
#     4  10  19  37  56  81 109 149 198 231 281 344
#     4  11  22  35  56  83 114 155 184 231 293 354
#     4  12  24  40  48  82 140 148 176 236 314 364
#     4   9  18  34  59  80 109 147 198 245 272 337
#     4  11  20  35  62  86 109 148 195 251 282 338
#     4  11  17  33  60  83 112 142 199 241 281 332
#     4  11  22  37  56  83 121 152 185 239 306 354
#
# _framework density 18.016283999999999
#
# number of rings (size 3 to 8) (size 9 to 14) (size 15 to 20)
#    0.000    1.655    5.517    0.828    0.000    1.379 
#    0.000    0.000    0.000    0.828    0.000    0.000 
#    0.000    0.000    0.000    0.000    0.000    0.000 
#
# Total GULP energy -718839.717978 kJ/mol
# GULP energy per Si atom -12393.788241 kJ/mol
# Density = 1.797528 g / cm^3
# Si number density = 18.016284 Si / 1000 Ang^3
#
#
#
# Elastic Constant Matrix: (Units=GPa)
#
#
# Indices 1 2 3 4 5 6 
#
# 1 77.5400 27.5107 47.1960 0.0000 0.0000 0.0000
# 2 27.5107 84.0903 39.5291 0.0000 0.0000 0.0000
# 3 47.1960 39.5291 147.0554 0.0000 0.0000 0.0000
# 4 0.0000 0.0000 0.0000 38.5882 0.0000 0.0000
# 5 0.0000 0.0000 0.0000 0.0000 20.7138 0.0000
# 6 0.0000 0.0000 0.0000 0.0000 0.0000 11.1493
#
#
#
# Elastic Compliance Matrix: (Units=1/GPa)
#
#
# Indices 1 2 3 4 5 6 
#
# 1 0.016835 -0.003397 -0.004490 0.000000 0.000000 0.000000
# 2 -0.003397 0.014297 -0.002753 0.000000 0.000000 0.000000
# 3 -0.004490 -0.002753 0.008981 0.000000 0.000000 0.000000
# 4 0.000000 0.000000 0.000000 0.025915 0.000000 0.000000
# 5 0.000000 0.000000 0.000000 0.000000 0.048277 0.000000
# 6 0.000000 0.000000 0.000000 0.000000 0.000000 0.089692
#
#
# Mechanical properties :
#
#
# Convention : Reuss Voigt Hill
#
# Bulk Modulus (GPa) = 53.09643 59.68413 56.39028
# Shear Modulus (GPa) = 21.59322 27.05358 24.32340
#
# Velocity S-wave (km/s) = 3.46575 3.87928 3.67833
# Velocity P-wave (km/s) = 6.74911 7.29828 7.02906
#
# Compressibility (1/GPa) = 0.01883366
#
# Stress axis : x y z
#
# Youngs Moduli (GPa) = 59.40155 69.94261 111.34474
#
# Poissons Ratio (x) = 0.23759 0.49991
# Poissons Ratio (y) = 0.20179 0.30653
# Poissons Ratio (z) = 0.26670 0.19255
#
# Static dielectric constant tensor:
#      x y z
#    x 2.832710 0.000000 0.000000 
#    y 0.000000 3.486650 0.000000 
#    z 0.000000 0.000000 4.052000 
# 
# 
# High freq. dielectric constant tensor:
#      x y z
#    x 1.634090 0.000000 0.000000 
#    y 0.000000 1.709720 0.000000 
#    z 0.000000 0.000000 1.728920 
# 
# From -- ./inp_files/21311.got.cif
#   From: 2010.03.12/outbox.cif.g09.slc.cpg/sg50_11_cif.got.tgz:21311.got - 2010.04.16 13:23:21.
