data_PCOD8205108
_publ_section_title
;
Structure prediction by ZEFSAII (Michael W. Deem and Ramdas Pophale) SiO2 
 PCOD8205108
Probable space group: P B A N
;
_chemical_formula_sum "Si O2"
_cell_formula_units_Z 64
_cell_length_a 15.526607
_cell_length_b 8.667128
_cell_length_c 23.825935
_cell_angle_alpha 90.000000
_cell_angle_beta 90.000000
_cell_angle_gamma 90.000000
_cell_volume 3206.282050
_symmetry_space_group_name_H-M "P B A N"
_symmetry_group_IT_number 50
_space_group.IT_coordinate_system_code '2'
_symmetry_cell_setting 'orthorhombic'
loop_
_space_group_symop_operation_xyz
x,y,z
1/2-x,1/2-y,z
x,1/2-y,-z
1/2-x,y,-z
-x,-y,-z
1/2+x,1/2+y,-z
-x,1/2+y,z
1/2+x,-y,z
loop_
_atom_site_type_symbol
_atom_site_label
_atom_site_fract_x
_atom_site_fract_y
_atom_site_fract_z
Si Si1 0.590244 0.566862 0.619328
Si Si2 0.846344 0.932991 0.500000
Si Si3 0.750000 0.932219 0.806339
Si Si4 0.750000 0.431438 0.314906
Si Si5 0.846887 0.933968 0.000000
Si Si6 0.911128 0.931870 0.881622
Si Si7 0.090243 0.433137 0.380672
Si Si8 0.588872 0.568131 0.118378
O O1 0.604592 0.508429 0.555435
O O2 0.665400 0.504457 0.658250
O O3 0.500001 0.499999 0.641294
O O4 0.589477 0.750000 0.623384
O O5 0.840708 0.750000 0.500000
O O6 0.750000 0.002588 0.500000
O O7 0.895408 0.991572 0.444564
O O8 0.750000 0.750000 0.793022
O O9 0.833782 0.982496 0.841273
O O10 0.666217 0.982496 0.841272
O O11 0.750001 0.031216 0.750391
O O12 0.750000 0.250000 0.325188
O O13 0.665398 0.504456 0.341749
O O14 0.894628 0.996720 0.055537
O O15 0.844128 0.750000 0.000000
O O16 0.750000 0.998707 0.000000
O O17 0.894628 0.996720 0.944463
O O18 0.918098 0.750000 0.883079
O O19 1.000000 0.000001 0.857838
#
# Coordination Sequence:
#
# PCOD8205108 Si02
#       8
#     8   8   8   8   8   8   8   8
#     4  11  22  40  65  93 126 160 198 244 297 358
#     4   9  17  34  62  93 124 160 194 235 296 357
#     4  10  22  41  61  81 110 156 202 242 293 352
#     4  12  26  43  62  87 118 158 207 256 303 352
#     4   9  15  30  57  86 115 150 189 227 278 352
#     4  10  20  35  59  87 116 150 190 235 288 350
#     4  11  22  40  65  93 126 160 198 244 297 358
#     4  10  20  35  59  87 116 150 190 235 288 350
#
# _framework density 19.960813999999999
#
# number of rings (size 3 to 8) (size 9 to 14) (size 15 to 20)
#    0.000    1.750    2.500    2.625    0.000    2.000 
#    0.000    5.000    0.000    0.750    0.000    0.000 
#    0.000    0.000    0.000    0.000    0.000    0.000 
#
# Total GULP energy -793738.458879 kJ/mol
# GULP energy per Si atom -12402.163420 kJ/mol
# Density = 1.991538 g / cm^3
# Si number density = 19.960814 Si / 1000 Ang^3
#
#
#
# Elastic Constant Matrix: (Units=GPa)
#
#
# Indices 1 2 3 4 5 6 
#
# 1 196.4711 44.5280 72.2756 0.0000 0.0000 0.0000
# 2 44.5280 61.2077 40.7287 0.0000 0.0000 0.0000
# 3 72.2756 40.7287 135.1672 0.0000 0.0000 0.0000
# 4 0.0000 0.0000 0.0000 18.8037 0.0000 0.0000
# 5 0.0000 0.0000 0.0000 0.0000 8.0750 0.0000
# 6 0.0000 0.0000 0.0000 0.0000 0.0000 29.4802
#
#
#
# Elastic Compliance Matrix: (Units=1/GPa)
#
#
# Indices 1 2 3 4 5 6 
#
# 1 0.006791 -0.003157 -0.002680 0.000000 0.000000 0.000000
# 2 -0.003157 0.021903 -0.004912 0.000000 0.000000 0.000000
# 3 -0.002680 -0.004912 0.010311 0.000000 0.000000 0.000000
# 4 0.000000 0.000000 0.000000 0.053181 0.000000 0.000000
# 5 0.000000 0.000000 0.000000 0.000000 0.123839 0.000000
# 6 0.000000 0.000000 0.000000 0.000000 0.000000 0.033921
#
#
# Mechanical properties :
#
#
# Convention : Reuss Voigt Hill
#
# Bulk Modulus (GPa) = 57.11766 78.65672 67.88719
# Shear Modulus (GPa) = 18.03230 26.95937 22.49583
#
# Velocity S-wave (km/s) = 3.00890 3.67906 3.36072
# Velocity P-wave (km/s) = 6.38344 7.58541 7.01023
#
# Compressibility (1/GPa) = 0.01750772
#
# Stress axis : x y z
#
# Youngs Moduli (GPa) = 147.24814 45.65600 96.98138
#
# Poissons Ratio (x) = 0.14415 0.25991
# Poissons Ratio (y) = 0.46490 0.47633
# Poissons Ratio (z) = 0.39463 0.22424
#
# Static dielectric constant tensor:
#      x y z
#    x 4.045440 0.000000 0.000000 
#    y 0.000000 3.277530 0.000000 
#    z 0.000000 0.000000 3.766830 
# 
# 
# High freq. dielectric constant tensor:
#      x y z
#    x 1.796520 0.000000 0.000000 
#    y 0.000000 1.750760 0.000000 
#    z 0.000000 0.000000 1.780900 
# 
# From -- ./inp_files/31773.got.cif
#   From: 2010.03.12/outbox.cif.g09.slc.cpg/sg50_16_cif.got.tgz:31773.got - 2010.04.16 13:23:21.
