data_PCOD8205678
_publ_section_title
;
Structure prediction by ZEFSAII (Michael W. Deem and Ramdas Pophale) SiO2 
 PCOD8205678
Probable space group: P B A N
;
_chemical_formula_sum "Si O2"
_cell_formula_units_Z 28
_cell_length_a 18.295595
_cell_length_b 12.569102
_cell_length_c 5.209910
_cell_angle_alpha 90.000000
_cell_angle_beta 90.000000
_cell_angle_gamma 90.000000
_cell_volume 1198.066734
_symmetry_space_group_name_H-M "P B A N"
_symmetry_group_IT_number 50
_space_group.IT_coordinate_system_code '2'
_symmetry_cell_setting 'orthorhombic'
loop_
_space_group_symop_operation_xyz
x,y,z
1/2-x,1/2-y,z
x,1/2-y,-z
1/2-x,y,-z
-x,-y,-z
1/2+x,1/2+y,-z
-x,1/2+y,z
1/2+x,-y,z
loop_
_atom_site_type_symbol
_atom_site_label
_atom_site_fract_x
_atom_site_fract_y
_atom_site_fract_z
Si Si1 0.921183 0.750000 0.500000
Si Si2 0.127297 0.850726 0.317140
Si Si3 0.330304 0.453863 0.612595
Si Si4 0.012490 0.750000 0.000000
Si Si5 0.250000 0.921828 0.000000
O O1 0.871939 0.843029 0.381349
O O2 0.966980 0.789542 0.749130
O O3 0.116362 0.750000 0.500000
O O4 0.210141 0.846091 0.205868
O O5 0.118768 0.962517 0.461916
O O6 0.065310 0.846041 0.095331
O O7 0.250000 0.436318 0.500000
O O8 0.315422 0.502837 0.893738
#
# Coordination Sequence:
#
# PCOD8205678 Si02
#       5
#     4   8   8   4   4
#     4  12  29  50  72 105 150 194 244 286 360 439
#     4  11  24  47  69 110 144 186 247 294 371 422
#     4  10  25  47  74 107 139 190 241 307 357 421
#     4  12  28  47  73 106 146 204 228 298 358 434
#     4  10  24  43  81 106 146 188 241 319 358 420
#
# _framework density 23.370988000000001
#
# number of rings (size 3 to 8) (size 9 to 14) (size 15 to 20)
#    0.000    1.143    1.429    2.143    8.000   16.000 
#    0.000    0.000    0.000    0.000    0.000    0.000 
#    0.000    0.000    0.000    0.000    0.000    0.000 
#
# Total GULP energy -346969.471372 kJ/mol
# GULP energy per Si atom -12391.766835 kJ/mol
# Density = 2.331779 g / cm^3
# Si number density = 23.370988 Si / 1000 Ang^3
#
#
#
# Elastic Constant Matrix: (Units=GPa)
#
#
# Indices 1 2 3 4 5 6 
#
# 1 113.7680 70.1284 55.2362 0.0000 0.0000 0.0000
# 2 70.1284 103.0034 35.1841 0.0000 0.0000 0.0000
# 3 55.2362 35.1841 133.0360 0.0000 0.0000 0.0000
# 4 0.0000 0.0000 0.0000 19.9511 0.0000 0.0000
# 5 0.0000 0.0000 0.0000 0.0000 27.4833 0.0000
# 6 0.0000 0.0000 0.0000 0.0000 0.0000 5.4832
#
#
#
# Elastic Compliance Matrix: (Units=1/GPa)
#
#
# Indices 1 2 3 4 5 6 
#
# 1 0.017260 -0.010227 -0.004462 0.000000 0.000000 0.000000
# 2 -0.010227 0.016733 -0.000179 0.000000 0.000000 0.000000
# 3 -0.004462 -0.000179 0.009417 0.000000 0.000000 0.000000
# 4 0.000000 0.000000 0.000000 0.050123 0.000000 0.000000
# 5 0.000000 0.000000 0.000000 0.000000 0.036386 0.000000
# 6 0.000000 0.000000 0.000000 0.000000 0.000000 0.182374
#
#
# Mechanical properties :
#
#
# Convention : Reuss Voigt Hill
#
# Bulk Modulus (GPa) = 73.13307 74.54498 73.83903
# Shear Modulus (GPa) = 14.42645 23.20078 18.81361
#
# Velocity S-wave (km/s) = 2.48721 3.15416 2.84033
# Velocity P-wave (km/s) = 6.29352 6.72537 6.51303
#
# Compressibility (1/GPa) = 0.01367370
#
# Stress axis : x y z
#
# Youngs Moduli (GPa) = 57.93619 59.76295 106.19643
#
# Poissons Ratio (x) = 0.61122 0.47380
# Poissons Ratio (y) = 0.59254 0.01900
# Poissons Ratio (z) = 0.25849 0.01069
#
# Static dielectric constant tensor:
#      x y z
#    x 4.284660 0.000000 0.000000 
#    y 0.000000 3.986730 0.000000 
#    z 0.000000 0.000000 4.650570 
# 
# 
# High freq. dielectric constant tensor:
#      x y z
#    x 1.927440 0.000000 0.000000 
#    y 0.000000 1.899490 0.000000 
#    z 0.000000 0.000000 1.941850 
# 
# From -- ./inp_files/1898.got.cif
#   From: 2010.03.12/outbox.cif.g09.slc.cpg/sg50_1_cif.got.tgz:1898.got - 2010.04.16 13:23:21.
