data_PCOD8205122
_publ_section_title
;
Structure prediction by ZEFSAII (Michael W. Deem and Ramdas Pophale) SiO2 
 PCOD8205122
Probable space group: P B A N
;
_chemical_formula_sum "Si O2"
_cell_formula_units_Z 58
_cell_length_a 18.773087
_cell_length_b 14.282089
_cell_length_c 12.278250
_cell_angle_alpha 90.000000
_cell_angle_beta 90.000000
_cell_angle_gamma 90.000000
_cell_volume 3292.030876
_symmetry_space_group_name_H-M "P B A N"
_symmetry_group_IT_number 50
_space_group.IT_coordinate_system_code '2'
_symmetry_cell_setting 'orthorhombic'
loop_
_space_group_symop_operation_xyz
x,y,z
1/2-x,1/2-y,z
x,1/2-y,-z
1/2-x,y,-z
-x,-y,-z
1/2+x,1/2+y,-z
-x,1/2+y,z
1/2+x,-y,z
loop_
_atom_site_type_symbol
_atom_site_label
_atom_site_fract_x
_atom_site_fract_y
_atom_site_fract_z
Si Si1 0.659480 0.937669 0.296787
Si Si2 0.750000 0.750000 0.000000
Si Si3 0.643289 0.735820 0.835356
Si Si4 0.067006 0.560432 0.866120
Si Si5 0.921967 0.046182 0.114487
Si Si6 0.834411 0.644422 0.513803
Si Si7 0.477263 0.757059 0.124125
Si Si8 0.680656 0.928902 0.744204
O O1 0.649657 0.828318 0.269477
O O2 0.637943 0.932370 0.424424
O O3 0.740622 0.968869 0.277660
O O4 0.609401 0.003024 0.224515
O O5 0.693397 0.688099 0.928752
O O6 0.561960 0.746145 0.868106
O O7 0.680288 0.836213 0.817967
O O8 0.060634 0.667020 0.820491
O O9 0.986696 0.525446 0.877207
O O10 0.102492 0.553142 0.987030
O O11 0.945665 0.145419 0.167347
O O12 0.858932 0.011255 0.191692
O O13 0.866872 0.750000 0.500000
O O14 0.750000 0.652467 0.500000
O O15 0.856718 0.600454 0.630118
O O16 0.455637 0.750000 0.000000
#
# Coordination Sequence:
#
# PCOD8205122 Si02
#       8
#     8   2   8   8   8   8   8   8
#     4  11  21  34  54  81 108 142 178 226 272 321
#     4  12  24  24  44  98 124 134 166 228 298 320
#     4  12  20  29  51  81 116 141 168 224 272 323
#     4  10  21  34  54  79 108 146 180 214 266 328
#     4  10  21  34  54  79 108 146 180 214 266 328
#     4   9  18  34  53  77 111 143 176 216 283 340
#     4  10  20  36  52  72 112 152 181 207 257 331
#     4  11  21  34  54  81 108 142 178 226 272 321
#
# _framework density 17.618303999999998
#
# number of rings (size 3 to 8) (size 9 to 14) (size 15 to 20)
#    0.000    1.517    6.207    0.000    1.931    0.552 
#    0.000    1.379    0.000    3.310    0.000    2.897 
#    0.000    0.000    0.000    0.000    0.000    0.000 
#
# Total GULP energy -718592.559501 kJ/mol
# GULP energy per Si atom -12389.526888 kJ/mol
# Density = 1.757820 g / cm^3
# Si number density = 17.618304 Si / 1000 Ang^3
#
#
#
# Elastic Constant Matrix: (Units=GPa)
#
#
# Indices 1 2 3 4 5 6 
#
# 1 62.4643 24.3351 34.7376 0.0000 0.0000 0.0000
# 2 24.3351 74.9650 33.8713 0.0000 0.0000 0.0000
# 3 34.7376 33.8713 93.5913 0.0000 0.0000 0.0000
# 4 0.0000 0.0000 0.0000 24.4398 0.0000 0.0000
# 5 0.0000 0.0000 0.0000 0.0000 17.4019 0.0000
# 6 0.0000 0.0000 0.0000 0.0000 0.0000 27.3523
#
#
#
# Elastic Compliance Matrix: (Units=1/GPa)
#
#
# Indices 1 2 3 4 5 6 
#
# 1 0.021113 -0.003961 -0.006403 0.000000 0.000000 0.000000
# 2 -0.003961 0.016690 -0.004570 0.000000 0.000000 0.000000
# 3 -0.006403 -0.004570 0.014715 0.000000 0.000000 0.000000
# 4 0.000000 0.000000 0.000000 0.040917 0.000000 0.000000
# 5 0.000000 0.000000 0.000000 0.000000 0.057465 0.000000
# 6 0.000000 0.000000 0.000000 0.000000 0.000000 0.036560
#
#
# Mechanical properties :
#
#
# Convention : Reuss Voigt Hill
#
# Bulk Modulus (GPa) = 44.14863 46.32319 45.23591
# Shear Modulus (GPa) = 22.23423 23.04389 22.63906
#
# Velocity S-wave (km/s) = 3.55631 3.62048 3.58854
# Velocity P-wave (km/s) = 6.47888 6.62019 6.54992
#
# Compressibility (1/GPa) = 0.02265076
#
# Stress axis : x y z
#
# Youngs Moduli (GPa) = 47.36425 59.91519 67.95647
#
# Poissons Ratio (x) = 0.23730 0.43512
# Poissons Ratio (y) = 0.18759 0.31058
# Poissons Ratio (z) = 0.30327 0.27383
#
# Static dielectric constant tensor:
#      x y z
#    x 3.024710 0.000000 0.000000 
#    y 0.000000 3.415710 0.000000 
#    z 0.000000 0.000000 3.408910 
# 
# 
# High freq. dielectric constant tensor:
#      x y z
#    x 1.657920 0.000000 0.000000 
#    y 0.000000 1.665180 0.000000 
#    z 0.000000 0.000000 1.678380 
# 
# From -- ./inp_files/21300.got.cif
#   From: 2010.03.12/outbox.cif.g09.slc.cpg/sg50_11_cif.got.tgz:21300.got - 2010.04.16 13:23:21.
