data_PCOD8205634
_publ_section_title
;
Structure prediction by ZEFSAII (Michael W. Deem and Ramdas Pophale) SiO2 
 PCOD8205634
Probable space group: P B A N
;
_chemical_formula_sum "Si O2"
_cell_formula_units_Z 52
_cell_length_a 13.594749
_cell_length_b 18.963905
_cell_length_c 9.161130
_cell_angle_alpha 90.000000
_cell_angle_beta 90.000000
_cell_angle_gamma 90.000000
_cell_volume 2361.826606
_symmetry_space_group_name_H-M "P B A N"
_symmetry_group_IT_number 50
_space_group.IT_coordinate_system_code '2'
_symmetry_cell_setting 'orthorhombic'
loop_
_space_group_symop_operation_xyz
x,y,z
1/2-x,1/2-y,z
x,1/2-y,-z
1/2-x,y,-z
-x,-y,-z
1/2+x,1/2+y,-z
-x,1/2+y,z
1/2+x,-y,z
loop_
_atom_site_type_symbol
_atom_site_label
_atom_site_fract_x
_atom_site_fract_y
_atom_site_fract_z
Si Si1 0.127144 0.429723 0.165984
Si Si2 0.352820 0.279600 0.752840
Si Si3 0.968870 0.103627 0.370591
Si Si4 0.014109 0.250000 0.500000
Si Si5 0.978837 0.750000 0.000000
Si Si6 0.551701 0.398592 0.022883
Si Si7 0.134155 0.025340 0.519518
Si Si8 0.750000 0.031160 0.000000
O O1 0.164515 0.349906 0.152970
O O2 0.092214 0.442981 0.329793
O O3 0.218589 0.481258 0.134453
O O4 0.038065 0.443126 0.050722
O O5 0.250000 0.250000 0.699665
O O6 0.418098 0.293333 0.611295
O O7 0.411208 0.227241 0.861483
O O8 0.955141 0.186622 0.417501
O O9 0.078444 0.070860 0.394670
O O10 0.945014 0.094071 0.198584
O O11 0.893995 0.057934 0.472482
O O12 0.045143 0.682066 0.967478
O O13 0.655825 0.422512 0.954735
O O14 0.250000 0.036323 0.500000
#
# Coordination Sequence:
#
# PCOD8205634 Si02
#       8
#     8   8   8   4   4   8   8   4
#     4  11  26  43  67 107 137 177 227 293 342 413
#     4  11  24  39  64 100 138 178 223 274 349 415
#     4  11  25  46  69 101 139 184 230 287 348 408
#     4  12  23  42  69  96 138 186 226 287 343 410
#     4  10  23  43  66  96 136 176 222 292 338 386
#     4  11  25  46  71 101 137 180 233 289 345 412
#     4  11  26  45  70  99 138 184 228 281 346 421
#     4  12  26  41  73  98 136 184 236 278 350 412
#
# _framework density 22.016857000000002
#
# number of rings (size 3 to 8) (size 9 to 14) (size 15 to 20)
#    0.000    0.923    4.615    0.923    8.615    1.538 
#    0.000    0.385    3.385    0.000    0.000    0.000 
#    0.000    0.000    0.000    0.000    0.000    0.000 
#
# Total GULP energy -644533.694843 kJ/mol
# GULP energy per Si atom -12394.878747 kJ/mol
# Density = 2.196675 g / cm^3
# Si number density = 22.016857 Si / 1000 Ang^3
#
#
#
# Elastic Constant Matrix: (Units=GPa)
#
#
# Indices 1 2 3 4 5 6 
#
# 1 115.1084 48.1925 28.8778 0.0000 0.0000 0.0000
# 2 48.1925 104.9811 21.5664 0.0000 0.0000 0.0000
# 3 28.8778 21.5664 92.1727 0.0000 0.0000 0.0000
# 4 0.0000 0.0000 0.0000 32.3599 0.0000 0.0000
# 5 0.0000 0.0000 0.0000 0.0000 21.2708 0.0000
# 6 0.0000 0.0000 0.0000 0.0000 0.0000 20.2733
#
#
#
# Elastic Compliance Matrix: (Units=1/GPa)
#
#
# Indices 1 2 3 4 5 6 
#
# 1 0.011251 -0.004665 -0.002433 0.000000 0.000000 0.000000
# 2 -0.004665 0.011941 -0.001332 0.000000 0.000000 0.000000
# 3 -0.002433 -0.001332 0.011923 0.000000 0.000000 0.000000
# 4 0.000000 0.000000 0.000000 0.030902 0.000000 0.000000
# 5 0.000000 0.000000 0.000000 0.000000 0.047013 0.000000
# 6 0.000000 0.000000 0.000000 0.000000 0.000000 0.049326
#
#
# Mechanical properties :
#
#
# Convention : Reuss Voigt Hill
#
# Bulk Modulus (GPa) = 54.78379 56.61507 55.69943
# Shear Modulus (GPa) = 26.98291 29.02250 28.00271
#
# Velocity S-wave (km/s) = 3.50459 3.63463 3.57021
# Velocity P-wave (km/s) = 6.42751 6.58668 6.50758
#
# Compressibility (1/GPa) = 0.01825357
#
# Stress axis : x y z
#
# Youngs Moduli (GPa) = 88.88060 83.74698 83.86911
#
# Poissons Ratio (x) = 0.39068 0.20409
# Poissons Ratio (y) = 0.41463 0.11174
# Poissons Ratio (z) = 0.21629 0.11158
#
# Static dielectric constant tensor:
#      x y z
#    x 3.709200 0.000000 0.000000 
#    y 0.000000 4.186900 0.000000 
#    z 0.000000 0.000000 3.982580 
# 
# 
# High freq. dielectric constant tensor:
#      x y z
#    x 1.837800 0.000000 0.000000 
#    y 0.000000 1.884980 0.000000 
#    z 0.000000 0.000000 1.870640 
# 
# From -- ./inp_files/13255.got.cif
#   From: 2010.03.12/outbox.cif.g09.slc.cpg/sg50_7_cif.got.tgz:13255.got - 2010.04.16 13:23:21.
