data_PCOD8205138
_publ_section_title
;
Structure prediction by ZEFSAII (Michael W. Deem and Ramdas Pophale) SiO2 
 PCOD8205138
Probable space group: P B A N
;
_chemical_formula_sum "Si O2"
_cell_formula_units_Z 64
_cell_length_a 9.086096
_cell_length_b 14.285449
_cell_length_c 24.471005
_cell_angle_alpha 90.000000
_cell_angle_beta 90.000000
_cell_angle_gamma 90.000000
_cell_volume 3176.311024
_symmetry_space_group_name_H-M "P B A N"
_symmetry_group_IT_number 50
_space_group.IT_coordinate_system_code '2'
_symmetry_cell_setting 'orthorhombic'
loop_
_space_group_symop_operation_xyz
x,y,z
1/2-x,1/2-y,z
x,1/2-y,-z
1/2-x,y,-z
-x,-y,-z
1/2+x,1/2+y,-z
-x,1/2+y,z
1/2+x,-y,z
loop_
_atom_site_type_symbol
_atom_site_label
_atom_site_fract_x
_atom_site_fract_y
_atom_site_fract_z
Si Si1 0.517825 0.526129 0.857013
Si Si2 0.232577 0.996758 0.780053
Si Si3 0.326561 0.065926 0.441796
Si Si4 0.515670 0.074302 0.291032
Si Si5 0.907685 0.361929 0.067593
Si Si6 0.530571 0.933163 0.386361
Si Si7 0.414884 0.273598 0.629277
Si Si8 0.426255 0.647528 0.945331
O O1 0.366993 0.554832 0.825490
O O2 0.644038 0.551661 0.813825
O O3 0.517762 0.420264 0.882575
O O4 0.542108 0.592444 0.908493
O O5 0.325263 0.927914 0.739353
O O6 0.123810 0.069287 0.749625
O O7 0.250000 0.074702 0.500000
O O8 0.408443 0.163343 0.426169
O O9 0.202290 0.049035 0.396433
O O10 0.437348 0.977879 0.436826
O O11 0.505148 0.170775 0.324433
O O12 0.494271 0.983786 0.329716
O O13 0.737849 0.392048 0.063334
O O14 0.927782 0.252333 0.077695
O O15 0.979141 0.373281 0.007121
O O16 0.496785 0.822160 0.383381
O O17 0.250000 0.250000 0.649934
#
# Coordination Sequence:
#
# PCOD8205138 Si02
#       8
#     8   8   8   8   8   8   8   8
#     4  11  19  37  55  84 113 147 185 235 289 343
#     4  10  22  35  58  80 112 149 186 239 297 337
#     4  10  20  36  59  90 126 155 185 232 294 337
#     4  10  20  41  56  78 113 149 196 245 286 335
#     4   9  18  34  57  82 111 151 187 227 277 346
#     4  10  20  37  62  84 111 157 197 237 280 340
#     4   9  19  35  61  85 111 154 202 237 276 344
#     4   9  18  34  57  81 112 150 190 225 276 345
#
# _framework density 20.149159999999998
#
# number of rings (size 3 to 8) (size 9 to 14) (size 15 to 20)
#    0.000    2.250    1.250    3.750    0.000    2.250 
#    0.000   16.250    0.000    4.500    0.000    0.000 
#    0.000    0.000    0.000    0.000    0.000    0.000 
#
# Total GULP energy -792941.571770 kJ/mol
# GULP energy per Si atom -12389.712059 kJ/mol
# Density = 2.010330 g / cm^3
# Si number density = 20.149160 Si / 1000 Ang^3
#
#
#
# Elastic Constant Matrix: (Units=GPa)
#
#
# Indices 1 2 3 4 5 6 
#
# 1 69.8334 35.2097 26.7853 0.0000 0.0000 0.0000
# 2 35.2097 120.9302 47.5234 0.0000 0.0000 0.0000
# 3 26.7853 47.5234 100.0879 0.0000 0.0000 0.0000
# 4 0.0000 0.0000 0.0000 12.5335 0.0000 0.0000
# 5 0.0000 0.0000 0.0000 0.0000 32.9253 0.0000
# 6 0.0000 0.0000 0.0000 0.0000 0.0000 25.4997
#
#
#
# Elastic Compliance Matrix: (Units=1/GPa)
#
#
# Indices 1 2 3 4 5 6 
#
# 1 0.017385 -0.003975 -0.002765 0.000000 0.000000 0.000000
# 2 -0.003975 0.011075 -0.004195 0.000000 0.000000 0.000000
# 3 -0.002765 -0.004195 0.012723 0.000000 0.000000 0.000000
# 4 0.000000 0.000000 0.000000 0.079786 0.000000 0.000000
# 5 0.000000 0.000000 0.000000 0.000000 0.030372 0.000000
# 6 0.000000 0.000000 0.000000 0.000000 0.000000 0.039216
#
#
# Mechanical properties :
#
#
# Convention : Reuss Voigt Hill
#
# Bulk Modulus (GPa) = 51.77908 56.65426 54.21667
# Shear Modulus (GPa) = 22.84523 26.28057 24.56290
#
# Velocity S-wave (km/s) = 3.37086 3.61543 3.49528
# Velocity P-wave (km/s) = 6.39562 6.75329 6.57688
#
# Compressibility (1/GPa) = 0.01931282
#
# Stress axis : x y z
#
# Youngs Moduli (GPa) = 57.52243 90.29271 78.59805
#
# Poissons Ratio (x) = 0.35892 0.21732
# Poissons Ratio (y) = 0.22865 0.32971
# Poissons Ratio (z) = 0.15905 0.37876
#
# Static dielectric constant tensor:
#      x y z
#    x 3.688290 0.000000 0.000000 
#    y 0.000000 3.490420 0.000000 
#    z 0.000000 0.000000 3.799290 
# 
# 
# High freq. dielectric constant tensor:
#      x y z
#    x 1.775500 0.000000 0.000000 
#    y 0.000000 1.763300 0.000000 
#    z 0.000000 0.000000 1.797280 
# 
# From -- ./inp_files/31605.got.cif
#   From: 2010.03.12/outbox.cif.g09.slc.cpg/sg50_16_cif.got.tgz:31605.got - 2010.04.16 13:23:21.
