data_PCOD8205159
_publ_section_title
;
Structure prediction by ZEFSAII (Michael W. Deem and Ramdas Pophale) SiO2 
 PCOD8205159
Probable space group: P B A N
;
_chemical_formula_sum "Si O2"
_cell_formula_units_Z 48
_cell_length_a 27.393362
_cell_length_b 5.359817
_cell_length_c 14.074187
_cell_angle_alpha 90.000000
_cell_angle_beta 90.000000
_cell_angle_gamma 90.000000
_cell_volume 2066.420091
_symmetry_space_group_name_H-M "P B A N"
_symmetry_group_IT_number 50
_space_group.IT_coordinate_system_code '2'
_symmetry_cell_setting 'orthorhombic'
loop_
_space_group_symop_operation_xyz
x,y,z
1/2-x,1/2-y,z
x,1/2-y,-z
1/2-x,y,-z
-x,-y,-z
1/2+x,1/2+y,-z
-x,1/2+y,z
1/2+x,-y,z
loop_
_atom_site_type_symbol
_atom_site_label
_atom_site_fract_x
_atom_site_fract_y
_atom_site_fract_z
Si Si1 0.847213 0.028428 0.660745
Si Si2 0.903393 0.154609 0.201839
Si Si3 0.394076 0.750000 0.000000
Si Si4 0.531492 0.579037 0.344215
Si Si5 0.692374 0.633960 0.196088
Si Si6 0.750000 0.250000 0.706669
Si Si7 0.101345 0.250000 0.500000
Si Si8 0.168173 0.250000 0.000000
O O1 0.828360 0.796390 0.719374
O O2 0.864430 0.940149 0.557682
O O3 0.894979 0.137279 0.715717
O O4 0.800392 0.216309 0.646929
O O5 0.938412 0.940480 0.245254
O O6 0.848586 0.073912 0.176828
O O7 0.925498 0.246916 0.099746
O O8 0.364176 0.496085 0.005139
O O9 0.503423 0.840071 0.349021
O O10 0.568799 0.574817 0.432172
O O11 0.743026 0.498361 0.227678
O O12 0.701588 0.764539 0.094656
#
# Coordination Sequence:
#
# PCOD8205159 Si02
#       8
#     8   8   4   8   8   4   4   4
#     4  11  22  45  69  96 138 187 243 290 352 422
#     4  10  22  42  72 103 139 190 225 288 351 429
#     4  10  20  38  72 106 138 185 242 269 342 440
#     4  12  27  47  75 110 143 174 233 304 364 427
#     4  10  20  42  68  97 140 185 239 290 350 422
#     4  10  24  42  68  96 144 186 236 309 353 400
#     4  12  26  48  77 100 134 194 236 297 366 434
#     4  10  20  36  71 103 134 191 240 289 340 411
#
# _framework density 23.228580000000001
#
# number of rings (size 3 to 8) (size 9 to 14) (size 15 to 20)
#    0.000    1.333    3.333    2.000    0.000    2.000 
#    0.000    5.833    0.000    0.000    0.000    0.000 
#    0.000    0.000    0.000    0.000    0.000    0.000 
#
# Total GULP energy -594764.549463 kJ/mol
# GULP energy per Si atom -12390.928114 kJ/mol
# Density = 2.317571 g / cm^3
# Si number density = 23.228580 Si / 1000 Ang^3
#
#
#
# Elastic Constant Matrix: (Units=GPa)
#
#
# Indices 1 2 3 4 5 6 
#
# 1 92.6792 31.7987 62.1848 0.0000 0.0000 0.0000
# 2 31.7987 105.9361 28.5362 0.0000 0.0000 0.0000
# 3 62.1848 28.5362 167.8558 0.0000 0.0000 0.0000
# 4 0.0000 0.0000 0.0000 42.2859 0.0000 0.0000
# 5 0.0000 0.0000 0.0000 0.0000 5.0504 0.0000
# 6 0.0000 0.0000 0.0000 0.0000 0.0000 33.2312
#
#
#
# Elastic Compliance Matrix: (Units=1/GPa)
#
#
# Indices 1 2 3 4 5 6 
#
# 1 0.015341 -0.003222 -0.005136 0.000000 0.000000 0.000000
# 2 -0.003222 0.010569 -0.000603 0.000000 0.000000 0.000000
# 3 -0.005136 -0.000603 0.007963 0.000000 0.000000 0.000000
# 4 0.000000 0.000000 0.000000 0.023649 0.000000 0.000000
# 5 0.000000 0.000000 0.000000 0.000000 0.198006 0.000000
# 6 0.000000 0.000000 0.000000 0.000000 0.000000 0.030092
#
#
# Mechanical properties :
#
#
# Convention : Reuss Voigt Hill
#
# Bulk Modulus (GPa) = 62.68862 67.94563 65.31713
# Shear Modulus (GPa) = 16.18867 32.37690 24.28278
#
# Velocity S-wave (km/s) = 2.64281 3.73747 3.23675
# Velocity P-wave (km/s) = 6.02983 6.92382 6.49223
#
# Compressibility (1/GPa) = 0.01595186
#
# Stress axis : x y z
#
# Youngs Moduli (GPa) = 65.18433 94.61474 125.58615
#
# Poissons Ratio (x) = 0.30480 0.64497
# Poissons Ratio (y) = 0.20999 0.07577
# Poissons Ratio (z) = 0.33477 0.05709
#
# Static dielectric constant tensor:
#      x y z
#    x 4.255270 0.000000 0.000000 
#    y 0.000000 4.194420 0.000000 
#    z 0.000000 0.000000 4.680470 
# 
# 
# High freq. dielectric constant tensor:
#      x y z
#    x 1.902410 0.000000 0.000000 
#    y 0.000000 1.928920 0.000000 
#    z 0.000000 0.000000 1.925280 
# 
# From -- ./inp_files/27649.got.cif
#   From: 2010.03.12/outbox.cif.g09.slc.cpg/sg50_14_cif.got.tgz:27649.got - 2010.04.16 13:23:21.
