data_PCOD8205899
_publ_section_title
;
Structure prediction by ZEFSAII (Michael W. Deem and Ramdas Pophale) SiO2 
 PCOD8205899
Probable space group: P B A N
;
_chemical_formula_sum "Si O2"
_cell_formula_units_Z 36
_cell_length_a 8.780406
_cell_length_b 23.219844
_cell_length_c 9.083543
_cell_angle_alpha 90.000000
_cell_angle_beta 90.000000
_cell_angle_gamma 90.000000
_cell_volume 1851.949636
_symmetry_space_group_name_H-M "P B A N"
_symmetry_group_IT_number 50
_space_group.IT_coordinate_system_code '2'
_symmetry_cell_setting 'orthorhombic'
loop_
_space_group_symop_operation_xyz
x,y,z
1/2-x,1/2-y,z
x,1/2-y,-z
1/2-x,y,-z
-x,-y,-z
1/2+x,1/2+y,-z
-x,1/2+y,z
1/2+x,-y,z
loop_
_atom_site_type_symbol
_atom_site_label
_atom_site_fract_x
_atom_site_fract_y
_atom_site_fract_z
Si Si1 0.237069 0.436543 0.834739
Si Si2 0.003616 0.187778 0.502010
Si Si3 0.750000 0.099750 0.500000
Si Si4 0.945647 0.017154 0.337519
Si Si5 0.266891 0.187196 0.739455
O O1 0.379294 0.461160 0.742784
O O2 0.255713 0.367228 0.846169
O O3 0.078982 0.454761 0.758761
O O4 0.250000 0.461245 0.000000
O O5 0.921050 0.250000 0.500000
O O6 0.140771 0.188196 0.614568
O O7 0.069257 0.176774 0.338049
O O8 0.888224 0.138976 0.555276
O O9 0.805774 0.061939 0.360322
O O10 0.000000 0.000000 0.500000
O O11 0.250000 0.250000 0.821148
#
# Coordination Sequence:
#
# PCOD8205899 Si02
#       5
#     8   8   4   8   8
#     4  12  25  41  60  89 127 159 203 254 312 371
#     4   9  18  32  56  90 119 149 199 259 297 350
#     4  12  19  32  60  86 119 150 206 246 306 352
#     4  12  24  40  62  88 118 164 204 249 302 370
#     4   9  19  36  59  84 116 156 202 247 302 357
#
# _framework density 19.438974000000002
#
# number of rings (size 3 to 8) (size 9 to 14) (size 15 to 20)
#    0.000    1.333    4.444    3.667    3.111    0.444 
#    0.000    0.000    0.000    0.000    0.000    0.000 
#    0.000    0.000    0.000    0.000    0.000    0.000 
#
# Total GULP energy -446149.325270 kJ/mol
# GULP energy per Si atom -12393.036813 kJ/mol
# Density = 1.939473 g / cm^3
# Si number density = 19.438974 Si / 1000 Ang^3
#
#
#
# Elastic Constant Matrix: (Units=GPa)
#
#
# Indices 1 2 3 4 5 6 
#
# 1 82.6218 54.7354 36.8367 0.0000 0.0000 0.0000
# 2 54.7354 145.0383 42.1490 0.0000 0.0000 0.0000
# 3 36.8367 42.1490 104.2644 0.0000 0.0000 0.0000
# 4 0.0000 0.0000 0.0000 17.4847 0.0000 0.0000
# 5 0.0000 0.0000 0.0000 0.0000 18.3549 0.0000
# 6 0.0000 0.0000 0.0000 0.0000 0.0000 37.9386
#
#
#
# Elastic Compliance Matrix: (Units=1/GPa)
#
#
# Indices 1 2 3 4 5 6 
#
# 1 0.017481 -0.005442 -0.003976 0.000000 0.000000 0.000000
# 2 -0.005442 0.009506 -0.001920 0.000000 0.000000 0.000000
# 3 -0.003976 -0.001920 0.011772 0.000000 0.000000 0.000000
# 4 0.000000 0.000000 0.000000 0.057193 0.000000 0.000000
# 5 0.000000 0.000000 0.000000 0.000000 0.054481 0.000000
# 6 0.000000 0.000000 0.000000 0.000000 0.000000 0.026358
#
#
# Mechanical properties :
#
#
# Convention : Reuss Voigt Hill
#
# Bulk Modulus (GPa) = 62.17756 66.59630 64.38693
# Shear Modulus (GPa) = 24.41046 27.96919 26.18983
#
# Velocity S-wave (km/s) = 3.54750 3.79729 3.67452
# Velocity P-wave (km/s) = 6.98821 7.31843 7.15523
#
# Compressibility (1/GPa) = 0.01608297
#
# Stress axis : x y z
#
# Youngs Moduli (GPa) = 57.20450 105.19220 84.94596
#
# Poissons Ratio (x) = 0.57241 0.33777
# Poissons Ratio (y) = 0.31128 0.16313
# Poissons Ratio (z) = 0.22746 0.20202
#
# Static dielectric constant tensor:
#      x y z
#    x 3.660800 0.000000 0.000000 
#    y 0.000000 4.108770 0.000000 
#    z 0.000000 0.000000 3.280880 
# 
# 
# High freq. dielectric constant tensor:
#      x y z
#    x 1.756380 0.000000 0.000000 
#    y 0.000000 1.782220 0.000000 
#    z 0.000000 0.000000 1.715720 
# 
# From -- ./inp_files/9250.got.cif
#   From: 2010.03.12/outbox.cif.g09.slc.cpg/sg50_5_cif.got.tgz:9250.got - 2010.04.16 13:23:21.
