data_PCOD8205328
_publ_section_title
;
Structure prediction by ZEFSAII (Michael W. Deem and Ramdas Pophale) SiO2 
 PCOD8205328
Probable space group: P B A N
;
_chemical_formula_sum "Si O2"
_cell_formula_units_Z 48
_cell_length_a 16.318784
_cell_length_b 5.207917
_cell_length_c 27.439023
_cell_angle_alpha 90.000000
_cell_angle_beta 90.000000
_cell_angle_gamma 90.000000
_cell_volume 2331.956752
_symmetry_space_group_name_H-M "P B A N"
_symmetry_group_IT_number 50
_space_group.IT_coordinate_system_code '2'
_symmetry_cell_setting 'orthorhombic'
loop_
_space_group_symop_operation_xyz
x,y,z
1/2-x,1/2-y,z
x,1/2-y,-z
1/2-x,y,-z
-x,-y,-z
1/2+x,1/2+y,-z
-x,1/2+y,z
1/2+x,-y,z
loop_
_atom_site_type_symbol
_atom_site_label
_atom_site_fract_x
_atom_site_fract_y
_atom_site_fract_z
Si Si1 0.054638 0.984041 0.111658
Si Si2 0.301936 0.492976 0.294697
Si Si3 0.034921 0.822209 0.444790
Si Si4 0.551078 0.051050 0.221851
Si Si5 0.198612 0.005001 0.405319
Si Si6 0.156510 0.999425 0.021209
O O1 0.086349 0.980782 0.167223
O O2 0.998925 0.231781 0.100599
O O3 0.138885 0.993769 0.079348
O O4 0.250000 0.250000 0.276989
O O5 0.379676 0.505546 0.260841
O O6 0.332098 0.447616 0.350179
O O7 0.250000 0.750000 0.289285
O O8 0.009914 0.750000 0.500000
O O9 0.123544 0.952100 0.441448
O O10 0.025840 0.538797 0.419908
O O11 0.481431 0.838225 0.230235
O O12 0.250000 0.750000 0.407075
O O13 0.250000 0.250000 0.424534
O O14 0.111263 0.750000 0.000000
O O15 0.250000 0.999279 0.000000
O O16 0.111838 0.250000 0.000000
#
# Coordination Sequence:
#
# PCOD8205328 Si02
#       6
#     8   8   8   8   8   8
#     4  10  21  37  57  81 109 143 181 226 277 330
#     4  10  21  38  57  87 118 151 191 238 290 342
#     4  10  21  37  56  82 116 151 194 243 290 340
#     4  10  21  38  59  85 116 148 190 235 284 348
#     4  10  21  37  58  83 118 153 196 243 287 347
#     4  10  21  37  53  78 110 137 179 227 268 327
#
# _framework density 20.583570000000002
#
# number of rings (size 3 to 8) (size 9 to 14) (size 15 to 20)
#    0.000    2.000    0.000    3.000    0.000    3.667 
#    6.000    0.833    0.000    0.000    0.000    0.000 
#    0.000    0.000    0.000    0.000    0.000    0.000 
#
# Total GULP energy -594649.005178 kJ/mol
# GULP energy per Si atom -12388.520941 kJ/mol
# Density = 2.053672 g / cm^3
# Si number density = 20.583570 Si / 1000 Ang^3
#
#
#
# Elastic Constant Matrix: (Units=GPa)
#
#
# Indices 1 2 3 4 5 6 
#
# 1 76.4039 31.6453 36.1418 0.0000 0.0000 0.0000
# 2 31.6453 177.9929 34.4066 0.0000 0.0000 0.0000
# 3 36.1418 34.4066 41.8596 0.0000 0.0000 0.0000
# 4 0.0000 0.0000 0.0000 24.8929 0.0000 0.0000
# 5 0.0000 0.0000 0.0000 0.0000 48.1946 0.0000
# 6 0.0000 0.0000 0.0000 0.0000 0.0000 19.3504
#
#
#
# Elastic Compliance Matrix: (Units=1/GPa)
#
#
# Indices 1 2 3 4 5 6 
#
# 1 0.022137 -0.000287 -0.018877 0.000000 0.000000 0.000000
# 2 -0.000287 0.006683 -0.005246 0.000000 0.000000 0.000000
# 3 -0.018877 -0.005246 0.044500 0.000000 0.000000 0.000000
# 4 0.000000 0.000000 0.000000 0.040172 0.000000 0.000000
# 5 0.000000 0.000000 0.000000 0.000000 0.020749 0.000000
# 6 0.000000 0.000000 0.000000 0.000000 0.000000 0.051679
#
#
# Mechanical properties :
#
#
# Convention : Reuss Voigt Hill
#
# Bulk Modulus (GPa) = 40.81575 55.62706 48.22140
# Shear Modulus (GPa) = 20.58406 31.42508 26.00457
#
# Velocity S-wave (km/s) = 3.16575 3.91155 3.55824
# Velocity P-wave (km/s) = 5.76497 6.89086 6.35291
#
# Compressibility (1/GPa) = 0.02450034
#
# Stress axis : x y z
#
# Youngs Moduli (GPa) = 45.17372 149.62919 22.47188
#
# Poissons Ratio (x) = 0.04289 0.42421
# Poissons Ratio (y) = 0.01295 0.11788
# Poissons Ratio (z) = 0.85276 0.78492
#
# Static dielectric constant tensor:
#      x y z
#    x 3.286460 0.000000 0.000000 
#    y 0.000000 4.082020 0.000000 
#    z 0.000000 0.000000 3.779180 
# 
# 
# High freq. dielectric constant tensor:
#      x y z
#    x 1.777940 0.000000 0.000000 
#    y 0.000000 1.848550 0.000000 
#    z 0.000000 0.000000 1.792890 
# 
# From -- ./inp_files/32249.got.cif
#   From: 2010.03.12/outbox.cif.g09.slc.cpg/sg50_17_cif.got.tgz:32249.got - 2010.04.16 13:23:21.
