data_PCOD8205535
_publ_section_title
;
Structure prediction by ZEFSAII (Michael W. Deem and Ramdas Pophale) SiO2 
 PCOD8205535
Probable space group: P B A N
;
_chemical_formula_sum "Si O2"
_cell_formula_units_Z 40
_cell_length_a 8.945029
_cell_length_b 18.797475
_cell_length_c 10.873007
_cell_angle_alpha 90.000000
_cell_angle_beta 90.000000
_cell_angle_gamma 90.000000
_cell_volume 1828.230443
_symmetry_space_group_name_H-M "P B A N"
_symmetry_group_IT_number 50
_space_group.IT_coordinate_system_code '2'
_symmetry_cell_setting 'orthorhombic'
loop_
_space_group_symop_operation_xyz
x,y,z
1/2-x,1/2-y,z
x,1/2-y,-z
1/2-x,y,-z
-x,-y,-z
1/2+x,1/2+y,-z
-x,1/2+y,z
1/2+x,-y,z
loop_
_atom_site_type_symbol
_atom_site_label
_atom_site_fract_x
_atom_site_fract_y
_atom_site_fract_z
Si Si1 0.113725 0.464335 0.588844
Si Si2 0.577501 0.425484 0.995557
Si Si3 0.605965 0.393295 0.728479
Si Si4 0.577620 0.771492 0.634615
Si Si5 0.439444 0.853091 0.249069
O O1 0.250000 0.440482 0.500000
O O2 0.144739 0.525373 0.690522
O O3 0.000000 0.500000 0.500000
O O4 0.045445 0.396228 0.656517
O O5 0.527816 0.376551 0.109486
O O6 0.750000 0.442841 0.000000
O O7 0.500000 0.500000 0.000000
O O8 0.540775 0.388021 0.866520
O O9 0.473456 0.354469 0.650174
O O10 0.765731 0.355532 0.714972
O O11 0.750000 0.750000 0.653112
O O12 0.523086 0.750000 0.500000
O O13 0.485240 0.728936 0.738131
#
# Coordination Sequence:
#
# PCOD8205535 Si02
#       5
#     8   8   8   8   8
#     4  12  24  37  66  99 131 170 223 270 332 397
#     4  10  22  41  67  98 130 170 224 276 331 399
#     4  11  24  44  66  96 133 178 220 273 337 402
#     4  11  27  44  66  95 134 174 223 276 337 406
#     4  11  24  43  67  96 133 177 219 276 335 399
#
# _framework density 21.879079999999998
#
# number of rings (size 3 to 8) (size 9 to 14) (size 15 to 20)
#    0.000    1.000    4.000    1.800    5.600    3.200 
#    0.000    4.000    0.000    0.000    0.000    0.000 
#    0.000    0.000    0.000    0.000    0.000    0.000 
#
# Total GULP energy -495801.897171 kJ/mol
# GULP energy per Si atom -12395.047429 kJ/mol
# Density = 2.182928 g / cm^3
# Si number density = 21.879080 Si / 1000 Ang^3
#
#
#
# Elastic Constant Matrix: (Units=GPa)
#
#
# Indices 1 2 3 4 5 6 
#
# 1 83.8055 24.1537 45.9841 0.0000 0.0000 0.0000
# 2 24.1537 75.3626 20.0538 0.0000 0.0000 0.0000
# 3 45.9841 20.0538 134.4302 0.0000 0.0000 0.0000
# 4 0.0000 0.0000 0.0000 22.6122 0.0000 0.0000
# 5 0.0000 0.0000 0.0000 0.0000 34.5738 0.0000
# 6 0.0000 0.0000 0.0000 0.0000 0.0000 41.1928
#
#
#
# Elastic Compliance Matrix: (Units=1/GPa)
#
#
# Indices 1 2 3 4 5 6 
#
# 1 0.015639 -0.003737 -0.004792 0.000000 0.000000 0.000000
# 2 -0.003737 0.014711 -0.000916 0.000000 0.000000 0.000000
# 3 -0.004792 -0.000916 0.009215 0.000000 0.000000 0.000000
# 4 0.000000 0.000000 0.000000 0.044224 0.000000 0.000000
# 5 0.000000 0.000000 0.000000 0.000000 0.028924 0.000000
# 6 0.000000 0.000000 0.000000 0.000000 0.000000 0.024276
#
#
# Mechanical properties :
#
#
# Convention : Reuss Voigt Hill
#
# Bulk Modulus (GPa) = 48.37079 52.66464 50.51772
# Shear Modulus (GPa) = 30.71825 33.23621 31.97723
#
# Velocity S-wave (km/s) = 3.75107 3.90177 3.82716
# Velocity P-wave (km/s) = 6.39663 6.66494 6.53217
#
# Compressibility (1/GPa) = 0.02067363
#
# Stress axis : x y z
#
# Youngs Moduli (GPa) = 63.94325 67.97773 108.52257
#
# Poissons Ratio (x) = 0.25404 0.52005
# Poissons Ratio (y) = 0.23896 0.09942
# Poissons Ratio (z) = 0.30642 0.06228
#
# Static dielectric constant tensor:
#      x y z
#    x 3.846870 0.000000 0.000000 
#    y 0.000000 4.086220 0.000000 
#    z 0.000000 0.000000 4.058580 
# 
# 
# High freq. dielectric constant tensor:
#      x y z
#    x 1.863530 0.000000 0.000000 
#    y 0.000000 1.860730 0.000000 
#    z 0.000000 0.000000 1.871800 
# 
# From -- ./inp_files/18694.got.cif
#   From: 2010.03.12/outbox.cif.g09.slc.cpg/sg50_10_cif.got.tgz:18694.got - 2010.04.16 13:23:21.
