data_PCOD8205481
_publ_section_title
;
Structure prediction by ZEFSAII (Michael W. Deem and Ramdas Pophale) SiO2 
 PCOD8205481
Probable space group: P B A N
;
_chemical_formula_sum "Si O2"
_cell_formula_units_Z 48
_cell_length_a 29.132444
_cell_length_b 9.655781
_cell_length_c 8.688070
_cell_angle_alpha 90.000000
_cell_angle_beta 90.000000
_cell_angle_gamma 90.000000
_cell_volume 2443.923676
_symmetry_space_group_name_H-M "P B A N"
_symmetry_group_IT_number 50
_space_group.IT_coordinate_system_code '2'
_symmetry_cell_setting 'orthorhombic'
loop_
_space_group_symop_operation_xyz
x,y,z
1/2-x,1/2-y,z
x,1/2-y,-z
1/2-x,y,-z
-x,-y,-z
1/2+x,1/2+y,-z
-x,1/2+y,z
1/2+x,-y,z
loop_
_atom_site_type_symbol
_atom_site_label
_atom_site_fract_x
_atom_site_fract_y
_atom_site_fract_z
Si Si1 0.698310 0.922608 0.841845
Si Si2 0.874505 0.058238 0.629303
Si Si3 0.976822 0.466653 0.334514
Si Si4 0.197547 0.110740 0.194512
Si Si5 0.372266 0.863476 0.285791
Si Si6 0.968842 0.312097 0.832517
O O1 0.749375 0.921472 0.769782
O O2 0.680762 0.769710 0.800129
O O3 0.670295 0.049110 0.773786
O O4 0.692452 0.947691 0.023014
O O5 0.923032 0.997428 0.684923
O O6 0.858827 0.203105 0.703530
O O7 0.883711 0.071861 0.449531
O O8 0.833537 0.957376 0.674895
O O9 0.980683 0.302568 0.298152
O O10 0.000000 0.500000 0.500000
O O11 0.999310 0.556119 0.199014
O O12 0.416968 0.870872 0.177458
O O13 0.978462 0.250000 0.000000
#
# Coordination Sequence:
#
# PCOD8205481 Si02
#       6
#     8   8   8   8   8   8
#     4   9  20  39  62  88 122 160 196 253 304 357
#     4  10  22  39  59  87 121 160 202 248 302 370
#     4  11  22  43  63  86 125 168 202 255 314 376
#     4   9  20  40  61  88 123 157 203 247 302 366
#     4  10  22  38  60  88 120 159 200 249 307 360
#     4  11  24  41  63  91 124 160 212 262 312 370
#
# _framework density 19.640547999999999
#
# number of rings (size 3 to 8) (size 9 to 14) (size 15 to 20)
#    0.000    2.000    1.667    2.000    4.667    3.333 
#    6.000    5.000    0.000    0.000    0.000    0.000 
#    0.000    0.000    0.000    0.000    0.000    0.000 
#
# Total GULP energy -594812.963252 kJ/mol
# GULP energy per Si atom -12391.936734 kJ/mol
# Density = 1.959585 g / cm^3
# Si number density = 19.640548 Si / 1000 Ang^3
#
#
#
# Elastic Constant Matrix: (Units=GPa)
#
#
# Indices 1 2 3 4 5 6 
#
# 1 76.9054 46.3804 33.7027 0.0000 0.0000 0.0000
# 2 46.3804 70.9422 27.2357 0.0000 0.0000 0.0000
# 3 33.7027 27.2357 59.2437 0.0000 0.0000 0.0000
# 4 0.0000 0.0000 0.0000 38.0786 0.0000 0.0000
# 5 0.0000 0.0000 0.0000 0.0000 35.5213 0.0000
# 6 0.0000 0.0000 0.0000 0.0000 0.0000 46.2648
#
#
#
# Elastic Compliance Matrix: (Units=1/GPa)
#
#
# Indices 1 2 3 4 5 6 
#
# 1 0.024153 -0.012769 -0.007870 0.000000 0.000000 0.000000
# 2 -0.012769 0.023868 -0.003708 0.000000 0.000000 0.000000
# 3 -0.007870 -0.003708 0.023061 0.000000 0.000000 0.000000
# 4 0.000000 0.000000 0.000000 0.026261 0.000000 0.000000
# 5 0.000000 0.000000 0.000000 0.000000 0.028152 0.000000
# 6 0.000000 0.000000 0.000000 0.000000 0.000000 0.021615
#
#
# Mechanical properties :
#
#
# Convention : Reuss Voigt Hill
#
# Bulk Modulus (GPa) = 44.66865 46.85877 45.76371
# Shear Modulus (GPa) = 24.59815 30.62444 27.61130
#
# Velocity S-wave (km/s) = 3.54279 3.95301 3.75351
# Velocity P-wave (km/s) = 6.28710 6.68917 6.49125
#
# Compressibility (1/GPa) = 0.02238706
#
# Stress axis : x y z
#
# Youngs Moduli (GPa) = 41.40326 41.89730 43.36275
#
# Poissons Ratio (x) = 0.53499 0.34125
# Poissons Ratio (y) = 0.52868 0.16081
# Poissons Ratio (z) = 0.32583 0.15537
#
# Static dielectric constant tensor:
#      x y z
#    x 3.714650 0.000000 0.000000 
#    y 0.000000 3.618880 0.000000 
#    z 0.000000 0.000000 3.748040 
# 
# 
# High freq. dielectric constant tensor:
#      x y z
#    x 1.765040 0.000000 0.000000 
#    y 0.000000 1.768820 0.000000 
#    z 0.000000 0.000000 1.763490 
# 
# From -- ./inp_files/10066.got.cif
#   From: 2010.03.12/outbox.cif.g09.slc.cpg/sg50_6_cif.got.tgz:10066.got - 2010.04.16 13:23:21.
