data_PCOD8205693
_publ_section_title
;
Structure prediction by ZEFSAII (Michael W. Deem and Ramdas Pophale) SiO2 
 PCOD8205693
Probable space group: P B A N
;
_chemical_formula_sum "Si O2"
_cell_formula_units_Z 26
_cell_length_a 11.225340
_cell_length_b 8.569601
_cell_length_c 11.435976
_cell_angle_alpha 90.000000
_cell_angle_beta 90.000000
_cell_angle_gamma 90.000000
_cell_volume 1100.102980
_symmetry_space_group_name_H-M "P B A N"
_symmetry_group_IT_number 50
_space_group.IT_coordinate_system_code '2'
_symmetry_cell_setting 'orthorhombic'
loop_
_space_group_symop_operation_xyz
x,y,z
1/2-x,1/2-y,z
x,1/2-y,-z
1/2-x,y,-z
-x,-y,-z
1/2+x,1/2+y,-z
-x,1/2+y,z
1/2+x,-y,z
loop_
_atom_site_type_symbol
_atom_site_label
_atom_site_fract_x
_atom_site_fract_y
_atom_site_fract_z
Si Si1 0.164277 0.547253 0.390959
Si Si2 0.347748 0.057747 0.795046
Si Si3 0.250000 0.250000 0.000000
Si Si4 0.991337 0.312097 0.314532
O O1 0.250000 0.525727 0.500000
O O2 0.226332 0.493169 0.269572
O O3 0.049241 0.433953 0.406617
O O4 0.119899 0.726744 0.378690
O O5 0.326886 0.129046 0.922977
O O6 0.407253 0.194978 0.722126
O O7 0.437388 0.909277 0.796526
#
# Coordination Sequence:
#
# PCOD8205693 Si02
#       4
#     8   8   2   8
#     4  11  24  45  72 106 148 182 235 288 349 428
#     4  11  24  45  70 102 142 180 241 289 350 414
#     4  12  24  48  72 100 142 188 234 310 340 408
#     4  10  24  45  71 108 138 193 230 283 361 422
#
# _framework density 23.634153999999999
#
# number of rings (size 3 to 8) (size 9 to 14) (size 15 to 20)
#    0.000    1.231    3.077    0.923    0.000   13.538 
#    0.000    6.154    0.000    0.000    0.000    0.000 
#    0.000    0.000    0.000    0.000    0.000    0.000 
#
# Total GULP energy -322311.850706 kJ/mol
# GULP energy per Si atom -12396.609643 kJ/mol
# Density = 2.358036 g / cm^3
# Si number density = 23.634154 Si / 1000 Ang^3
#
#
#
# Elastic Constant Matrix: (Units=GPa)
#
#
# Indices 1 2 3 4 5 6 
#
# 1 118.7335 70.0949 53.9641 0.0000 0.0000 0.0000
# 2 70.0949 156.7828 52.3819 0.0000 0.0000 0.0000
# 3 53.9641 52.3819 130.5583 0.0000 0.0000 0.0000
# 4 0.0000 0.0000 0.0000 24.0795 0.0000 0.0000
# 5 0.0000 0.0000 0.0000 0.0000 30.3123 0.0000
# 6 0.0000 0.0000 0.0000 0.0000 0.0000 6.5459
#
#
#
# Elastic Compliance Matrix: (Units=1/GPa)
#
#
# Indices 1 2 3 4 5 6 
#
# 1 0.012635 -0.004509 -0.003414 0.000000 0.000000 0.000000
# 2 -0.004509 0.008974 -0.001737 0.000000 0.000000 0.000000
# 3 -0.003414 -0.001737 0.009767 0.000000 0.000000 0.000000
# 4 0.000000 0.000000 0.000000 0.041529 0.000000 0.000000
# 5 0.000000 0.000000 0.000000 0.000000 0.032990 0.000000
# 6 0.000000 0.000000 0.000000 0.000000 0.000000 0.152768
#
#
# Mechanical properties :
#
#
# Convention : Reuss Voigt Hill
#
# Bulk Modulus (GPa) = 82.93012 84.32849 83.62931
# Shear Modulus (GPa) = 17.73035 27.49645 22.61340
#
# Velocity S-wave (km/s) = 2.74195 3.41459 3.09659
# Velocity P-wave (km/s) = 6.72233 7.16269 6.94600
#
# Compressibility (1/GPa) = 0.01205834
#
# Stress axis : x y z
#
# Youngs Moduli (GPa) = 79.14280 111.42923 102.38170
#
# Poissons Ratio (x) = 0.50238 0.34950
# Poissons Ratio (y) = 0.35682 0.17785
# Poissons Ratio (z) = 0.27017 0.19356
#
# Static dielectric constant tensor:
#      x y z
#    x 4.688080 0.000000 0.000000 
#    y 0.000000 4.922470 0.000000 
#    z 0.000000 0.000000 3.899500 
# 
# 
# High freq. dielectric constant tensor:
#      x y z
#    x 1.960870 0.000000 0.000000 
#    y 0.000000 1.969400 0.000000 
#    z 0.000000 0.000000 1.892110 
# 
# From -- ./inp_files/18167.got.cif
#   From: 2010.03.12/outbox.cif.g09.slc.cpg/sg50_10_cif.got.tgz:18167.got - 2010.04.16 13:23:21.
