data_PCOD8205235
_publ_section_title
;
Structure prediction by ZEFSAII (Michael W. Deem and Ramdas Pophale) SiO2 
 PCOD8205235
Probable space group: P B A N
;
_chemical_formula_sum "Si O2"
_cell_formula_units_Z 48
_cell_length_a 26.284170
_cell_length_b 10.438474
_cell_length_c 9.065917
_cell_angle_alpha 90.000000
_cell_angle_beta 90.000000
_cell_angle_gamma 90.000000
_cell_volume 2487.385051
_symmetry_space_group_name_H-M "P B A N"
_symmetry_group_IT_number 50
_space_group.IT_coordinate_system_code '2'
_symmetry_cell_setting 'orthorhombic'
loop_
_space_group_symop_operation_xyz
x,y,z
1/2-x,1/2-y,z
x,1/2-y,-z
1/2-x,y,-z
-x,-y,-z
1/2+x,1/2+y,-z
-x,1/2+y,z
1/2+x,-y,z
loop_
_atom_site_type_symbol
_atom_site_label
_atom_site_fract_x
_atom_site_fract_y
_atom_site_fract_z
Si Si1 0.435973 0.878214 0.410666
Si Si2 0.642425 0.483067 0.198232
Si Si3 0.553786 0.873433 0.403546
Si Si4 0.253613 0.900801 0.334857
Si Si5 0.619579 0.733658 0.840134
Si Si6 0.697803 0.964572 0.085973
O O1 0.420751 0.750000 0.500000
O O2 0.402495 0.891053 0.260562
O O3 0.494492 0.877794 0.362056
O O4 0.426395 0.998792 0.517319
O O5 0.692356 0.450118 0.286167
O O6 0.626623 0.628724 0.235759
O O7 0.655791 0.467502 0.023066
O O8 0.566272 0.750000 0.500000
O O9 0.584066 0.861178 0.251714
O O10 0.250000 0.750000 0.330031
O O11 0.250000 0.954475 0.500000
O O12 0.208067 0.949384 0.229645
O O13 0.675354 0.670625 0.860222
O O14 0.593195 0.750000 0.000000
O O15 0.750000 0.938371 0.000000
#
# Coordination Sequence:
#
# PCOD8205235 Si02
#       6
#     8   8   8   8   8   8
#     4  10  22  37  64  93 122 159 207 262 316 370
#     4  10  21  38  60  85 120 161 203 248 306 376
#     4  10  20  39  65  89 122 160 207 263 314 369
#     4  10  23  38  58  85 124 159 203 257 302 368
#     4  10  21  38  64  88 121 161 204 257 310 374
#     4   9  21  39  59  87 122 164 202 252 314 367
#
# _framework density 19.297374000000001
#
# number of rings (size 3 to 8) (size 9 to 14) (size 15 to 20)
#    0.000    2.167    1.667    0.000    4.667   10.667 
#    0.000    5.833    3.667    0.000    0.000    0.000 
#    0.000    0.000    0.000    0.000    0.000    0.000 
#
# Total GULP energy -594995.090129 kJ/mol
# GULP energy per Si atom -12395.731044 kJ/mol
# Density = 1.925345 g / cm^3
# Si number density = 19.297374 Si / 1000 Ang^3
#
#
#
# Elastic Constant Matrix: (Units=GPa)
#
#
# Indices 1 2 3 4 5 6 
#
# 1 80.0880 40.2780 64.2521 0.0000 0.0000 0.0000
# 2 40.2780 108.2083 54.3995 0.0000 0.0000 0.0000
# 3 64.2521 54.3995 129.6800 0.0000 0.0000 0.0000
# 4 0.0000 0.0000 0.0000 35.0200 0.0000 0.0000
# 5 0.0000 0.0000 0.0000 0.0000 39.3589 0.0000
# 6 0.0000 0.0000 0.0000 0.0000 0.0000 29.8071
#
#
#
# Elastic Compliance Matrix: (Units=1/GPa)
#
#
# Indices 1 2 3 4 5 6 
#
# 1 0.021657 -0.003380 -0.009313 0.000000 0.000000 0.000000
# 2 -0.003380 0.012239 -0.003459 0.000000 0.000000 0.000000
# 3 -0.009313 -0.003459 0.013777 0.000000 0.000000 0.000000
# 4 0.000000 0.000000 0.000000 0.028555 0.000000 0.000000
# 5 0.000000 0.000000 0.000000 0.000000 0.025407 0.000000
# 6 0.000000 0.000000 0.000000 0.000000 0.000000 0.033549
#
#
# Mechanical properties :
#
#
# Convention : Reuss Voigt Hill
#
# Bulk Modulus (GPa) = 65.06669 70.64838 67.85753
# Shear Modulus (GPa) = 28.96696 31.44033 30.20365
#
# Velocity S-wave (km/s) = 3.87858 4.04078 3.96051
# Velocity P-wave (km/s) = 7.33819 7.64594 7.49364
#
# Compressibility (1/GPa) = 0.01536885
#
# Stress axis : x y z
#
# Youngs Moduli (GPa) = 46.17391 81.70863 72.58658
#
# Poissons Ratio (x) = 0.27614 0.67598
# Poissons Ratio (y) = 0.15605 0.25111
# Poissons Ratio (z) = 0.43000 0.28267
#
# Static dielectric constant tensor:
#      x y z
#    x 3.488840 0.000000 0.000000 
#    y 0.000000 3.514210 0.000000 
#    z 0.000000 0.000000 3.838880 
# 
# 
# High freq. dielectric constant tensor:
#      x y z
#    x 1.746570 0.000000 0.000000 
#    y 0.000000 1.752030 0.000000 
#    z 0.000000 0.000000 1.752380 
# 
# From -- ./inp_files/16954.got.cif
#   From: 2010.03.12/outbox.cif.g09.slc.cpg/sg50_9_cif.got.tgz:16954.got - 2010.04.16 13:23:21.
