data_PCOD8205216
_publ_section_title
;
Structure prediction by ZEFSAII (Michael W. Deem and Ramdas Pophale) SiO2 
 PCOD8205216
Probable space group: P B A N
;
_chemical_formula_sum "Si O2"
_cell_formula_units_Z 58
_cell_length_a 8.916397
_cell_length_b 25.318526
_cell_length_c 12.588383
_cell_angle_alpha 90.000000
_cell_angle_beta 90.000000
_cell_angle_gamma 90.000000
_cell_volume 2841.827831
_symmetry_space_group_name_H-M "P B A N"
_symmetry_group_IT_number 50
_space_group.IT_coordinate_system_code '2'
_symmetry_cell_setting 'orthorhombic'
loop_
_space_group_symop_operation_xyz
x,y,z
1/2-x,1/2-y,z
x,1/2-y,-z
1/2-x,y,-z
-x,-y,-z
1/2+x,1/2+y,-z
-x,1/2+y,z
1/2+x,-y,z
loop_
_atom_site_type_symbol
_atom_site_label
_atom_site_fract_x
_atom_site_fract_y
_atom_site_fract_z
Si Si1 0.881722 0.370011 0.073117
Si Si2 0.079176 0.434497 0.768829
Si Si3 0.757711 0.461966 0.197280
Si Si4 0.750000 0.750000 0.000000
Si Si5 0.944466 0.835254 0.887015
Si Si6 0.337938 0.898220 0.602229
Si Si7 0.422574 0.444461 0.477739
Si Si8 0.256111 0.810723 0.247487
O O1 0.851012 0.430592 0.106938
O O2 0.883524 0.330767 0.174999
O O3 0.750000 0.347620 0.000000
O O4 0.028878 0.363133 0.002044
O O5 0.205456 0.476187 0.805183
O O6 0.141121 0.379258 0.816979
O O7 0.052969 0.427468 0.643966
O O8 0.918328 0.450517 0.820247
O O9 0.817238 0.442939 0.310326
O O10 0.849049 0.783679 0.916396
O O11 0.090293 0.822295 0.815126
O O12 0.250000 0.918264 0.500000
O O13 0.510580 0.899846 0.559708
O O14 0.268913 0.842506 0.642368
O O15 0.250000 0.449477 0.500000
O O16 0.500000 0.500000 0.500000
O O17 0.250000 0.750000 0.277334
#
# Coordination Sequence:
#
# PCOD8205216 Si02
#       8
#     8   8   8   2   8   8   8   8
#     4   9  18  39  62  85 123 161 209 261 317 390
#     4  12  23  40  62  95 134 172 216 270 319 396
#     4  11  22  36  61  95 130 171 212 260 325 389
#     4  12  28  44  66  96 130 180 212 286 346 396
#     4  11  23  45  63  93 130 165 218 269 334 392
#     4  11  20  39  63  91 133 165 221 276 322 394
#     4  12  23  38  62  94 136 180 215 264 330 400
#     4  10  20  38  68  94 116 166 221 281 321 382
#
# _framework density 20.409400000000002
#
# number of rings (size 3 to 8) (size 9 to 14) (size 15 to 20)
#    0.000    1.103    6.897    2.069    0.000    3.862 
#    6.207    0.000    0.000    0.000    0.000    0.000 
#    0.000    0.000    0.000    0.000    0.000    0.000 
#
# Total GULP energy -718640.128396 kJ/mol
# GULP energy per Si atom -12390.347041 kJ/mol
# Density = 2.036295 g / cm^3
# Si number density = 20.409400 Si / 1000 Ang^3
#
#
#
# Elastic Constant Matrix: (Units=GPa)
#
#
# Indices 1 2 3 4 5 6 
#
# 1 84.8354 43.5181 37.2092 0.0000 0.0000 0.0000
# 2 43.5181 145.1183 50.0355 0.0000 0.0000 0.0000
# 3 37.2092 50.0355 92.0782 0.0000 0.0000 0.0000
# 4 0.0000 0.0000 0.0000 25.1410 0.0000 0.0000
# 5 0.0000 0.0000 0.0000 0.0000 25.9338 0.0000
# 6 0.0000 0.0000 0.0000 0.0000 0.0000 33.7120
#
#
#
# Elastic Compliance Matrix: (Units=1/GPa)
#
#
# Indices 1 2 3 4 5 6 
#
# 1 0.015338 -0.003030 -0.004552 0.000000 0.000000 0.000000
# 2 -0.003030 0.009078 -0.003709 0.000000 0.000000 0.000000
# 3 -0.004552 -0.003709 0.014715 0.000000 0.000000 0.000000
# 4 0.000000 0.000000 0.000000 0.039776 0.000000 0.000000
# 5 0.000000 0.000000 0.000000 0.000000 0.038560 0.000000
# 6 0.000000 0.000000 0.000000 0.000000 0.000000 0.029663
#
#
# Mechanical properties :
#
#
# Convention : Reuss Voigt Hill
#
# Bulk Modulus (GPa) = 60.42104 64.83972 62.63038
# Shear Modulus (GPa) = 28.53426 29.70864 29.12145
#
# Velocity S-wave (km/s) = 3.74317 3.81942 3.78148
# Velocity P-wave (km/s) = 6.95345 7.16164 7.05831
#
# Compressibility (1/GPa) = 0.01655053
#
# Stress axis : x y z
#
# Youngs Moduli (GPa) = 65.19605 110.15205 67.95817
#
# Poissons Ratio (x) = 0.33380 0.30932
# Poissons Ratio (y) = 0.19756 0.25203
# Poissons Ratio (z) = 0.29675 0.40851
#
# Static dielectric constant tensor:
#      x y z
#    x 3.852200 0.000000 0.000000 
#    y 0.000000 3.725990 0.000000 
#    z 0.000000 0.000000 3.480920 
# 
# 
# High freq. dielectric constant tensor:
#      x y z
#    x 1.779490 0.000000 0.000000 
#    y 0.000000 1.783440 0.000000 
#    z 0.000000 0.000000 1.809300 
# 
# From -- ./inp_files/19429.got.cif
#   From: 2010.03.12/outbox.cif.g09.slc.cpg/sg50_10_cif.got.tgz:19429.got - 2010.04.16 13:23:21.
