data_PCOD8205406
_publ_section_title
;
Structure prediction by ZEFSAII (Michael W. Deem and Ramdas Pophale) SiO2 
 PCOD8205406
Probable space group: P B A N
;
_chemical_formula_sum "Si O2"
_cell_formula_units_Z 40
_cell_length_a 14.834440
_cell_length_b 15.359236
_cell_length_c 8.052181
_cell_angle_alpha 90.000000
_cell_angle_beta 90.000000
_cell_angle_gamma 90.000000
_cell_volume 1834.654534
_symmetry_space_group_name_H-M "P B A N"
_symmetry_group_IT_number 50
_space_group.IT_coordinate_system_code '2'
_symmetry_cell_setting 'orthorhombic'
loop_
_space_group_symop_operation_xyz
x,y,z
1/2-x,1/2-y,z
x,1/2-y,-z
1/2-x,y,-z
-x,-y,-z
1/2+x,1/2+y,-z
-x,1/2+y,z
1/2+x,-y,z
loop_
_atom_site_type_symbol
_atom_site_label
_atom_site_fract_x
_atom_site_fract_y
_atom_site_fract_z
Si Si1 0.042074 0.071920 0.212779
Si Si2 0.526620 0.259284 0.808120
Si Si3 0.203944 0.670206 0.681575
Si Si4 0.770013 0.519211 0.309778
Si Si5 0.086831 0.421510 0.168442
O O1 0.135382 0.069365 0.311872
O O2 0.995258 0.163180 0.258959
O O3 0.071796 0.061033 0.023868
O O4 0.973518 0.994071 0.265451
O O5 0.598424 0.305888 0.687130
O O6 0.439804 0.322059 0.792318
O O7 0.558885 0.250000 0.000000
O O8 0.250000 0.750000 0.783519
O O9 0.250000 0.668260 0.500000
O O10 0.219392 0.577481 0.771072
O O11 0.750000 0.507088 0.500000
O O12 0.692119 0.570000 0.212129
#
# Coordination Sequence:
#
# PCOD8205406 Si02
#       5
#     8   8   8   8   8
#     4  10  21  40  64  91 124 166 209 264 311 366
#     4  10  21  40  64  92 123 167 213 259 312 371
#     4  10  21  40  59  91 128 157 208 256 317 372
#     4  11  23  40  62  93 127 168 207 255 318 382
#     4  10  21  40  63  90 127 162 213 258 314 369
#
# _framework density 21.802468000000001
#
# number of rings (size 3 to 8) (size 9 to 14) (size 15 to 20)
#    0.000    1.800    2.000    1.800    0.000    2.000 
#   10.800    4.000    0.000    0.000    0.000    0.000 
#    0.000    0.000    0.000    0.000    0.000    0.000 
#
# Total GULP energy -495710.196229 kJ/mol
# GULP energy per Si atom -12392.754906 kJ/mol
# Density = 2.175285 g / cm^3
# Si number density = 21.802468 Si / 1000 Ang^3
#
#
#
# Elastic Constant Matrix: (Units=GPa)
#
#
# Indices 1 2 3 4 5 6 
#
# 1 125.9034 35.6380 28.1016 0.0000 0.0000 0.0000
# 2 35.6380 129.3898 26.4590 0.0000 0.0000 0.0000
# 3 28.1016 26.4590 27.6483 0.0000 0.0000 0.0000
# 4 0.0000 0.0000 0.0000 15.2034 0.0000 0.0000
# 5 0.0000 0.0000 0.0000 0.0000 31.5820 0.0000
# 6 0.0000 0.0000 0.0000 0.0000 0.0000 32.6704
#
#
#
# Elastic Compliance Matrix: (Units=1/GPa)
#
#
# Indices 1 2 3 4 5 6 
#
# 1 0.010351 -0.000870 -0.009689 0.000000 0.000000 0.000000
# 2 -0.000870 0.009682 -0.008382 0.000000 0.000000 0.000000
# 3 -0.009689 -0.008382 0.054037 0.000000 0.000000 0.000000
# 4 0.000000 0.000000 0.000000 0.065775 0.000000 0.000000
# 5 0.000000 0.000000 0.000000 0.000000 0.031664 0.000000
# 6 0.000000 0.000000 0.000000 0.000000 0.000000 0.030609
#
#
# Mechanical properties :
#
#
# Convention : Reuss Voigt Hill
#
# Bulk Modulus (GPa) = 27.63152 51.48209 39.55681
# Shear Modulus (GPa) = 19.83644 28.74067 24.28856
#
# Velocity S-wave (km/s) = 3.01960 3.63468 3.34133
# Velocity P-wave (km/s) = 4.98582 6.42486 5.75053
#
# Compressibility (1/GPa) = 0.03619055
#
# Stress axis : x y z
#
# Youngs Moduli (GPa) = 96.60611 103.28328 18.50581
#
# Poissons Ratio (x) = 0.08984 0.17930
# Poissons Ratio (y) = 0.08403 0.15511
# Poissons Ratio (z) = 0.93598 0.86567
#
# Static dielectric constant tensor:
#      x y z
#    x 4.117650 0.000000 0.000000 
#    y 0.000000 4.391510 0.000000 
#    z 0.000000 0.000000 3.571690 
# 
# 
# High freq. dielectric constant tensor:
#      x y z
#    x 1.859660 0.000000 0.000000 
#    y 0.000000 1.872950 0.000000 
#    z 0.000000 0.000000 1.824570 
# 
# From -- ./inp_files/12541.got.cif
#   From: 2010.03.12/outbox.cif.g09.slc.cpg/sg50_7_cif.got.tgz:12541.got - 2010.04.16 13:23:21.
