data_PCOD8205546
_publ_section_title
;
Structure prediction by ZEFSAII (Michael W. Deem and Ramdas Pophale) SiO2 
 PCOD8205546
Probable space group: P B A N
;
_chemical_formula_sum "Si O2"
_cell_formula_units_Z 60
_cell_length_a 21.171876
_cell_length_b 12.438467
_cell_length_c 10.458385
_cell_angle_alpha 90.000000
_cell_angle_beta 90.000000
_cell_angle_gamma 90.000000
_cell_volume 2754.170520
_symmetry_space_group_name_H-M "P B A N"
_symmetry_group_IT_number 50
_space_group.IT_coordinate_system_code '2'
_symmetry_cell_setting 'orthorhombic'
loop_
_space_group_symop_operation_xyz
x,y,z
1/2-x,1/2-y,z
x,1/2-y,-z
1/2-x,y,-z
-x,-y,-z
1/2+x,1/2+y,-z
-x,1/2+y,z
1/2+x,-y,z
loop_
_atom_site_type_symbol
_atom_site_label
_atom_site_fract_x
_atom_site_fract_y
_atom_site_fract_z
Si Si1 0.196168 0.964165 0.091064
Si Si2 0.778072 0.140838 0.308446
Si Si3 0.418964 0.204627 0.365522
Si Si4 0.892280 0.927658 0.735970
Si Si5 0.482666 0.750000 0.000000
Si Si6 0.182966 0.058469 0.524330
Si Si7 0.484972 0.064071 0.183371
Si Si8 0.611508 0.118483 0.872681
O O1 0.160037 0.063705 0.154157
O O2 0.225990 0.895077 0.205148
O O3 0.250000 0.013539 0.000000
O O4 0.148971 0.891069 0.007143
O O5 0.750000 0.250000 0.370746
O O6 0.843894 0.161036 0.238259
O O7 0.794678 0.054699 0.416671
O O8 0.442850 0.250000 0.500000
O O9 0.409956 0.302685 0.267054
O O10 0.354314 0.136401 0.379065
O O11 0.474454 0.131107 0.312347
O O12 0.861566 0.963562 0.599632
O O13 0.951449 0.998631 0.785258
O O14 0.516544 0.643053 0.057912
O O15 0.440883 0.789596 0.118379
O O16 0.250000 0.118995 0.500000
O O17 0.423074 0.992306 0.162426
#
# Coordination Sequence:
#
# PCOD8205546 Si02
#       8
#     8   8   8   8   4   8   8   8
#     4  10  22  42  66  97 133 175 225 284 347 418
#     4  11  23  43  71 101 139 175 227 291 354 418
#     4  10  25  46  70  97 133 183 226 286 356 409
#     4  11  24  45  71  96 139 182 233 286 348 424
#     4  12  24  38  67 100 135 194 226 272 360 410
#     4  11  23  46  70  98 131 179 231 287 345 421
#     4  12  25  44  68 103 139 182 237 293 336 427
#     4  11  23  42  68  97 141 180 227 283 346 421
#
# _framework density 21.785143999999999
#
# number of rings (size 3 to 8) (size 9 to 14) (size 15 to 20)
#    0.000    1.067    4.000    2.000    1.867    6.667 
#    2.400    0.000    2.933    0.000    0.000    0.000 
#    0.000    0.000    0.000    0.000    0.000    0.000 
#
# Total GULP energy -743456.996397 kJ/mol
# GULP energy per Si atom -12390.949940 kJ/mol
# Density = 2.173556 g / cm^3
# Si number density = 21.785144 Si / 1000 Ang^3
#
#
#
# Elastic Constant Matrix: (Units=GPa)
#
#
# Indices 1 2 3 4 5 6 
#
# 1 101.1154 47.9622 28.9155 0.0000 0.0000 0.0000
# 2 47.9622 123.5606 32.0744 0.0000 0.0000 0.0000
# 3 28.9155 32.0744 56.2564 0.0000 0.0000 0.0000
# 4 0.0000 0.0000 0.0000 40.8639 0.0000 0.0000
# 5 0.0000 0.0000 0.0000 0.0000 18.5588 0.0000
# 6 0.0000 0.0000 0.0000 0.0000 0.0000 36.9415
#
#
#
# Elastic Compliance Matrix: (Units=1/GPa)
#
#
# Indices 1 2 3 4 5 6 
#
# 1 0.013014 -0.003891 -0.004471 0.000000 0.000000 0.000000
# 2 -0.003891 0.010662 -0.004079 0.000000 0.000000 0.000000
# 3 -0.004471 -0.004079 0.022399 0.000000 0.000000 0.000000
# 4 0.000000 0.000000 0.000000 0.024471 0.000000 0.000000
# 5 0.000000 0.000000 0.000000 0.000000 0.053883 0.000000
# 6 0.000000 0.000000 0.000000 0.000000 0.000000 0.027070
#
#
# Mechanical properties :
#
#
# Convention : Reuss Voigt Hill
#
# Bulk Modulus (GPa) = 47.18317 55.42629 51.30473
# Shear Modulus (GPa) = 27.25602 30.73820 28.99711
#
# Velocity S-wave (km/s) = 3.54097 3.76036 3.65231
# Velocity P-wave (km/s) = 6.19866 6.65967 6.43330
#
# Compressibility (1/GPa) = 0.02119400
#
# Stress axis : x y z
#
# Youngs Moduli (GPa) = 76.84186 93.78697 44.64424
#
# Poissons Ratio (x) = 0.36493 0.19958
# Poissons Ratio (y) = 0.29899 0.18211
# Poissons Ratio (z) = 0.34352 0.38257
#
# Static dielectric constant tensor:
#      x y z
#    x 4.216940 0.000000 0.000000 
#    y 0.000000 3.964710 0.000000 
#    z 0.000000 0.000000 4.006230 
# 
# 
# High freq. dielectric constant tensor:
#      x y z
#    x 1.866040 0.000000 0.000000 
#    y 0.000000 1.853000 0.000000 
#    z 0.000000 0.000000 1.860070 
# 
# From -- ./inp_files/22431.got.cif
#   From: 2010.03.12/outbox.cif.g09.slc.cpg/sg50_12_cif.got.tgz:22431.got - 2010.04.16 13:23:21.
