data_PCOD8205754
_publ_section_title
;
Structure prediction by ZEFSAII (Michael W. Deem and Ramdas Pophale) SiO2 
 PCOD8205754
Probable space group: P B A N
;
_chemical_formula_sum "Si O2"
_cell_formula_units_Z 40
_cell_length_a 13.228830
_cell_length_b 13.176889
_cell_length_c 10.541648
_cell_angle_alpha 90.000000
_cell_angle_beta 90.000000
_cell_angle_gamma 90.000000
_cell_volume 1837.565521
_symmetry_space_group_name_H-M "P B A N"
_symmetry_group_IT_number 50
_space_group.IT_coordinate_system_code '2'
_symmetry_cell_setting 'orthorhombic'
loop_
_space_group_symop_operation_xyz
x,y,z
1/2-x,1/2-y,z
x,1/2-y,-z
1/2-x,y,-z
-x,-y,-z
1/2+x,1/2+y,-z
-x,1/2+y,z
1/2+x,-y,z
loop_
_atom_site_type_symbol
_atom_site_label
_atom_site_fract_x
_atom_site_fract_y
_atom_site_fract_z
Si Si1 0.475835 0.132659 0.247121
Si Si2 0.009605 0.672839 0.117386
Si Si3 0.135770 0.130013 0.499514
Si Si4 0.173781 0.998189 0.881986
Si Si5 0.369479 0.029177 0.755929
O O1 0.494169 0.253104 0.239256
O O2 0.426525 0.094366 0.378132
O O3 0.406617 0.090604 0.129508
O O4 0.585600 0.083122 0.234525
O O5 0.114773 0.609681 0.122559
O O6 0.914962 0.594595 0.124588
O O7 0.008269 0.750000 0.000000
O O8 0.132956 0.250000 0.500000
O O9 0.250000 0.089853 0.500000
O O10 0.089581 0.082941 0.371541
O O11 0.248778 0.015601 0.761997
O O12 0.250000 0.003316 0.000000
#
# Coordination Sequence:
#
# PCOD8205754 Si02
#       5
#     8   8   8   8   8
#     4  11  23  41  66  95 129 170 217 268 324 387
#     4  11  24  42  65  96 132 171 214 264 321 386
#     4  11  21  40  66  92 127 167 216 272 328 372
#     4  11  24  42  65  96 132 171 214 264 321 386
#     4  11  23  41  66  95 129 170 217 268 324 387
#
# _framework density 21.767931999999998
#
# number of rings (size 3 to 8) (size 9 to 14) (size 15 to 20)
#    0.000    1.000    4.000    3.000    0.000    6.800 
#    0.000    2.000    0.000    0.000    0.000    0.000 
#    0.000    0.000    0.000    0.000    0.000    0.000 
#
# Total GULP energy -495615.605562 kJ/mol
# GULP energy per Si atom -12390.390139 kJ/mol
# Density = 2.171839 g / cm^3
# Si number density = 21.767932 Si / 1000 Ang^3
#
#
#
# Elastic Constant Matrix: (Units=GPa)
#
#
# Indices 1 2 3 4 5 6 
#
# 1 99.0527 43.0109 7.7590 0.0000 0.0000 0.0000
# 2 43.0109 99.2818 9.9053 0.0000 0.0000 0.0000
# 3 7.7590 9.9053 82.9843 0.0000 0.0000 0.0000
# 4 0.0000 0.0000 0.0000 24.6572 0.0000 0.0000
# 5 0.0000 0.0000 0.0000 0.0000 21.8751 0.0000
# 6 0.0000 0.0000 0.0000 0.0000 0.0000 29.5397
#
#
#
# Elastic Compliance Matrix: (Units=1/GPa)
#
#
# Indices 1 2 3 4 5 6 
#
# 1 0.012458 -0.005344 -0.000527 0.000000 0.000000 0.000000
# 2 -0.005344 0.012486 -0.000991 0.000000 0.000000 0.000000
# 3 -0.000527 -0.000991 0.012218 0.000000 0.000000 0.000000
# 4 0.000000 0.000000 0.000000 0.040556 0.000000 0.000000
# 5 0.000000 0.000000 0.000000 0.000000 0.045714 0.000000
# 6 0.000000 0.000000 0.000000 0.000000 0.000000 0.033853
#
#
# Mechanical properties :
#
#
# Convention : Reuss Voigt Hill
#
# Bulk Modulus (GPa) = 42.66543 44.74103 43.70323
# Shear Modulus (GPa) = 27.96087 29.92397 28.94242
#
# Velocity S-wave (km/s) = 3.58788 3.71169 3.65031
# Velocity P-wave (km/s) = 6.06684 6.24237 6.15523
#
# Compressibility (1/GPa) = 0.02343818
#
# Stress axis : x y z
#
# Youngs Moduli (GPa) = 80.27279 80.08686 81.84648
#
# Poissons Ratio (x) = 0.42801 0.04312
# Poissons Ratio (y) = 0.42900 0.08109
# Poissons Ratio (z) = 0.04229 0.07935
#
# Static dielectric constant tensor:
#      x y z
#    x 3.985120 0.000000 0.000000 
#    y 0.000000 3.890180 0.000000 
#    z 0.000000 0.000000 4.134000 
# 
# 
# High freq. dielectric constant tensor:
#      x y z
#    x 1.853210 0.000000 0.000000 
#    y 0.000000 1.852210 0.000000 
#    z 0.000000 0.000000 1.864120 
# 
# From -- ./inp_files/20915.got.cif
#   From: 2010.03.12/outbox.cif.g09.slc.cpg/sg50_11_cif.got.tgz:20915.got - 2010.04.16 13:23:21.
