data_PCOD8205424
_publ_section_title
;
Structure prediction by ZEFSAII (Michael W. Deem and Ramdas Pophale) SiO2 
 PCOD8205424
Probable space group: P B A N
;
_chemical_formula_sum "Si O2"
_cell_formula_units_Z 64
_cell_length_a 22.220229
_cell_length_b 8.774505
_cell_length_c 15.535512
_cell_angle_alpha 90.000000
_cell_angle_beta 90.000000
_cell_angle_gamma 90.000000
_cell_volume 3028.982240
_symmetry_space_group_name_H-M "P B A N"
_symmetry_group_IT_number 50
_space_group.IT_coordinate_system_code '2'
_symmetry_cell_setting 'orthorhombic'
loop_
_space_group_symop_operation_xyz
x,y,z
1/2-x,1/2-y,z
x,1/2-y,-z
1/2-x,y,-z
-x,-y,-z
1/2+x,1/2+y,-z
-x,1/2+y,z
1/2+x,-y,z
loop_
_atom_site_type_symbol
_atom_site_label
_atom_site_fract_x
_atom_site_fract_y
_atom_site_fract_z
Si Si1 0.666343 0.380006 0.570274
Si Si2 0.565326 0.928243 0.517398
Si Si3 0.927116 0.351990 0.290831
Si Si4 0.248257 0.928677 0.717225
Si Si5 0.352107 0.454688 0.170365
Si Si6 0.641523 0.902250 0.802808
Si Si7 0.184286 0.428623 0.011148
Si Si8 0.542916 0.479444 0.303242
O O1 0.682880 0.250000 0.500000
O O2 0.622214 0.511744 0.537029
O O3 0.628034 0.304618 0.647365
O O4 0.726377 0.449860 0.617514
O O5 0.559682 0.750000 0.500000
O O6 0.500000 0.000000 0.500000
O O7 0.583186 0.975629 0.614189
O O8 0.903596 0.434386 0.205489
O O9 0.962247 0.196040 0.275729
O O10 0.975704 0.468440 0.329306
O O11 0.250000 0.750000 0.736383
O O12 0.288013 0.004555 0.790608
O O13 0.183958 0.012682 0.731113
O O14 0.356438 0.279092 0.197968
O O15 0.356601 0.484886 0.068234
O O16 0.572582 0.939550 0.779278
O O17 0.655636 0.971666 0.897108
O O18 0.191666 0.250000 0.000000
O O19 0.250000 0.504907 0.000000
#
# Coordination Sequence:
#
# PCOD8205424 Si02
#       8
#     8   8   8   8   8   8   8   8
#     4  11  23  43  62  87 122 167 209 265 312 377
#     4  12  24  40  64  93 123 159 213 261 319 376
#     4  11  23  40  64  94 126 164 217 263 334 374
#     4  11  24  40  60  89 127 167 213 255 322 377
#     4  10  21  40  68  92 128 166 216 267 317 387
#     4  11  22  40  65  97 129 169 210 267 324 388
#     4   9  17  36  63  95 126 166 215 261 318 383
#     4  12  24  40  64  94 129 162 211 269 323 391
#
# _framework density 21.129211000000002
#
# number of rings (size 3 to 8) (size 9 to 14) (size 15 to 20)
#    0.000    1.125    3.750    3.750    3.500    0.250 
#    0.000    3.750    0.000    0.750    0.000    0.000 
#    0.000    0.000    0.000    0.000    0.000    0.000 
#
# Total GULP energy -792884.776749 kJ/mol
# GULP energy per Si atom -12388.824637 kJ/mol
# Density = 2.108112 g / cm^3
# Si number density = 21.129211 Si / 1000 Ang^3
#
#
#
# Elastic Constant Matrix: (Units=GPa)
#
#
# Indices 1 2 3 4 5 6 
#
# 1 42.6144 19.3591 36.5965 0.0000 0.0000 0.0000
# 2 19.3591 129.4222 39.4738 0.0000 0.0000 0.0000
# 3 36.5965 39.4738 137.7389 0.0000 0.0000 0.0000
# 4 0.0000 0.0000 0.0000 28.8144 0.0000 0.0000
# 5 0.0000 0.0000 0.0000 0.0000 17.4143 0.0000
# 6 0.0000 0.0000 0.0000 0.0000 0.0000 35.3584
#
#
#
# Elastic Compliance Matrix: (Units=1/GPa)
#
#
# Indices 1 2 3 4 5 6 
#
# 1 0.031032 -0.002331 -0.007577 0.000000 0.000000 0.000000
# 2 -0.002331 0.008642 -0.001857 0.000000 0.000000 0.000000
# 3 -0.007577 -0.001857 0.009806 0.000000 0.000000 0.000000
# 4 0.000000 0.000000 0.000000 0.034705 0.000000 0.000000
# 5 0.000000 0.000000 0.000000 0.000000 0.057424 0.000000
# 6 0.000000 0.000000 0.000000 0.000000 0.000000 0.028282
#
#
# Mechanical properties :
#
#
# Convention : Reuss Voigt Hill
#
# Bulk Modulus (GPa) = 38.53698 55.62602 47.08150
# Shear Modulus (GPa) = 24.74384 30.60716 27.67550
#
# Velocity S-wave (km/s) = 3.42581 3.81014 3.62307
# Velocity P-wave (km/s) = 5.82465 6.76313 6.31136
#
# Compressibility (1/GPa) = 0.02594910
#
# Stress axis : x y z
#
# Youngs Moduli (GPa) = 32.22459 115.71696 101.98270
#
# Poissons Ratio (x) = 0.26971 0.77273
# Poissons Ratio (y) = 0.07511 0.18941
# Poissons Ratio (z) = 0.24417 0.21492
#
# Static dielectric constant tensor:
#      x y z
#    x 3.832390 0.000000 0.000000 
#    y 0.000000 3.843280 0.000000 
#    z 0.000000 0.000000 5.004570 
# 
# 
# High freq. dielectric constant tensor:
#      x y z
#    x 1.824950 0.000000 0.000000 
#    y 0.000000 1.822740 0.000000 
#    z 0.000000 0.000000 1.828870 
# 
# From -- ./inp_files/27482.got.cif
#   From: 2010.03.12/outbox.cif.g09.slc.cpg/sg50_14_cif.got.tgz:27482.got - 2010.04.16 13:23:21.
