data_PCOD8205381
_publ_section_title
;
Structure prediction by ZEFSAII (Michael W. Deem and Ramdas Pophale) SiO2 
 PCOD8205381
Probable space group: P B A N
;
_chemical_formula_sum "Si O2"
_cell_formula_units_Z 40
_cell_length_a 14.249571
_cell_length_b 9.147614
_cell_length_c 13.651665
_cell_angle_alpha 90.000000
_cell_angle_beta 90.000000
_cell_angle_gamma 90.000000
_cell_volume 1779.488733
_symmetry_space_group_name_H-M "P B A N"
_symmetry_group_IT_number 50
_space_group.IT_coordinate_system_code '2'
_symmetry_cell_setting 'orthorhombic'
loop_
_space_group_symop_operation_xyz
x,y,z
1/2-x,1/2-y,z
x,1/2-y,-z
1/2-x,y,-z
-x,-y,-z
1/2+x,1/2+y,-z
-x,1/2+y,z
1/2+x,-y,z
loop_
_atom_site_type_symbol
_atom_site_label
_atom_site_fract_x
_atom_site_fract_y
_atom_site_fract_z
Si Si1 0.611768 0.479778 0.681399
Si Si2 0.420186 0.885547 0.889838
Si Si3 0.795042 0.596129 0.726486
Si Si4 0.963224 0.728283 0.613161
Si Si5 0.608622 0.446754 0.099297
O O1 0.623696 0.465076 0.797532
O O2 0.720141 0.514704 0.652886
O O3 0.540848 0.613114 0.661613
O O4 0.568153 0.337323 0.628349
O O5 0.425509 0.713073 0.867482
O O6 0.527317 0.933377 0.901822
O O7 0.357929 0.928352 0.985572
O O8 0.750000 0.750000 0.758612
O O9 0.889754 0.617398 0.663797
O O10 0.812492 0.502226 0.825224
O O11 0.938942 0.750000 0.500000
#
# Coordination Sequence:
#
# PCOD8205381 Si02
#       5
#     8   8   8   8   8
#     4  11  23  42  68  97 129 175 223 277 334 405
#     4  10  21  38  69  95 136 179 222 267 339 399
#     4  10  24  41  67 100 135 177 224 282 338 398
#     4  11  24  46  70  94 131 178 223 281 349 398
#     4  10  21  40  64 101 137 182 220 272 332 405
#
# _framework density 22.478366000000001
#
# number of rings (size 3 to 8) (size 9 to 14) (size 15 to 20)
#    0.000    1.600    2.000    1.800    2.800    5.200 
#    0.000    5.000    0.000    0.000    0.000    0.000 
#    0.000    0.000    0.000    0.000    0.000    0.000 
#
# Total GULP energy -495752.843905 kJ/mol
# GULP energy per Si atom -12393.821098 kJ/mol
# Density = 2.242720 g / cm^3
# Si number density = 22.478366 Si / 1000 Ang^3
#
#
#
# Elastic Constant Matrix: (Units=GPa)
#
#
# Indices 1 2 3 4 5 6 
#
# 1 72.1192 41.8353 30.7331 0.0000 0.0000 0.0000
# 2 41.8353 121.4057 58.1704 0.0000 0.0000 0.0000
# 3 30.7331 58.1704 130.1772 0.0000 0.0000 0.0000
# 4 0.0000 0.0000 0.0000 27.3269 0.0000 0.0000
# 5 0.0000 0.0000 0.0000 0.0000 18.8756 0.0000
# 6 0.0000 0.0000 0.0000 0.0000 0.0000 43.3237
#
#
#
# Elastic Compliance Matrix: (Units=1/GPa)
#
#
# Indices 1 2 3 4 5 6 
#
# 1 0.017672 -0.005205 -0.001846 0.000000 0.000000 0.000000
# 2 -0.005205 0.012014 -0.004140 0.000000 0.000000 0.000000
# 3 -0.001846 -0.004140 0.009968 0.000000 0.000000 0.000000
# 4 0.000000 0.000000 0.000000 0.036594 0.000000 0.000000
# 5 0.000000 0.000000 0.000000 0.000000 0.052979 0.000000
# 6 0.000000 0.000000 0.000000 0.000000 0.000000 0.023082
#
#
# Mechanical properties :
#
#
# Convention : Reuss Voigt Hill
#
# Bulk Modulus (GPa) = 57.89824 65.01996 61.45910
# Shear Modulus (GPa) = 27.70894 30.76946 29.23920
#
# Velocity S-wave (km/s) = 3.51478 3.70381 3.61053
# Velocity P-wave (km/s) = 6.50268 6.87599 6.69194
#
# Compressibility (1/GPa) = 0.01727168
#
# Stress axis : x y z
#
# Youngs Moduli (GPa) = 56.58651 83.23685 100.32567
#
# Poissons Ratio (x) = 0.43325 0.18523
# Poissons Ratio (y) = 0.29453 0.41531
# Poissons Ratio (z) = 0.10447 0.34457
#
# Static dielectric constant tensor:
#      x y z
#    x 3.866370 0.000000 0.000000 
#    y 0.000000 4.142520 0.000000 
#    z 0.000000 0.000000 4.150780 
# 
# 
# High freq. dielectric constant tensor:
#      x y z
#    x 1.874180 0.000000 0.000000 
#    y 0.000000 1.893710 0.000000 
#    z 0.000000 0.000000 1.881400 
# 
# From -- ./inp_files/26278.got.cif
#   From: 2010.03.12/outbox.cif.g09.slc.cpg/sg50_14_cif.got.tgz:26278.got - 2010.04.16 13:23:21.
