data_PCOD8205840
_publ_section_title
;
Structure prediction by ZEFSAII (Michael W. Deem and Ramdas Pophale) SiO2 
 PCOD8205840
Probable space group: P B A N
;
_chemical_formula_sum "Si O2"
_cell_formula_units_Z 30
_cell_length_a 12.495653
_cell_length_b 11.259472
_cell_length_c 9.230928
_cell_angle_alpha 90.000000
_cell_angle_beta 90.000000
_cell_angle_gamma 90.000000
_cell_volume 1298.740385
_symmetry_space_group_name_H-M "P B A N"
_symmetry_group_IT_number 50
_space_group.IT_coordinate_system_code '2'
_symmetry_cell_setting 'orthorhombic'
loop_
_space_group_symop_operation_xyz
x,y,z
1/2-x,1/2-y,z
x,1/2-y,-z
1/2-x,y,-z
-x,-y,-z
1/2+x,1/2+y,-z
-x,1/2+y,z
1/2+x,-y,z
loop_
_atom_site_type_symbol
_atom_site_label
_atom_site_fract_x
_atom_site_fract_y
_atom_site_fract_z
Si Si1 0.364232 0.190229 0.134304
Si Si2 0.250000 0.475791 0.500000
Si Si3 0.750000 0.250000 0.000000
Si Si4 0.145994 0.931576 0.779253
Si Si5 0.952939 0.829940 0.617674
O O1 0.250000 0.250000 0.132708
O O2 0.416518 0.221592 0.283833
O O3 0.356401 0.048570 0.120953
O O4 0.429538 0.250000 0.000000
O O5 0.273266 0.555800 0.642476
O O6 0.353155 0.397418 0.456447
O O7 0.822654 0.327648 0.890764
O O8 0.028803 0.916558 0.707981
O O9 0.017207 0.750000 0.500000
#
# Coordination Sequence:
#
# PCOD8205840 Si02
#       5
#     8   4   2   8   8
#     4  11  23  46  75 105 145 198 251 309 372 448
#     4  12  25  51  78 110 150 195 259 324 370 444
#     4  12  32  54  66 116 170 198 248 314 384 468
#     4  12  29  47  78 109 154 202 249 316 387 450
#     4  12  25  46  78 115 145 193 258 315 379 454
#
# _framework density 23.099305000000001
#
# number of rings (size 3 to 8) (size 9 to 14) (size 15 to 20)
#    0.000    0.267    5.333    2.800    5.600    1.067 
#    0.000    0.000    0.000    0.000    0.000    0.000 
#    0.000    0.000    0.000    0.000    0.000    0.000 
#
# Total GULP energy -371642.303258 kJ/mol
# GULP energy per Si atom -12388.076775 kJ/mol
# Density = 2.304673 g / cm^3
# Si number density = 23.099305 Si / 1000 Ang^3
#
#
#
# Elastic Constant Matrix: (Units=GPa)
#
#
# Indices 1 2 3 4 5 6 
#
# 1 99.7513 53.3874 42.3605 0.0000 0.0000 0.0000
# 2 53.3874 166.1865 81.9426 0.0000 0.0000 0.0000
# 3 42.3605 81.9426 178.7735 0.0000 0.0000 0.0000
# 4 0.0000 0.0000 0.0000 68.1542 0.0000 0.0000
# 5 0.0000 0.0000 0.0000 0.0000 21.6505 0.0000
# 6 0.0000 0.0000 0.0000 0.0000 0.0000 26.8311
#
#
#
# Elastic Compliance Matrix: (Units=1/GPa)
#
#
# Indices 1 2 3 4 5 6 
#
# 1 0.012385 -0.003271 -0.001435 0.000000 0.000000 0.000000
# 2 -0.003271 0.008638 -0.003184 0.000000 0.000000 0.000000
# 3 -0.001435 -0.003184 0.007393 0.000000 0.000000 0.000000
# 4 0.000000 0.000000 0.000000 0.014673 0.000000 0.000000
# 5 0.000000 0.000000 0.000000 0.000000 0.046188 0.000000
# 6 0.000000 0.000000 0.000000 0.000000 0.000000 0.037270
#
#
# Mechanical properties :
#
#
# Convention : Reuss Voigt Hill
#
# Bulk Modulus (GPa) = 79.14328 88.89916 84.02122
# Shear Modulus (GPa) = 34.12010 41.12853 37.62431
#
# Velocity S-wave (km/s) = 3.84748 4.22419 4.04023
# Velocity P-wave (km/s) = 7.35351 7.89689 7.63004
#
# Compressibility (1/GPa) = 0.01263531
#
# Stress axis : x y z
#
# Youngs Moduli (GPa) = 80.74205 115.76380 135.25617
#
# Poissons Ratio (x) = 0.37866 0.19414
# Poissons Ratio (y) = 0.26410 0.43071
# Poissons Ratio (z) = 0.11590 0.36864
#
# Static dielectric constant tensor:
#      x y z
#    x 3.725550 0.000000 0.000000 
#    y 0.000000 4.025120 0.000000 
#    z 0.000000 0.000000 3.410570 
# 
# 
# High freq. dielectric constant tensor:
#      x y z
#    x 1.888930 0.000000 0.000000 
#    y 0.000000 1.917620 0.000000 
#    z 0.000000 0.000000 1.951220 
# 
# From -- ./inp_files/12139.got.cif
#   From: 2010.03.12/outbox.cif.g09.slc.cpg/sg50_7_cif.got.tgz:12139.got - 2010.04.16 13:23:21.
