data_PCOD8205518
_publ_section_title
;
Structure prediction by ZEFSAII (Michael W. Deem and Ramdas Pophale) SiO2 
 PCOD8205518
Probable space group: P B A N
;
_chemical_formula_sum "Si O2"
_cell_formula_units_Z 58
_cell_length_a 16.674452
_cell_length_b 19.438994
_cell_length_c 8.474091
_cell_angle_alpha 90.000000
_cell_angle_beta 90.000000
_cell_angle_gamma 90.000000
_cell_volume 2746.745863
_symmetry_space_group_name_H-M "P B A N"
_symmetry_group_IT_number 50
_space_group.IT_coordinate_system_code '2'
_symmetry_cell_setting 'orthorhombic'
loop_
_space_group_symop_operation_xyz
x,y,z
1/2-x,1/2-y,z
x,1/2-y,-z
1/2-x,y,-z
-x,-y,-z
1/2+x,1/2+y,-z
-x,1/2+y,z
1/2+x,-y,z
loop_
_atom_site_type_symbol
_atom_site_label
_atom_site_fract_x
_atom_site_fract_y
_atom_site_fract_z
Si Si1 0.447501 0.221748 0.329458
Si Si2 0.714426 0.554107 0.675334
Si Si3 0.844522 0.632911 0.854887
Si Si4 0.894958 0.146446 0.138984
Si Si5 0.886991 0.304380 0.199616
Si Si6 0.750000 0.750000 0.000000
Si Si7 0.073776 0.135694 0.182391
Si Si8 0.757454 0.402084 0.315516
O O1 0.425984 0.250000 0.500000
O O2 0.400515 0.151190 0.293727
O O3 0.539043 0.196738 0.320513
O O4 0.423892 0.281276 0.202444
O O5 0.750000 0.564838 0.500000
O O6 0.780046 0.576020 0.806254
O O7 0.631090 0.596701 0.691938
O O8 0.698015 0.474490 0.717416
O O9 0.799666 0.703662 0.882756
O O10 0.896148 0.612337 0.009096
O O11 0.869815 0.224961 0.167312
O O12 0.825926 0.099168 0.216157
O O13 0.979530 0.118116 0.209598
O O14 0.904649 0.145525 0.949678
O O15 0.808750 0.335628 0.276337
O O16 0.750000 0.396595 0.500000
#
# Coordination Sequence:
#
# PCOD8205518 Si02
#       8
#     8   8   8   8   8   2   8   8
#     4  11  22  36  63 102 132 160 207 266 330 386
#     4  11  25  45  62  91 135 179 218 261 322 394
#     4  12  20  38  64  94 130 170 213 264 320 389
#     4  10  22  42  68  96 130 162 215 280 327 378
#     4  10  22  40  67  96 129 165 213 268 327 384
#     4  12  20  32  66  92 120 166 212 264 320 372
#     4  11  21  40  64  96 128 164 214 268 320 382
#     4  11  26  45  63  93 131 176 220 267 323 392
#
# _framework density 21.115895999999999
#
# number of rings (size 3 to 8) (size 9 to 14) (size 15 to 20)
#    0.000    1.103    4.138    1.655    3.862    3.862 
#    2.483    4.138    0.000    0.000    0.000    0.000 
#    0.000    0.000    0.000    0.000    0.000    0.000 
#
# Total GULP energy -718626.652540 kJ/mol
# GULP energy per Si atom -12390.114699 kJ/mol
# Density = 2.106784 g / cm^3
# Si number density = 21.115896 Si / 1000 Ang^3
#
#
#
# Elastic Constant Matrix: (Units=GPa)
#
#
# Indices 1 2 3 4 5 6 
#
# 1 122.2845 60.5996 23.3292 0.0000 0.0000 0.0000
# 2 60.5996 59.5451 30.7282 0.0000 0.0000 0.0000
# 3 23.3292 30.7282 85.9639 0.0000 0.0000 0.0000
# 4 0.0000 0.0000 0.0000 99.2762 0.0000 0.0000
# 5 0.0000 0.0000 0.0000 0.0000 26.8715 0.0000
# 6 0.0000 0.0000 0.0000 0.0000 0.0000 23.6002
#
#
#
# Elastic Compliance Matrix: (Units=1/GPa)
#
#
# Indices 1 2 3 4 5 6 
#
# 1 0.016747 -0.018023 0.001897 0.000000 0.000000 0.000000
# 2 -0.018023 0.039988 -0.009403 0.000000 0.000000 0.000000
# 3 0.001897 -0.009403 0.014479 0.000000 0.000000 0.000000
# 4 0.000000 0.000000 0.000000 0.010073 0.000000 0.000000
# 5 0.000000 0.000000 0.000000 0.000000 0.037214 0.000000
# 6 0.000000 0.000000 0.000000 0.000000 0.000000 0.042373
#
#
# Mechanical properties :
#
#
# Convention : Reuss Voigt Hill
#
# Bulk Modulus (GPa) = 49.60855 55.23418 52.42136
# Shear Modulus (GPa) = 22.86756 40.15867 31.51312
#
# Velocity S-wave (km/s) = 3.29440 4.36572 3.86734
# Velocity P-wave (km/s) = 6.16565 7.18520 6.69486
#
# Compressibility (1/GPa) = 0.02015782
#
# Stress axis : x y z
#
# Youngs Moduli (GPa) = 59.71169 25.00719 69.06570
#
# Poissons Ratio (x) = 0.45070 -0.13105
# Poissons Ratio (y) = 1.07618 0.64942
# Poissons Ratio (z) = -0.11330 0.23514
#
# Static dielectric constant tensor:
#      x y z
#    x 3.943580 0.000000 0.000000 
#    y 0.000000 3.756720 0.000000 
#    z 0.000000 0.000000 3.678140 
# 
# 
# High freq. dielectric constant tensor:
#      x y z
#    x 1.835790 0.000000 0.000000 
#    y 0.000000 1.806300 0.000000 
#    z 0.000000 0.000000 1.827940 
# 
# From -- ./inp_files/14492.got.cif
#   From: 2010.03.12/outbox.cif.g09.slc.cpg/sg50_8_cif.got.tgz:14492.got - 2010.04.16 13:23:21.
