data_PCOD8205031
_publ_section_title
;
Structure prediction by ZEFSAII (Michael W. Deem and Ramdas Pophale) SiO2 
 PCOD8205031
Probable space group: P B A N
;
_chemical_formula_sum "Si O2"
_cell_formula_units_Z 44
_cell_length_a 16.764850
_cell_length_b 8.455865
_cell_length_c 13.704838
_cell_angle_alpha 90.000000
_cell_angle_beta 90.000000
_cell_angle_gamma 90.000000
_cell_volume 1942.815766
_symmetry_space_group_name_H-M "P B A N"
_symmetry_group_IT_number 50
_space_group.IT_coordinate_system_code '2'
_symmetry_cell_setting 'orthorhombic'
loop_
_space_group_symop_operation_xyz
x,y,z
1/2-x,1/2-y,z
x,1/2-y,-z
1/2-x,y,-z
-x,-y,-z
1/2+x,1/2+y,-z
-x,1/2+y,z
1/2+x,-y,z
loop_
_atom_site_type_symbol
_atom_site_label
_atom_site_fract_x
_atom_site_fract_y
_atom_site_fract_z
Si Si1 0.750000 0.250000 0.163446
Si Si2 0.402209 0.635173 0.726175
Si Si3 0.061638 0.216083 0.792265
Si Si4 0.339339 0.186409 0.631211
Si Si5 0.750000 0.499034 0.000000
Si Si6 0.883649 0.750000 0.000000
Si Si7 0.589940 0.520362 0.468402
O O1 0.675552 0.281582 0.232539
O O2 0.768968 0.398952 0.095913
O O3 0.417436 0.467814 0.778740
O O4 0.476101 0.750600 0.745291
O O5 0.388188 0.617349 0.608929
O O6 0.130871 0.328632 0.742862
O O7 0.059658 0.265726 0.905797
O O8 0.250000 0.250000 0.623973
O O9 0.400884 0.314650 0.588377
O O10 0.352236 0.027400 0.565427
O O11 0.828646 0.599448 0.979973
O O12 0.500000 0.500000 0.500000
#
# Coordination Sequence:
#
# PCOD8205031 Si02
#       7
#     4   8   8   8   4   4   8
#     4  11  24  48  70 104 147 192 233 308 367 426
#     4  11  25  45  71 105 145 188 237 297 367 427
#     4  11  25  44  68 105 144 188 241 294 358 436
#     4  10  22  41  68 100 136 188 237 296 354 424
#     4  10  24  44  70 100 150 186 238 302 370 414
#     4  11  24  42  70 107 138 192 248 293 350 452
#     4  10  19  40  66  95 135 180 229 284 346 424
#
# _framework density 22.647542000000001
#
# number of rings (size 3 to 8) (size 9 to 14) (size 15 to 20)
#    0.000    1.455    3.636    1.091    5.091    2.182 
#    0.000    1.818    0.000    0.000    0.000    0.000 
#    0.000    0.000    0.000    0.000    0.000    0.000 
#
# Total GULP energy -545410.958395 kJ/mol
# GULP energy per Si atom -12395.703600 kJ/mol
# Density = 2.259600 g / cm^3
# Si number density = 22.647542 Si / 1000 Ang^3
#
#
#
# Elastic Constant Matrix: (Units=GPa)
#
#
# Indices 1 2 3 4 5 6 
#
# 1 174.5415 51.5493 80.8976 0.0000 0.0000 0.0000
# 2 51.5493 77.2161 39.9199 0.0000 0.0000 0.0000
# 3 80.8976 39.9199 153.5759 0.0000 0.0000 0.0000
# 4 0.0000 0.0000 0.0000 19.9938 0.0000 0.0000
# 5 0.0000 0.0000 0.0000 0.0000 40.6572 0.0000
# 6 0.0000 0.0000 0.0000 0.0000 0.0000 26.0574
#
#
#
# Elastic Compliance Matrix: (Units=1/GPa)
#
#
# Indices 1 2 3 4 5 6 
#
# 1 0.008475 -0.003870 -0.003458 0.000000 0.000000 0.000000
# 2 -0.003870 0.016728 -0.002310 0.000000 0.000000 0.000000
# 3 -0.003458 -0.002310 0.008934 0.000000 0.000000 0.000000
# 4 0.000000 0.000000 0.000000 0.050015 0.000000 0.000000
# 5 0.000000 0.000000 0.000000 0.000000 0.024596 0.000000
# 6 0.000000 0.000000 0.000000 0.000000 0.000000 0.038377
#
#
# Mechanical properties :
#
#
# Convention : Reuss Voigt Hill
#
# Bulk Modulus (GPa) = 67.29126 83.34079 75.31603
# Shear Modulus (GPa) = 29.17912 32.87281 31.02597
#
# Velocity S-wave (km/s) = 3.59332 3.81398 3.70530
# Velocity P-wave (km/s) = 6.85513 7.50161 7.18565
#
# Compressibility (1/GPa) = 0.01486077
#
# Stress axis : x y z
#
# Youngs Moduli (GPa) = 117.99098 59.77853 111.93717
#
# Poissons Ratio (x) = 0.23135 0.38713
# Poissons Ratio (y) = 0.45663 0.25854
# Poissons Ratio (z) = 0.40806 0.13807
#
# Static dielectric constant tensor:
#      x y z
#    x 3.901790 0.000000 0.000000 
#    y 0.000000 4.089430 0.000000 
#    z 0.000000 0.000000 4.779120 
# 
# 
# High freq. dielectric constant tensor:
#      x y z
#    x 1.887620 0.000000 0.000000 
#    y 0.000000 1.875360 0.000000 
#    z 0.000000 0.000000 1.916080 
# 
# From -- ./inp_files/26820.got.cif
#   From: 2010.03.12/outbox.cif.g09.slc.cpg/sg50_14_cif.got.tgz:26820.got - 2010.04.16 13:23:21.
