data_PCOD8205961
_publ_section_title
;
Structure prediction by ZEFSAII (Michael W. Deem and Ramdas Pophale) SiO2 
 PCOD8205961
Probable space group: P M M A
;
_chemical_formula_sum "Si O2"
_cell_formula_units_Z 36
_cell_length_a 8.722721
_cell_length_b 18.039287
_cell_length_c 15.322163
_cell_angle_alpha 90.000000
_cell_angle_beta 90.000000
_cell_angle_gamma 90.000000
_cell_volume 2410.967898
_symmetry_space_group_name_H-M "P M M A"
_symmetry_group_IT_number 51
_symmetry_cell_setting 'orthorhombic'
loop_
_space_group_symop_operation_xyz
x,y,z
1/2-x,-y,z
1/2+x,-y,-z
-x,y,-z
-x,-y,-z
1/2+x,y,-z
1/2-x,y,z
x,-y,z
loop_
_atom_site_type_symbol
_atom_site_label
_atom_site_fract_x
_atom_site_fract_y
_atom_site_fract_z
Si Si1 0.932797 0.647680 0.903136
Si Si2 0.432776 0.500000 0.902697
Si Si3 0.569676 0.083301 0.236089
Si Si4 0.922186 0.088229 0.586847
Si Si5 0.932013 0.797328 0.095199
O O1 0.750000 0.644158 0.903210
O O2 0.002376 0.574388 0.855280
O O3 0.993765 0.723779 0.859957
O O4 0.000000 0.649760 0.000000
O O5 0.250000 0.500000 0.903670
O O6 0.500000 0.500000 0.000000
O O7 0.750000 0.082194 0.246597
O O8 0.503985 0.117292 0.325729
O O9 0.518819 0.133864 0.155279
O O10 0.506758 0.000000 0.219004
O O11 0.750000 0.117520 0.588528
O O12 0.000000 0.121708 0.500000
O O13 0.932050 0.000000 0.584183
O O14 0.750000 0.787296 0.088534
O O15 0.000000 0.813278 0.000000
#
# Coordination Sequence:
#
# PCOD8205961 Si02
#       5
#     8   4   8   8   8
#     4  10  17  26  39  55  75  99 129 163 200 240
#     4  10  16  24  38  56  76  96 123 158 197 240
#     4   9  18  31  44  58  78 105 138 174 209 244
#     4   9  16  26  42  62  81 100 124 158 202 250
#     4  10  19  30  42  56  77 107 141 175 209 241
#
# _framework density 14.931763
#
# number of rings (size 3 to 8) (size 9 to 14) (size 15 to 20)
#    0.000    2.444    0.000    7.000    0.000    4.889 
#    0.000    0.000    0.000    0.000    0.000    0.000 
#    0.000    0.000    0.000    1.000    0.000   13.444 
#
# Total GULP energy -446164.827786 kJ/mol
# GULP energy per Si atom -12393.467438 kJ/mol
# Density = 1.489778 g / cm^3
# Si number density = 14.931763 Si / 1000 Ang^3
#
#
#
# Elastic Constant Matrix: (Units=GPa)
#
#
# Indices 1 2 3 4 5 6 
#
# 1 91.3432 48.2811 35.1297 0.0000 0.0000 0.0000
# 2 48.2811 98.7937 50.1548 0.0000 0.0000 0.0000
# 3 35.1297 50.1548 77.8304 0.0000 0.0000 0.0000
# 4 0.0000 0.0000 0.0000 0.6083 0.0000 0.0000
# 5 0.0000 0.0000 0.0000 0.0000 20.9163 0.0000
# 6 0.0000 0.0000 0.0000 0.0000 0.0000 21.4585
#
#
#
# Elastic Compliance Matrix: (Units=1/GPa)
#
#
# Indices 1 2 3 4 5 6 
#
# 1 0.015245 -0.005881 -0.003091 0.000000 0.000000 0.000000
# 2 -0.005881 0.017312 -0.008502 0.000000 0.000000 0.000000
# 3 -0.003091 -0.008502 0.019722 0.000000 0.000000 0.000000
# 4 0.000000 0.000000 0.000000 1.643808 0.000000 0.000000
# 5 0.000000 0.000000 0.000000 0.000000 0.047810 0.000000
# 6 0.000000 0.000000 0.000000 0.000000 0.000000 0.046602
#
#
# Mechanical properties :
#
#
# Convention : Reuss Voigt Hill
#
# Bulk Modulus (GPa) = 57.69788 59.45537 58.57663
# Shear Modulus (GPa) = 2.73041 17.55675 10.14358
#
# Velocity S-wave (km/s) = 1.35372 3.43271 2.60922
# Velocity P-wave (km/s) = 6.41626 7.45760 6.95644
#
# Compressibility (1/GPa) = 0.01733166
#
# Stress axis : x y z
#
# Youngs Moduli (GPa) = 65.59471 57.76237 50.70384
#
# Poissons Ratio (x) = 0.33970 0.15674
# Poissons Ratio (y) = 0.38577 0.43107
# Poissons Ratio (z) = 0.20277 0.49108
#
# Static dielectric constant tensor:
#      x y z
#    x 2.980110 0.000000 0.000000 
#    y 0.000000 3.774730 0.000000 
#    z 0.000000 0.000000 2.629010 
# 
# 
# High freq. dielectric constant tensor:
#      x y z
#    x 1.590160 0.000000 0.000000 
#    y 0.000000 1.559090 0.000000 
#    z 0.000000 0.000000 1.522610 
# 
# From -- ./inp_files/20768.got.cif
#   From: 2010.03.12/outbox.cif.g09.slc.cpg/sg51_11_cif.got.tgz:20768.got - 2010.04.16 13:43:02.
