data_PCOD8205420
_publ_section_title
;
Structure prediction by ZEFSAII (Michael W. Deem and Ramdas Pophale) SiO2 
 PCOD8205420
Probable space group: P B A N
;
_chemical_formula_sum "Si O2"
_cell_formula_units_Z 56
_cell_length_a 16.969226
_cell_length_b 11.218678
_cell_length_c 14.892713
_cell_angle_alpha 90.000000
_cell_angle_beta 90.000000
_cell_angle_gamma 90.000000
_cell_volume 2835.159765
_symmetry_space_group_name_H-M "P B A N"
_symmetry_group_IT_number 50
_space_group.IT_coordinate_system_code '2'
_symmetry_cell_setting 'orthorhombic'
loop_
_space_group_symop_operation_xyz
x,y,z
1/2-x,1/2-y,z
x,1/2-y,-z
1/2-x,y,-z
-x,-y,-z
1/2+x,1/2+y,-z
-x,1/2+y,z
1/2+x,-y,z
loop_
_atom_site_type_symbol
_atom_site_label
_atom_site_fract_x
_atom_site_fract_y
_atom_site_fract_z
Si Si1 0.657402 0.249471 0.604680
Si Si2 0.405904 0.990902 0.680814
Si Si3 0.842741 0.626266 0.817291
Si Si4 0.589166 0.495273 0.348539
Si Si5 0.442655 0.113198 0.012319
Si Si6 0.837940 0.888994 0.514986
Si Si7 0.832047 0.603693 0.154079
O O1 0.750000 0.250000 0.620485
O O2 0.635745 0.250000 0.500000
O O3 0.617132 0.360301 0.651168
O O4 0.620135 0.138287 0.655114
O O5 0.498904 0.004968 0.678556
O O6 0.364534 0.086854 0.616185
O O7 0.376569 0.010218 0.782170
O O8 0.860136 0.571095 0.720897
O O9 0.911183 0.595544 0.887388
O O10 0.839682 0.766942 0.801526
O O11 0.760361 0.572859 0.854195
O O12 0.601068 0.548069 0.447978
O O13 0.478734 0.250000 0.000000
O O14 0.369753 0.100759 0.944341
O O15 0.500000 0.000000 0.000000
O O16 0.838390 0.750000 0.500000
O O17 0.750000 0.942468 0.500000
#
# Coordination Sequence:
#
# PCOD8205420 Si02
#       7
#     8   8   8   8   8   8   8
#     4  11  24  42  62  83 123 175 212 248 316 391
#     4  12  25  38  61  89 125 159 209 260 309 369
#     4  10  21  40  66  91 121 160 207 254 308 370
#     4  12  25  38  61  89 125 159 209 260 309 369
#     4  10  21  41  67  97 129 160 202 252 313 371
#     4  11  23  39  61  85 117 157 203 257 313 367
#     4  10  21  40  66  91 121 160 207 254 308 370
#
# _framework density 19.751973
#
# number of rings (size 3 to 8) (size 9 to 14) (size 15 to 20)
#    0.000    1.143    1.429    5.143    4.000    4.000 
#    2.571    0.000    0.000    0.857    0.000    0.000 
#    0.000    0.000    0.000    0.000    0.000    0.000 
#
# Total GULP energy -694565.222695 kJ/mol
# GULP energy per Si atom -12402.950405 kJ/mol
# Density = 1.970702 g / cm^3
# Si number density = 19.751973 Si / 1000 Ang^3
#
#
#
# Elastic Constant Matrix: (Units=GPa)
#
#
# Indices 1 2 3 4 5 6 
#
# 1 95.0004 39.0706 2.7680 0.0000 0.0000 0.0000
# 2 39.0706 104.0472 19.7031 0.0000 0.0000 0.0000
# 3 2.7680 19.7031 58.9081 0.0000 0.0000 0.0000
# 4 0.0000 0.0000 0.0000 36.8863 0.0000 0.0000
# 5 0.0000 0.0000 0.0000 0.0000 37.0571 0.0000
# 6 0.0000 0.0000 0.0000 0.0000 0.0000 50.9334
#
#
#
# Elastic Compliance Matrix: (Units=1/GPa)
#
#
# Indices 1 2 3 4 5 6 
#
# 1 0.012509 -0.004896 0.001050 0.000000 0.000000 0.000000
# 2 -0.004896 0.012177 -0.003843 0.000000 0.000000 0.000000
# 3 0.001050 -0.003843 0.018212 0.000000 0.000000 0.000000
# 4 0.000000 0.000000 0.000000 0.027110 0.000000 0.000000
# 5 0.000000 0.000000 0.000000 0.000000 0.026985 0.000000
# 6 0.000000 0.000000 0.000000 0.000000 0.000000 0.019633
#
#
# Mechanical properties :
#
#
# Convention : Reuss Voigt Hill
#
# Bulk Modulus (GPa) = 36.33753 42.33768 39.33760
# Shear Modulus (GPa) = 35.41602 38.06964 36.74283
#
# Velocity S-wave (km/s) = 4.23902 4.39496 4.31769
# Velocity P-wave (km/s) = 6.51121 6.87280 6.69445
#
# Compressibility (1/GPa) = 0.02751976
#
# Stress axis : x y z
#
# Youngs Moduli (GPa) = 79.94047 82.12008 54.91007
#
# Poissons Ratio (x) = 0.40207 -0.05765
# Poissons Ratio (y) = 0.39140 0.21101
# Poissons Ratio (z) = -0.08392 0.31558
#
# Static dielectric constant tensor:
#      x y z
#    x 3.702300 0.000000 0.000000 
#    y 0.000000 3.718410 0.000000 
#    z 0.000000 0.000000 3.677400 
# 
# 
# High freq. dielectric constant tensor:
#      x y z
#    x 1.776260 0.000000 0.000000 
#    y 0.000000 1.774350 0.000000 
#    z 0.000000 0.000000 1.773840 
# 
# From -- ./inp_files/25955.got.cif
#   From: 2010.03.12/outbox.cif.g09.slc.cpg/sg50_13_cif.got.tgz:25955.got - 2010.04.16 13:23:21.
