data_PCOD8205665
_publ_section_title
;
Structure prediction by ZEFSAII (Michael W. Deem and Ramdas Pophale) SiO2 
 PCOD8205665
Probable space group: P B A N
;
_chemical_formula_sum "Si O2"
_cell_formula_units_Z 60
_cell_length_a 22.025197
_cell_length_b 20.788803
_cell_length_c 6.298639
_cell_angle_alpha 90.000000
_cell_angle_beta 90.000000
_cell_angle_gamma 90.000000
_cell_volume 2884.004962
_symmetry_space_group_name_H-M "P B A N"
_symmetry_group_IT_number 50
_space_group.IT_coordinate_system_code '2'
_symmetry_cell_setting 'orthorhombic'
loop_
_space_group_symop_operation_xyz
x,y,z
1/2-x,1/2-y,z
x,1/2-y,-z
1/2-x,y,-z
-x,-y,-z
1/2+x,1/2+y,-z
-x,1/2+y,z
1/2+x,-y,z
loop_
_atom_site_type_symbol
_atom_site_label
_atom_site_fract_x
_atom_site_fract_y
_atom_site_fract_z
Si Si1 0.903047 0.637600 0.288194
Si Si2 0.189936 0.909777 0.122303
Si Si3 0.370264 0.680706 0.438248
Si Si4 0.504043 0.072861 0.956548
Si Si5 0.995295 0.836236 0.325466
Si Si6 0.315301 0.471596 0.426923
Si Si7 0.879465 0.433928 0.724542
Si Si8 0.924554 0.750000 0.000000
O O1 0.844640 0.593509 0.334078
O O2 0.939728 0.598024 0.115826
O O3 0.942689 0.650940 0.499942
O O4 0.884664 0.702767 0.154542
O O5 0.160268 0.845523 0.222422
O O6 0.202922 0.968980 0.277122
O O7 0.250000 0.887482 0.000000
O O8 0.142926 0.941686 0.962384
O O9 0.342163 0.750000 0.500000
O O10 0.443049 0.689350 0.431390
O O11 0.350170 0.628433 0.613817
O O12 0.549238 0.081332 0.754746
O O13 0.518913 0.103154 0.187035
O O14 0.500000 0.000000 0.000000
O O15 0.969906 0.785118 0.159929
O O16 0.250000 0.446119 0.500000
O O17 0.362711 0.500280 0.600580
#
# Coordination Sequence:
#
# PCOD8205665 Si02
#       8
#     8   8   8   8   8   8   8   4
#     4  11  23  40  65  98 133 169 208 264 328 394
#     4  11  23  44  65  87 131 171 216 277 320 374
#     4  11  24  38  64  93 125 175 223 259 317 380
#     4  11  22  35  60  99 132 162 205 261 330 390
#     4  11  22  39  63  95 135 170 206 263 326 386
#     4  11  24  42  69  95 123 170 220 265 332 395
#     4  11  22  40  61  93 130 163 211 271 321 377
#     4  10  24  42  64  93 135 172 210 252 328 396
#
# _framework density 20.804403000000001
#
# number of rings (size 3 to 8) (size 9 to 14) (size 15 to 20)
#    0.000    1.067    4.000    2.800    3.733    2.667 
#    0.000    2.000    0.000    2.400    0.000    0.000 
#    0.000    0.000    0.000    0.000    0.000    0.000 
#
# Total GULP energy -743370.588944 kJ/mol
# GULP energy per Si atom -12389.509816 kJ/mol
# Density = 2.075705 g / cm^3
# Si number density = 20.804403 Si / 1000 Ang^3
#
#
#
# Elastic Constant Matrix: (Units=GPa)
#
#
# Indices 1 2 3 4 5 6 
#
# 1 92.9285 39.1154 28.2044 0.0000 0.0000 0.0000
# 2 39.1154 138.6757 47.4062 0.0000 0.0000 0.0000
# 3 28.2044 47.4062 95.4949 0.0000 0.0000 0.0000
# 4 0.0000 0.0000 0.0000 34.4662 0.0000 0.0000
# 5 0.0000 0.0000 0.0000 0.0000 31.3757 0.0000
# 6 0.0000 0.0000 0.0000 0.0000 0.0000 21.2830
#
#
#
# Elastic Compliance Matrix: (Units=1/GPa)
#
#
# Indices 1 2 3 4 5 6 
#
# 1 0.012639 -0.002757 -0.002364 0.000000 0.000000 0.000000
# 2 -0.002757 0.009286 -0.003796 0.000000 0.000000 0.000000
# 3 -0.002364 -0.003796 0.013054 0.000000 0.000000 0.000000
# 4 0.000000 0.000000 0.000000 0.029014 0.000000 0.000000
# 5 0.000000 0.000000 0.000000 0.000000 0.031872 0.000000
# 6 0.000000 0.000000 0.000000 0.000000 0.000000 0.046986
#
#
# Mechanical properties :
#
#
# Convention : Reuss Voigt Hill
#
# Bulk Modulus (GPa) = 58.32317 61.83900 60.08109
# Shear Modulus (GPa) = 30.04807 31.58318 30.81562
#
# Velocity S-wave (km/s) = 3.80453 3.90051 3.85282
# Velocity P-wave (km/s) = 6.88435 7.07629 6.98098
#
# Compressibility (1/GPa) = 0.01714584
#
# Stress axis : x y z
#
# Youngs Moduli (GPa) = 79.12063 107.68659 76.60259
#
# Poissons Ratio (x) = 0.29686 0.18112
# Poissons Ratio (y) = 0.21811 0.29076
# Poissons Ratio (z) = 0.18707 0.40875
#
# Static dielectric constant tensor:
#      x y z
#    x 3.438510 0.000000 0.000000 
#    y 0.000000 3.786850 0.000000 
#    z 0.000000 0.000000 3.558970 
# 
# 
# High freq. dielectric constant tensor:
#      x y z
#    x 1.791720 0.000000 0.000000 
#    y 0.000000 1.814520 0.000000 
#    z 0.000000 0.000000 1.831420 
# 
# From -- ./inp_files/6115.got.cif
#   From: 2010.03.12/outbox.cif.g09.slc.cpg/sg50_4_cif.got.tgz:6115.got - 2010.04.16 13:23:21.
