data_PCOD8205401
_publ_section_title
;
Structure prediction by ZEFSAII (Michael W. Deem and Ramdas Pophale) SiO2 
 PCOD8205401
Probable space group: P B A N
;
_chemical_formula_sum "Si O2"
_cell_formula_units_Z 48
_cell_length_a 8.408740
_cell_length_b 26.196846
_cell_length_c 10.364419
_cell_angle_alpha 90.000000
_cell_angle_beta 90.000000
_cell_angle_gamma 90.000000
_cell_volume 2283.099785
_symmetry_space_group_name_H-M "P B A N"
_symmetry_group_IT_number 50
_space_group.IT_coordinate_system_code '2'
_symmetry_cell_setting 'orthorhombic'
loop_
_space_group_symop_operation_xyz
x,y,z
1/2-x,1/2-y,z
x,1/2-y,-z
1/2-x,y,-z
-x,-y,-z
1/2+x,1/2+y,-z
-x,1/2+y,z
1/2+x,-y,z
loop_
_atom_site_type_symbol
_atom_site_label
_atom_site_fract_x
_atom_site_fract_y
_atom_site_fract_z
Si Si1 0.001189 0.935288 0.278345
Si Si2 0.852291 0.646208 0.867735
Si Si3 0.853007 0.796813 0.673637
Si Si4 0.933626 0.369739 0.520173
Si Si5 0.323882 0.963437 0.357938
Si Si6 0.579404 0.237517 0.146131
O O1 0.991142 0.892457 0.390092
O O2 0.185162 0.950488 0.254838
O O3 0.917290 0.911774 0.150704
O O4 0.914245 0.986879 0.316140
O O5 0.747082 0.659151 0.742846
O O6 0.012902 0.679940 0.855088
O O7 0.750000 0.652088 0.000000
O O8 0.750000 0.750000 0.614550
O O9 0.958502 0.821365 0.559422
O O10 0.955802 0.774746 0.789101
O O11 0.750000 0.351881 0.500000
O O12 0.939838 0.413991 0.630970
O O13 0.250000 0.971753 0.500000
O O14 0.750000 0.250000 0.214141
O O15 0.598362 0.250000 0.000000
#
# Coordination Sequence:
#
# PCOD8205401 Si02
#       6
#     8   8   8   8   8   8
#     4  10  22  37  64  90 121 164 204 262 319 374
#     4  11  23  40  62  91 126 162 212 264 309 373
#     4  10  22  39  67  90 127 165 207 253 320 378
#     4   9  20  39  66  96 126 162 208 259 318 379
#     4   9  19  37  62  91 122 160 211 254 313 384
#     4  10  21  39  66  88 116 164 219 254 303 373
#
# _framework density 21.024049000000002
#
# number of rings (size 3 to 8) (size 9 to 14) (size 15 to 20)
#    0.000    2.500    1.667    2.000    9.333    0.000 
#    0.000    6.667    0.000    0.000    0.000    0.000 
#    0.000    0.000    0.000    0.000    0.000    0.000 
#
# Total GULP energy -594654.209500 kJ/mol
# GULP energy per Si atom -12388.629365 kJ/mol
# Density = 2.097620 g / cm^3
# Si number density = 21.024049 Si / 1000 Ang^3
#
#
#
# Elastic Constant Matrix: (Units=GPa)
#
#
# Indices 1 2 3 4 5 6 
#
# 1 121.3007 66.2647 33.6378 0.0000 0.0000 0.0000
# 2 66.2647 112.5616 28.7381 0.0000 0.0000 0.0000
# 3 33.6378 28.7381 45.1165 0.0000 0.0000 0.0000
# 4 0.0000 0.0000 0.0000 -28.7459 0.0000 0.0000
# 5 0.0000 0.0000 0.0000 0.0000 32.9129 0.0000
# 6 0.0000 0.0000 0.0000 0.0000 0.0000 37.8161
#
#
#
# Elastic Compliance Matrix: (Units=1/GPa)
#
#
# Indices 1 2 3 4 5 6 
#
# 1 0.013353 -0.006352 -0.005909 0.000000 0.000000 0.000000
# 2 -0.006352 0.013631 -0.003947 0.000000 0.000000 0.000000
# 3 -0.005909 -0.003947 0.029085 0.000000 0.000000 0.000000
# 4 0.000000 0.000000 0.000000 -0.034788 0.000000 0.000000
# 5 0.000000 0.000000 0.000000 0.000000 0.030383 0.000000
# 6 0.000000 0.000000 0.000000 0.000000 0.000000 0.026444
#
#
# Mechanical properties :
#
#
# Convention : Reuss Voigt Hill
#
# Bulk Modulus (GPa) = 42.27935 59.58443 50.93189
# Shear Modulus (GPa) = 42.22678 18.41916 30.32297
#
# Velocity S-wave (km/s) = 4.48649 2.96311 3.80188
# Velocity P-wave (km/s) = 6.85505 6.33319 6.59928
#
# Compressibility (1/GPa) = 0.02365221
#
# Stress axis : x y z
#
# Youngs Moduli (GPa) = 74.89135 73.36188 34.38230
#
# Poissons Ratio (x) = 0.46599 0.20318
# Poissons Ratio (y) = 0.47571 0.13570
# Poissons Ratio (z) = 0.44256 0.28954
#
# Static dielectric constant tensor:
#      x y z
#    x 5.226380 0.000000 0.000000 
#    y 0.000000 3.829850 0.000000 
#    z 0.000000 0.000000 3.474220 
# 
# 
# High freq. dielectric constant tensor:
#      x y z
#    x 1.838360 0.000000 0.000000 
#    y 0.000000 1.824930 0.000000 
#    z 0.000000 0.000000 1.788680 
# 
# From -- ./inp_files/19203.got.cif
#   From: 2010.03.12/outbox.cif.g09.slc.cpg/sg50_10_cif.got.tgz:19203.got - 2010.04.16 13:23:21.
