data_PCOD8205520
_publ_section_title
;
Structure prediction by ZEFSAII (Michael W. Deem and Ramdas Pophale) SiO2 
 PCOD8205520
Probable space group: P B A N
;
_chemical_formula_sum "Si O2"
_cell_formula_units_Z 58
_cell_length_a 11.544990
_cell_length_b 25.631061
_cell_length_c 9.528391
_cell_angle_alpha 90.000000
_cell_angle_beta 90.000000
_cell_angle_gamma 90.000000
_cell_volume 2819.549448
_symmetry_space_group_name_H-M "P B A N"
_symmetry_group_IT_number 50
_space_group.IT_coordinate_system_code '2'
_symmetry_cell_setting 'orthorhombic'
loop_
_space_group_symop_operation_xyz
x,y,z
1/2-x,1/2-y,z
x,1/2-y,-z
1/2-x,y,-z
-x,-y,-z
1/2+x,1/2+y,-z
-x,1/2+y,z
1/2+x,-y,z
loop_
_atom_site_type_symbol
_atom_site_label
_atom_site_fract_x
_atom_site_fract_y
_atom_site_fract_z
Si Si1 0.253544 0.600819 0.164036
Si Si2 0.750000 0.750000 0.000000
Si Si3 0.825929 0.662159 0.799526
Si Si4 0.503995 0.930438 0.877981
Si Si5 0.792119 0.307985 0.349388
Si Si6 0.024991 0.955955 0.799334
Si Si7 0.539053 0.807404 0.554571
Si Si8 0.651504 0.892441 0.377669
O O1 0.377667 0.575073 0.192217
O O2 0.236585 0.657814 0.228265
O O3 0.151858 0.566749 0.233158
O O4 0.250000 0.608259 0.000000
O O5 0.825698 0.790317 0.090648
O O6 0.920449 0.619827 0.842257
O O7 0.849546 0.690543 0.652584
O O8 0.707121 0.631430 0.765620
O O9 0.549127 0.982150 0.800080
O O10 0.512099 0.936823 0.045671
O O11 0.750000 0.250000 0.318727
O O12 0.750000 0.327508 0.500000
O O13 0.929045 0.317964 0.346937
O O14 0.927899 0.940432 0.681158
O O15 0.520482 0.750000 0.500000
O O16 0.558321 0.850268 0.433656
O O17 0.750000 0.907473 0.500000
#
# Coordination Sequence:
#
# PCOD8205520 Si02
#       8
#     8   2   8   8   8   8   8   8
#     4  10  22  42  63  95 130 166 213 261 324 388
#     4  12  24  40  62 100 126 172 216 262 338 382
#     4  11  23  41  63  93 130 161 214 268 317 386
#     4  10  22  41  65  96 126 168 210 268 318 388
#     4  11  21  37  62  92 122 167 213 253 317 382
#     4  10  22  40  68  92 127 171 213 260 327 386
#     4  11  21  39  62  87 121 167 210 262 319 384
#     4  10  23  41  65  93 126 169 219 271 323 386
#
# _framework density 20.570663
#
# number of rings (size 3 to 8) (size 9 to 14) (size 15 to 20)
#    0.000    1.517    2.759    2.483    1.931    2.207 
#    3.724    3.448    0.000    0.000    0.000    0.000 
#    0.000    0.000    0.000    0.000    0.000    0.000 
#
# Total GULP energy -718551.030305 kJ/mol
# GULP energy per Si atom -12388.810867 kJ/mol
# Density = 2.052384 g / cm^3
# Si number density = 20.570663 Si / 1000 Ang^3
#
#
#
# Elastic Constant Matrix: (Units=GPa)
#
#
# Indices 1 2 3 4 5 6 
#
# 1 113.5792 66.1163 32.4221 0.0000 0.0000 0.0000
# 2 66.1163 136.6739 51.3639 0.0000 0.0000 0.0000
# 3 32.4221 51.3639 50.3609 0.0000 0.0000 0.0000
# 4 0.0000 0.0000 0.0000 43.9527 0.0000 0.0000
# 5 0.0000 0.0000 0.0000 0.0000 20.7289 0.0000
# 6 0.0000 0.0000 0.0000 0.0000 0.0000 31.5029
#
#
#
# Elastic Compliance Matrix: (Units=1/GPa)
#
#
# Indices 1 2 3 4 5 6 
#
# 1 0.012540 -0.004917 -0.003058 0.000000 0.000000 0.000000
# 2 -0.004917 0.013792 -0.010901 0.000000 0.000000 0.000000
# 3 -0.003058 -0.010901 0.032944 0.000000 0.000000 0.000000
# 4 0.000000 0.000000 0.000000 0.022752 0.000000 0.000000
# 5 0.000000 0.000000 0.000000 0.000000 0.048242 0.000000
# 6 0.000000 0.000000 0.000000 0.000000 0.000000 0.031743
#
#
# Mechanical properties :
#
#
# Convention : Reuss Voigt Hill
#
# Bulk Modulus (GPa) = 46.46202 66.71317 56.58760
# Shear Modulus (GPa) = 24.16169 29.28435 26.72302
#
# Velocity S-wave (km/s) = 3.43092 3.77715 3.60819
# Velocity P-wave (km/s) = 6.19116 7.17803 6.70278
#
# Compressibility (1/GPa) = 0.02152295
#
# Stress axis : x y z
#
# Youngs Moduli (GPa) = 79.74791 72.50575 30.35449
#
# Poissons Ratio (x) = 0.35649 0.09283
# Poissons Ratio (y) = 0.39209 0.33091
# Poissons Ratio (z) = 0.24389 0.79041
#
# Static dielectric constant tensor:
#      x y z
#    x 3.704880 0.000000 0.000000 
#    y 0.000000 3.680300 0.000000 
#    z 0.000000 0.000000 3.832940 
# 
# 
# High freq. dielectric constant tensor:
#      x y z
#    x 1.812540 0.000000 0.000000 
#    y 0.000000 1.806220 0.000000 
#    z 0.000000 0.000000 1.799610 
# 
# From -- ./inp_files/11753.got.cif
#   From: 2010.03.12/outbox.cif.g09.slc.cpg/sg50_6_cif.got.tgz:11753.got - 2010.04.16 13:23:21.
