data_PCOD8205004
_publ_section_title
;
Structure prediction by ZEFSAII (Michael W. Deem and Ramdas Pophale) SiO2 
 PCOD8205004
Probable space group: P B A N
;
_chemical_formula_sum "Si O2"
_cell_formula_units_Z 40
_cell_length_a 8.583040
_cell_length_b 12.180983
_cell_length_c 20.956766
_cell_angle_alpha 90.000000
_cell_angle_beta 90.000000
_cell_angle_gamma 90.000000
_cell_volume 2191.027042
_symmetry_space_group_name_H-M "P B A N"
_symmetry_group_IT_number 50
_space_group.IT_coordinate_system_code '2'
_symmetry_cell_setting 'orthorhombic'
loop_
_space_group_symop_operation_xyz
x,y,z
1/2-x,1/2-y,z
x,1/2-y,-z
1/2-x,y,-z
-x,-y,-z
1/2+x,1/2+y,-z
-x,1/2+y,z
1/2+x,-y,z
loop_
_atom_site_type_symbol
_atom_site_label
_atom_site_fract_x
_atom_site_fract_y
_atom_site_fract_z
Si Si1 0.734215 0.379012 0.427725
Si Si2 0.238578 0.368465 0.278092
Si Si3 0.750000 0.750000 0.844238
Si Si4 0.985288 0.507194 0.348202
Si Si5 0.750000 0.036727 0.000000
Si Si6 0.956655 0.654260 0.050273
O O1 0.750000 0.250000 0.424203
O O2 0.750000 0.421782 0.500000
O O3 0.567806 0.412879 0.398864
O O4 0.868706 0.431748 0.386506
O O5 0.250000 0.250000 0.311734
O O6 0.206938 0.353454 0.201782
O O7 0.101156 0.431415 0.310614
O O8 0.402058 0.426721 0.291667
O O9 0.903943 0.787013 0.883961
O O10 0.861875 0.115327 0.043867
O O11 0.645885 0.956501 0.043544
O O12 0.919336 0.750000 0.000000
#
# Coordination Sequence:
#
# PCOD8205004 Si02
#       6
#     8   8   4   8   4   8
#     4  10  20  33  57  85 111 146 192 243 285 339
#     4   9  21  36  55  80 111 158 182 236 276 331
#     4  10  21  38  60  80 123 140 196 236 276 340
#     4  10  19  37  57  77 117 152 192 227 295 337
#     4  10  22  34  68  82 114 158 178 212 334 318
#     4  11  20  41  59  89 118 148 183 249 282 344
#
# _framework density 18.256277999999998
#
# number of rings (size 3 to 8) (size 9 to 14) (size 15 to 20)
#    0.600    1.400    2.000    2.100    0.000    1.600 
#    0.000    0.000    8.800    9.600    0.000    0.000 
#    0.000    0.000    0.000    0.000    0.000    0.000 
#
# Total GULP energy -495549.458574 kJ/mol
# GULP energy per Si atom -12388.736464 kJ/mol
# Density = 1.821473 g / cm^3
# Si number density = 18.256278 Si / 1000 Ang^3
#
#
#
# Elastic Constant Matrix: (Units=GPa)
#
#
# Indices 1 2 3 4 5 6 
#
# 1 110.9237 43.4416 45.8407 0.0000 0.0000 0.0000
# 2 43.4416 91.4028 45.9906 0.0000 0.0000 0.0000
# 3 45.8407 45.9906 119.6399 0.0000 0.0000 0.0000
# 4 0.0000 0.0000 0.0000 86.5348 0.0000 0.0000
# 5 0.0000 0.0000 0.0000 0.0000 28.2958 0.0000
# 6 0.0000 0.0000 0.0000 0.0000 0.0000 52.7993
#
#
#
# Elastic Compliance Matrix: (Units=1/GPa)
#
#
# Indices 1 2 3 4 5 6 
#
# 1 0.011860 -0.004154 -0.002948 0.000000 0.000000 0.000000
# 2 -0.004154 0.015019 -0.004182 0.000000 0.000000 0.000000
# 3 -0.002948 -0.004182 0.011095 0.000000 0.000000 0.000000
# 4 0.000000 0.000000 0.000000 0.011556 0.000000 0.000000
# 5 0.000000 0.000000 0.000000 0.000000 0.035341 0.000000
# 6 0.000000 0.000000 0.000000 0.000000 0.000000 0.018940
#
#
# Mechanical properties :
#
#
# Convention : Reuss Voigt Hill
#
# Bulk Modulus (GPa) = 64.90110 65.83468 65.36789
# Shear Modulus (GPa) = 38.01900 45.97221 41.99560
#
# Velocity S-wave (km/s) = 4.56841 5.02357 4.80139
# Velocity P-wave (km/s) = 7.96582 8.35392 8.16218
#
# Compressibility (1/GPa) = 0.01540806
#
# Stress axis : x y z
#
# Youngs Moduli (GPa) = 84.31669 66.58266 90.12801
#
# Poissons Ratio (x) = 0.27657 0.26565
# Poissons Ratio (y) = 0.35023 0.37691
# Poissons Ratio (z) = 0.24853 0.27844
#
# Static dielectric constant tensor:
#      x y z
#    x 3.512280 0.000000 0.000000 
#    y 0.000000 3.530280 0.000000 
#    z 0.000000 0.000000 3.261830 
# 
# 
# High freq. dielectric constant tensor:
#      x y z
#    x 1.712300 0.000000 0.000000 
#    y 0.000000 1.720140 0.000000 
#    z 0.000000 0.000000 1.695210 
# 
# From -- ./inp_files/30570.got.cif
#   From: 2010.03.12/outbox.cif.g09.slc.cpg/sg50_16_cif.got.tgz:30570.got - 2010.04.16 13:23:21.
