data_PCOD8205207
_publ_section_title
;
Structure prediction by ZEFSAII (Michael W. Deem and Ramdas Pophale) SiO2 
 PCOD8205207
Probable space group: P B A N
;
_chemical_formula_sum "Si O2"
_cell_formula_units_Z 64
_cell_length_a 8.613305
_cell_length_b 20.571713
_cell_length_c 17.103917
_cell_angle_alpha 90.000000
_cell_angle_beta 90.000000
_cell_angle_gamma 90.000000
_cell_volume 3030.650552
_symmetry_space_group_name_H-M "P B A N"
_symmetry_group_IT_number 50
_space_group.IT_coordinate_system_code '2'
_symmetry_cell_setting 'orthorhombic'
loop_
_space_group_symop_operation_xyz
x,y,z
1/2-x,1/2-y,z
x,1/2-y,-z
1/2-x,y,-z
-x,-y,-z
1/2+x,1/2+y,-z
-x,1/2+y,z
1/2+x,-y,z
loop_
_atom_site_type_symbol
_atom_site_label
_atom_site_fract_x
_atom_site_fract_y
_atom_site_fract_z
Si Si1 0.583174 0.087452 0.140990
Si Si2 0.346310 0.422651 0.240292
Si Si3 0.281212 0.022639 0.091588
Si Si4 0.139204 0.833071 0.282767
Si Si5 0.572449 0.230066 0.080960
Si Si6 0.530407 0.295365 0.232966
Si Si7 0.070467 0.485468 0.326994
Si Si8 0.300740 0.578583 0.411544
O O1 0.460787 0.034477 0.110173
O O2 0.565822 0.104903 0.234819
O O3 0.558905 0.153139 0.092832
O O4 0.745705 0.051791 0.119563
O O5 0.314816 0.427261 0.147258
O O6 0.413038 0.351184 0.261818
O O7 0.187977 0.432547 0.289756
O O8 0.466188 0.480571 0.260262
O O9 0.250000 0.034584 0.000000
O O10 0.292044 0.819832 0.230795
O O11 0.027375 0.769824 0.287359
O O12 0.183522 0.850637 0.371233
O O13 0.750000 0.250000 0.080014
O O14 0.482137 0.270642 0.147252
O O15 0.490863 0.250000 0.000000
O O16 0.165145 0.541944 0.367907
O O17 0.967443 0.455336 0.397520
O O18 0.250000 0.587956 0.500000
#
# Coordination Sequence:
#
# PCOD8205207 Si02
#       8
#     8   8   8   8   8   8   8   8
#     4  11  24  42  60  89 124 165 215 261 331 381
#     4  11  22  40  65  88 130 178 214 265 324 377
#     4  12  27  38  58  93 131 165 206 278 329 384
#     4  10  20  39  63  91 122 157 228 252 307 400
#     4  10  21  37  65  87 114 166 222 273 314 380
#     4  10  20  38  63  86 118 170 217 265 305 378
#     4  10  22  39  63  97 130 171 215 244 316 407
#     4  11  21  38  65  99 135 159 198 262 315 378
#
# _framework density 21.117577000000001
#
# number of rings (size 3 to 8) (size 9 to 14) (size 15 to 20)
#    0.000    1.375    3.750    3.750    5.250    0.000 
#    0.000    6.875    0.000    0.000    0.000    0.000 
#   18.750    0.000    0.000    0.000    0.000    0.000 
#
# Total GULP energy -793167.290171 kJ/mol
# GULP energy per Si atom -12393.238909 kJ/mol
# Density = 2.106951 g / cm^3
# Si number density = 21.117577 Si / 1000 Ang^3
#
#
#
# Elastic Constant Matrix: (Units=GPa)
#
#
# Indices 1 2 3 4 5 6 
#
# 1 82.2744 50.4502 36.9640 0.0000 0.0000 0.0000
# 2 50.4502 138.0611 52.6379 0.0000 0.0000 0.0000
# 3 36.9640 52.6379 144.5993 0.0000 0.0000 0.0000
# 4 0.0000 0.0000 0.0000 19.4554 0.0000 0.0000
# 5 0.0000 0.0000 0.0000 0.0000 27.1383 0.0000
# 6 0.0000 0.0000 0.0000 0.0000 0.0000 28.5842
#
#
#
# Elastic Compliance Matrix: (Units=1/GPa)
#
#
# Indices 1 2 3 4 5 6 
#
# 1 0.016309 -0.005074 -0.002322 0.000000 0.000000 0.000000
# 2 -0.005074 0.009989 -0.002339 0.000000 0.000000 0.000000
# 3 -0.002322 -0.002339 0.008361 0.000000 0.000000 0.000000
# 4 0.000000 0.000000 0.000000 0.051400 0.000000 0.000000
# 5 0.000000 0.000000 0.000000 0.000000 0.036848 0.000000
# 6 0.000000 0.000000 0.000000 0.000000 0.000000 0.034984
#
#
# Mechanical properties :
#
#
# Convention : Reuss Voigt Hill
#
# Bulk Modulus (GPa) = 65.84053 71.67100 68.75577
# Shear Modulus (GPa) = 27.40846 30.02776 28.71811
#
# Velocity S-wave (km/s) = 3.60654 3.77494 3.69170
# Velocity P-wave (km/s) = 6.97055 7.28100 7.12747
#
# Compressibility (1/GPa) = 0.01518821
#
# Stress axis : x y z
#
# Youngs Moduli (GPa) = 61.31495 100.10687 119.60664
#
# Poissons Ratio (x) = 0.50799 0.27771
# Poissons Ratio (y) = 0.31114 0.27978
# Poissons Ratio (z) = 0.14237 0.23417
#
# Static dielectric constant tensor:
#      x y z
#    x 3.812490 0.000000 0.000000 
#    y 0.000000 3.928960 0.000000 
#    z 0.000000 0.000000 3.845390 
# 
# 
# High freq. dielectric constant tensor:
#      x y z
#    x 1.819730 0.000000 0.000000 
#    y 0.000000 1.835900 0.000000 
#    z 0.000000 0.000000 1.807190 
# 
# From -- ./inp_files/28955.got.cif
#   From: 2010.03.12/outbox.cif.g09.slc.cpg/sg50_15_cif.got.tgz:28955.got - 2010.04.16 13:23:21.
