data_PCOD8205991
_publ_section_title
;
Structure prediction by ZEFSAII (Michael W. Deem and Ramdas Pophale) SiO2 
 PCOD8205991
Probable space group: P M M A
;
_chemical_formula_sum "Si O2"
_cell_formula_units_Z 24
_cell_length_a 16.290375
_cell_length_b 7.898894
_cell_length_c 10.227572
_cell_angle_alpha 90.000000
_cell_angle_beta 90.000000
_cell_angle_gamma 90.000000
_cell_volume 1316.042496
_symmetry_space_group_name_H-M "P M M A"
_symmetry_group_IT_number 51
_symmetry_cell_setting 'orthorhombic'
loop_
_space_group_symop_operation_xyz
x,y,z
1/2-x,-y,z
1/2+x,-y,-z
-x,y,-z
-x,-y,-z
1/2+x,y,-z
1/2-x,y,z
x,-y,z
loop_
_atom_site_type_symbol
_atom_site_label
_atom_site_fract_x
_atom_site_fract_y
_atom_site_fract_z
Si Si1 0.045974 0.192924 0.135459
Si Si2 0.154690 0.500000 0.205288
Si Si3 0.900437 0.500000 0.499755
Si Si4 0.436384 0.182008 0.617380
O O1 0.118891 0.328865 0.141628
O O2 0.982633 0.234700 0.250764
O O3 0.080123 0.000000 0.149515
O O4 0.000000 0.217156 0.000000
O O5 0.250000 0.500000 0.173814
O O6 0.139763 0.500000 0.359636
O O7 0.872045 0.669142 0.420923
O O8 0.000000 0.500000 0.500000
O O9 0.500000 0.162509 0.500000
O O10 0.391122 0.000000 0.636447
#
# Coordination Sequence:
#
# PCOD8205991 Si02
#       4
#     8   4   4   8
#     4  10  20  35  56  83 106 139 189 231 266 318
#     4  12  23  34  52  84 117 144 175 222 288 336
#     4  10  16  30  51  74 104 140 174 219 251 308
#     4   9  15  27  52  78 101 128 174 223 255 296
#
# _framework density 18.236495000000001
#
# number of rings (size 3 to 8) (size 9 to 14) (size 15 to 20)
#    0.000    2.000    6.667    0.500    0.000    0.667 
#    0.000    0.000    0.000    4.000    0.000    4.667 
#    0.000    0.000    0.000    0.000    0.000    0.000 
#
# Total GULP energy -297346.683316 kJ/mol
# GULP energy per Si atom -12389.445138 kJ/mol
# Density = 1.819499 g / cm^3
# Si number density = 18.236495 Si / 1000 Ang^3
#
#
#
# Elastic Constant Matrix: (Units=GPa)
#
#
# Indices 1 2 3 4 5 6 
#
# 1 52.6563 57.6156 31.5597 0.0000 0.0000 0.0000
# 2 57.6156 190.8833 37.8931 0.0000 0.0000 0.0000
# 3 31.5597 37.8931 120.1471 0.0000 0.0000 0.0000
# 4 0.0000 0.0000 0.0000 31.7794 0.0000 0.0000
# 5 0.0000 0.0000 0.0000 0.0000 12.3097 0.0000
# 6 0.0000 0.0000 0.0000 0.0000 0.0000 10.0465
#
#
#
# Elastic Compliance Matrix: (Units=1/GPa)
#
#
# Indices 1 2 3 4 5 6 
#
# 1 0.031575 -0.008411 -0.005641 0.000000 0.000000 0.000000
# 2 -0.008411 0.007829 -0.000260 0.000000 0.000000 0.000000
# 3 -0.005641 -0.000260 0.009887 0.000000 0.000000 0.000000
# 4 0.000000 0.000000 0.000000 0.031467 0.000000 0.000000
# 5 0.000000 0.000000 0.000000 0.000000 0.081237 0.000000
# 6 0.000000 0.000000 0.000000 0.000000 0.000000 0.099537
#
#
# Mechanical properties :
#
#
# Convention : Reuss Voigt Hill
#
# Bulk Modulus (GPa) = 48.38587 68.64706 58.51647
# Shear Modulus (GPa) = 16.83247 26.60166 21.71706
#
# Velocity S-wave (km/s) = 3.04140 3.82344 3.45462
# Velocity P-wave (km/s) = 6.23887 7.56413 6.93324
#
# Compressibility (1/GPa) = 0.02066719
#
# Stress axis : x y z
#
# Youngs Moduli (GPa) = 31.67060 127.72956 101.14328
#
# Poissons Ratio (x) = 1.07428 0.57059
# Poissons Ratio (y) = 0.26637 0.02629
# Poissons Ratio (z) = 0.17867 0.03320
#
# Static dielectric constant tensor:
#      x y z
#    x 2.688880 0.000000 0.000000 
#    y 0.000000 5.677100 0.000000 
#    z 0.000000 0.000000 3.275660 
# 
# 
# High freq. dielectric constant tensor:
#      x y z
#    x 1.619040 0.000000 0.000000 
#    y 0.000000 1.749840 0.000000 
#    z 0.000000 0.000000 1.717150 
# 
# From -- ./inp_files/8897.got.cif
#   From: 2010.03.12/outbox.cif.g09.slc.cpg/sg51_5_cif.got.tgz:8897.got - 2010.04.16 13:43:02.
