data_PCOD8205819
_publ_section_title
;
Structure prediction by ZEFSAII (Michael W. Deem and Ramdas Pophale) SiO2 
 PCOD8205819
Probable space group: P B A N
;
_chemical_formula_sum "Si O2"
_cell_formula_units_Z 64
_cell_length_a 14.458803
_cell_length_b 16.660998
_cell_length_c 11.781602
_cell_angle_alpha 90.000000
_cell_angle_beta 90.000000
_cell_angle_gamma 90.000000
_cell_volume 2838.165394
_symmetry_space_group_name_H-M "P B A N"
_symmetry_group_IT_number 50
_space_group.IT_coordinate_system_code '2'
_symmetry_cell_setting 'orthorhombic'
loop_
_space_group_symop_operation_xyz
x,y,z
1/2-x,1/2-y,z
x,1/2-y,-z
1/2-x,y,-z
-x,-y,-z
1/2+x,1/2+y,-z
-x,1/2+y,z
1/2+x,-y,z
loop_
_atom_site_type_symbol
_atom_site_label
_atom_site_fract_x
_atom_site_fract_y
_atom_site_fract_z
Si Si1 0.983755 0.644634 0.097768
Si Si2 0.389775 0.591664 0.727124
Si Si3 0.467462 0.164104 0.561370
Si Si4 0.705748 0.930910 0.115026
Si Si5 0.519113 0.173460 0.154516
Si Si6 0.217744 0.883405 0.125783
Si Si7 0.408605 0.086533 0.355525
Si Si8 0.768840 0.660536 0.323197
O O1 0.884898 0.619185 0.139823
O O2 0.055569 0.582677 0.154097
O O3 0.998703 0.732717 0.148539
O O4 0.991470 0.633213 0.964077
O O5 0.444067 0.653952 0.644794
O O6 0.290831 0.625472 0.770463
O O7 0.384536 0.505619 0.668110
O O8 0.472090 0.250000 0.500000
O O9 0.475560 0.094911 0.465019
O O10 0.372064 0.150764 0.630629
O O11 0.763737 0.902482 0.223580
O O12 0.687914 0.024773 0.110904
O O13 0.750000 0.898856 0.000000
O O14 0.629518 0.165542 0.170039
O O15 0.460132 0.130577 0.251379
O O16 0.250000 0.851307 0.000000
O O17 0.317009 0.135070 0.404364
O O18 0.750000 0.750000 0.280285
#
# Coordination Sequence:
#
# PCOD8205819 Si02
#       8
#     8   8   8   8   8   8   8   8
#     4  11  23  43  68 101 141 191 232 298 357 429
#     4  12  25  46  71 105 143 187 247 296 357 422
#     4  12  26  48  74 103 142 191 243 302 357 425
#     4  11  23  41  68 110 152 179 223 298 367 432
#     4  11  25  43  69 102 144 188 246 292 358 429
#     4  11  24  45  71 104 145 195 237 289 361 436
#     4  12  25  42  70 107 141 186 238 301 357 428
#     4  12  23  42  72 106 139 187 237 288 362 437
#
# _framework density 22.549776999999999
#
# number of rings (size 3 to 8) (size 9 to 14) (size 15 to 20)
#    0.000    0.500    5.000    3.750    1.750    2.750 
#    0.000    0.625    0.000    0.750    0.000    0.000 
#    0.000    0.000    0.000    0.000    0.000    0.000 
#
# Total GULP energy -793121.020515 kJ/mol
# GULP energy per Si atom -12392.515946 kJ/mol
# Density = 2.249845 g / cm^3
# Si number density = 22.549777 Si / 1000 Ang^3
#
#
#
# Elastic Constant Matrix: (Units=GPa)
#
#
# Indices 1 2 3 4 5 6 
#
# 1 126.1943 30.0119 27.5579 0.0000 0.0000 0.0000
# 2 30.0119 50.9473 17.2433 0.0000 0.0000 0.0000
# 3 27.5579 17.2433 103.8861 0.0000 0.0000 0.0000
# 4 0.0000 0.0000 0.0000 37.3386 0.0000 0.0000
# 5 0.0000 0.0000 0.0000 0.0000 37.1092 0.0000
# 6 0.0000 0.0000 0.0000 0.0000 0.0000 37.7616
#
#
#
# Elastic Compliance Matrix: (Units=1/GPa)
#
#
# Indices 1 2 3 4 5 6 
#
# 1 0.009485 -0.005018 -0.001683 0.000000 0.000000 0.000000
# 2 -0.005018 0.023451 -0.002561 0.000000 0.000000 0.000000
# 3 -0.001683 -0.002561 0.010498 0.000000 0.000000 0.000000
# 4 0.000000 0.000000 0.000000 0.026782 0.000000 0.000000
# 5 0.000000 0.000000 0.000000 0.000000 0.026947 0.000000
# 6 0.000000 0.000000 0.000000 0.000000 0.000000 0.026482
#
#
# Mechanical properties :
#
#
# Convention : Reuss Voigt Hill
#
# Bulk Modulus (GPa) = 40.14645 47.85042 43.99843
# Shear Modulus (GPa) = 33.22857 36.18952 34.70904
#
# Velocity S-wave (km/s) = 3.84287 4.01043 3.92754
# Velocity P-wave (km/s) = 6.12636 6.53534 6.33416
#
# Compressibility (1/GPa) = 0.02490881
#
# Stress axis : x y z
#
# Youngs Moduli (GPa) = 105.42706 42.64230 95.25997
#
# Poissons Ratio (x) = 0.21397 0.16035
# Poissons Ratio (y) = 0.52901 0.24399
# Poissons Ratio (z) = 0.17746 0.10922
#
# Static dielectric constant tensor:
#      x y z
#    x 2.597760 0.000000 0.000000 
#    y 0.000000 3.907370 0.000000 
#    z 0.000000 0.000000 4.342790 
# 
# 
# High freq. dielectric constant tensor:
#      x y z
#    x 1.897260 0.000000 0.000000 
#    y 0.000000 1.884440 0.000000 
#    z 0.000000 0.000000 1.902190 
# 
# From -- ./inp_files/21361.got.cif
#   From: 2010.03.12/outbox.cif.g09.slc.cpg/sg50_11_cif.got.tgz:21361.got - 2010.04.16 13:23:21.
