data_PCOD8205441
_publ_section_title
;
Structure prediction by ZEFSAII (Michael W. Deem and Ramdas Pophale) SiO2 
 PCOD8205441
Probable space group: P B A N
;
_chemical_formula_sum "Si O2"
_cell_formula_units_Z 36
_cell_length_a 12.767568
_cell_length_b 5.139124
_cell_length_c 23.067466
_cell_angle_alpha 90.000000
_cell_angle_beta 90.000000
_cell_angle_gamma 90.000000
_cell_volume 1513.551370
_symmetry_space_group_name_H-M "P B A N"
_symmetry_group_IT_number 50
_space_group.IT_coordinate_system_code '2'
_symmetry_cell_setting 'orthorhombic'
loop_
_space_group_symop_operation_xyz
x,y,z
1/2-x,1/2-y,z
x,1/2-y,-z
1/2-x,y,-z
-x,-y,-z
1/2+x,1/2+y,-z
-x,1/2+y,z
1/2+x,-y,z
loop_
_atom_site_type_symbol
_atom_site_label
_atom_site_fract_x
_atom_site_fract_y
_atom_site_fract_z
Si Si1 0.935003 0.421411 0.208263
Si Si2 0.183980 0.504116 0.679465
Si Si3 0.750000 0.250000 0.500000
Si Si4 0.250000 0.750000 0.000000
Si Si5 0.930017 0.055822 0.924102
Si Si6 0.065143 0.562566 0.570246
O O1 0.842272 0.485818 0.252375
O O2 0.893827 0.449853 0.142783
O O3 0.028168 0.626708 0.219479
O O4 0.250000 0.750000 0.660378
O O5 0.080327 0.517234 0.639502
O O6 0.250000 0.250000 0.665302
O O7 0.821168 0.440600 0.460278
O O8 0.176926 0.564409 0.960714
O O9 0.003426 0.300956 0.939576
O O10 0.989233 0.331365 0.550688
#
# Coordination Sequence:
#
# PCOD8205441 Si02
#       6
#     8   8   2   2   8   8
#     4  10  21  42  65  94 134 176 219 279 348 412
#     4  12  24  42  70 104 140 175 229 289 341 422
#     4  12  28  50  74 108 144 186 248 296 332 416
#     4  12  24  42  70  96 132 190 228 288 344 408
#     4  10  24  43  65  97 135 174 229 284 339 411
#     4  12  27  48  74 104 141 189 231 286 356 410
#
# _framework density 23.785118000000001
#
# number of rings (size 3 to 8) (size 9 to 14) (size 15 to 20)
#    0.000    0.889    1.111    5.333    1.556    2.667 
#    0.000    0.000    0.000    0.000    0.000    0.000 
#    0.000    0.000    0.000    0.000    0.000    0.000 
#
# Total GULP energy -446591.714555 kJ/mol
# GULP energy per Si atom -12405.325404 kJ/mol
# Density = 2.373098 g / cm^3
# Si number density = 23.785118 Si / 1000 Ang^3
#
#
#
# Elastic Constant Matrix: (Units=GPa)
#
#
# Indices 1 2 3 4 5 6 
#
# 1 114.8709 41.8460 68.3259 0.0000 0.0000 0.0000
# 2 41.8460 147.9226 40.8238 0.0000 0.0000 0.0000
# 3 68.3259 40.8238 115.4844 0.0000 0.0000 0.0000
# 4 0.0000 0.0000 0.0000 24.2934 0.0000 0.0000
# 5 0.0000 0.0000 0.0000 0.0000 55.6417 0.0000
# 6 0.0000 0.0000 0.0000 0.0000 0.0000 34.5628
#
#
#
# Elastic Compliance Matrix: (Units=1/GPa)
#
#
# Indices 1 2 3 4 5 6 
#
# 1 0.013869 -0.001838 -0.007556 0.000000 0.000000 0.000000
# 2 -0.001838 0.007735 -0.001647 0.000000 0.000000 0.000000
# 3 -0.007556 -0.001647 0.013712 0.000000 0.000000 0.000000
# 4 0.000000 0.000000 0.000000 0.041163 0.000000 0.000000
# 5 0.000000 0.000000 0.000000 0.000000 0.017972 0.000000
# 6 0.000000 0.000000 0.000000 0.000000 0.000000 0.028933
#
#
# Mechanical properties :
#
#
# Convention : Reuss Voigt Hill
#
# Bulk Modulus (GPa) = 75.56187 75.58545 75.57366
# Shear Modulus (GPa) = 33.36060 38.05172 35.70616
#
# Velocity S-wave (km/s) = 3.74917 4.00410 3.87873
# Velocity P-wave (km/s) = 7.11191 7.29552 7.20430
#
# Compressibility (1/GPa) = 0.01323419
#
# Stress axis : x y z
#
# Youngs Moduli (GPa) = 72.10117 129.28649 72.93023
#
# Poissons Ratio (x) = 0.23766 0.55106
# Poissons Ratio (y) = 0.13254 0.12009
# Poissons Ratio (z) = 0.54479 0.21289
#
# Static dielectric constant tensor:
#      x y z
#    x 4.034610 0.000000 0.000000 
#    y 0.000000 4.284930 0.000000 
#    z 0.000000 0.000000 4.591060 
# 
# 
# High freq. dielectric constant tensor:
#      x y z
#    x 1.927600 0.000000 0.000000 
#    y 0.000000 1.947540 0.000000 
#    z 0.000000 0.000000 1.974620 
# 
# From -- ./inp_files/31659.got.cif
#   From: 2010.03.12/outbox.cif.g09.slc.cpg/sg50_16_cif.got.tgz:31659.got - 2010.04.16 13:23:21.
