data_PCOD8205226
_publ_section_title
;
Structure prediction by ZEFSAII (Michael W. Deem and Ramdas Pophale) SiO2 
 PCOD8205226
Probable space group: P B A N
;
_chemical_formula_sum "Si O2"
_cell_formula_units_Z 32
_cell_length_a 15.590692
_cell_length_b 7.714265
_cell_length_c 12.457892
_cell_angle_alpha 90.000000
_cell_angle_beta 90.000000
_cell_angle_gamma 90.000000
_cell_volume 1498.319760
_symmetry_space_group_name_H-M "P B A N"
_symmetry_group_IT_number 50
_space_group.IT_coordinate_system_code '2'
_symmetry_cell_setting 'orthorhombic'
loop_
_space_group_symop_operation_xyz
x,y,z
1/2-x,1/2-y,z
x,1/2-y,-z
1/2-x,y,-z
-x,-y,-z
1/2+x,1/2+y,-z
-x,1/2+y,z
1/2+x,-y,z
loop_
_atom_site_type_symbol
_atom_site_label
_atom_site_fract_x
_atom_site_fract_y
_atom_site_fract_z
Si Si1 0.539271 0.250000 0.500000
Si Si2 0.894297 0.552431 0.621244
Si Si3 0.250000 0.750000 0.000000
Si Si4 0.250000 0.250000 0.500000
Si Si5 0.431549 0.361715 0.856883
Si Si6 0.892420 0.480295 0.079046
O O1 0.602784 0.359830 0.425449
O O2 0.480560 0.144569 0.418266
O O3 0.807702 0.637285 0.578992
O O4 0.895928 0.551745 0.749365
O O5 0.304434 0.628289 0.082285
O O6 0.535351 0.357620 0.865889
O O7 0.391545 0.167902 0.862745
O O8 0.404614 0.488202 0.952511
#
# Coordination Sequence:
#
# PCOD8205226 Si02
#       6
#     4   8   2   2   8   8
#     4   9  20  36  60  87 118 162 210 249 312 396
#     4  10  20  39  62  89 122 161 207 265 320 377
#     4  12  24  38  52  88 136 158 208 284 316 350
#     4  10  24  38  56  92 128 152 212 278 312 360
#     4  10  20  40  64  84 120 173 212 250 321 399
#     4  10  22  37  59  91 123 162 215 263 314 394
#
# _framework density 21.357258000000002
#
# number of rings (size 3 to 8) (size 9 to 14) (size 15 to 20)
#    0.000    2.000    0.000    4.500    0.000    4.500 
#    0.000    2.500    0.000    0.000    0.000    0.000 
#    0.000    0.000    0.000    0.000    0.000    0.000 
#
# Total GULP energy -396657.545381 kJ/mol
# GULP energy per Si atom -12395.548293 kJ/mol
# Density = 2.130865 g / cm^3
# Si number density = 21.357258 Si / 1000 Ang^3
#
#
#
# Elastic Constant Matrix: (Units=GPa)
#
#
# Indices 1 2 3 4 5 6 
#
# 1 129.7571 58.4578 47.1847 0.0000 0.0000 0.0000
# 2 58.4578 129.3176 56.0480 0.0000 0.0000 0.0000
# 3 47.1847 56.0480 155.6117 0.0000 0.0000 0.0000
# 4 0.0000 0.0000 0.0000 16.6561 0.0000 0.0000
# 5 0.0000 0.0000 0.0000 0.0000 14.4549 0.0000
# 6 0.0000 0.0000 0.0000 0.0000 0.0000 31.1753
#
#
#
# Elastic Compliance Matrix: (Units=1/GPa)
#
#
# Indices 1 2 3 4 5 6 
#
# 1 0.010030 -0.003811 -0.001669 0.000000 0.000000 0.000000
# 2 -0.003811 0.010611 -0.002666 0.000000 0.000000 0.000000
# 3 -0.001669 -0.002666 0.007893 0.000000 0.000000 0.000000
# 4 0.000000 0.000000 0.000000 0.060038 0.000000 0.000000
# 5 0.000000 0.000000 0.000000 0.000000 0.069180 0.000000
# 6 0.000000 0.000000 0.000000 0.000000 0.000000 0.032077
#
#
# Mechanical properties :
#
#
# Convention : Reuss Voigt Hill
#
# Bulk Modulus (GPa) = 81.68569 82.00750 81.84660
# Shear Modulus (GPa) = 23.78657 29.32367 26.55512
#
# Velocity S-wave (km/s) = 3.34090 3.70943 3.52998
# Velocity P-wave (km/s) = 7.29469 7.53842 7.41756
#
# Compressibility (1/GPa) = 0.01224205
#
# Stress axis : x y z
#
# Youngs Moduli (GPa) = 99.69636 94.23921 126.70012
#
# Poissons Ratio (x) = 0.35914 0.21144
# Poissons Ratio (y) = 0.37994 0.33783
# Poissons Ratio (z) = 0.16637 0.25128
#
# Static dielectric constant tensor:
#      x y z
#    x 3.810410 0.000000 0.000000 
#    y 0.000000 3.954260 0.000000 
#    z 0.000000 0.000000 3.629720 
# 
# 
# High freq. dielectric constant tensor:
#      x y z
#    x 1.824320 0.000000 0.000000 
#    y 0.000000 1.849270 0.000000 
#    z 0.000000 0.000000 1.827490 
# 
# From -- ./inp_files/20815.got.cif
#   From: 2010.03.12/outbox.cif.g09.slc.cpg/sg50_11_cif.got.tgz:20815.got - 2010.04.16 13:23:21.
