data_PCOD8205852
_publ_section_title
;
Structure prediction by ZEFSAII (Michael W. Deem and Ramdas Pophale) SiO2 
 PCOD8205852
Probable space group: P B A N
;
_chemical_formula_sum "Si O2"
_cell_formula_units_Z 32
_cell_length_a 9.806769
_cell_length_b 9.928862
_cell_length_c 15.861825
_cell_angle_alpha 90.000000
_cell_angle_beta 90.000000
_cell_angle_gamma 90.000000
_cell_volume 1544.466790
_symmetry_space_group_name_H-M "P B A N"
_symmetry_group_IT_number 50
_space_group.IT_coordinate_system_code '2'
_symmetry_cell_setting 'orthorhombic'
loop_
_space_group_symop_operation_xyz
x,y,z
1/2-x,1/2-y,z
x,1/2-y,-z
1/2-x,y,-z
-x,-y,-z
1/2+x,1/2+y,-z
-x,1/2+y,z
1/2+x,-y,z
loop_
_atom_site_type_symbol
_atom_site_label
_atom_site_fract_x
_atom_site_fract_y
_atom_site_fract_z
Si Si1 0.465574 0.521016 0.691018
Si Si2 0.598442 0.278673 0.778059
Si Si3 0.901152 0.113417 0.965066
Si Si4 0.278551 0.405318 0.404224
O O1 0.516874 0.374691 0.716800
O O2 0.470355 0.629202 0.769485
O O3 0.312878 0.500728 0.656027
O O4 0.562816 0.570903 0.615857
O O5 0.750000 0.250000 0.746500
O O6 0.600746 0.359708 0.865859
O O7 0.963837 0.250000 0.000000
O O8 0.750000 0.083867 0.000000
O O9 0.000000 0.000000 0.000000
O O10 0.250000 0.250000 0.386937
O O11 0.250000 0.446264 0.500000
#
# Coordination Sequence:
#
# PCOD8205852 Si02
#       4
#     8   8   8   8
#     4  12  24  43  67 100 130 175 225 272 337 394
#     4  12  24  42  69  96 135 170 220 278 328 396
#     4  11  24  45  67  97 133 172 215 267 330 393
#     4  11  24  43  65  97 137 176 223 280 334 396
#
# _framework density 20.719124999999998
#
# number of rings (size 3 to 8) (size 9 to 14) (size 15 to 20)
#    0.000    0.500    7.500    2.250    0.000    0.500 
#    0.000    1.250    0.000    0.000    0.000    0.000 
#    0.000    0.000    0.000    0.000    0.000    0.000 
#
# Total GULP energy -396505.016112 kJ/mol
# GULP energy per Si atom -12390.781754 kJ/mol
# Density = 2.067197 g / cm^3
# Si number density = 20.719125 Si / 1000 Ang^3
#
#
#
# Elastic Constant Matrix: (Units=GPa)
#
#
# Indices 1 2 3 4 5 6 
#
# 1 99.5665 50.7131 30.0172 0.0000 0.0000 0.0000
# 2 50.7131 143.8781 38.0235 0.0000 0.0000 0.0000
# 3 30.0172 38.0235 92.4895 0.0000 0.0000 0.0000
# 4 0.0000 0.0000 0.0000 33.0839 0.0000 0.0000
# 5 0.0000 0.0000 0.0000 0.0000 23.2701 0.0000
# 6 0.0000 0.0000 0.0000 0.0000 0.0000 39.1707
#
#
#
# Elastic Compliance Matrix: (Units=1/GPa)
#
#
# Indices 1 2 3 4 5 6 
#
# 1 0.012764 -0.003819 -0.002573 0.000000 0.000000 0.000000
# 2 -0.003819 0.008940 -0.002436 0.000000 0.000000 0.000000
# 3 -0.002573 -0.002436 0.012648 0.000000 0.000000 0.000000
# 4 0.000000 0.000000 0.000000 0.030226 0.000000 0.000000
# 5 0.000000 0.000000 0.000000 0.000000 0.042974 0.000000
# 6 0.000000 0.000000 0.000000 0.000000 0.000000 0.025529
#
#
# Mechanical properties :
#
#
# Convention : Reuss Voigt Hill
#
# Bulk Modulus (GPa) = 59.88858 63.71574 61.80216
# Shear Modulus (GPa) = 31.98909 33.58364 32.78636
#
# Velocity S-wave (km/s) = 3.93356 4.03041 3.98228
# Velocity P-wave (km/s) = 7.04260 7.24416 7.14409
#
# Compressibility (1/GPa) = 0.01669768
#
# Stress axis : x y z
#
# Youngs Moduli (GPa) = 78.34303 111.85361 79.06157
#
# Poissons Ratio (x) = 0.42720 0.20339
# Poissons Ratio (y) = 0.29921 0.19259
# Poissons Ratio (z) = 0.20154 0.27247
#
# Static dielectric constant tensor:
#      x y z
#    x 3.753140 0.000000 0.000000 
#    y 0.000000 3.961470 0.000000 
#    z 0.000000 0.000000 3.563910 
# 
# 
# High freq. dielectric constant tensor:
#      x y z
#    x 1.814260 0.000000 0.000000 
#    y 0.000000 1.829370 0.000000 
#    z 0.000000 0.000000 1.804850 
# 
# From -- ./inp_files/24316.got.cif
#   From: 2010.03.12/outbox.cif.g09.slc.cpg/sg50_13_cif.got.tgz:24316.got - 2010.04.16 13:23:21.
