data_PCOD8205746
_publ_section_title
;
Structure prediction by ZEFSAII (Michael W. Deem and Ramdas Pophale) SiO2 
 PCOD8205746
Probable space group: P B A N
;
_chemical_formula_sum "Si O2"
_cell_formula_units_Z 34
_cell_length_a 19.671886
_cell_length_b 10.147142
_cell_length_c 8.601681
_cell_angle_alpha 90.000000
_cell_angle_beta 90.000000
_cell_angle_gamma 90.000000
_cell_volume 1717.010968
_symmetry_space_group_name_H-M "P B A N"
_symmetry_group_IT_number 50
_space_group.IT_coordinate_system_code '2'
_symmetry_cell_setting 'orthorhombic'
loop_
_space_group_symop_operation_xyz
x,y,z
1/2-x,1/2-y,z
x,1/2-y,-z
1/2-x,y,-z
-x,-y,-z
1/2+x,1/2+y,-z
-x,1/2+y,z
1/2+x,-y,z
loop_
_atom_site_type_symbol
_atom_site_label
_atom_site_fract_x
_atom_site_fract_y
_atom_site_fract_z
Si Si1 0.000599 0.866376 0.902076
Si Si2 0.250000 0.750000 0.000000
Si Si3 0.143269 0.713886 0.238828
Si Si4 0.450497 0.390301 0.429851
Si Si5 0.328191 0.945275 0.538280
O O1 0.073145 0.805908 0.851046
O O2 0.955291 0.892416 0.753951
O O3 0.964904 0.750000 0.000000
O O4 0.000000 0.000000 0.000000
O O5 0.201067 0.833439 0.884375
O O6 0.140351 0.628692 0.392094
O O7 0.159876 0.863013 0.301016
O O8 0.471424 0.250000 0.500000
O O9 0.500000 0.500000 0.500000
O O10 0.370908 0.419935 0.458718
O O11 0.250000 0.974469 0.500000
#
# Coordination Sequence:
#
# PCOD8205746 Si02
#       5
#     8   2   8   8   8
#     4  12  25  40  63  98 139 174 219 284 346 397
#     4  12  20  34  64 100 134 170 224 286 346 394
#     4  11  21  37  64  97 133 172 224 277 331 401
#     4  12  25  43  68  95 130 178 230 276 331 408
#     4  11  22  41  65  96 132 175 231 274 330 397
#
# _framework density 19.801853999999999
#
# number of rings (size 3 to 8) (size 9 to 14) (size 15 to 20)
#    0.000    0.471    5.882    4.941    0.000    0.471 
#    0.000    0.000    0.000    0.000    0.000    0.000 
#    0.000    0.000    0.000    0.000    0.000    0.000 
#
# Total GULP energy -421283.486919 kJ/mol
# GULP energy per Si atom -12390.690792 kJ/mol
# Density = 1.975678 g / cm^3
# Si number density = 19.801854 Si / 1000 Ang^3
#
#
#
# Elastic Constant Matrix: (Units=GPa)
#
#
# Indices 1 2 3 4 5 6 
#
# 1 119.2054 44.1056 32.2042 0.0000 0.0000 0.0000
# 2 44.1056 136.0398 54.3413 0.0000 0.0000 0.0000
# 3 32.2042 54.3413 133.6175 0.0000 0.0000 0.0000
# 4 0.0000 0.0000 0.0000 28.5639 0.0000 0.0000
# 5 0.0000 0.0000 0.0000 0.0000 41.4846 0.0000
# 6 0.0000 0.0000 0.0000 0.0000 0.0000 26.0102
#
#
#
# Elastic Compliance Matrix: (Units=1/GPa)
#
#
# Indices 1 2 3 4 5 6 
#
# 1 0.009708 -0.002642 -0.001265 0.000000 0.000000 0.000000
# 2 -0.002642 0.009496 -0.003225 0.000000 0.000000 0.000000
# 3 -0.001265 -0.003225 0.009101 0.000000 0.000000 0.000000
# 4 0.000000 0.000000 0.000000 0.035009 0.000000 0.000000
# 5 0.000000 0.000000 0.000000 0.000000 0.024105 0.000000
# 6 0.000000 0.000000 0.000000 0.000000 0.000000 0.038446
#
#
# Mechanical properties :
#
#
# Convention : Reuss Voigt Hill
#
# Bulk Modulus (GPa) = 71.22704 72.24057 71.73380
# Shear Modulus (GPa) = 34.52793 36.42585 35.47689
#
# Velocity S-wave (km/s) = 4.18026 4.29361 4.23731
# Velocity P-wave (km/s) = 7.70373 7.81927 7.76172
#
# Compressibility (1/GPa) = 0.01403961
#
# Stress axis : x y z
#
# Youngs Moduli (GPa) = 103.00475 105.31164 109.88265
#
# Poissons Ratio (x) = 0.27824 0.13904
# Poissons Ratio (y) = 0.27215 0.35437
# Poissons Ratio (z) = 0.13034 0.33963
#
# Static dielectric constant tensor:
#      x y z
#    x 3.690970 0.000000 0.000000 
#    y 0.000000 3.515030 0.000000 
#    z 0.000000 0.000000 4.362080 
# 
# 
# High freq. dielectric constant tensor:
#      x y z
#    x 1.774780 0.000000 0.000000 
#    y 0.000000 1.740820 0.000000 
#    z 0.000000 0.000000 1.802280 
# 
# From -- ./inp_files/9240.got.cif
#   From: 2010.03.12/outbox.cif.g09.slc.cpg/sg50_5_cif.got.tgz:9240.got - 2010.04.16 13:23:21.
