data_PCOD8205073
_publ_section_title
;
Structure prediction by ZEFSAII (Michael W. Deem and Ramdas Pophale) SiO2 
 PCOD8205073
Probable space group: P B A N
;
_chemical_formula_sum "Si O2"
_cell_formula_units_Z 48
_cell_length_a 9.700236
_cell_length_b 21.237486
_cell_length_c 11.721420
_cell_angle_alpha 90.000000
_cell_angle_beta 90.000000
_cell_angle_gamma 90.000000
_cell_volume 2414.713632
_symmetry_space_group_name_H-M "P B A N"
_symmetry_group_IT_number 50
_space_group.IT_coordinate_system_code '2'
_symmetry_cell_setting 'orthorhombic'
loop_
_space_group_symop_operation_xyz
x,y,z
1/2-x,1/2-y,z
x,1/2-y,-z
1/2-x,y,-z
-x,-y,-z
1/2+x,1/2+y,-z
-x,1/2+y,z
1/2+x,-y,z
loop_
_atom_site_type_symbol
_atom_site_label
_atom_site_fract_x
_atom_site_fract_y
_atom_site_fract_z
Si Si1 0.594563 0.747186 0.291662
Si Si2 0.444948 0.143711 0.105611
Si Si3 0.734249 0.537293 0.868578
Si Si4 0.978425 0.637043 0.147522
Si Si5 0.276400 0.600006 0.192346
Si Si6 0.671133 0.193703 0.380239
O O1 0.750000 0.750000 0.341649
O O2 0.581848 0.706086 0.177210
O O3 0.558347 0.817990 0.253431
O O4 0.489737 0.717050 0.386149
O O5 0.350542 0.088811 0.158917
O O6 0.600439 0.117698 0.107579
O O7 0.413964 0.160632 0.973396
O O8 0.587055 0.567679 0.834879
O O9 0.746924 0.474622 0.792746
O O10 0.750000 0.516247 0.000000
O O11 0.141865 0.632182 0.140759
O O12 0.314722 0.627544 0.316756
O O13 0.750000 0.250000 0.311574
O O14 0.750000 0.186690 0.500000
#
# Coordination Sequence:
#
# PCOD8205073 Si02
#       6
#     8   8   8   8   8   8
#     4  11  21  37  60  90 118 153 195 241 295 352
#     4  10  21  32  53  86 128 164 197 233 276 345
#     4  10  20  34  53  82 126 170 198 226 277 350
#     4  11  20  33  54  87 123 165 198 233 280 340
#     4  11  21  35  57  83 113 159 204 245 287 348
#     4  10  22  43  65  86 106 140 197 258 318 346
#
# _framework density 19.878132000000001
#
# number of rings (size 3 to 8) (size 9 to 14) (size 15 to 20)
#    0.000    1.500    3.333    3.000    0.000    3.333 
#    0.000    3.333    0.000    9.000    0.000    0.000 
#    0.000    0.000    0.000    0.000    0.000    0.000 
#
# Total GULP energy -594916.408285 kJ/mol
# GULP energy per Si atom -12394.091839 kJ/mol
# Density = 1.983289 g / cm^3
# Si number density = 19.878132 Si / 1000 Ang^3
#
#
#
# Elastic Constant Matrix: (Units=GPa)
#
#
# Indices 1 2 3 4 5 6 
#
# 1 138.4681 19.6009 19.1531 0.0000 0.0000 0.0000
# 2 19.6009 94.6151 29.0142 0.0000 0.0000 0.0000
# 3 19.1531 29.0142 66.9760 0.0000 0.0000 0.0000
# 4 0.0000 0.0000 0.0000 22.4082 0.0000 0.0000
# 5 0.0000 0.0000 0.0000 0.0000 23.5239 0.0000
# 6 0.0000 0.0000 0.0000 0.0000 0.0000 28.7357
#
#
#
# Elastic Compliance Matrix: (Units=1/GPa)
#
#
# Indices 1 2 3 4 5 6 
#
# 1 0.007608 -0.001048 -0.001722 0.000000 0.000000 0.000000
# 2 -0.001048 0.012333 -0.005043 0.000000 0.000000 0.000000
# 3 -0.001722 -0.005043 0.017608 0.000000 0.000000 0.000000
# 4 0.000000 0.000000 0.000000 0.044627 0.000000 0.000000
# 5 0.000000 0.000000 0.000000 0.000000 0.042510 0.000000
# 6 0.000000 0.000000 0.000000 0.000000 0.000000 0.034800
#
#
# Mechanical properties :
#
#
# Convention : Reuss Voigt Hill
#
# Bulk Modulus (GPa) = 45.61355 48.39952 47.00654
# Shear Modulus (GPa) = 27.40952 30.41962 28.91457
#
# Velocity S-wave (km/s) = 3.71735 3.91616 3.81805
# Velocity P-wave (km/s) = 6.43594 6.69697 6.56775
#
# Compressibility (1/GPa) = 0.02192331
#
# Stress axis : x y z
#
# Youngs Moduli (GPa) = 131.43352 81.08531 56.79360
#
# Poissons Ratio (x) = 0.08500 0.09778
# Poissons Ratio (y) = 0.13777 0.28640
# Poissons Ratio (z) = 0.22629 0.40890
#
# Static dielectric constant tensor:
#      x y z
#    x 3.963840 0.000000 0.000000 
#    y 0.000000 3.676730 0.000000 
#    z 0.000000 0.000000 3.102210 
# 
# 
# High freq. dielectric constant tensor:
#      x y z
#    x 1.799850 0.000000 0.000000 
#    y 0.000000 1.777400 0.000000 
#    z 0.000000 0.000000 1.723940 
# 
# From -- ./inp_files/19150.got.cif
#   From: 2010.03.12/outbox.cif.g09.slc.cpg/sg50_10_cif.got.tgz:19150.got - 2010.04.16 13:23:21.
