data_PCOD8205976
_publ_section_title
;
Structure prediction by ZEFSAII (Michael W. Deem and Ramdas Pophale) SiO2 
 PCOD8205976
Probable space group: P M M A
;
_chemical_formula_sum "Si O2"
_cell_formula_units_Z 56
_cell_length_a 22.588608
_cell_length_b 13.598186
_cell_length_c 9.975284
_cell_angle_alpha 90.000000
_cell_angle_beta 90.000000
_cell_angle_gamma 90.000000
_cell_volume 3064.049063
_symmetry_space_group_name_H-M "P M M A"
_symmetry_group_IT_number 51
_symmetry_cell_setting 'orthorhombic'
loop_
_space_group_symop_operation_xyz
x,y,z
1/2-x,-y,z
1/2+x,-y,-z
-x,y,-z
-x,-y,-z
1/2+x,y,-z
1/2-x,y,z
x,-y,z
loop_
_atom_site_type_symbol
_atom_site_label
_atom_site_fract_x
_atom_site_fract_y
_atom_site_fract_z
Si Si1 0.022864 0.106529 0.852310
Si Si2 0.432251 0.697397 0.470778
Si Si3 0.392220 0.741128 0.962951
Si Si4 0.409789 0.611642 0.741793
Si Si5 0.951941 0.386420 0.805765
Si Si6 0.681777 0.110858 0.873058
Si Si7 0.584069 0.889576 0.659972
O O1 0.071568 0.190421 0.858120
O O2 0.968171 0.142248 0.761318
O O3 0.047040 0.000000 0.800398
O O4 0.000000 0.089513 0.000000
O O5 0.500000 0.675392 0.500000
O O6 0.395111 0.656307 0.595587
O O7 0.416724 0.642961 0.330627
O O8 0.418301 0.814083 0.463325
O O9 0.368440 0.659625 0.858047
O O10 0.431127 0.687610 0.077233
O O11 0.339709 0.806881 0.022507
O O12 0.391218 0.500000 0.732405
O O13 0.477999 0.626101 0.787105
O O14 0.936650 0.500000 0.842409
O O15 0.750000 0.130333 0.840651
O O16 0.646559 0.120675 0.734540
O O17 0.671622 0.000000 0.931497
O O18 0.575060 0.000000 0.604821
#
# Coordination Sequence:
#
# PCOD8205976 Si02
#       7
#     8   8   8   8   8   8   8
#     4  10  16  24  43  73 105 132 157 198 259 319
#     4  10  18  32  49  73 109 148 173 201 254 318
#     4  12  19  31  52  78 106 135 177 218 265 311
#     4  10  21  32  47  76 113 146 174 208 263 322
#     4  10  19  30  48  75 108 143 181 219 255 308
#     4  10  21  36  55  79 105 136 177 223 268 314
#     4  10  19  32  51  77 108 141 177 218 266 317
#
# _framework density 18.276468999999999
#
# number of rings (size 3 to 8) (size 9 to 14) (size 15 to 20)
#    0.000    1.714    2.857    4.286    0.000    3.143 
#    0.000    1.429    0.000    2.571    0.000    2.000 
#    0.000    0.000    0.000    0.000    0.000    0.000 
#
# Total GULP energy -694037.723590 kJ/mol
# GULP energy per Si atom -12393.530778 kJ/mol
# Density = 1.823487 g / cm^3
# Si number density = 18.276469 Si / 1000 Ang^3
#
#
#
# Elastic Constant Matrix: (Units=GPa)
#
#
# Indices 1 2 3 4 5 6 
#
# 1 36.6308 15.5754 5.8385 0.0000 0.0000 0.0000
# 2 15.5754 116.5433 48.8511 0.0000 0.0000 0.0000
# 3 5.8385 48.8511 83.9269 0.0000 0.0000 0.0000
# 4 0.0000 0.0000 0.0000 40.1148 0.0000 0.0000
# 5 0.0000 0.0000 0.0000 0.0000 5.5313 0.0000
# 6 0.0000 0.0000 0.0000 0.0000 0.0000 17.7931
#
#
#
# Elastic Compliance Matrix: (Units=1/GPa)
#
#
# Indices 1 2 3 4 5 6 
#
# 1 0.028951 -0.004001 0.000315 0.000000 0.000000 0.000000
# 2 -0.004001 0.011903 -0.006650 0.000000 0.000000 0.000000
# 3 0.000315 -0.006650 0.015764 0.000000 0.000000 0.000000
# 4 0.000000 0.000000 0.000000 0.024928 0.000000 0.000000
# 5 0.000000 0.000000 0.000000 0.000000 0.180788 0.000000
# 6 0.000000 0.000000 0.000000 0.000000 0.000000 0.056202
#
#
# Mechanical properties :
#
#
# Convention : Reuss Voigt Hill
#
# Bulk Modulus (GPa) = 27.82021 41.95898 34.88959
# Shear Modulus (GPa) = 14.23736 23.81024 19.02380
#
# Velocity S-wave (km/s) = 2.79408 3.61332 3.22978
# Velocity P-wave (km/s) = 5.06598 6.35735 5.74804
#
# Compressibility (1/GPa) = 0.03594510
#
# Stress axis : x y z
#
# Youngs Moduli (GPa) = 34.54169 84.01527 63.43630
#
# Poissons Ratio (x) = 0.33615 -0.01998
# Poissons Ratio (y) = 0.13820 0.42184
# Poissons Ratio (z) = -0.01088 0.55868
#
# Static dielectric constant tensor:
#      x y z
#    x 2.740160 0.000000 0.000000 
#    y 0.000000 3.930450 0.000000 
#    z 0.000000 0.000000 3.328380 
# 
# 
# High freq. dielectric constant tensor:
#      x y z
#    x 1.627920 0.000000 0.000000 
#    y 0.000000 1.740920 0.000000 
#    z 0.000000 0.000000 1.705310 
# 
# From -- ./inp_files/11003.got.cif
#   From: 2010.03.12/outbox.cif.g09.slc.cpg/sg51_6_cif.got.tgz:11003.got - 2010.04.16 13:43:02.
