data_PCOD8205259
_publ_section_title
;
Structure prediction by ZEFSAII (Michael W. Deem and Ramdas Pophale) SiO2 
 PCOD8205259
Probable space group: P B A N
;
_chemical_formula_sum "Si O2"
_cell_formula_units_Z 56
_cell_length_a 9.238902
_cell_length_b 19.134240
_cell_length_c 16.038670
_cell_angle_alpha 90.000000
_cell_angle_beta 90.000000
_cell_angle_gamma 90.000000
_cell_volume 2835.305949
_symmetry_space_group_name_H-M "P B A N"
_symmetry_group_IT_number 50
_space_group.IT_coordinate_system_code '2'
_symmetry_cell_setting 'orthorhombic'
loop_
_space_group_symop_operation_xyz
x,y,z
1/2-x,1/2-y,z
x,1/2-y,-z
1/2-x,y,-z
-x,-y,-z
1/2+x,1/2+y,-z
-x,1/2+y,z
1/2+x,-y,z
loop_
_atom_site_type_symbol
_atom_site_label
_atom_site_fract_x
_atom_site_fract_y
_atom_site_fract_z
Si Si1 0.672969 0.823519 0.919507
Si Si2 0.079552 0.830886 0.505936
Si Si3 0.974199 0.586213 0.340629
Si Si4 0.727774 0.424000 0.230314
Si Si5 0.674448 0.323658 0.916227
Si Si6 0.960519 0.071427 0.643009
Si Si7 0.791295 0.580890 0.764838
O O1 0.750000 0.750000 0.906292
O O2 0.498684 0.816187 0.929603
O O3 0.720132 0.868004 0.841333
O O4 0.750000 0.858859 0.000000
O O5 0.036107 0.750000 0.500000
O O6 0.250000 0.842294 0.500000
O O7 0.019974 0.855476 0.594171
O O8 0.004605 0.876645 0.433103
O O9 0.062087 0.592969 0.253164
O O10 0.988394 0.509267 0.383281
O O11 0.811737 0.601621 0.312090
O O12 0.793116 0.374750 0.159995
O O13 0.745002 0.503746 0.200010
O O14 0.799321 0.415797 0.322476
O O15 0.750000 0.250000 0.895178
O O16 0.750000 0.353910 0.000000
O O17 0.050908 0.087935 0.725904
#
# Coordination Sequence:
#
# PCOD8205259 Si02
#       7
#     8   8   8   8   8   8   8
#     4  11  24  42  61  89 128 163 199 251 305 360
#     4  11  23  38  60  90 121 156 203 251 298 355
#     4  10  22  38  63  88 119 161 199 245 303 363
#     4  10  21  40  65  89 120 157 206 251 295 362
#     4  11  24  41  63  91 121 164 208 245 296 368
#     4  10  20  42  60  86 123 158 202 246 301 363
#     4  10  23  40  63  92 119 157 201 253 309 354
#
# _framework density 19.750955000000001
#
# number of rings (size 3 to 8) (size 9 to 14) (size 15 to 20)
#    0.000    1.571    2.857    2.143    4.000    3.429 
#    0.000    2.143    0.000    0.000    0.000    0.000 
#    0.000    0.000    0.000    0.000    0.000    0.000 
#
# Total GULP energy -694206.705130 kJ/mol
# GULP energy per Si atom -12396.548306 kJ/mol
# Density = 1.970600 g / cm^3
# Si number density = 19.750955 Si / 1000 Ang^3
#
#
#
# Elastic Constant Matrix: (Units=GPa)
#
#
# Indices 1 2 3 4 5 6 
#
# 1 79.5064 44.1340 30.2579 0.0000 0.0000 0.0000
# 2 44.1340 106.6963 73.3494 0.0000 0.0000 0.0000
# 3 30.2579 73.3494 109.9865 0.0000 0.0000 0.0000
# 4 0.0000 0.0000 0.0000 58.2036 0.0000 0.0000
# 5 0.0000 0.0000 0.0000 0.0000 25.5901 0.0000
# 6 0.0000 0.0000 0.0000 0.0000 0.0000 25.6033
#
#
#
# Elastic Compliance Matrix: (Units=1/GPa)
#
#
# Indices 1 2 3 4 5 6 
#
# 1 0.016326 -0.006769 0.000023 0.000000 0.000000 0.000000
# 2 -0.006769 0.020113 -0.011551 0.000000 0.000000 0.000000
# 3 0.000023 -0.011551 0.016789 0.000000 0.000000 0.000000
# 4 0.000000 0.000000 0.000000 0.017181 0.000000 0.000000
# 5 0.000000 0.000000 0.000000 0.000000 0.039078 0.000000
# 6 0.000000 0.000000 0.000000 0.000000 0.000000 0.039058
#
#
# Mechanical properties :
#
#
# Convention : Reuss Voigt Hill
#
# Bulk Modulus (GPa) = 60.11796 65.74129 62.92963
# Shear Modulus (GPa) = 26.22127 31.77592 28.99860
#
# Velocity S-wave (km/s) = 3.64757 4.01537 3.83588
# Velocity P-wave (km/s) = 6.94577 7.40642 7.17979
#
# Compressibility (1/GPa) = 0.01663396
#
# Stress axis : x y z
#
# Youngs Moduli (GPa) = 61.25061 49.71832 59.56165
#
# Poissons Ratio (x) = 0.33653 -0.00135
# Poissons Ratio (y) = 0.41459 0.68802
# Poissons Ratio (z) = -0.00138 0.57431
#
# Static dielectric constant tensor:
#      x y z
#    x 3.785390 0.000000 0.000000 
#    y 0.000000 3.500150 0.000000 
#    z 0.000000 0.000000 3.467510 
# 
# 
# High freq. dielectric constant tensor:
#      x y z
#    x 1.785460 0.000000 0.000000 
#    y 0.000000 1.762800 0.000000 
#    z 0.000000 0.000000 1.768250 
# 
# From -- ./inp_files/25252.got.cif
#   From: 2010.03.12/outbox.cif.g09.slc.cpg/sg50_13_cif.got.tgz:25252.got - 2010.04.16 13:23:21.
