data_PCOD8205006
_publ_section_title
;
Structure prediction by ZEFSAII (Michael W. Deem and Ramdas Pophale) SiO2 
 PCOD8205006
Probable space group: P B A N
;
_chemical_formula_sum "Si O2"
_cell_formula_units_Z 60
_cell_length_a 9.137556
_cell_length_b 19.076441
_cell_length_c 18.088680
_cell_angle_alpha 90.000000
_cell_angle_beta 90.000000
_cell_angle_gamma 90.000000
_cell_volume 3153.074855
_symmetry_space_group_name_H-M "P B A N"
_symmetry_group_IT_number 50
_space_group.IT_coordinate_system_code '2'
_symmetry_cell_setting 'orthorhombic'
loop_
_space_group_symop_operation_xyz
x,y,z
1/2-x,1/2-y,z
x,1/2-y,-z
1/2-x,y,-z
-x,-y,-z
1/2+x,1/2+y,-z
-x,1/2+y,z
1/2+x,-y,z
loop_
_atom_site_type_symbol
_atom_site_label
_atom_site_fract_x
_atom_site_fract_y
_atom_site_fract_z
Si Si1 0.579571 0.233954 0.223664
Si Si2 0.996380 0.972608 0.602187
Si Si3 0.065598 0.618375 0.272225
Si Si4 0.400206 0.587871 0.289118
Si Si5 0.832533 0.554975 0.927866
Si Si6 0.941278 0.520952 0.159734
Si Si7 0.596147 0.715734 0.075794
Si Si8 0.750000 0.501269 0.500000
O O1 0.750000 0.250000 0.212441
O O2 0.521091 0.300314 0.269811
O O3 0.536685 0.165624 0.272000
O O4 0.515614 0.228933 0.141753
O O5 0.963564 0.916784 0.666077
O O6 0.155095 0.960115 0.562961
O O7 0.973320 0.051421 0.637890
O O8 0.872326 0.953829 0.542190
O O9 0.227852 0.598393 0.298474
O O10 0.032637 0.586083 0.192000
O O11 0.434908 0.541760 0.217880
O O12 0.720581 0.548127 0.859187
O O13 0.884588 0.633884 0.939403
O O14 0.973292 0.506237 0.912758
O O15 0.750000 0.526628 0.000000
O O16 0.750000 0.750000 0.097913
O O17 0.534918 0.750000 0.000000
#
# Coordination Sequence:
#
# PCOD8205006 Si02
#       8
#     8   8   8   8   8   8   8   4
#     4  10  22  39  61  85 117 156 195 248 293 349
#     4  10  20  36  62  91 120 153 191 234 278 346
#     4  10  20  36  60  88 116 147 199 240 289 339
#     4  10  19  37  59  87 116 149 197 242 285 346
#     4  12  23  39  57  79 113 157 197 255 309 366
#     4  11  22  37  59  82 114 146 203 254 302 345
#     4  11  22  40  58  80 115 156 204 242 311 368
#     4  10  20  36  62  90 122 156 188 226 282 346
#
# _framework density 19.029045
#
# number of rings (size 3 to 8) (size 9 to 14) (size 15 to 20)
#    0.000    1.467    5.333    1.200    0.000    0.267 
#    2.400    0.000    0.000    4.800    0.000    0.000 
#    0.000    0.000    0.000    0.000    0.000    0.000 
#
# Total GULP energy -743597.749298 kJ/mol
# GULP energy per Si atom -12393.295822 kJ/mol
# Density = 1.898573 g / cm^3
# Si number density = 19.029045 Si / 1000 Ang^3
#
#
#
# Elastic Constant Matrix: (Units=GPa)
#
#
# Indices 1 2 3 4 5 6 
#
# 1 54.8777 25.0949 25.1255 0.0000 0.0000 0.0000
# 2 25.0949 124.7631 44.4635 0.0000 0.0000 0.0000
# 3 25.1255 44.4635 88.7234 0.0000 0.0000 0.0000
# 4 0.0000 0.0000 0.0000 4.9573 0.0000 0.0000
# 5 0.0000 0.0000 0.0000 0.0000 35.9343 0.0000
# 6 0.0000 0.0000 0.0000 0.0000 0.0000 20.6859
#
#
#
# Elastic Compliance Matrix: (Units=1/GPa)
#
#
# Indices 1 2 3 4 5 6 
#
# 1 0.021628 -0.002639 -0.004802 0.000000 0.000000 0.000000
# 2 -0.002639 0.010080 -0.004304 0.000000 0.000000 0.000000
# 3 -0.004802 -0.004304 0.014788 0.000000 0.000000 0.000000
# 4 0.000000 0.000000 0.000000 0.201721 0.000000 0.000000
# 5 0.000000 0.000000 0.000000 0.000000 0.027829 0.000000
# 6 0.000000 0.000000 0.000000 0.000000 0.000000 0.048342
#
#
# Mechanical properties :
#
#
# Convention : Reuss Voigt Hill
#
# Bulk Modulus (GPa) = 43.46880 50.85909 47.16395
# Shear Modulus (GPa) = 14.06286 23.89421 18.97853
#
# Velocity S-wave (km/s) = 2.72144 3.54739 3.16150
# Velocity P-wave (km/s) = 5.72433 6.60028 6.17785
#
# Compressibility (1/GPa) = 0.02300500
#
# Stress axis : x y z
#
# Youngs Moduli (GPa) = 46.23695 99.20727 67.62238
#
# Poissons Ratio (x) = 0.26178 0.32475
# Poissons Ratio (y) = 0.12201 0.29106
# Poissons Ratio (z) = 0.22205 0.42701
#
# Static dielectric constant tensor:
#      x y z
#    x 3.537860 0.000000 0.000000 
#    y 0.000000 3.580930 0.000000 
#    z 0.000000 0.000000 3.589750 
# 
# 
# High freq. dielectric constant tensor:
#      x y z
#    x 1.740030 0.000000 0.000000 
#    y 0.000000 1.725820 0.000000 
#    z 0.000000 0.000000 1.742140 
# 
# From -- ./inp_files/28899.got.cif
#   From: 2010.03.12/outbox.cif.g09.slc.cpg/sg50_15_cif.got.tgz:28899.got - 2010.04.16 13:23:21.
