data_PCOD8205395
_publ_section_title
;
Structure prediction by ZEFSAII (Michael W. Deem and Ramdas Pophale) SiO2 
 PCOD8205395
Probable space group: P B A N
;
_chemical_formula_sum "Si O2"
_cell_formula_units_Z 60
_cell_length_a 11.785866
_cell_length_b 22.297221
_cell_length_c 11.555838
_cell_angle_alpha 90.000000
_cell_angle_beta 90.000000
_cell_angle_gamma 90.000000
_cell_volume 3036.782460
_symmetry_space_group_name_H-M "P B A N"
_symmetry_group_IT_number 50
_space_group.IT_coordinate_system_code '2'
_symmetry_cell_setting 'orthorhombic'
loop_
_space_group_symop_operation_xyz
x,y,z
1/2-x,1/2-y,z
x,1/2-y,-z
1/2-x,y,-z
-x,-y,-z
1/2+x,1/2+y,-z
-x,1/2+y,z
1/2+x,-y,z
loop_
_atom_site_type_symbol
_atom_site_label
_atom_site_fract_x
_atom_site_fract_y
_atom_site_fract_z
Si Si1 0.108334 0.610678 0.784625
Si Si2 0.743752 0.819781 0.214603
Si Si3 0.556274 0.520193 0.116199
Si Si4 0.036622 0.314843 0.361227
Si Si5 0.035207 0.176919 0.373071
Si Si6 0.376400 0.604282 0.780427
Si Si7 0.884146 0.183762 0.005276
Si Si8 0.250000 0.399689 0.000000
O O1 0.241414 0.602144 0.772522
O O2 0.037218 0.549897 0.799610
O O3 0.073305 0.646246 0.670036
O O4 0.069236 0.648568 0.895970
O O5 0.750000 0.750000 0.182825
O O6 0.863578 0.836430 0.274479
O O7 0.650601 0.837789 0.308138
O O8 0.704721 0.855980 0.100562
O O9 0.593806 0.463936 0.192739
O O10 0.660252 0.560510 0.071227
O O11 0.500000 0.500000 0.000000
O O12 0.000799 0.245510 0.346181
O O13 0.066532 0.330525 0.492708
O O14 0.935068 0.130521 0.335746
O O15 0.421966 0.648817 0.880139
O O16 0.938980 0.250000 0.000000
O O17 0.750000 0.188181 0.000000
#
# Coordination Sequence:
#
# PCOD8205395 Si02
#       8
#     8   8   8   8   8   8   8   4
#     4  11  22  39  60  87 129 155 202 263 309 372
#     4  10  21  39  63  97 132 160 202 264 319 371
#     4  12  23  39  60  89 124 166 206 253 313 381
#     4  10  21  41  63  94 124 166 206 263 309 366
#     4  10  22  39  66  90 125 167 214 249 314 373
#     4  11  23  39  60  91 121 164 206 254 314 375
#     4   9  18  33  54  83 119 154 187 238 310 371
#     4  12  23  38  64  94 121 164 212 256 318 378
#
# _framework density 19.757755
#
# number of rings (size 3 to 8) (size 9 to 14) (size 15 to 20)
#    0.000    1.467    2.667    3.000    0.933    3.733 
#    0.000    2.000    0.000    0.000    0.000    0.000 
#    0.000    0.000    0.000    0.000    0.000    0.000 
#
# Total GULP energy -743692.174013 kJ/mol
# GULP energy per Si atom -12394.869567 kJ/mol
# Density = 1.971279 g / cm^3
# Si number density = 19.757755 Si / 1000 Ang^3
#
#
#
# Elastic Constant Matrix: (Units=GPa)
#
#
# Indices 1 2 3 4 5 6 
#
# 1 98.9996 56.7229 35.6162 0.0000 0.0000 0.0000
# 2 56.7229 114.3114 51.9004 0.0000 0.0000 0.0000
# 3 35.6162 51.9004 102.1103 0.0000 0.0000 0.0000
# 4 0.0000 0.0000 0.0000 19.9434 0.0000 0.0000
# 5 0.0000 0.0000 0.0000 0.0000 30.3339 0.0000
# 6 0.0000 0.0000 0.0000 0.0000 0.0000 33.7125
#
#
#
# Elastic Compliance Matrix: (Units=1/GPa)
#
#
# Indices 1 2 3 4 5 6 
#
# 1 0.014365 -0.006309 -0.001804 0.000000 0.000000 0.000000
# 2 -0.006309 0.014143 -0.004988 0.000000 0.000000 0.000000
# 3 -0.001804 -0.004988 0.012958 0.000000 0.000000 0.000000
# 4 0.000000 0.000000 0.000000 0.050142 0.000000 0.000000
# 5 0.000000 0.000000 0.000000 0.000000 0.032966 0.000000
# 6 0.000000 0.000000 0.000000 0.000000 0.000000 0.029663
#
#
# Mechanical properties :
#
#
# Convention : Reuss Voigt Hill
#
# Bulk Modulus (GPa) = 65.51290 67.10003 66.30647
# Shear Modulus (GPa) = 26.95027 28.21010 27.58018
#
# Velocity S-wave (km/s) = 3.69729 3.78272 3.74025
# Velocity P-wave (km/s) = 7.17333 7.28792 7.23085
#
# Compressibility (1/GPa) = 0.01526417
#
# Stress axis : x y z
#
# Youngs Moduli (GPa) = 69.61462 70.70410 77.17337
#
# Poissons Ratio (x) = 0.44608 0.13920
# Poissons Ratio (y) = 0.43920 0.38495
# Poissons Ratio (z) = 0.12556 0.35268
#
# Static dielectric constant tensor:
#      x y z
#    x 3.489160 0.000000 0.000000 
#    y 0.000000 3.569560 0.000000 
#    z 0.000000 0.000000 3.574570 
# 
# 
# High freq. dielectric constant tensor:
#      x y z
#    x 1.773530 0.000000 0.000000 
#    y 0.000000 1.773020 0.000000 
#    z 0.000000 0.000000 1.762370 
# 
# From -- ./inp_files/20419.got.cif
#   From: 2010.03.12/outbox.cif.g09.slc.cpg/sg50_11_cif.got.tgz:20419.got - 2010.04.16 13:23:21.
