data_PCOD8205321
_publ_section_title
;
Structure prediction by ZEFSAII (Michael W. Deem and Ramdas Pophale) SiO2 
 PCOD8205321
Probable space group: P B A N
;
_chemical_formula_sum "Si O2"
_cell_formula_units_Z 48
_cell_length_a 29.069814
_cell_length_b 8.955017
_cell_length_c 8.237793
_cell_angle_alpha 90.000000
_cell_angle_beta 90.000000
_cell_angle_gamma 90.000000
_cell_volume 2144.467864
_symmetry_space_group_name_H-M "P B A N"
_symmetry_group_IT_number 50
_space_group.IT_coordinate_system_code '2'
_symmetry_cell_setting 'orthorhombic'
loop_
_space_group_symop_operation_xyz
x,y,z
1/2-x,1/2-y,z
x,1/2-y,-z
1/2-x,y,-z
-x,-y,-z
1/2+x,1/2+y,-z
-x,1/2+y,z
1/2+x,-y,z
loop_
_atom_site_type_symbol
_atom_site_label
_atom_site_fract_x
_atom_site_fract_y
_atom_site_fract_z
Si Si1 0.828718 0.897119 0.217370
Si Si2 0.479532 0.118423 0.117474
Si Si3 0.410013 0.948728 0.345410
Si Si4 0.072143 0.622023 0.702794
Si Si5 0.151829 0.060020 0.153536
Si Si6 0.242651 0.586492 0.809336
O O1 0.835180 0.720235 0.228487
O O2 0.860177 0.974863 0.354294
O O3 0.777110 0.956079 0.254808
O O4 0.845274 0.947718 0.039707
O O5 0.521421 0.163918 0.234316
O O6 0.438856 0.052524 0.224226
O O7 0.460663 0.250000 0.000000
O O8 0.500000 0.000000 0.000000
O O9 0.433478 0.942671 0.521569
O O10 0.401724 0.779860 0.283956
O O11 0.100519 0.497463 0.803053
O O12 0.190194 0.953737 0.233119
O O13 0.250000 0.750000 0.729577
O O14 0.250000 0.595895 0.000000
#
# Coordination Sequence:
#
# PCOD8205321 Si02
#       6
#     8   8   8   8   8   8
#     4  10  21  36  61  93 126 164 212 262 314 375
#     4  12  25  44  69  94 123 161 214 265 316 377
#     4  11  25  43  64  90 128 167 210 259 322 384
#     4  11  25  44  62  91 128 169 207 260 322 384
#     4  10  21  36  62  92 127 164 211 263 315 373
#     4   9  17  33  58  91 125 164 209 262 312 367
#
# _framework density 22.383175000000001
#
# number of rings (size 3 to 8) (size 9 to 14) (size 15 to 20)
#    0.000    1.500    1.667    3.000    4.667    4.000 
#    0.000    0.833    0.000    5.000    0.000    0.000 
#    0.000    0.000    0.000    0.000    0.000    0.000 
#
# Total GULP energy -595003.355789 kJ/mol
# GULP energy per Si atom -12395.903246 kJ/mol
# Density = 2.233223 g / cm^3
# Si number density = 22.383175 Si / 1000 Ang^3
#
#
#
# Elastic Constant Matrix: (Units=GPa)
#
#
# Indices 1 2 3 4 5 6 
#
# 1 88.0205 29.8399 15.1850 0.0000 0.0000 0.0000
# 2 29.8399 130.1589 32.4455 0.0000 0.0000 0.0000
# 3 15.1850 32.4455 66.0211 0.0000 0.0000 0.0000
# 4 0.0000 0.0000 0.0000 33.1930 0.0000 0.0000
# 5 0.0000 0.0000 0.0000 0.0000 12.9893 0.0000
# 6 0.0000 0.0000 0.0000 0.0000 0.0000 42.9856
#
#
#
# Elastic Compliance Matrix: (Units=1/GPa)
#
#
# Indices 1 2 3 4 5 6 
#
# 1 0.012478 -0.002445 -0.001668 0.000000 0.000000 0.000000
# 2 -0.002445 0.009234 -0.003976 0.000000 0.000000 0.000000
# 3 -0.001668 -0.003976 0.017484 0.000000 0.000000 0.000000
# 4 0.000000 0.000000 0.000000 0.030127 0.000000 0.000000
# 5 0.000000 0.000000 0.000000 0.000000 0.076986 0.000000
# 6 0.000000 0.000000 0.000000 0.000000 0.000000 0.023264
#
#
# Mechanical properties :
#
#
# Convention : Reuss Voigt Hill
#
# Bulk Modulus (GPa) = 43.44367 48.79348 46.11858
# Shear Modulus (GPa) = 25.84995 31.61560 28.73277
#
# Velocity S-wave (km/s) = 3.40204 3.76236 3.58673
# Velocity P-wave (km/s) = 5.90619 6.38125 6.14831
#
# Compressibility (1/GPa) = 0.02301831
#
# Stress axis : x y z
#
# Youngs Moduli (GPa) = 80.14364 108.28985 57.19397
#
# Poissons Ratio (x) = 0.26473 0.09543
# Poissons Ratio (y) = 0.19592 0.22740
# Poissons Ratio (z) = 0.13372 0.43055
#
# Static dielectric constant tensor:
#      x y z
#    x 4.444870 0.000000 0.000000 
#    y 0.000000 4.156480 0.000000 
#    z 0.000000 0.000000 3.697980 
# 
# 
# High freq. dielectric constant tensor:
#      x y z
#    x 1.886560 0.000000 0.000000 
#    y 0.000000 1.895870 0.000000 
#    z 0.000000 0.000000 1.855650 
# 
# From -- ./inp_files/16933.got.cif
#   From: 2010.03.12/outbox.cif.g09.slc.cpg/sg50_9_cif.got.tgz:16933.got - 2010.04.16 13:23:21.
