data_PCOD8205696
_publ_section_title
;
Structure prediction by ZEFSAII (Michael W. Deem and Ramdas Pophale) SiO2 
 PCOD8205696
Probable space group: P B A N
;
_chemical_formula_sum "Si O2"
_cell_formula_units_Z 34
_cell_length_a 19.364830
_cell_length_b 13.596330
_cell_length_c 5.099715
_cell_angle_alpha 90.000000
_cell_angle_beta 90.000000
_cell_angle_gamma 90.000000
_cell_volume 1342.707119
_symmetry_space_group_name_H-M "P B A N"
_symmetry_group_IT_number 50
_space_group.IT_coordinate_system_code '2'
_symmetry_cell_setting 'orthorhombic'
loop_
_space_group_symop_operation_xyz
x,y,z
1/2-x,1/2-y,z
x,1/2-y,-z
1/2-x,y,-z
-x,-y,-z
1/2+x,1/2+y,-z
-x,1/2+y,z
1/2+x,-y,z
loop_
_atom_site_type_symbol
_atom_site_label
_atom_site_fract_x
_atom_site_fract_y
_atom_site_fract_z
Si Si1 0.790389 0.619703 0.752117
Si Si2 0.939434 0.857898 0.077546
Si Si3 0.750000 0.250000 0.500000
Si Si4 0.925160 0.454993 0.239850
Si Si5 0.339893 0.911333 0.252004
O O1 0.750000 0.660437 0.500000
O O2 0.869933 0.654735 0.751287
O O3 0.786014 0.501040 0.763115
O O4 0.750000 0.663951 0.000000
O O5 0.997251 0.912693 0.250228
O O6 0.966416 0.750000 0.000000
O O7 0.923633 0.928008 0.826195
O O8 0.702413 0.186513 0.691664
O O9 0.895324 0.436277 0.524755
O O10 0.880673 0.397045 0.020415
#
# Coordination Sequence:
#
# PCOD8205696 Si02
#       5
#     8   8   2   8   8
#     4  11  23  45  68  95 139 179 219 285 345 392
#     4  10  24  45  74 101 133 182 236 277 344 409
#     4  12  28  38  76 110 134 190 222 278 340 442
#     4  10  25  48  69  99 143 178 221 295 334 396
#     4  11  25  44  68 102 139 180 224 273 349 408
#
# _framework density 25.321975999999999
#
# number of rings (size 3 to 8) (size 9 to 14) (size 15 to 20)
#    0.000    1.412    1.176    2.824    3.294   11.765 
#    0.000   21.176    0.000    0.000    0.000    0.000 
#    0.000    0.000    0.000    0.000    0.000    0.000 
#
# Total GULP energy -421747.989404 kJ/mol
# GULP energy per Si atom -12404.352630 kJ/mol
# Density = 2.526434 g / cm^3
# Si number density = 25.321976 Si / 1000 Ang^3
#
#
#
# Elastic Constant Matrix: (Units=GPa)
#
#
# Indices 1 2 3 4 5 6 
#
# 1 136.7588 28.4128 37.5969 0.0000 0.0000 0.0000
# 2 28.4128 136.0837 -12.6519 0.0000 0.0000 0.0000
# 3 37.5969 -12.6519 103.8245 0.0000 0.0000 0.0000
# 4 0.0000 0.0000 0.0000 46.8534 0.0000 0.0000
# 5 0.0000 0.0000 0.0000 0.0000 39.0179 0.0000
# 6 0.0000 0.0000 0.0000 0.0000 0.0000 29.5970
#
#
#
# Elastic Compliance Matrix: (Units=1/GPa)
#
#
# Indices 1 2 3 4 5 6 
#
# 1 0.008692 -0.002131 -0.003407 0.000000 0.000000 0.000000
# 2 -0.002131 0.007955 0.001741 0.000000 0.000000 0.000000
# 3 -0.003407 0.001741 0.011078 0.000000 0.000000 0.000000
# 4 0.000000 0.000000 0.000000 0.021343 0.000000 0.000000
# 5 0.000000 0.000000 0.000000 0.000000 0.025629 0.000000
# 6 0.000000 0.000000 0.000000 0.000000 0.000000 0.033787
#
#
# Mechanical properties :
#
#
# Convention : Reuss Voigt Hill
#
# Bulk Modulus (GPa) = 49.67740 53.70919 51.69329
# Shear Modulus (GPa) = 40.72026 44.64759 42.68393
#
# Velocity S-wave (km/s) = 4.01446 4.20360 4.11012
# Velocity P-wave (km/s) = 6.41473 6.69454 6.55613
#
# Compressibility (1/GPa) = 0.02012988
#
# Stress axis : x y z
#
# Youngs Moduli (GPa) = 115.05286 125.70173 90.27200
#
# Poissons Ratio (x) = 0.26793 0.30757
# Poissons Ratio (y) = 0.24523 -0.15719
# Poissons Ratio (z) = 0.39200 -0.21888
#
# Static dielectric constant tensor:
#      x y z
#    x 4.667090 0.000000 0.000000 
#    y 0.000000 4.528980 0.000000 
#    z 0.000000 0.000000 4.400990 
# 
# 
# High freq. dielectric constant tensor:
#      x y z
#    x 2.024530 0.000000 0.000000 
#    y 0.000000 2.010090 0.000000 
#    z 0.000000 0.000000 2.003460 
# 
# From -- ./inp_files/5026.got.cif
#   From: 2010.03.12/outbox.cif.g09.slc.cpg/sg50_3_cif.got.tgz:5026.got - 2010.04.16 13:23:21.
