data_PCOD8205831
_publ_section_title
;
Structure prediction by ZEFSAII (Michael W. Deem and Ramdas Pophale) SiO2 
 PCOD8205831
Probable space group: P B A N
;
_chemical_formula_sum "Si O2"
_cell_formula_units_Z 48
_cell_length_a 17.554051
_cell_length_b 13.652207
_cell_length_c 8.922124
_cell_angle_alpha 90.000000
_cell_angle_beta 90.000000
_cell_angle_gamma 90.000000
_cell_volume 2138.200738
_symmetry_space_group_name_H-M "P B A N"
_symmetry_group_IT_number 50
_space_group.IT_coordinate_system_code '2'
_symmetry_cell_setting 'orthorhombic'
loop_
_space_group_symop_operation_xyz
x,y,z
1/2-x,1/2-y,z
x,1/2-y,-z
1/2-x,y,-z
-x,-y,-z
1/2+x,1/2+y,-z
-x,1/2+y,z
1/2+x,-y,z
loop_
_atom_site_type_symbol
_atom_site_label
_atom_site_fract_x
_atom_site_fract_y
_atom_site_fract_z
Si Si1 0.881161 0.798585 0.654198
Si Si2 0.951851 0.154927 0.318499
Si Si3 0.451292 0.470777 0.860720
Si Si4 0.790999 0.988301 0.647369
Si Si5 0.304004 0.138815 0.138723
Si Si6 0.076403 0.630256 0.663369
O O1 0.906612 0.750000 0.500000
O O2 0.837458 0.893520 0.597712
O O3 0.824105 0.735214 0.760172
O O4 0.960003 0.829208 0.732577
O O5 0.907839 0.257014 0.290436
O O6 0.941940 0.119983 0.488516
O O7 0.917616 0.069151 0.215805
O O8 0.383646 0.402550 0.922427
O O9 0.501182 0.409700 0.743530
O O10 0.500000 0.500000 0.000000
O O11 0.750000 0.031681 0.500000
O O12 0.731819 0.952725 0.772435
O O13 0.848151 0.070677 0.711326
O O14 0.250000 0.169367 0.000000
#
# Coordination Sequence:
#
# PCOD8205831 Si02
#       6
#     8   8   8   8   8   8
#     4  12  22  42  70 108 139 174 224 295 356 412
#     4  11  23  43  75 103 130 176 243 287 333 404
#     4  12  25  46  69  99 138 185 236 283 340 416
#     4  12  25  41  67 103 147 178 222 285 360 419
#     4  12  27  46  65 102 146 184 224 285 355 424
#     4  11  23  44  71 103 135 180 234 287 339 416
#
# _framework density 22.448782000000001
#
# number of rings (size 3 to 8) (size 9 to 14) (size 15 to 20)
#    0.000    0.333    6.667    3.000    0.000    2.000 
#    0.000    5.833    0.000    1.000    0.000    0.000 
#    0.000    0.000    0.000    0.000    0.000    0.000 
#
# Total GULP energy -595226.298825 kJ/mol
# GULP energy per Si atom -12400.547892 kJ/mol
# Density = 2.239769 g / cm^3
# Si number density = 22.448782 Si / 1000 Ang^3
#
#
#
# Elastic Constant Matrix: (Units=GPa)
#
#
# Indices 1 2 3 4 5 6 
#
# 1 103.0196 30.6367 10.9752 0.0000 0.0000 0.0000
# 2 30.6367 119.4078 33.9837 0.0000 0.0000 0.0000
# 3 10.9752 33.9837 78.5134 0.0000 0.0000 0.0000
# 4 0.0000 0.0000 0.0000 23.8146 0.0000 0.0000
# 5 0.0000 0.0000 0.0000 0.0000 40.0103 0.0000
# 6 0.0000 0.0000 0.0000 0.0000 0.0000 38.1090
#
#
#
# Elastic Compliance Matrix: (Units=1/GPa)
#
#
# Indices 1 2 3 4 5 6 
#
# 1 0.010517 -0.002600 -0.000345 0.000000 0.000000 0.000000
# 2 -0.002600 0.010194 -0.004049 0.000000 0.000000 0.000000
# 3 -0.000345 -0.004049 0.014537 0.000000 0.000000 0.000000
# 4 0.000000 0.000000 0.000000 0.041991 0.000000 0.000000
# 5 0.000000 0.000000 0.000000 0.000000 0.024994 0.000000
# 6 0.000000 0.000000 0.000000 0.000000 0.000000 0.026241
#
#
# Mechanical properties :
#
#
# Convention : Reuss Voigt Hill
#
# Bulk Modulus (GPa) = 47.03500 50.23687 48.63594
# Shear Modulus (GPa) = 33.43404 35.40980 34.42192
#
# Velocity S-wave (km/s) = 3.86339 3.97591 3.92005
# Velocity P-wave (km/s) = 6.39521 6.59577 6.49626
#
# Compressibility (1/GPa) = 0.02126076
#
# Stress axis : x y z
#
# Youngs Moduli (GPa) = 95.08519 98.09544 68.78805
#
# Poissons Ratio (x) = 0.25507 0.02371
# Poissons Ratio (y) = 0.24725 0.27852
# Poissons Ratio (z) = 0.03277 0.39718
#
# Static dielectric constant tensor:
#      x y z
#    x 4.175650 0.000000 0.000000 
#    y 0.000000 4.590830 0.000000 
#    z 0.000000 0.000000 3.919700 
# 
# 
# High freq. dielectric constant tensor:
#      x y z
#    x 1.886460 0.000000 0.000000 
#    y 0.000000 1.896110 0.000000 
#    z 0.000000 0.000000 1.871440 
# 
# From -- ./inp_files/14244.got.cif
#   From: 2010.03.12/outbox.cif.g09.slc.cpg/sg50_8_cif.got.tgz:14244.got - 2010.04.16 13:23:21.
