data_PCOD8205251
_publ_section_title
;
Structure prediction by ZEFSAII (Michael W. Deem and Ramdas Pophale) SiO2 
 PCOD8205251
Probable space group: P B A N
;
_chemical_formula_sum "Si O2"
_cell_formula_units_Z 56
_cell_length_a 21.062413
_cell_length_b 14.601152
_cell_length_c 9.012470
_cell_angle_alpha 90.000000
_cell_angle_beta 90.000000
_cell_angle_gamma 90.000000
_cell_volume 2771.654411
_symmetry_space_group_name_H-M "P B A N"
_symmetry_group_IT_number 50
_space_group.IT_coordinate_system_code '2'
_symmetry_cell_setting 'orthorhombic'
loop_
_space_group_symop_operation_xyz
x,y,z
1/2-x,1/2-y,z
x,1/2-y,-z
1/2-x,y,-z
-x,-y,-z
1/2+x,1/2+y,-z
-x,1/2+y,z
1/2+x,-y,z
loop_
_atom_site_type_symbol
_atom_site_label
_atom_site_fract_x
_atom_site_fract_y
_atom_site_fract_z
Si Si1 0.344140 0.634006 0.843043
Si Si2 0.015113 0.584486 0.184146
Si Si3 0.765107 0.032873 0.672679
Si Si4 0.498813 0.374161 0.846350
Si Si5 0.932094 0.724460 0.339033
Si Si6 0.858128 0.159891 0.820562
Si Si7 0.713759 0.669277 0.657380
O O1 0.412737 0.609039 0.779749
O O2 0.293421 0.568865 0.767640
O O3 0.328295 0.739283 0.806081
O O4 0.342201 0.616749 0.019196
O O5 0.007745 0.476930 0.211499
O O6 0.968973 0.632486 0.299109
O O7 0.993245 0.622568 0.023896
O O8 0.750000 0.035837 0.500000
O O9 0.827102 0.095307 0.697116
O O10 0.780379 0.930505 0.731587
O O11 0.445003 0.307891 0.776960
O O12 0.566486 0.333008 0.797249
O O13 0.958479 0.750000 0.500000
O O14 0.858607 0.699889 0.352605
O O15 0.750000 0.750000 0.749879
O O16 0.750000 0.662929 0.500000
#
# Coordination Sequence:
#
# PCOD8205251 Si02
#       7
#     8   8   8   8   8   8   8
#     4  10  21  38  64  87 126 169 203 248 323 387
#     4  10  22  41  63  96 127 166 216 260 321 383
#     4  11  24  37  63  90 122 165 210 271 301 363
#     4  10  22  40  67  91 129 168 208 269 320 376
#     4  12  23  38  68  95 123 170 208 265 314 378
#     4  10  20  41  60  90 126 167 202 251 322 389
#     4  10  22  44  62  83 125 171 211 243 318 376
#
# _framework density 20.204539
#
# number of rings (size 3 to 8) (size 9 to 14) (size 15 to 20)
#    0.000    1.571    2.857    2.143    2.000    4.000 
#    0.000    0.000    3.143    0.000    0.000    0.000 
#    0.000    0.000    0.000    0.000    0.000    0.000 
#
# Total GULP energy -694352.451205 kJ/mol
# GULP energy per Si atom -12399.150914 kJ/mol
# Density = 2.015855 g / cm^3
# Si number density = 20.204539 Si / 1000 Ang^3
#
#
#
# Elastic Constant Matrix: (Units=GPa)
#
#
# Indices 1 2 3 4 5 6 
#
# 1 121.2561 65.8452 49.8819 0.0000 0.0000 0.0000
# 2 65.8452 136.2399 40.9664 0.0000 0.0000 0.0000
# 3 49.8819 40.9664 56.0513 0.0000 0.0000 0.0000
# 4 0.0000 0.0000 0.0000 25.7606 0.0000 0.0000
# 5 0.0000 0.0000 0.0000 0.0000 31.3546 0.0000
# 6 0.0000 0.0000 0.0000 0.0000 0.0000 26.0004
#
#
#
# Elastic Compliance Matrix: (Units=1/GPa)
#
#
# Indices 1 2 3 4 5 6 
#
# 1 0.014548 -0.004022 -0.010007 0.000000 0.000000 0.000000
# 2 -0.004022 0.010519 -0.004109 0.000000 0.000000 0.000000
# 3 -0.010007 -0.004109 0.029750 0.000000 0.000000 0.000000
# 4 0.000000 0.000000 0.000000 0.038819 0.000000 0.000000
# 5 0.000000 0.000000 0.000000 0.000000 0.031893 0.000000
# 6 0.000000 0.000000 0.000000 0.000000 0.000000 0.038461
#
#
# Mechanical properties :
#
#
# Convention : Reuss Voigt Hill
#
# Bulk Modulus (GPa) = 53.93544 69.65938 61.79741
# Shear Modulus (GPa) = 24.21942 27.08002 25.64972
#
# Velocity S-wave (km/s) = 3.46600 3.66497 3.56687
# Velocity P-wave (km/s) = 6.53989 7.24302 6.90042
#
# Compressibility (1/GPa) = 0.01854068
#
# Stress axis : x y z
#
# Youngs Moduli (GPa) = 68.73981 95.06272 33.61396
#
# Poissons Ratio (x) = 0.38233 0.33637
# Poissons Ratio (y) = 0.27646 0.13812
# Poissons Ratio (z) = 0.68787 0.39062
#
# Static dielectric constant tensor:
#      x y z
#    x 3.697280 0.000000 0.000000 
#    y 0.000000 4.171970 0.000000 
#    z 0.000000 0.000000 3.504780 
# 
# 
# High freq. dielectric constant tensor:
#      x y z
#    x 1.797810 0.000000 0.000000 
#    y 0.000000 1.811950 0.000000 
#    z 0.000000 0.000000 1.761940 
# 
# From -- ./inp_files/15337.got.cif
#   From: 2010.03.12/outbox.cif.g09.slc.cpg/sg50_8_cif.got.tgz:15337.got - 2010.04.16 13:23:21.
