data_PCOD8205301
_publ_section_title
;
Structure prediction by ZEFSAII (Michael W. Deem and Ramdas Pophale) SiO2 
 PCOD8205301
Probable space group: P B A N
;
_chemical_formula_sum "Si O2"
_cell_formula_units_Z 56
_cell_length_a 13.570184
_cell_length_b 13.524059
_cell_length_c 15.881175
_cell_angle_alpha 90.000000
_cell_angle_beta 90.000000
_cell_angle_gamma 90.000000
_cell_volume 2914.576269
_symmetry_space_group_name_H-M "P B A N"
_symmetry_group_IT_number 50
_space_group.IT_coordinate_system_code '2'
_symmetry_cell_setting 'orthorhombic'
loop_
_space_group_symop_operation_xyz
x,y,z
1/2-x,1/2-y,z
x,1/2-y,-z
1/2-x,y,-z
-x,-y,-z
1/2+x,1/2+y,-z
-x,1/2+y,z
1/2+x,-y,z
loop_
_atom_site_type_symbol
_atom_site_label
_atom_site_fract_x
_atom_site_fract_y
_atom_site_fract_z
Si Si1 0.754678 0.910727 0.591777
Si Si2 0.363390 0.866566 0.999609
Si Si3 0.509080 0.669696 0.246031
Si Si4 0.669816 0.507864 0.245948
Si Si5 0.973916 0.129243 0.167443
Si Si6 0.409728 0.255136 0.408197
Si Si7 0.371275 0.973065 0.831300
O O1 0.750000 0.963859 0.500000
O O2 0.723255 0.988754 0.663213
O O3 0.678714 0.821574 0.588754
O O4 0.863323 0.864172 0.611039
O O5 0.406179 0.917561 0.916181
O O6 0.376286 0.750000 0.000000
O O7 0.250000 0.897805 0.000000
O O8 0.421523 0.904716 0.081097
O O9 0.610891 0.610208 0.226755
O O10 0.489592 0.753780 0.175919
O O11 0.512743 0.724321 0.336400
O O12 0.416891 0.594219 0.244238
O O13 0.594644 0.415473 0.242399
O O14 0.754565 0.488112 0.176810
O O15 0.081851 0.081641 0.170585
O O16 0.462695 0.250000 0.500000
#
# Coordination Sequence:
#
# PCOD8205301 Si02
#       7
#     8   8   8   8   8   8   8
#     4   8  14  28  52  79 110 149 187 226 273 324
#     4  11  21  38  60  80 107 147 186 224 278 334
#     4  10  21  36  55  84 114 145 189 231 274 332
#     4  10  21  36  55  84 114 145 189 231 274 332
#     4  11  22  37  59  83 111 146 183 231 282 329
#     4   8  14  28  52  79 110 149 187 226 273 324
#     4  11  22  37  59  83 111 146 183 231 282 329
#
# _framework density 19.213771000000001
#
# number of rings (size 3 to 8) (size 9 to 14) (size 15 to 20)
#    0.000    2.143    2.857    2.143    0.000    2.286 
#    0.000    1.429    0.000    6.857    0.000    2.000 
#    0.000    0.000    0.000    0.000    0.000    0.000 
#
# Total GULP energy -694028.855373 kJ/mol
# GULP energy per Si atom -12393.372417 kJ/mol
# Density = 1.917004 g / cm^3
# Si number density = 19.213771 Si / 1000 Ang^3
#
#
#
# Elastic Constant Matrix: (Units=GPa)
#
#
# Indices 1 2 3 4 5 6 
#
# 1 78.0639 38.8465 23.0487 0.0000 0.0000 0.0000
# 2 38.8465 72.0647 27.0994 0.0000 0.0000 0.0000
# 3 23.0487 27.0994 101.2779 0.0000 0.0000 0.0000
# 4 0.0000 0.0000 0.0000 23.9747 0.0000 0.0000
# 5 0.0000 0.0000 0.0000 0.0000 23.0474 0.0000
# 6 0.0000 0.0000 0.0000 0.0000 0.0000 20.2672
#
#
#
# Elastic Compliance Matrix: (Units=1/GPa)
#
#
# Indices 1 2 3 4 5 6 
#
# 1 0.017749 -0.008949 -0.001645 0.000000 0.000000 0.000000
# 2 -0.008949 0.019941 -0.003299 0.000000 0.000000 0.000000
# 3 -0.001645 -0.003299 0.011131 0.000000 0.000000 0.000000
# 4 0.000000 0.000000 0.000000 0.041711 0.000000 0.000000
# 5 0.000000 0.000000 0.000000 0.000000 0.043389 0.000000
# 6 0.000000 0.000000 0.000000 0.000000 0.000000 0.049341
#
#
# Mechanical properties :
#
#
# Convention : Reuss Voigt Hill
#
# Bulk Modulus (GPa) = 47.53974 47.71062 47.62518
# Shear Modulus (GPa) = 22.92960 24.28530 23.60745
#
# Velocity S-wave (km/s) = 3.45830 3.55907 3.50905
# Velocity P-wave (km/s) = 6.38300 6.46333 6.42329
#
# Compressibility (1/GPa) = 0.02103503
#
# Stress axis : x y z
#
# Youngs Moduli (GPa) = 56.34147 50.14792 89.84011
#
# Poissons Ratio (x) = 0.44878 0.14776
# Poissons Ratio (y) = 0.50420 0.29639
# Poissons Ratio (z) = 0.09267 0.16544
#
# Static dielectric constant tensor:
#      x y z
#    x 3.350910 0.000000 0.000000 
#    y 0.000000 3.321530 0.000000 
#    z 0.000000 0.000000 3.836370 
# 
# 
# High freq. dielectric constant tensor:
#      x y z
#    x 1.731710 0.000000 0.000000 
#    y 0.000000 1.731050 0.000000 
#    z 0.000000 0.000000 1.747090 
# 
# From -- ./inp_files/26557.got.cif
#   From: 2010.03.12/outbox.cif.g09.slc.cpg/sg50_14_cif.got.tgz:26557.got - 2010.04.16 13:23:21.
