data_PCOD8205611
_publ_section_title
;
Structure prediction by ZEFSAII (Michael W. Deem and Ramdas Pophale) SiO2 
 PCOD8205611
Probable space group: P B A N
;
_chemical_formula_sum "Si O2"
_cell_formula_units_Z 40
_cell_length_a 10.619133
_cell_length_b 21.078966
_cell_length_c 8.433362
_cell_angle_alpha 90.000000
_cell_angle_beta 90.000000
_cell_angle_gamma 90.000000
_cell_volume 1887.726647
_symmetry_space_group_name_H-M "P B A N"
_symmetry_group_IT_number 50
_space_group.IT_coordinate_system_code '2'
_symmetry_cell_setting 'orthorhombic'
loop_
_space_group_symop_operation_xyz
x,y,z
1/2-x,1/2-y,z
x,1/2-y,-z
1/2-x,y,-z
-x,-y,-z
1/2+x,1/2+y,-z
-x,1/2+y,z
1/2+x,-y,z
loop_
_atom_site_type_symbol
_atom_site_label
_atom_site_fract_x
_atom_site_fract_y
_atom_site_fract_z
Si Si1 0.874204 0.492534 0.897132
Si Si2 0.491471 0.887102 0.301051
Si Si3 0.102605 0.755364 0.825191
Si Si4 0.260390 0.121495 0.175986
Si Si5 0.438377 0.185652 0.405037
O O1 0.896428 0.443581 0.749907
O O2 0.851721 0.561096 0.821611
O O3 0.750000 0.471707 0.000000
O O4 0.000000 0.500000 0.000000
O O5 0.433795 0.822758 0.239567
O O6 0.623306 0.903160 0.220768
O O7 0.516171 0.874576 0.488752
O O8 0.250000 0.750000 0.826616
O O9 0.050027 0.698157 0.719107
O O10 0.044582 0.750000 0.000000
O O11 0.310848 0.170594 0.307135
O O12 0.250000 0.152437 0.000000
O O13 0.408555 0.250000 0.500000
#
# Coordination Sequence:
#
# PCOD8205611 Si02
#       5
#     8   8   8   8   8
#     4  11  23  42  70 100 133 183 238 288 338 412
#     4  11  23  41  65 100 136 179 218 296 343 410
#     4  10  23  41  67  98 130 179 232 277 347 424
#     4  11  22  42  70  95 135 176 240 279 348 415
#     4  10  24  43  66  99 143 178 227 291 366 420
#
# _framework density 21.189509000000001
#
# number of rings (size 3 to 8) (size 9 to 14) (size 15 to 20)
#    0.000    1.400    4.000    1.800    2.800   10.000 
#    0.000    5.000    0.000    0.000    0.000    0.000 
#    0.000    0.000    0.000    0.000    0.000    0.000 
#
# Total GULP energy -495799.943892 kJ/mol
# GULP energy per Si atom -12394.998597 kJ/mol
# Density = 2.114128 g / cm^3
# Si number density = 21.189509 Si / 1000 Ang^3
#
#
#
# Elastic Constant Matrix: (Units=GPa)
#
#
# Indices 1 2 3 4 5 6 
#
# 1 108.8258 34.0063 46.4469 0.0000 0.0000 0.0000
# 2 34.0063 64.9684 42.4078 0.0000 0.0000 0.0000
# 3 46.4469 42.4078 152.1024 0.0000 0.0000 0.0000
# 4 0.0000 0.0000 0.0000 35.5849 0.0000 0.0000
# 5 0.0000 0.0000 0.0000 0.0000 40.3690 0.0000
# 6 0.0000 0.0000 0.0000 0.0000 0.0000 39.7326
#
#
#
# Elastic Compliance Matrix: (Units=1/GPa)
#
#
# Indices 1 2 3 4 5 6 
#
# 1 0.011588 -0.004591 -0.002258 0.000000 0.000000 0.000000
# 2 -0.004591 0.020636 -0.004351 0.000000 0.000000 0.000000
# 3 -0.002258 -0.004351 0.008477 0.000000 0.000000 0.000000
# 4 0.000000 0.000000 0.000000 0.028102 0.000000 0.000000
# 5 0.000000 0.000000 0.000000 0.000000 0.024772 0.000000
# 6 0.000000 0.000000 0.000000 0.000000 0.000000 0.025168
#
#
# Mechanical properties :
#
#
# Convention : Reuss Voigt Hill
#
# Bulk Modulus (GPa) = 54.64891 63.51319 59.08105
# Shear Modulus (GPa) = 33.95736 36.67301 35.31518
#
# Velocity S-wave (km/s) = 4.00754 4.16470 4.08687
# Velocity P-wave (km/s) = 6.87462 7.29145 7.08610
#
# Compressibility (1/GPa) = 0.01829863
#
# Stress axis : x y z
#
# Youngs Moduli (GPa) = 86.29977 48.45996 117.96087
#
# Poissons Ratio (x) = 0.22248 0.26640
# Poissons Ratio (y) = 0.39621 0.51330
# Poissons Ratio (z) = 0.19490 0.21087
#
# Static dielectric constant tensor:
#      x y z
#    x 3.847640 0.000000 0.000000 
#    y 0.000000 3.828550 0.000000 
#    z 0.000000 0.000000 4.377390 
# 
# 
# High freq. dielectric constant tensor:
#      x y z
#    x 1.841470 0.000000 0.000000 
#    y 0.000000 1.820270 0.000000 
#    z 0.000000 0.000000 1.839900 
# 
# From -- ./inp_files/9511.got.cif
#   From: 2010.03.12/outbox.cif.g09.slc.cpg/sg50_5_cif.got.tgz:9511.got - 2010.04.16 13:23:21.
