data_PCOD8205703
_publ_section_title
;
Structure prediction by ZEFSAII (Michael W. Deem and Ramdas Pophale) SiO2 
 PCOD8205703
Probable space group: P B A N
;
_chemical_formula_sum "Si O2"
_cell_formula_units_Z 38
_cell_length_a 12.488933
_cell_length_b 13.057892
_cell_length_c 11.046792
_cell_angle_alpha 90.000000
_cell_angle_beta 90.000000
_cell_angle_gamma 90.000000
_cell_volume 1801.501320
_symmetry_space_group_name_H-M "P B A N"
_symmetry_group_IT_number 50
_space_group.IT_coordinate_system_code '2'
_symmetry_cell_setting 'orthorhombic'
loop_
_space_group_symop_operation_xyz
x,y,z
1/2-x,1/2-y,z
x,1/2-y,-z
1/2-x,y,-z
-x,-y,-z
1/2+x,1/2+y,-z
-x,1/2+y,z
1/2+x,-y,z
loop_
_atom_site_type_symbol
_atom_site_label
_atom_site_fract_x
_atom_site_fract_y
_atom_site_fract_z
Si Si1 0.430320 0.834198 0.907436
Si Si2 0.250000 0.750000 0.500000
Si Si3 0.883201 0.960279 0.206790
Si Si4 0.863354 0.775643 0.361533
Si Si5 0.590319 0.312975 0.297488
Si Si6 0.750000 0.477606 0.000000
O O1 0.522776 0.910203 0.869209
O O2 0.371834 0.776531 0.794520
O O3 0.348221 0.903801 0.977200
O O4 0.477783 0.750000 0.000000
O O5 0.331533 0.685060 0.584781
O O6 0.875084 0.896534 0.332025
O O7 0.907549 0.076486 0.238761
O O8 0.778114 0.955028 0.119446
O O9 0.750000 0.750000 0.295578
O O10 0.850038 0.750000 0.500000
O O11 0.964853 0.709505 0.319808
#
# Coordination Sequence:
#
# PCOD8205703 Si02
#       6
#     8   2   8   8   8   4
#     4  11  24  43  67  99 142 173 223 289 340 403
#     4  12  24  44  68 104 138 176 228 304 324 412
#     4  11  26  40  72  99 133 186 224 278 346 414
#     4  10  24  47  65  95 137 181 229 287 336 399
#     4  11  24  44  69 102 135 181 232 282 344 406
#     4  12  23  40  65 104 136 182 221 284 339 422
#
# _framework density 21.093519000000001
#
# number of rings (size 3 to 8) (size 9 to 14) (size 15 to 20)
#    0.000    1.053    3.158    2.211    2.947    4.211 
#    0.000    0.000    0.000    0.000    0.000    0.000 
#    0.000    0.000    0.000    0.000    0.000    0.000 
#
# Total GULP energy -470793.467101 kJ/mol
# GULP energy per Si atom -12389.301766 kJ/mol
# Density = 2.104551 g / cm^3
# Si number density = 21.093519 Si / 1000 Ang^3
#
#
#
# Elastic Constant Matrix: (Units=GPa)
#
#
# Indices 1 2 3 4 5 6 
#
# 1 117.3980 51.0268 42.5047 0.0000 0.0000 0.0000
# 2 51.0268 117.3052 57.3887 0.0000 0.0000 0.0000
# 3 42.5047 57.3887 118.0699 0.0000 0.0000 0.0000
# 4 0.0000 0.0000 0.0000 40.1812 0.0000 0.0000
# 5 0.0000 0.0000 0.0000 0.0000 24.1353 0.0000
# 6 0.0000 0.0000 0.0000 0.0000 0.0000 27.9663
#
#
#
# Elastic Compliance Matrix: (Units=1/GPa)
#
#
# Indices 1 2 3 4 5 6 
#
# 1 0.010895 -0.003700 -0.002124 0.000000 0.000000 0.000000
# 2 -0.003700 0.012441 -0.004715 0.000000 0.000000 0.000000
# 3 -0.002124 -0.004715 0.011526 0.000000 0.000000 0.000000
# 4 0.000000 0.000000 0.000000 0.024887 0.000000 0.000000
# 5 0.000000 0.000000 0.000000 0.000000 0.041433 0.000000
# 6 0.000000 0.000000 0.000000 0.000000 0.000000 0.035757
#
#
# Mechanical properties :
#
#
# Convention : Reuss Voigt Hill
#
# Bulk Modulus (GPa) = 72.54703 72.73482 72.64093
# Shear Modulus (GPa) = 30.74794 31.91343 31.33069
#
# Velocity S-wave (km/s) = 3.82212 3.89389 3.85817
# Velocity P-wave (km/s) = 7.34478 7.40090 7.37290
#
# Compressibility (1/GPa) = 0.01378416
#
# Stress axis : x y z
#
# Youngs Moduli (GPa) = 91.78276 80.37873 86.76191
#
# Poissons Ratio (x) = 0.29744 0.18425
# Poissons Ratio (y) = 0.33964 0.40908
# Poissons Ratio (z) = 0.19491 0.37898
#
# Static dielectric constant tensor:
#      x y z
#    x 4.909940 0.000000 0.000000 
#    y 0.000000 3.812720 0.000000 
#    z 0.000000 0.000000 4.810240 
# 
# 
# High freq. dielectric constant tensor:
#      x y z
#    x 1.838410 0.000000 0.000000 
#    y 0.000000 1.821910 0.000000 
#    z 0.000000 0.000000 1.837120 
# 
# From -- ./inp_files/20030.got.cif
#   From: 2010.03.12/outbox.cif.g09.slc.cpg/sg50_11_cif.got.tgz:20030.got - 2010.04.16 13:23:21.
