data_PCOD8205568
_publ_section_title
;
Structure prediction by ZEFSAII (Michael W. Deem and Ramdas Pophale) SiO2 
 PCOD8205568
Probable space group: P B A N
;
_chemical_formula_sum "Si O2"
_cell_formula_units_Z 56
_cell_length_a 9.489626
_cell_length_b 13.133287
_cell_length_c 20.872829
_cell_angle_alpha 90.000000
_cell_angle_beta 90.000000
_cell_angle_gamma 90.000000
_cell_volume 2601.380298
_symmetry_space_group_name_H-M "P B A N"
_symmetry_group_IT_number 50
_space_group.IT_coordinate_system_code '2'
_symmetry_cell_setting 'orthorhombic'
loop_
_space_group_symop_operation_xyz
x,y,z
1/2-x,1/2-y,z
x,1/2-y,-z
1/2-x,y,-z
-x,-y,-z
1/2+x,1/2+y,-z
-x,1/2+y,z
1/2+x,-y,z
loop_
_atom_site_type_symbol
_atom_site_label
_atom_site_fract_x
_atom_site_fract_y
_atom_site_fract_z
Si Si1 0.658843 0.395836 0.850156
Si Si2 0.616313 0.945652 0.041780
Si Si3 0.750000 0.250000 0.396257
Si Si4 0.056181 0.049572 0.251827
Si Si5 0.117341 0.446026 0.461303
Si Si6 0.286574 0.962454 0.333139
Si Si7 0.528764 0.315257 0.145266
Si Si8 0.478592 0.750000 0.500000
O O1 0.671671 0.470169 0.909641
O O2 0.591392 0.448880 0.788519
O O3 0.547703 0.305023 0.863146
O O4 0.818064 0.361213 0.839302
O O5 0.543509 0.852242 0.079419
O O6 0.750000 0.906633 0.000000
O O7 0.500000 0.000000 0.000000
O O8 0.778822 0.351395 0.353344
O O9 0.619433 0.285576 0.440794
O O10 0.896015 0.051501 0.275773
O O11 0.070188 0.149590 0.205670
O O12 0.164823 0.042615 0.311374
O O13 0.250000 0.482749 0.500000
O O14 0.128211 0.480941 0.388652
O O15 0.000000 0.500000 0.500000
O O16 0.085575 0.327695 0.467224
#
# Coordination Sequence:
#
# PCOD8205568 Si02
#       8
#     8   8   4   8   8   8   8   4
#     4  10  22  43  70  94 133 186 230 271 343 404
#     4  11  22  41  68 103 141 172 222 285 336 394
#     4  11  24  40  72  98 124 182 225 276 342 428
#     4  11  24  42  66  98 133 175 225 291 329 397
#     4  12  24  45  67  96 136 176 218 282 351 417
#     4  12  25  42  69  98 134 172 233 284 346 408
#     4  10  22  43  69  97 134 186 229 272 336 410
#     4  11  23  44  66  98 132 170 220 274 354 418
#
# _framework density 21.527032999999999
#
# number of rings (size 3 to 8) (size 9 to 14) (size 15 to 20)
#    0.000    1.000    4.286    2.786    2.000    0.571 
#    0.000    3.571    0.000    0.000    0.000    0.000 
#    0.000    0.000    0.000    0.000    0.000    0.000 
#
# Total GULP energy -694020.731640 kJ/mol
# GULP energy per Si atom -12393.227351 kJ/mol
# Density = 2.147804 g / cm^3
# Si number density = 21.527033 Si / 1000 Ang^3
#
#
#
# Elastic Constant Matrix: (Units=GPa)
#
#
# Indices 1 2 3 4 5 6 
#
# 1 101.4769 25.8403 39.4721 0.0000 0.0000 0.0000
# 2 25.8403 102.6774 36.3332 0.0000 0.0000 0.0000
# 3 39.4721 36.3332 104.5124 0.0000 0.0000 0.0000
# 4 0.0000 0.0000 0.0000 13.6430 0.0000 0.0000
# 5 0.0000 0.0000 0.0000 0.0000 41.9741 0.0000
# 6 0.0000 0.0000 0.0000 0.0000 0.0000 37.1452
#
#
#
# Elastic Compliance Matrix: (Units=1/GPa)
#
#
# Indices 1 2 3 4 5 6 
#
# 1 0.011773 -0.001584 -0.003896 0.000000 0.000000 0.000000
# 2 -0.001584 0.011319 -0.003336 0.000000 0.000000 0.000000
# 3 -0.003896 -0.003336 0.012199 0.000000 0.000000 0.000000
# 4 0.000000 0.000000 0.000000 0.073297 0.000000 0.000000
# 5 0.000000 0.000000 0.000000 0.000000 0.023824 0.000000
# 6 0.000000 0.000000 0.000000 0.000000 0.000000 0.026921
#
#
# Mechanical properties :
#
#
# Convention : Reuss Voigt Hill
#
# Bulk Modulus (GPa) = 56.63085 56.88420 56.75752
# Shear Modulus (GPa) = 27.34430 32.35388 29.84909
#
# Velocity S-wave (km/s) = 3.56790 3.88099 3.72773
# Velocity P-wave (km/s) = 6.58309 6.82383 6.70454
#
# Compressibility (1/GPa) = 0.01765822
#
# Stress axis : x y z
#
# Youngs Moduli (GPa) = 84.93841 88.35003 81.97085
#
# Poissons Ratio (x) = 0.13998 0.31933
# Poissons Ratio (y) = 0.13458 0.27349
# Poissons Ratio (z) = 0.33089 0.29478
#
# Static dielectric constant tensor:
#      x y z
#    x 3.828970 0.000000 0.000000 
#    y 0.000000 3.496880 0.000000 
#    z 0.000000 0.000000 3.508670 
# 
# 
# High freq. dielectric constant tensor:
#      x y z
#    x 1.850680 0.000000 0.000000 
#    y 0.000000 1.834540 0.000000 
#    z 0.000000 0.000000 1.859850 
# 
# From -- ./inp_files/30692.got.cif
#   From: 2010.03.12/outbox.cif.g09.slc.cpg/sg50_16_cif.got.tgz:30692.got - 2010.04.16 13:23:21.
