data_PCOD8205016
_publ_section_title
;
Structure prediction by ZEFSAII (Michael W. Deem and Ramdas Pophale) SiO2 
 PCOD8205016
Probable space group: P B A N
;
_chemical_formula_sum "Si O2"
_cell_formula_units_Z 58
_cell_length_a 21.208562
_cell_length_b 14.433682
_cell_length_c 8.731003
_cell_angle_alpha 90.000000
_cell_angle_beta 90.000000
_cell_angle_gamma 90.000000
_cell_volume 2672.714030
_symmetry_space_group_name_H-M "P B A N"
_symmetry_group_IT_number 50
_space_group.IT_coordinate_system_code '2'
_symmetry_cell_setting 'orthorhombic'
loop_
_space_group_symop_operation_xyz
x,y,z
1/2-x,1/2-y,z
x,1/2-y,-z
1/2-x,y,-z
-x,-y,-z
1/2+x,1/2+y,-z
-x,1/2+y,z
1/2+x,-y,z
loop_
_atom_site_type_symbol
_atom_site_label
_atom_site_fract_x
_atom_site_fract_y
_atom_site_fract_z
Si Si1 0.250000 0.250000 0.000000
Si Si2 0.264721 0.583297 0.830723
Si Si3 0.936698 0.316095 0.141677
Si Si4 0.819057 0.591501 0.161902
Si Si5 0.666671 0.325815 0.626751
Si Si6 0.474204 0.060287 0.295662
Si Si7 0.389372 0.526581 0.935777
Si Si8 0.899681 0.518766 0.423227
O O1 0.207959 0.308450 0.880351
O O2 0.237455 0.480285 0.808896
O O3 0.234256 0.652483 0.706459
O O4 0.340750 0.577730 0.818117
O O5 0.250000 0.622249 0.000000
O O6 0.882817 0.277482 0.255204
O O7 0.000672 0.338777 0.237840
O O8 0.952938 0.250000 0.000000
O O9 0.907053 0.411141 0.080979
O O10 0.862555 0.591611 0.314984
O O11 0.857303 0.562859 0.010456
O O12 0.680344 0.250000 0.500000
O O13 0.638312 0.421817 0.558338
O O14 0.414997 0.068576 0.413578
O O15 0.452087 0.001292 0.150518
O O16 0.531519 0.000638 0.358077
#
# Coordination Sequence:
#
# PCOD8205016 Si02
#       8
#     2   8   8   8   8   8   8   8
#     4  12  20  36  76 110 130 168 238 300 322 412
#     4   9  16  38  65  88 132 181 209 263 339 398
#     4  11  23  39  63  97 132 174 225 285 325 396
#     4  10  19  37  66 100 129 168 223 274 337 394
#     4  10  20  38  66  95 135 176 226 272 333 407
#     4  10  21  39  67  91 123 183 222 263 331 411
#     4  11  19  39  68  94 130 180 221 265 342 405
#     4   9  20  41  66  88 133 182 214 270 350 402
#
# _framework density 21.700787999999999
#
# number of rings (size 3 to 8) (size 9 to 14) (size 15 to 20)
#    0.000    1.931    7.586    0.414    1.931    0.000 
#    1.241    4.138   15.172    0.828    0.000    0.000 
#    0.000    0.000    0.000    0.000    0.000    0.000 
#
# Total GULP energy -718840.062656 kJ/mol
# GULP energy per Si atom -12393.794184 kJ/mol
# Density = 2.165140 g / cm^3
# Si number density = 21.700788 Si / 1000 Ang^3
#
#
#
# Elastic Constant Matrix: (Units=GPa)
#
#
# Indices 1 2 3 4 5 6 
#
# 1 68.0364 32.1447 39.5505 0.0000 0.0000 0.0000
# 2 32.1447 100.4340 58.7596 0.0000 0.0000 0.0000
# 3 39.5505 58.7596 115.0622 0.0000 0.0000 0.0000
# 4 0.0000 0.0000 0.0000 45.3803 0.0000 0.0000
# 5 0.0000 0.0000 0.0000 0.0000 44.6500 0.0000
# 6 0.0000 0.0000 0.0000 0.0000 0.0000 13.3211
#
#
#
# Elastic Compliance Matrix: (Units=1/GPa)
#
#
# Indices 1 2 3 4 5 6 
#
# 1 0.019079 -0.003236 -0.004905 0.000000 0.000000 0.000000
# 2 -0.003236 0.014748 -0.006419 0.000000 0.000000 0.000000
# 3 -0.004905 -0.006419 0.013655 0.000000 0.000000 0.000000
# 4 0.000000 0.000000 0.000000 0.022036 0.000000 0.000000
# 5 0.000000 0.000000 0.000000 0.000000 0.022396 0.000000
# 6 0.000000 0.000000 0.000000 0.000000 0.000000 0.075069
#
#
# Mechanical properties :
#
#
# Convention : Reuss Voigt Hill
#
# Bulk Modulus (GPa) = 54.46482 60.49357 57.47919
# Shear Modulus (GPa) = 24.72501 30.87548 27.80025
#
# Velocity S-wave (km/s) = 3.37910 3.77607 3.58309
# Velocity P-wave (km/s) = 6.35429 6.85189 6.60777
#
# Compressibility (1/GPa) = 0.01836048
#
# Stress axis : x y z
#
# Youngs Moduli (GPa) = 52.41494 67.80504 73.23293
#
# Poissons Ratio (x) = 0.21945 0.35922
# Poissons Ratio (y) = 0.16964 0.47009
# Poissons Ratio (z) = 0.25710 0.43525
#
# Static dielectric constant tensor:
#      x y z
#    x 4.150800 0.000000 0.000000 
#    y 0.000000 3.543760 0.000000 
#    z 0.000000 0.000000 4.170770 
# 
# 
# High freq. dielectric constant tensor:
#      x y z
#    x 1.859860 0.000000 0.000000 
#    y 0.000000 1.811990 0.000000 
#    z 0.000000 0.000000 1.859730 
# 
# From -- ./inp_files/16098.got.cif
#   From: 2010.03.12/outbox.cif.g09.slc.cpg/sg50_9_cif.got.tgz:16098.got - 2010.04.16 13:23:21.
