data_PCOD8205716
_publ_section_title
;
Structure prediction by ZEFSAII (Michael W. Deem and Ramdas Pophale) SiO2 
 PCOD8205716
Probable space group: P B A N
;
_chemical_formula_sum "Si O2"
_cell_formula_units_Z 32
_cell_length_a 9.664441
_cell_length_b 8.907713
_cell_length_c 14.802298
_cell_angle_alpha 90.000000
_cell_angle_beta 90.000000
_cell_angle_gamma 90.000000
_cell_volume 1274.301218
_symmetry_space_group_name_H-M "P B A N"
_symmetry_group_IT_number 50
_space_group.IT_coordinate_system_code '2'
_symmetry_cell_setting 'orthorhombic'
loop_
_space_group_symop_operation_xyz
x,y,z
1/2-x,1/2-y,z
x,1/2-y,-z
1/2-x,y,-z
-x,-y,-z
1/2+x,1/2+y,-z
-x,1/2+y,z
1/2+x,-y,z
loop_
_atom_site_type_symbol
_atom_site_label
_atom_site_fract_x
_atom_site_fract_y
_atom_site_fract_z
Si Si1 0.088294 0.571531 0.301677
Si Si2 0.383174 0.073879 0.940101
Si Si3 0.803566 0.905844 0.602047
Si Si4 0.475391 0.828916 0.823748
O O1 0.232529 0.549504 0.352277
O O2 0.101757 0.724154 0.246806
O O3 0.966810 0.577201 0.378323
O O4 0.078843 0.435609 0.230610
O O5 0.434687 0.231900 0.896577
O O6 0.358335 0.940926 0.866310
O O7 0.250000 0.105882 0.000000
O O8 0.500000 0.000000 0.000000
O O9 0.750000 0.750000 0.646484
O O10 0.750000 0.905911 0.500000
#
# Coordination Sequence:
#
# PCOD8205716 Si02
#       4
#     8   8   8   8
#     4  11  23  46  72 105 144 188 241 288 358 421
#     4  11  26  45  69 101 142 180 236 291 361 420
#     4  11  24  44  71 107 149 190 235 295 357 417
#     4  10  25  44  73 104 138 188 235 293 355 428
#
# _framework density 25.111802000000001
#
# number of rings (size 3 to 8) (size 9 to 14) (size 15 to 20)
#    0.000    1.250    2.500    1.500    0.000   17.000 
#    0.000    5.000    0.000    0.000    0.000    0.000 
#    0.000    0.000    0.000    0.000    0.000    0.000 
#
# Total GULP energy -396580.882840 kJ/mol
# GULP energy per Si atom -12393.152589 kJ/mol
# Density = 2.505465 g / cm^3
# Si number density = 25.111802 Si / 1000 Ang^3
#
#
#
# Elastic Constant Matrix: (Units=GPa)
#
#
# Indices 1 2 3 4 5 6 
#
# 1 77.9608 18.4219 14.6622 0.0000 0.0000 0.0000
# 2 18.4219 163.6943 41.1354 0.0000 0.0000 0.0000
# 3 14.6622 41.1354 88.5047 0.0000 0.0000 0.0000
# 4 0.0000 0.0000 0.0000 33.2454 0.0000 0.0000
# 5 0.0000 0.0000 0.0000 0.0000 28.0133 0.0000
# 6 0.0000 0.0000 0.0000 0.0000 0.0000 25.7688
#
#
#
# Elastic Compliance Matrix: (Units=1/GPa)
#
#
# Indices 1 2 3 4 5 6 
#
# 1 0.013405 -0.001076 -0.001721 0.000000 0.000000 0.000000
# 2 -0.001076 0.007003 -0.003077 0.000000 0.000000 0.000000
# 3 -0.001721 -0.003077 0.013014 0.000000 0.000000 0.000000
# 4 0.000000 0.000000 0.000000 0.030079 0.000000 0.000000
# 5 0.000000 0.000000 0.000000 0.000000 0.035697 0.000000
# 6 0.000000 0.000000 0.000000 0.000000 0.000000 0.038807
#
#
# Mechanical properties :
#
#
# Convention : Reuss Voigt Hill
#
# Bulk Modulus (GPa) = 46.13591 53.17766 49.65678
# Shear Modulus (GPa) = 31.85178 34.46818 33.15998
#
# Velocity S-wave (km/s) = 3.56532 3.70887 3.63780
# Velocity P-wave (km/s) = 5.94649 6.28993 6.12062
#
# Compressibility (1/GPa) = 0.02167509
#
# Stress axis : x y z
#
# Youngs Moduli (GPa) = 74.59991 142.79156 76.84118
#
# Poissons Ratio (x) = 0.15367 0.13221
# Poissons Ratio (y) = 0.08028 0.23642
# Poissons Ratio (z) = 0.12835 0.43932
#
# Static dielectric constant tensor:
#      x y z
#    x 3.802530 0.000000 0.000000 
#    y 0.000000 6.213240 0.000000 
#    z 0.000000 0.000000 4.995210 
# 
# 
# High freq. dielectric constant tensor:
#      x y z
#    x 1.981540 0.000000 0.000000 
#    y 0.000000 2.030540 0.000000 
#    z 0.000000 0.000000 2.013600 
# 
# From -- ./inp_files/25599.got.cif
#   From: 2010.03.12/outbox.cif.g09.slc.cpg/sg50_13_cif.got.tgz:25599.got - 2010.04.16 13:23:21.
