data_PCOD8205036
_publ_section_title
;
Structure prediction by ZEFSAII (Michael W. Deem and Ramdas Pophale) SiO2 
 PCOD8205036
Probable space group: P B A N
;
_chemical_formula_sum "Si O2"
_cell_formula_units_Z 36
_cell_length_a 16.631523
_cell_length_b 14.175098
_cell_length_c 8.465753
_cell_angle_alpha 90.000000
_cell_angle_beta 90.000000
_cell_angle_gamma 90.000000
_cell_volume 1995.830632
_symmetry_space_group_name_H-M "P B A N"
_symmetry_group_IT_number 50
_space_group.IT_coordinate_system_code '2'
_symmetry_cell_setting 'orthorhombic'
loop_
_space_group_symop_operation_xyz
x,y,z
1/2-x,1/2-y,z
x,1/2-y,-z
1/2-x,y,-z
-x,-y,-z
1/2+x,1/2+y,-z
-x,1/2+y,z
1/2+x,-y,z
loop_
_atom_site_type_symbol
_atom_site_label
_atom_site_fract_x
_atom_site_fract_y
_atom_site_fract_z
Si Si1 0.750000 0.092132 0.000000
Si Si2 0.004365 0.154019 0.044094
Si Si3 0.903916 0.017054 0.840215
Si Si4 0.145886 0.697537 0.248491
Si Si5 0.836906 0.386938 0.438643
O O1 0.676833 0.025932 0.055719
O O2 0.779559 0.155874 0.146968
O O3 0.931094 0.201370 0.138976
O O4 0.053435 0.250000 0.000000
O O5 0.970991 0.092457 0.897190
O O6 0.062490 0.088699 0.147441
O O7 0.883911 0.031541 0.655092
O O8 0.117114 0.635597 0.398994
O O9 0.172165 0.799068 0.317248
O O10 0.750000 0.420164 0.500000
#
# Coordination Sequence:
#
# PCOD8205036 Si02
#       5
#     4   8   8   8   8
#     4  10  20  33  51  80 108 150 181 234 287 334
#     4  10  20  37  54  78 108 154 192 235 276 344
#     4  10  21  34  55  79 113 143 192 233 285 338
#     4  10  20  30  53  78 116 147 182 229 294 340
#     4  11  20  31  50  87 114 144 178 233 294 354
#
# _framework density 18.037600999999999
#
# number of rings (size 3 to 8) (size 9 to 14) (size 15 to 20)
#    0.000    1.778    4.444    1.333    0.000    1.778 
#    0.000    0.556    0.000    0.000    0.000    0.000 
#    0.000    0.000    0.000    0.000    0.000    0.000 
#
# Total GULP energy -446048.133407 kJ/mol
# GULP energy per Si atom -12390.225928 kJ/mol
# Density = 1.799655 g / cm^3
# Si number density = 18.037601 Si / 1000 Ang^3
#
#
#
# Elastic Constant Matrix: (Units=GPa)
#
#
# Indices 1 2 3 4 5 6 
#
# 1 58.1094 41.9789 28.2598 0.0000 0.0000 0.0000
# 2 41.9789 120.8510 46.4883 0.0000 0.0000 0.0000
# 3 28.2598 46.4883 115.8900 0.0000 0.0000 0.0000
# 4 0.0000 0.0000 0.0000 23.8209 0.0000 0.0000
# 5 0.0000 0.0000 0.0000 0.0000 27.4461 0.0000
# 6 0.0000 0.0000 0.0000 0.0000 0.0000 1.2245
#
#
#
# Elastic Compliance Matrix: (Units=1/GPa)
#
#
# Indices 1 2 3 4 5 6 
#
# 1 0.023792 -0.007133 -0.002940 0.000000 0.000000 0.000000
# 2 -0.007133 0.011923 -0.003043 0.000000 0.000000 0.000000
# 3 -0.002940 -0.003043 0.010567 0.000000 0.000000 0.000000
# 4 0.000000 0.000000 0.000000 0.041980 0.000000 0.000000
# 5 0.000000 0.000000 0.000000 0.000000 0.036435 0.000000
# 6 0.000000 0.000000 0.000000 0.000000 0.000000 0.816627
#
#
# Mechanical properties :
#
#
# Convention : Reuss Voigt Hill
#
# Bulk Modulus (GPa) = 49.88047 58.70049 54.29048
# Shear Modulus (GPa) = 5.13220 22.37319 13.75269
#
# Velocity S-wave (km/s) = 1.68863 3.52570 2.76424
# Velocity P-wave (km/s) = 5.61387 7.01343 6.35231
#
# Compressibility (1/GPa) = 0.02004793
#
# Stress axis : x y z
#
# Youngs Moduli (GPa) = 42.03086 83.86965 94.63704
#
# Poissons Ratio (x) = 0.59828 0.27825
# Poissons Ratio (y) = 0.29982 0.28802
# Poissons Ratio (z) = 0.12358 0.25525
#
# Static dielectric constant tensor:
#      x y z
#    x 3.191640 0.000000 0.000000 
#    y 0.000000 3.150790 0.000000 
#    z 0.000000 0.000000 3.824830 
# 
# 
# High freq. dielectric constant tensor:
#      x y z
#    x 1.677090 0.000000 0.000000 
#    y 0.000000 1.666270 0.000000 
#    z 0.000000 0.000000 1.715660 
# 
# From -- ./inp_files/14028.got.cif
#   From: 2010.03.12/outbox.cif.g09.slc.cpg/sg50_8_cif.got.tgz:14028.got - 2010.04.16 13:23:21.
