data_PCOD8205473
_publ_section_title
;
Structure prediction by ZEFSAII (Michael W. Deem and Ramdas Pophale) SiO2 
 PCOD8205473
Probable space group: P B A N
;
_chemical_formula_sum "Si O2"
_cell_formula_units_Z 40
_cell_length_a 16.204341
_cell_length_b 22.238427
_cell_length_c 5.323729
_cell_angle_alpha 90.000000
_cell_angle_beta 90.000000
_cell_angle_gamma 90.000000
_cell_volume 1918.453948
_symmetry_space_group_name_H-M "P B A N"
_symmetry_group_IT_number 50
_space_group.IT_coordinate_system_code '2'
_symmetry_cell_setting 'orthorhombic'
loop_
_space_group_symop_operation_xyz
x,y,z
1/2-x,1/2-y,z
x,1/2-y,-z
1/2-x,y,-z
-x,-y,-z
1/2+x,1/2+y,-z
-x,1/2+y,z
1/2+x,-y,z
loop_
_atom_site_type_symbol
_atom_site_label
_atom_site_fract_x
_atom_site_fract_y
_atom_site_fract_z
Si Si1 0.893483 0.015411 0.749094
Si Si2 0.033837 0.188270 0.381931
Si Si3 0.250000 0.044647 0.000000
Si Si4 0.679049 0.856311 0.693917
Si Si5 0.649338 0.750000 0.000000
Si Si6 0.544806 0.428558 0.252741
O O1 0.896975 0.048627 0.480190
O O2 0.915509 0.059156 0.981555
O O3 0.954677 0.958619 0.735098
O O4 0.799072 0.994441 0.793409
O O5 0.996517 0.250000 0.500000
O O6 0.087161 0.151381 0.587274
O O7 0.093197 0.203908 0.153392
O O8 0.962697 0.143791 0.284785
O O9 0.178405 0.086306 0.877548
O O10 0.750000 0.870937 0.500000
O O11 0.705219 0.793089 0.824620
#
# Coordination Sequence:
#
# PCOD8205473 Si02
#       6
#     8   8   4   8   4   8
#     4  10  24  38  65  83 127 157 217 242 319 353
#     4  10  23  37  60  84 119 155 207 254 308 372
#     4  12  26  39  56  90 117 172 198 264 298 388
#     4  11  23  34  53  78 123 160 204 240 297 361
#     4  10  22  37  50  86 112 169 198 248 290 373
#     4  10  22  42  60  92 115 169 198 266 297 376
#
# _framework density 20.850123
#
# number of rings (size 3 to 8) (size 9 to 14) (size 15 to 20)
#    0.000    1.600    0.000    3.600   16.800    9.600 
#    0.000    0.000    0.000    0.000    0.000    4.200 
#    0.000    0.000    0.000    0.000    0.000    0.000 
#
# Total GULP energy -495954.804959 kJ/mol
# GULP energy per Si atom -12398.870124 kJ/mol
# Density = 2.080267 g / cm^3
# Si number density = 20.850123 Si / 1000 Ang^3
#
#
#
# Elastic Constant Matrix: (Units=GPa)
#
#
# Indices 1 2 3 4 5 6 
#
# 1 53.0431 38.3775 18.0536 0.0000 0.0000 0.0000
# 2 38.3775 123.0865 36.7388 0.0000 0.0000 0.0000
# 3 18.0536 36.7388 104.0464 0.0000 0.0000 0.0000
# 4 0.0000 0.0000 0.0000 29.6134 0.0000 0.0000
# 5 0.0000 0.0000 0.0000 0.0000 30.5535 0.0000
# 6 0.0000 0.0000 0.0000 0.0000 0.0000 29.9614
#
#
#
# Elastic Compliance Matrix: (Units=1/GPa)
#
#
# Indices 1 2 3 4 5 6 
#
# 1 0.024625 -0.007157 -0.001746 0.000000 0.000000 0.000000
# 2 -0.007157 0.011161 -0.002699 0.000000 0.000000 0.000000
# 3 -0.001746 -0.002699 0.010867 0.000000 0.000000 0.000000
# 4 0.000000 0.000000 0.000000 0.033768 0.000000 0.000000
# 5 0.000000 0.000000 0.000000 0.000000 0.032729 0.000000
# 6 0.000000 0.000000 0.000000 0.000000 0.000000 0.033376
#
#
# Mechanical properties :
#
#
# Convention : Reuss Voigt Hill
#
# Bulk Modulus (GPa) = 42.64428 51.83510 47.23969
# Shear Modulus (GPa) = 28.16142 30.49273 29.32707
#
# Velocity S-wave (km/s) = 3.67912 3.82838 3.75449
# Velocity P-wave (km/s) = 6.20847 6.66759 6.44212
#
# Compressibility (1/GPa) = 0.02344981
#
# Stress axis : x y z
#
# Youngs Moduli (GPa) = 40.60949 89.59381 92.02059
#
# Poissons Ratio (x) = 0.64120 0.16064
# Poissons Ratio (y) = 0.29063 0.24839
# Poissons Ratio (z) = 0.07089 0.24184
#
# Static dielectric constant tensor:
#      x y z
#    x 3.204290 0.000000 0.000000 
#    y 0.000000 3.763710 0.000000 
#    z 0.000000 0.000000 4.184530 
# 
# 
# High freq. dielectric constant tensor:
#      x y z
#    x 1.756700 0.000000 0.000000 
#    y 0.000000 1.811510 0.000000 
#    z 0.000000 0.000000 1.843590 
# 
# From -- ./inp_files/4380.got.cif
#   From: 2010.03.12/outbox.cif.g09.slc.cpg/sg50_3_cif.got.tgz:4380.got - 2010.04.16 13:23:21.
