data_PCOD8205363
_publ_section_title
;
Structure prediction by ZEFSAII (Michael W. Deem and Ramdas Pophale) SiO2 
 PCOD8205363
Probable space group: P B A N
;
_chemical_formula_sum "Si O2"
_cell_formula_units_Z 64
_cell_length_a 11.951849
_cell_length_b 30.591954
_cell_length_c 8.827762
_cell_angle_alpha 90.000000
_cell_angle_beta 90.000000
_cell_angle_gamma 90.000000
_cell_volume 3227.698282
_symmetry_space_group_name_H-M "P B A N"
_symmetry_group_IT_number 50
_space_group.IT_coordinate_system_code '2'
_symmetry_cell_setting 'orthorhombic'
loop_
_space_group_symop_operation_xyz
x,y,z
1/2-x,1/2-y,z
x,1/2-y,-z
1/2-x,y,-z
-x,-y,-z
1/2+x,1/2+y,-z
-x,1/2+y,z
1/2+x,-y,z
loop_
_atom_site_type_symbol
_atom_site_label
_atom_site_fract_x
_atom_site_fract_y
_atom_site_fract_z
Si Si1 0.030294 0.703004 0.824502
Si Si2 0.971471 0.051324 0.328435
Si Si3 0.754741 0.418896 0.178422
Si Si4 0.970896 0.048096 0.679141
Si Si5 0.880917 0.878032 0.175585
Si Si6 0.256210 0.673254 0.322785
Si Si7 0.968693 0.199845 0.171837
Si Si8 0.124448 0.379473 0.819289
O O1 0.139070 0.703981 0.716914
O O2 0.978269 0.751702 0.809258
O O3 0.939613 0.667122 0.772845
O O4 0.065779 0.692418 0.997126
O O5 0.077413 0.078577 0.269103
O O6 0.863795 0.067174 0.240621
O O7 0.953543 0.060284 0.504786
O O8 0.985066 0.000453 0.295689
O O9 0.852245 0.450381 0.236906
O O10 0.783103 0.370538 0.231736
O O11 0.750000 0.420938 0.000000
O O12 0.061595 0.081033 0.745416
O O13 0.753039 0.874426 0.228990
O O14 0.889230 0.886644 0.997487
O O15 0.250000 0.663495 0.500000
O O16 0.141835 0.695555 0.271923
O O17 0.059318 0.164597 0.228533
#
# Coordination Sequence:
#
# PCOD8205363 Si02
#       8
#     8   8   8   8   8   8   8   8
#     4  10  21  38  61  89 123 164 207 253 306 365
#     4  11  25  43  64  92 126 164 203 249 308 368
#     4  12  24  41  67  94 124 161 205 257 308 361
#     4  11  25  43  64  92 126 164 203 249 308 368
#     4  10  22  40  62  90 123 163 209 254 302 362
#     4  12  23  37  60  91 126 162 202 253 313 369
#     4  10  21  38  61  89 123 164 207 253 306 365
#     4  10  22  40  62  90 123 163 209 254 302 362
#
# _framework density 19.82837
#
# number of rings (size 3 to 8) (size 9 to 14) (size 15 to 20)
#    0.000    1.250    2.500    3.375    1.750    5.000 
#    0.000    2.500    0.000    0.000    0.000    3.500 
#    0.000    0.000    0.000    0.000    0.000    0.000 
#
# Total GULP energy -793861.846881 kJ/mol
# GULP energy per Si atom -12404.091358 kJ/mol
# Density = 1.978324 g / cm^3
# Si number density = 19.828370 Si / 1000 Ang^3
#
#
#
# Elastic Constant Matrix: (Units=GPa)
#
#
# Indices 1 2 3 4 5 6 
#
# 1 132.4205 55.3721 43.3619 0.0000 0.0000 0.0000
# 2 55.3721 117.6244 42.9761 0.0000 0.0000 0.0000
# 3 43.3619 42.9761 58.1478 0.0000 0.0000 0.0000
# 4 0.0000 0.0000 0.0000 23.8218 0.0000 0.0000
# 5 0.0000 0.0000 0.0000 0.0000 7.0975 0.0000
# 6 0.0000 0.0000 0.0000 0.0000 0.0000 -13.6093
#
#
#
# Elastic Compliance Matrix: (Units=1/GPa)
#
#
# Indices 1 2 3 4 5 6 
#
# 1 0.010667 -0.002898 -0.005813 0.000000 0.000000 0.000000
# 2 -0.002898 0.012434 -0.007029 0.000000 0.000000 0.000000
# 3 -0.005813 -0.007029 0.026727 0.000000 0.000000 0.000000
# 4 0.000000 0.000000 0.000000 0.041978 0.000000 0.000000
# 5 0.000000 0.000000 0.000000 0.000000 0.140895 0.000000
# 6 0.000000 0.000000 0.000000 0.000000 0.000000 -0.073479
#
#
# Mechanical properties :
#
#
# Convention : Reuss Voigt Hill
#
# Bulk Modulus (GPa) = 54.49819 65.73477 60.11648
# Shear Modulus (GPa) = 25.40435 14.56084 19.98259
#
# Velocity S-wave (km/s) = 3.58329 2.71282 3.17800
# Velocity P-wave (km/s) = 6.68315 6.56021 6.62197
#
# Compressibility (1/GPa) = 0.01834923
#
# Stress axis : x y z
#
# Youngs Moduli (GPa) = 93.74885 80.42589 37.41505
#
# Poissons Ratio (x) = 0.23304 0.21749
# Poissons Ratio (y) = 0.27165 0.26298
# Poissons Ratio (z) = 0.54495 0.56530
#
# Static dielectric constant tensor:
#      x y z
#    x 3.671650 0.000000 0.000000 
#    y 0.000000 3.833050 0.000000 
#    z 0.000000 0.000000 3.730160 
# 
# 
# High freq. dielectric constant tensor:
#      x y z
#    x 1.775560 0.000000 0.000000 
#    y 0.000000 1.786890 0.000000 
#    z 0.000000 0.000000 1.771960 
# 
# From -- ./inp_files/11870.got.cif
#   From: 2010.03.12/outbox.cif.g09.slc.cpg/sg50_6_cif.got.tgz:11870.got - 2010.04.16 13:23:21.
