data_PCOD8205643
_publ_section_title
;
Structure prediction by ZEFSAII (Michael W. Deem and Ramdas Pophale) SiO2 
 PCOD8205643
Probable space group: P B A N
;
_chemical_formula_sum "Si O2"
_cell_formula_units_Z 40
_cell_length_a 22.398337
_cell_length_b 9.230291
_cell_length_c 8.773497
_cell_angle_alpha 90.000000
_cell_angle_beta 90.000000
_cell_angle_gamma 90.000000
_cell_volume 1813.860568
_symmetry_space_group_name_H-M "P B A N"
_symmetry_group_IT_number 50
_space_group.IT_coordinate_system_code '2'
_symmetry_cell_setting 'orthorhombic'
loop_
_space_group_symop_operation_xyz
x,y,z
1/2-x,1/2-y,z
x,1/2-y,-z
1/2-x,y,-z
-x,-y,-z
1/2+x,1/2+y,-z
-x,1/2+y,z
1/2+x,-y,z
loop_
_atom_site_type_symbol
_atom_site_label
_atom_site_fract_x
_atom_site_fract_y
_atom_site_fract_z
Si Si1 0.597663 0.250000 0.000000
Si Si2 0.629255 0.250000 0.500000
Si Si3 0.571570 0.753336 0.326034
Si Si4 0.193875 0.180441 0.833558
Si Si5 0.955117 0.082296 0.734472
Si Si6 0.805010 0.357336 0.776965
O O1 0.558454 0.367457 0.907509
O O2 0.637195 0.172123 0.876252
O O3 0.589527 0.353136 0.607172
O O4 0.673272 0.150454 0.601504
O O5 0.590100 0.750000 0.500000
O O6 0.630315 0.708056 0.238391
O O7 0.521978 0.630610 0.301928
O O8 0.547177 0.908584 0.270623
O O9 0.250000 0.250000 0.742875
O O10 0.214381 0.014598 0.829627
O O11 0.191225 0.250000 0.000000
O O12 0.750000 0.250000 0.810354
#
# Coordination Sequence:
#
# PCOD8205643 Si02
#       6
#     4   4   8   8   8   8
#     4  10  25  40  72  98 137 174 236 288 354 414
#     4  10  23  44  70  98 139 172 244 286 362 410
#     4  12  26  45  71 100 142 182 236 290 358 422
#     4  11  28  47  68 100 143 186 232 289 355 426
#     4  11  25  43  69 103 136 183 228 297 353 425
#     4  11  24  44  73  99 134 186 238 290 344 422
#
# _framework density 22.052413000000001
#
# number of rings (size 3 to 8) (size 9 to 14) (size 15 to 20)
#    0.000    1.000    1.000    3.600   18.200    1.200 
#    3.600    0.000    0.000    0.000    0.000    0.000 
#    0.000    0.000    0.000    0.000    0.000    0.000 
#
# Total GULP energy -495913.511919 kJ/mol
# GULP energy per Si atom -12397.837798 kJ/mol
# Density = 2.200222 g / cm^3
# Si number density = 22.052413 Si / 1000 Ang^3
#
#
#
# Elastic Constant Matrix: (Units=GPa)
#
#
# Indices 1 2 3 4 5 6 
#
# 1 116.4568 58.2392 31.4619 0.0000 0.0000 0.0000
# 2 58.2392 169.3804 36.0424 0.0000 0.0000 0.0000
# 3 31.4619 36.0424 118.3225 0.0000 0.0000 0.0000
# 4 0.0000 0.0000 0.0000 26.6915 0.0000 0.0000
# 5 0.0000 0.0000 0.0000 0.0000 220.4896 0.0000
# 6 0.0000 0.0000 0.0000 0.0000 0.0000 37.8842
#
#
#
# Elastic Compliance Matrix: (Units=1/GPa)
#
#
# Indices 1 2 3 4 5 6 
#
# 1 0.010736 -0.003298 -0.001850 0.000000 0.000000 0.000000
# 2 -0.003298 0.007326 -0.001355 0.000000 0.000000 0.000000
# 3 -0.001850 -0.001355 0.009356 0.000000 0.000000 0.000000
# 4 0.000000 0.000000 0.000000 0.037465 0.000000 0.000000
# 5 0.000000 0.000000 0.000000 0.000000 0.004535 0.000000
# 6 0.000000 0.000000 0.000000 0.000000 0.000000 0.026396
#
#
# Mechanical properties :
#
#
# Convention : Reuss Voigt Hill
#
# Bulk Modulus (GPa) = 69.38263 72.84963 71.11613
# Shear Modulus (GPa) = 44.00472 75.57412 59.78942
#
# Velocity S-wave (km/s) = 4.47190 5.86043 5.21261
# Velocity P-wave (km/s) = 7.62855 8.88253 8.27932
#
# Compressibility (1/GPa) = 0.01441283
#
# Stress axis : x y z
#
# Youngs Moduli (GPa) = 93.14568 136.49989 106.88213
#
# Poissons Ratio (x) = 0.45014 0.19775
# Poissons Ratio (y) = 0.30717 0.14480
# Poissons Ratio (z) = 0.17233 0.18492
#
# Static dielectric constant tensor:
#      x y z
#    x 4.293380 0.000000 0.000000 
#    y 0.000000 4.115460 0.000000 
#    z 0.000000 0.000000 4.353040 
# 
# 
# High freq. dielectric constant tensor:
#      x y z
#    x 1.885910 0.000000 0.000000 
#    y 0.000000 1.872290 0.000000 
#    z 0.000000 0.000000 1.877550 
# 
# From -- ./inp_files/15812.got.cif
#   From: 2010.03.12/outbox.cif.g09.slc.cpg/sg50_8_cif.got.tgz:15812.got - 2010.04.16 13:23:21.
