data_PCOD8205527
_publ_section_title
;
Structure prediction by ZEFSAII (Michael W. Deem and Ramdas Pophale) SiO2 
 PCOD8205527
Probable space group: P B A N
;
_chemical_formula_sum "Si O2"
_cell_formula_units_Z 52
_cell_length_a 18.336630
_cell_length_b 15.832970
_cell_length_c 8.717726
_cell_angle_alpha 90.000000
_cell_angle_beta 90.000000
_cell_angle_gamma 90.000000
_cell_volume 2530.959091
_symmetry_space_group_name_H-M "P B A N"
_symmetry_group_IT_number 50
_space_group.IT_coordinate_system_code '2'
_symmetry_cell_setting 'orthorhombic'
loop_
_space_group_symop_operation_xyz
x,y,z
1/2-x,1/2-y,z
x,1/2-y,-z
1/2-x,y,-z
-x,-y,-z
1/2+x,1/2+y,-z
-x,1/2+y,z
1/2+x,-y,z
loop_
_atom_site_type_symbol
_atom_site_label
_atom_site_fract_x
_atom_site_fract_y
_atom_site_fract_z
Si Si1 0.569897 0.656750 0.552949
Si Si2 0.935523 0.420248 0.418107
Si Si3 0.618431 0.006489 0.894407
Si Si4 0.365110 0.750000 0.500000
Si Si5 0.461405 0.443030 0.173617
Si Si6 0.750000 0.116305 0.000000
Si Si7 0.827016 0.539591 0.577243
Si Si8 0.250000 0.750000 0.254154
O O1 0.548482 0.750000 0.500000
O O2 0.517509 0.582003 0.486336
O O3 0.565333 0.641438 0.735906
O O4 0.649238 0.631484 0.488494
O O5 0.913684 0.321546 0.417751
O O6 0.937934 0.468010 0.254665
O O7 0.878371 0.463406 0.529018
O O8 0.549468 0.062708 0.837663
O O9 0.665231 0.958259 0.762114
O O10 0.677031 0.062870 0.981135
O O11 0.580986 0.939229 0.011373
O O12 0.315573 0.784079 0.360502
O O13 0.729561 0.170777 0.149018
O O14 0.750000 0.518784 0.500000
#
# Coordination Sequence:
#
# PCOD8205527 Si02
#       8
#     8   8   8   4   8   4   8   4
#     4  11  22  42  64  94 126 162 217 274 326 379
#     4  11  20  39  62  96 122 164 215 260 317 380
#     4  11  22  39  64  89 124 165 216 260 323 387
#     4  11  22  34  64  90 129 168 198 256 315 380
#     4  10  22  41  63  92 125 164 215 271 318 387
#     4  11  24  38  56  86 129 170 200 246 315 388
#     4  11  24  40  67  93 124 164 217 267 319 390
#     4  10  24  38  48  90 138 162 198 240 310 404
#
# _framework density 20.545570999999999
#
# number of rings (size 3 to 8) (size 9 to 14) (size 15 to 20)
#    0.000    1.231    3.846    2.769    8.615    0.308 
#    0.000    0.769    0.000    0.000    0.000    0.000 
#    0.000    0.000    0.000    0.000    0.000    0.000 
#
# Total GULP energy -644338.940911 kJ/mol
# GULP energy per Si atom -12391.133479 kJ/mol
# Density = 2.049881 g / cm^3
# Si number density = 20.545571 Si / 1000 Ang^3
#
#
#
# Elastic Constant Matrix: (Units=GPa)
#
#
# Indices 1 2 3 4 5 6 
#
# 1 115.7602 42.2523 51.2544 0.0000 0.0000 0.0000
# 2 42.2523 81.1132 30.2731 0.0000 0.0000 0.0000
# 3 51.2544 30.2731 127.1241 0.0000 0.0000 0.0000
# 4 0.0000 0.0000 0.0000 11.9138 0.0000 0.0000
# 5 0.0000 0.0000 0.0000 0.0000 38.4424 0.0000
# 6 0.0000 0.0000 0.0000 0.0000 0.0000 19.4414
#
#
#
# Elastic Compliance Matrix: (Units=1/GPa)
#
#
# Indices 1 2 3 4 5 6 
#
# 1 0.012066 -0.004905 -0.003697 0.000000 0.000000 0.000000
# 2 -0.004905 0.015525 -0.001719 0.000000 0.000000 0.000000
# 3 -0.003697 -0.001719 0.009766 0.000000 0.000000 0.000000
# 4 0.000000 0.000000 0.000000 0.083936 0.000000 0.000000
# 5 0.000000 0.000000 0.000000 0.000000 0.026013 0.000000
# 6 0.000000 0.000000 0.000000 0.000000 0.000000 0.051437
#
#
# Mechanical properties :
#
#
# Convention : Reuss Voigt Hill
#
# Bulk Modulus (GPa) = 59.82813 63.50633 61.66723
# Shear Modulus (GPa) = 22.22646 27.30739 24.76692
#
# Velocity S-wave (km/s) = 3.29266 3.64966 3.47574
# Velocity P-wave (km/s) = 6.60594 6.98119 6.79616
#
# Compressibility (1/GPa) = 0.01671455
#
# Stress axis : x y z
#
# Youngs Moduli (GPa) = 82.87944 64.41041 102.39439
#
# Poissons Ratio (x) = 0.31596 0.37850
# Poissons Ratio (y) = 0.40656 0.17606
# Poissons Ratio (z) = 0.30637 0.11075
#
# Static dielectric constant tensor:
#      x y z
#    x 3.952960 0.000000 0.000000 
#    y 0.000000 3.386140 0.000000 
#    z 0.000000 0.000000 3.884100 
# 
# 
# High freq. dielectric constant tensor:
#      x y z
#    x 1.812430 0.000000 0.000000 
#    y 0.000000 1.773040 0.000000 
#    z 0.000000 0.000000 1.810180 
# 
# From -- ./inp_files/14469.got.cif
#   From: 2010.03.12/outbox.cif.g09.slc.cpg/sg50_8_cif.got.tgz:14469.got - 2010.04.16 13:23:21.
