data_PCOD8205213
_publ_section_title
;
Structure prediction by ZEFSAII (Michael W. Deem and Ramdas Pophale) SiO2 
 PCOD8205213
Probable space group: P B A N
;
_chemical_formula_sum "Si O2"
_cell_formula_units_Z 32
_cell_length_a 14.172612
_cell_length_b 11.960355
_cell_length_c 9.052434
_cell_angle_alpha 90.000000
_cell_angle_beta 90.000000
_cell_angle_gamma 90.000000
_cell_volume 1534.473297
_symmetry_space_group_name_H-M "P B A N"
_symmetry_group_IT_number 50
_space_group.IT_coordinate_system_code '2'
_symmetry_cell_setting 'orthorhombic'
loop_
_space_group_symop_operation_xyz
x,y,z
1/2-x,1/2-y,z
x,1/2-y,-z
1/2-x,y,-z
-x,-y,-z
1/2+x,1/2+y,-z
-x,1/2+y,z
1/2+x,-y,z
loop_
_atom_site_type_symbol
_atom_site_label
_atom_site_fract_x
_atom_site_fract_y
_atom_site_fract_z
Si Si1 0.175036 0.647761 0.858531
Si Si2 0.146777 0.543145 0.172798
Si Si3 0.533742 0.276710 0.329172
Si Si4 0.144535 0.216173 0.833753
O O1 0.250000 0.750000 0.875678
O O2 0.240643 0.549867 0.789085
O O3 0.088629 0.677052 0.754101
O O4 0.130873 0.604735 0.013790
O O5 0.082304 0.604299 0.294822
O O6 0.120939 0.414436 0.175445
O O7 0.538765 0.250000 0.500000
O O8 0.425816 0.280969 0.275587
O O9 0.250000 0.250000 0.786230
O O10 0.123217 0.250000 0.000000
#
# Coordination Sequence:
#
# PCOD8205213 Si02
#       4
#     8   8   8   8
#     4   9  17  35  62  89 114 145 197 253 297 351
#     4  10  20  38  65  90 116 153 196 254 304 340
#     4  11  24  39  57  88 125 160 199 238 293 369
#     4  11  24  41  63  88 116 154 204 254 300 355
#
# _framework density 20.854061999999999
#
# number of rings (size 3 to 8) (size 9 to 14) (size 15 to 20)
#    0.000    1.750    0.000    9.750    0.000   12.000 
#    0.000    2.500    0.000    0.000    0.000    0.000 
#    0.000    0.000    0.000    0.000    0.000    0.000 
#
# Total GULP energy -396522.682289 kJ/mol
# GULP energy per Si atom -12391.333822 kJ/mol
# Density = 2.080660 g / cm^3
# Si number density = 20.854062 Si / 1000 Ang^3
#
#
#
# Elastic Constant Matrix: (Units=GPa)
#
#
# Indices 1 2 3 4 5 6 
#
# 1 125.3278 36.2023 81.8362 0.0000 0.0000 0.0000
# 2 36.2023 86.6657 45.0405 0.0000 0.0000 0.0000
# 3 81.8362 45.0405 121.7277 0.0000 0.0000 0.0000
# 4 0.0000 0.0000 0.0000 14.2144 0.0000 0.0000
# 5 0.0000 0.0000 0.0000 0.0000 15.4842 0.0000
# 6 0.0000 0.0000 0.0000 0.0000 0.0000 27.8946
#
#
#
# Elastic Compliance Matrix: (Units=1/GPa)
#
#
# Indices 1 2 3 4 5 6 
#
# 1 0.014325 -0.001212 -0.009182 0.000000 0.000000 0.000000
# 2 -0.001212 0.014388 -0.004509 0.000000 0.000000 0.000000
# 3 -0.009182 -0.004509 0.016056 0.000000 0.000000 0.000000
# 4 0.000000 0.000000 0.000000 0.070351 0.000000 0.000000
# 5 0.000000 0.000000 0.000000 0.000000 0.064582 0.000000
# 6 0.000000 0.000000 0.000000 0.000000 0.000000 0.035849
#
#
# Mechanical properties :
#
#
# Convention : Reuss Voigt Hill
#
# Bulk Modulus (GPa) = 66.82906 73.31989 70.07448
# Shear Modulus (GPa) = 19.97242 22.89479 21.43361
#
# Velocity S-wave (km/s) = 3.09807 3.31699 3.20940
# Velocity P-wave (km/s) = 6.70172 7.06433 6.88541
#
# Compressibility (1/GPa) = 0.01496355
#
# Stress axis : x y z
#
# Youngs Moduli (GPa) = 69.80916 69.50142 62.28051
#
# Poissons Ratio (x) = 0.08423 0.57186
# Poissons Ratio (y) = 0.08460 0.28082
# Poissons Ratio (z) = 0.64099 0.31338
#
# Static dielectric constant tensor:
#      x y z
#    x 4.262230 0.000000 0.000000 
#    y 0.000000 4.154200 0.000000 
#    z 0.000000 0.000000 3.443780 
# 
# 
# High freq. dielectric constant tensor:
#      x y z
#    x 1.827140 0.000000 0.000000 
#    y 0.000000 1.816090 0.000000 
#    z 0.000000 0.000000 1.785870 
# 
# From -- ./inp_files/10699.got.cif
#   From: 2010.03.12/outbox.cif.g09.slc.cpg/sg50_6_cif.got.tgz:10699.got - 2010.04.16 13:23:21.
