data_PCOD8205951
_publ_section_title
;
Structure prediction by ZEFSAII (Michael W. Deem and Ramdas Pophale) SiO2 
 PCOD8205951
Probable space group: P M M A
;
_chemical_formula_sum "Si O2"
_cell_formula_units_Z 52
_cell_length_a 8.789966
_cell_length_b 33.386313
_cell_length_c 9.821099
_cell_angle_alpha 90.000000
_cell_angle_beta 90.000000
_cell_angle_gamma 90.000000
_cell_volume 2882.144459
_symmetry_space_group_name_H-M "P M M A"
_symmetry_group_IT_number 51
_symmetry_cell_setting 'orthorhombic'
loop_
_space_group_symop_operation_xyz
x,y,z
1/2-x,-y,z
1/2+x,-y,-z
-x,y,-z
-x,-y,-z
1/2+x,y,-z
1/2-x,y,z
x,-y,z
loop_
_atom_site_type_symbol
_atom_site_label
_atom_site_fract_x
_atom_site_fract_y
_atom_site_fract_z
Si Si1 0.426664 0.272353 0.147754
Si Si2 0.569877 0.894532 0.150012
Si Si3 0.426667 0.816058 0.146453
Si Si4 0.425705 0.952977 0.358676
Si Si5 0.073433 0.334137 0.647697
Si Si6 0.073854 0.422599 0.646531
Si Si7 0.929863 0.500000 0.651692
O O1 0.250000 0.282013 0.130900
O O2 0.450398 0.227787 0.213378
O O3 0.499816 0.303309 0.249947
O O4 0.500000 0.276652 0.000000
O O5 0.750000 0.895021 0.141290
O O6 0.512432 0.852899 0.221932
O O7 0.513434 0.931970 0.236343
O O8 0.500000 0.898078 0.000000
O O9 0.250000 0.827173 0.134560
O O10 0.500000 0.812532 0.000000
O O11 0.500000 0.939134 0.500000
O O12 0.250000 0.940220 0.359183
O O13 0.446240 0.000000 0.336055
O O14 0.250000 0.324315 0.630950
O O15 0.050139 0.378737 0.713103
O O16 0.000000 0.329835 0.500000
O O17 0.250000 0.433624 0.632711
O O18 0.000000 0.419218 0.500000
O O19 0.990359 0.459333 0.726725
O O20 0.750000 0.500000 0.649303
O O21 0.000000 0.500000 0.500000
#
# Coordination Sequence:
#
# PCOD8205951 Si02
#       7
#     8   8   8   8   8   8   4
#     4  10  20  34  54  77 102 133 170 210 250 298
#     4  11  21  34  55  81 108 137 170 212 257 300
#     4   9  17  31  51  75 102 132 167 208 254 301
#     4  10  21  38  58  79 106 140 175 211 253 303
#     4  10  20  33  50  72 101 134 167 206 254 302
#     4   9  16  26  40  60  88 122 157 196 242 292
#     4  10  16  22  36  58  85 118 155 196 239 288
#
# _framework density 18.042123
#
# number of rings (size 3 to 8) (size 9 to 14) (size 15 to 20)
#    0.000    2.154    0.000    6.231    0.000    4.923 
#    0.000    0.769    0.000    3.692    0.000    0.538 
#    0.000    0.000    0.000    0.000    0.000    0.000 
#
# Total GULP energy -644388.655583 kJ/mol
# GULP energy per Si atom -12392.089530 kJ/mol
# Density = 1.800106 g / cm^3
# Si number density = 18.042123 Si / 1000 Ang^3
#
#
#
# Elastic Constant Matrix: (Units=GPa)
#
#
# Indices 1 2 3 4 5 6 
#
# 1 173.1042 78.2727 46.9997 0.0000 0.0000 0.0000
# 2 78.2727 119.7824 52.6625 0.0000 0.0000 0.0000
# 3 46.9997 52.6625 61.7216 0.0000 0.0000 0.0000
# 4 0.0000 0.0000 0.0000 26.8350 0.0000 0.0000
# 5 0.0000 0.0000 0.0000 0.0000 27.0475 0.0000
# 6 0.0000 0.0000 0.0000 0.0000 0.0000 34.6951
#
#
#
# Elastic Compliance Matrix: (Units=1/GPa)
#
#
# Indices 1 2 3 4 5 6 
#
# 1 0.008485 -0.004327 -0.002769 0.000000 0.000000 0.000000
# 2 -0.004327 0.015567 -0.009987 0.000000 0.000000 0.000000
# 3 -0.002769 -0.009987 0.026832 0.000000 0.000000 0.000000
# 4 0.000000 0.000000 0.000000 0.037265 0.000000 0.000000
# 5 0.000000 0.000000 0.000000 0.000000 0.036972 0.000000
# 6 0.000000 0.000000 0.000000 0.000000 0.000000 0.028822
#
#
# Mechanical properties :
#
#
# Convention : Reuss Voigt Hill
#
# Bulk Modulus (GPa) = 59.81971 78.94202 69.38087
# Shear Modulus (GPa) = 25.81538 29.49375 27.65456
#
# Velocity S-wave (km/s) = 3.78675 4.04755 3.91932
# Velocity P-wave (km/s) = 7.23511 8.10511 7.68244
#
# Compressibility (1/GPa) = 0.01671690
#
# Stress axis : x y z
#
# Youngs Moduli (GPa) = 117.84844 64.23834 37.26937
#
# Poissons Ratio (x) = 0.27798 0.10321
# Poissons Ratio (y) = 0.50998 0.37221
# Poissons Ratio (z) = 0.32635 0.64155
#
# Static dielectric constant tensor:
#      x y z
#    x 3.535430 0.000000 0.000000 
#    y 0.000000 4.450260 0.000000 
#    z 0.000000 0.000000 2.839470 
# 
# 
# High freq. dielectric constant tensor:
#      x y z
#    x 1.723670 0.000000 0.000000 
#    y 0.000000 1.725600 0.000000 
#    z 0.000000 0.000000 1.637310 
# 
# From -- ./inp_files/14752.got.cif
#   From: 2010.03.12/outbox.cif.g09.slc.cpg/sg51_8_cif.got.tgz:14752.got - 2010.04.16 13:43:02.
