data_PCOD8205559
_publ_section_title
;
Structure prediction by ZEFSAII (Michael W. Deem and Ramdas Pophale) SiO2 
 PCOD8205559
Probable space group: P B A N
;
_chemical_formula_sum "Si O2"
_cell_formula_units_Z 56
_cell_length_a 17.543137
_cell_length_b 15.377681
_cell_length_c 10.112470
_cell_angle_alpha 90.000000
_cell_angle_beta 90.000000
_cell_angle_gamma 90.000000
_cell_volume 2728.068988
_symmetry_space_group_name_H-M "P B A N"
_symmetry_group_IT_number 50
_space_group.IT_coordinate_system_code '2'
_symmetry_cell_setting 'orthorhombic'
loop_
_space_group_symop_operation_xyz
x,y,z
1/2-x,1/2-y,z
x,1/2-y,-z
1/2-x,y,-z
-x,-y,-z
1/2+x,1/2+y,-z
-x,1/2+y,z
1/2+x,-y,z
loop_
_atom_site_type_symbol
_atom_site_label
_atom_site_fract_x
_atom_site_fract_y
_atom_site_fract_z
Si Si1 0.398024 0.768366 0.148895
Si Si2 0.168375 0.203601 0.381128
Si Si3 0.166031 0.492793 0.515724
Si Si4 0.074877 0.202666 0.127683
Si Si5 0.837524 0.046687 0.229330
Si Si6 0.587434 0.984948 0.024129
Si Si7 0.839579 0.095379 0.758548
O O1 0.489331 0.764270 0.153276
O O2 0.378129 0.862209 0.204883
O O3 0.355026 0.698938 0.244078
O O4 0.368499 0.750000 0.000000
O O5 0.250000 0.250000 0.367828
O O6 0.122933 0.250000 0.500000
O O7 0.171958 0.102318 0.418999
O O8 0.123870 0.229573 0.251769
O O9 0.250000 0.531784 0.500000
O O10 0.131398 0.502745 0.367163
O O11 0.124449 0.554980 0.623385
O O12 0.091701 0.101723 0.108726
O O13 0.108582 0.250000 0.000000
O O14 0.747345 0.063548 0.226301
O O15 0.863414 0.981280 0.111783
O O16 0.616039 0.064463 0.111971
O O17 0.500000 0.000000 0.000000
#
# Coordination Sequence:
#
# PCOD8205559 Si02
#       7
#     8   8   8   8   8   8   8
#     4  11  22  44  65  98 138 173 219 281 345 395
#     4  11  23  44  68  91 131 178 219 278 336 400
#     4  10  22  43  63  98 132 168 217 274 339 394
#     4  11  25  43  64  96 135 175 223 277 343 400
#     4  11  24  40  72 100 127 178 229 273 338 409
#     4  12  22  42  65  96 138 172 215 285 334 393
#     4  11  23  42  69  94 135 177 224 279 330 408
#
# _framework density 20.527339999999999
#
# number of rings (size 3 to 8) (size 9 to 14) (size 15 to 20)
#    0.000    1.000    5.714    1.714    2.000    1.429 
#    5.143    3.571    0.000    0.000    0.000    0.000 
#    0.000    0.000    0.000    0.000    0.000    0.000 
#
# Total GULP energy -693960.717133 kJ/mol
# GULP energy per Si atom -12392.155663 kJ/mol
# Density = 2.048062 g / cm^3
# Si number density = 20.527340 Si / 1000 Ang^3
#
#
#
# Elastic Constant Matrix: (Units=GPa)
#
#
# Indices 1 2 3 4 5 6 
#
# 1 76.4998 23.7619 56.7759 0.0000 0.0000 0.0000
# 2 23.7619 83.8699 31.5297 0.0000 0.0000 0.0000
# 3 56.7759 31.5297 158.7942 0.0000 0.0000 0.0000
# 4 0.0000 0.0000 0.0000 43.1684 0.0000 0.0000
# 5 0.0000 0.0000 0.0000 0.0000 11.0506 0.0000
# 6 0.0000 0.0000 0.0000 0.0000 0.0000 28.5142
#
#
#
# Elastic Compliance Matrix: (Units=1/GPa)
#
#
# Indices 1 2 3 4 5 6 
#
# 1 0.018453 -0.002969 -0.006008 0.000000 0.000000 0.000000
# 2 -0.002969 0.013363 -0.001592 0.000000 0.000000 0.000000
# 3 -0.006008 -0.001592 0.008762 0.000000 0.000000 0.000000
# 4 0.000000 0.000000 0.000000 0.023165 0.000000 0.000000
# 5 0.000000 0.000000 0.000000 0.000000 0.090493 0.000000
# 6 0.000000 0.000000 0.000000 0.000000 0.000000 0.035070
#
#
# Mechanical properties :
#
#
# Convention : Reuss Voigt Hill
#
# Bulk Modulus (GPa) = 51.44209 60.36653 55.90431
# Shear Modulus (GPa) = 23.04942 30.35305 26.70124
#
# Velocity S-wave (km/s) = 3.35455 3.84951 3.61052
# Velocity P-wave (km/s) = 6.33393 7.01641 6.68389
#
# Compressibility (1/GPa) = 0.01943933
#
# Stress axis : x y z
#
# Youngs Moduli (GPa) = 54.19028 74.83427 114.13296
#
# Poissons Ratio (x) = 0.22222 0.68575
# Poissons Ratio (y) = 0.16092 0.18165
# Poissons Ratio (z) = 0.32559 0.11910
#
# Static dielectric constant tensor:
#      x y z
#    x 3.562260 0.000000 0.000000 
#    y 0.000000 3.631870 0.000000 
#    z 0.000000 0.000000 4.324440 
# 
# 
# High freq. dielectric constant tensor:
#      x y z
#    x 1.782170 0.000000 0.000000 
#    y 0.000000 1.812300 0.000000 
#    z 0.000000 0.000000 1.819610 
# 
# From -- ./inp_files/15349.got.cif
#   From: 2010.03.12/outbox.cif.g09.slc.cpg/sg50_8_cif.got.tgz:15349.got - 2010.04.16 13:23:21.
