data_PCOD8205857
_publ_section_title
;
Structure prediction by ZEFSAII (Michael W. Deem and Ramdas Pophale) SiO2 
 PCOD8205857
Probable space group: P B A N
;
_chemical_formula_sum "Si O2"
_cell_formula_units_Z 56
_cell_length_a 14.473562
_cell_length_b 13.905812
_cell_length_c 12.015602
_cell_angle_alpha 90.000000
_cell_angle_beta 90.000000
_cell_angle_gamma 90.000000
_cell_volume 2418.339748
_symmetry_space_group_name_H-M "P B A N"
_symmetry_group_IT_number 50
_space_group.IT_coordinate_system_code '2'
_symmetry_cell_setting 'orthorhombic'
loop_
_space_group_symop_operation_xyz
x,y,z
1/2-x,1/2-y,z
x,1/2-y,-z
1/2-x,y,-z
-x,-y,-z
1/2+x,1/2+y,-z
-x,1/2+y,z
1/2+x,-y,z
loop_
_atom_site_type_symbol
_atom_site_label
_atom_site_fract_x
_atom_site_fract_y
_atom_site_fract_z
Si Si1 0.917725 0.595390 0.595292
Si Si2 0.218919 0.982178 0.706644
Si Si3 0.417057 0.455616 0.341803
Si Si4 0.351848 0.531504 0.949655
Si Si5 0.518453 0.850976 0.947116
Si Si6 0.838948 0.297441 0.618031
Si Si7 0.519802 0.742053 0.724298
O O1 0.822175 0.583006 0.664131
O O2 0.899368 0.580594 0.465960
O O3 0.944848 0.706364 0.612005
O O4 0.994756 0.525096 0.651623
O O5 0.330339 0.987402 0.711843
O O6 0.169013 0.948657 0.820153
O O7 0.184697 0.910287 0.607322
O O8 0.430662 0.362128 0.260555
O O9 0.402836 0.429889 0.970846
O O10 0.250000 0.529379 0.000000
O O11 0.418471 0.613298 0.004966
O O12 0.522602 0.824406 0.817620
O O13 0.546893 0.750000 0.000000
O O14 0.750000 0.250000 0.672949
O O15 0.864407 0.250000 0.500000
O O16 0.914226 0.283857 0.710470
#
# Coordination Sequence:
#
# PCOD8205857 Si02
#       7
#     8   8   8   8   8   8   8
#     4  11  24  44  68 106 147 197 241 294 367 444
#     4  12  25  46  70 107 146 195 239 307 372 434
#     4  11  26  41  74 102 152 194 241 295 369 452
#     4  11  28  50  76 107 145 191 250 315 386 441
#     4  11  27  50  77 106 143 191 256 312 369 453
#     4  11  25  40  71 108 144 184 248 296 357 438
#     4  12  24  46  72 104 145 193 241 306 369 431
#
# _framework density 23.156383999999999
#
# number of rings (size 3 to 8) (size 9 to 14) (size 15 to 20)
#    0.000    0.714    2.857    3.429   12.000    1.143 
#    0.000    1.429    0.000    0.000    0.000    0.000 
#    0.000    0.000    0.000    0.000    0.000    0.000 
#
# Total GULP energy -693739.310962 kJ/mol
# GULP energy per Si atom -12388.201981 kJ/mol
# Density = 2.310368 g / cm^3
# Si number density = 23.156384 Si / 1000 Ang^3
#
#
#
# Elastic Constant Matrix: (Units=GPa)
#
#
# Indices 1 2 3 4 5 6 
#
# 1 112.3952 18.8615 29.9356 0.0000 0.0000 0.0000
# 2 18.8615 103.3589 31.8796 0.0000 0.0000 0.0000
# 3 29.9356 31.8796 85.5338 0.0000 0.0000 0.0000
# 4 0.0000 0.0000 0.0000 41.6654 0.0000 0.0000
# 5 0.0000 0.0000 0.0000 0.0000 22.5274 0.0000
# 6 0.0000 0.0000 0.0000 0.0000 0.0000 30.4360
#
#
#
# Elastic Compliance Matrix: (Units=1/GPa)
#
#
# Indices 1 2 3 4 5 6 
#
# 1 0.009875 -0.000832 -0.003146 0.000000 0.000000 0.000000
# 2 -0.000832 0.011002 -0.003809 0.000000 0.000000 0.000000
# 3 -0.003146 -0.003809 0.014212 0.000000 0.000000 0.000000
# 4 0.000000 0.000000 0.000000 0.024001 0.000000 0.000000
# 5 0.000000 0.000000 0.000000 0.000000 0.044390 0.000000
# 6 0.000000 0.000000 0.000000 0.000000 0.000000 0.032856
#
#
# Mechanical properties :
#
#
# Convention : Reuss Voigt Hill
#
# Bulk Modulus (GPa) = 51.24422 51.40456 51.32439
# Shear Modulus (GPa) = 31.56276 33.63318 32.59797
#
# Velocity S-wave (km/s) = 3.69592 3.81522 3.75604
# Velocity P-wave (km/s) = 6.35538 6.45406 6.40491
#
# Compressibility (1/GPa) = 0.01951440
#
# Stress axis : x y z
#
# Youngs Moduli (GPa) = 101.26935 90.89459 70.36216
#
# Poissons Ratio (x) = 0.07559 0.22136
# Poissons Ratio (y) = 0.08422 0.26804
# Poissons Ratio (z) = 0.31860 0.34626
#
# Static dielectric constant tensor:
#      x y z
#    x 3.657920 0.000000 0.000000 
#    y 0.000000 4.383410 0.000000 
#    z 0.000000 0.000000 3.787980 
# 
# 
# High freq. dielectric constant tensor:
#      x y z
#    x 1.918840 0.000000 0.000000 
#    y 0.000000 1.925520 0.000000 
#    z 0.000000 0.000000 1.911800 
# 
# From -- ./inp_files/21145.got.cif
#   From: 2010.03.12/outbox.cif.g09.slc.cpg/sg50_11_cif.got.tgz:21145.got - 2010.04.16 13:23:21.
