data_PCOD8205261
_publ_section_title
;
Structure prediction by ZEFSAII (Michael W. Deem and Ramdas Pophale) SiO2 
 PCOD8205261
Probable space group: P B A N
;
_chemical_formula_sum "Si O2"
_cell_formula_units_Z 58
_cell_length_a 9.387808
_cell_length_b 26.381090
_cell_length_c 11.823301
_cell_angle_alpha 90.000000
_cell_angle_beta 90.000000
_cell_angle_gamma 90.000000
_cell_volume 2928.165911
_symmetry_space_group_name_H-M "P B A N"
_symmetry_group_IT_number 50
_space_group.IT_coordinate_system_code '2'
_symmetry_cell_setting 'orthorhombic'
loop_
_space_group_symop_operation_xyz
x,y,z
1/2-x,1/2-y,z
x,1/2-y,-z
1/2-x,y,-z
-x,-y,-z
1/2+x,1/2+y,-z
-x,1/2+y,z
1/2+x,-y,z
loop_
_atom_site_type_symbol
_atom_site_label
_atom_site_fract_x
_atom_site_fract_y
_atom_site_fract_z
Si Si1 0.722933 0.642748 0.372921
Si Si2 0.888577 0.849599 0.954436
Si Si3 0.856991 0.369004 0.102785
Si Si4 0.023628 0.976039 0.122265
Si Si5 0.250000 0.750000 0.500000
Si Si6 0.615897 0.721202 0.763811
Si Si7 0.784794 0.561315 0.190163
Si Si8 0.572917 0.191005 0.316079
O O1 0.750000 0.626795 0.500000
O O2 0.819859 0.691884 0.345286
O O3 0.777130 0.595322 0.301219
O O4 0.555803 0.653982 0.352433
O O5 0.954594 0.818245 0.851277
O O6 0.841769 0.905701 0.915218
O O7 0.750000 0.820474 0.000000
O O8 0.988477 0.851544 0.062386
O O9 0.829925 0.338459 0.221028
O O10 0.864111 0.429326 0.120522
O O11 0.750000 0.355487 0.000000
O O12 0.871600 0.960892 0.170714
O O13 0.100059 0.016501 0.205251
O O14 0.000000 0.000000 0.000000
O O15 0.337820 0.790123 0.576096
O O16 0.750000 0.750000 0.819846
O O17 0.486650 0.757269 0.735003
#
# Coordination Sequence:
#
# PCOD8205261 Si02
#       8
#     8   8   8   8   2   8   8   8
#     4  10  20  42  70  93 122 164 227 277 317 368
#     4  11  19  37  59  92 130 166 202 256 321 380
#     4  12  25  39  62  95 136 171 209 267 331 391
#     4  12  21  39  64  93 128 168 212 253 328 401
#     4  12  28  44  64  84 128 184 216 268 320 376
#     4   9  20  35  63  92 120 160 206 261 315 378
#     4  11  22  38  62  95 129 166 212 268 316 392
#     4  11  24  45  62  94 131 169 225 266 322 397
#
# _framework density 19.80762
#
# number of rings (size 3 to 8) (size 9 to 14) (size 15 to 20)
#    0.000    1.103    4.138    3.724    1.931    3.862 
#    0.000    0.690    1.517    0.000    0.000    0.000 
#    0.000    0.000    0.000    0.000    0.000    0.000 
#
# Total GULP energy -718844.626217 kJ/mol
# GULP energy per Si atom -12393.872866 kJ/mol
# Density = 1.976254 g / cm^3
# Si number density = 19.807620 Si / 1000 Ang^3
#
#
#
# Elastic Constant Matrix: (Units=GPa)
#
#
# Indices 1 2 3 4 5 6 
#
# 1 65.9995 44.4431 31.0059 0.0000 0.0000 0.0000
# 2 44.4431 115.6204 60.5177 0.0000 0.0000 0.0000
# 3 31.0059 60.5177 110.9091 0.0000 0.0000 0.0000
# 4 0.0000 0.0000 0.0000 24.2182 0.0000 0.0000
# 5 0.0000 0.0000 0.0000 0.0000 24.6544 0.0000
# 6 0.0000 0.0000 0.0000 0.0000 0.0000 31.7249
#
#
#
# Elastic Compliance Matrix: (Units=1/GPa)
#
#
# Indices 1 2 3 4 5 6 
#
# 1 0.020764 -0.006919 -0.002029 0.000000 0.000000 0.000000
# 2 -0.006919 0.014412 -0.005930 0.000000 0.000000 0.000000
# 3 -0.002029 -0.005930 0.012819 0.000000 0.000000 0.000000
# 4 0.000000 0.000000 0.000000 0.041291 0.000000 0.000000
# 5 0.000000 0.000000 0.000000 0.000000 0.040561 0.000000
# 6 0.000000 0.000000 0.000000 0.000000 0.000000 0.031521
#
#
# Mechanical properties :
#
#
# Convention : Reuss Voigt Hill
#
# Bulk Modulus (GPa) = 54.82715 62.71804 58.77259
# Shear Modulus (GPa) = 25.35419 26.55697 25.95558
#
# Velocity S-wave (km/s) = 3.58162 3.66559 3.62385
# Velocity P-wave (km/s) = 6.69656 7.04612 6.87356
#
# Compressibility (1/GPa) = 0.01823914
#
# Stress axis : x y z
#
# Youngs Moduli (GPa) = 48.15930 69.38433 78.00722
#
# Poissons Ratio (x) = 0.48010 0.15830
# Poissons Ratio (y) = 0.33323 0.46257
# Poissons Ratio (z) = 0.09773 0.41143
#
# Static dielectric constant tensor:
#      x y z
#    x 3.628230 0.000000 0.000000 
#    y 0.000000 3.909920 0.000000 
#    z 0.000000 0.000000 3.509460 
# 
# 
# High freq. dielectric constant tensor:
#      x y z
#    x 1.767840 0.000000 0.000000 
#    y 0.000000 1.779460 0.000000 
#    z 0.000000 0.000000 1.757890 
# 
# From -- ./inp_files/19424.got.cif
#   From: 2010.03.12/outbox.cif.g09.slc.cpg/sg50_10_cif.got.tgz:19424.got - 2010.04.16 13:23:21.
