data_PCOD8205478
_publ_section_title
;
Structure prediction by ZEFSAII (Michael W. Deem and Ramdas Pophale) SiO2 
 PCOD8205478
Probable space group: P B A N
;
_chemical_formula_sum "Si O2"
_cell_formula_units_Z 64
_cell_length_a 25.477452
_cell_length_b 8.467099
_cell_length_c 14.997871
_cell_angle_alpha 90.000000
_cell_angle_beta 90.000000
_cell_angle_gamma 90.000000
_cell_volume 3235.342357
_symmetry_space_group_name_H-M "P B A N"
_symmetry_group_IT_number 50
_space_group.IT_coordinate_system_code '2'
_symmetry_cell_setting 'orthorhombic'
loop_
_space_group_symop_operation_xyz
x,y,z
1/2-x,1/2-y,z
x,1/2-y,-z
1/2-x,y,-z
-x,-y,-z
1/2+x,1/2+y,-z
-x,1/2+y,z
1/2+x,-y,z
loop_
_atom_site_type_symbol
_atom_site_label
_atom_site_fract_x
_atom_site_fract_y
_atom_site_fract_z
Si Si1 0.111835 0.551705 0.675113
Si Si2 0.964751 0.844294 0.087342
Si Si3 0.519124 0.571108 0.791796
Si Si4 0.086766 0.589577 0.315157
Si Si5 0.739048 0.432481 0.096821
Si Si6 0.941146 0.937786 0.497129
Si Si7 0.702146 0.641419 0.763853
Si Si8 0.360604 0.082596 0.156368
O O1 0.068689 0.513415 0.749406
O O2 0.116390 0.741857 0.677225
O O3 0.092295 0.501157 0.578917
O O4 0.166668 0.457192 0.692877
O O5 0.963289 0.743390 0.178354
O O6 0.905250 0.905931 0.079616
O O7 0.983894 0.750000 0.000000
O O8 0.003934 0.986018 0.113820
O O9 0.472889 0.598650 0.720622
O O10 0.087442 0.503099 0.409826
O O11 0.119281 0.478483 0.250753
O O12 0.750000 0.250000 0.096931
O O13 0.773820 0.511874 0.171917
O O14 0.678075 0.453570 0.116732
O O15 0.750000 0.508203 0.000000
O O16 0.942001 0.750000 0.500000
O O17 0.000000 0.000000 0.500000
O O18 0.750000 0.750000 0.721126
O O19 0.666232 0.749427 0.826638
#
# Coordination Sequence:
#
# PCOD8205478 Si02
#       8
#     8   8   8   8   8   8   8   8
#     4  12  22  39  65  90 130 172 211 266 328 381
#     4  11  23  38  56  84 124 170 217 258 313 388
#     4  11  22  37  58  84 125 171 216 259 311 382
#     4  11  23  40  61  94 130 170 215 255 327 389
#     4  10  22  40  62  90 122 156 217 280 329 381
#     4  12  25  37  62  97 132 169 215 264 308 387
#     4  10  22  39  64  91 120 161 211 265 331 385
#     4  10  22  37  62  87 118 165 205 269 323 383
#
# _framework density 19.781523
#
# number of rings (size 3 to 8) (size 9 to 14) (size 15 to 20)
#    0.000    1.125    3.750    3.000    3.500    1.750 
#    0.000    0.000    0.000    8.625    0.000   11.375 
#    0.000    0.000    0.000    0.000    0.000    0.000 
#
# Total GULP energy -793426.233736 kJ/mol
# GULP energy per Si atom -12397.284902 kJ/mol
# Density = 1.973650 g / cm^3
# Si number density = 19.781523 Si / 1000 Ang^3
#
#
#
# Elastic Constant Matrix: (Units=GPa)
#
#
# Indices 1 2 3 4 5 6 
#
# 1 111.2615 31.2558 45.9467 0.0000 0.0000 0.0000
# 2 31.2558 97.9308 24.5122 0.0000 0.0000 0.0000
# 3 45.9467 24.5122 98.4431 0.0000 0.0000 0.0000
# 4 0.0000 0.0000 0.0000 34.0269 0.0000 0.0000
# 5 0.0000 0.0000 0.0000 0.0000 -27.4540 0.0000
# 6 0.0000 0.0000 0.0000 0.0000 0.0000 28.6789
#
#
#
# Elastic Compliance Matrix: (Units=1/GPa)
#
#
# Indices 1 2 3 4 5 6 
#
# 1 0.011690 -0.002523 -0.004828 0.000000 0.000000 0.000000
# 2 -0.002523 0.011434 -0.001670 0.000000 0.000000 0.000000
# 3 -0.004828 -0.001670 0.012827 0.000000 0.000000 0.000000
# 4 0.000000 0.000000 0.000000 0.029388 0.000000 0.000000
# 5 0.000000 0.000000 0.000000 0.000000 -0.036425 0.000000
# 6 0.000000 0.000000 0.000000 0.000000 0.000000 0.034869
#
#
# Mechanical properties :
#
#
# Convention : Reuss Voigt Hill
#
# Bulk Modulus (GPa) = 55.83147 56.78497 56.30822
# Shear Modulus (GPa) = 56.95011 20.77842 38.86427
#
# Velocity S-wave (km/s) = 5.37141 3.24450 4.43727
# Velocity P-wave (km/s) = 8.17036 6.54248 7.40131
#
# Compressibility (1/GPa) = 0.01791104
#
# Stress axis : x y z
#
# Youngs Moduli (GPa) = 85.54077 87.45569 77.95836
#
# Poissons Ratio (x) = 0.22062 0.37639
# Poissons Ratio (y) = 0.21579 0.13017
# Poissons Ratio (z) = 0.41300 0.14603
#
# Static dielectric constant tensor:
#      x y z
#    x 3.783900 0.000000 0.000000 
#    y 0.000000 4.665670 0.000000 
#    z 0.000000 0.000000 3.574570 
# 
# 
# High freq. dielectric constant tensor:
#      x y z
#    x 1.765730 0.000000 0.000000 
#    y 0.000000 1.792280 0.000000 
#    z 0.000000 0.000000 1.765610 
# 
# From -- ./inp_files/27511.got.cif
#   From: 2010.03.12/outbox.cif.g09.slc.cpg/sg50_14_cif.got.tgz:27511.got - 2010.04.16 13:23:21.
