data_PCOD8205635
_publ_section_title
;
Structure prediction by ZEFSAII (Michael W. Deem and Ramdas Pophale) SiO2 
 PCOD8205635
Probable space group: P B A N
;
_chemical_formula_sum "Si O2"
_cell_formula_units_Z 34
_cell_length_a 14.604008
_cell_length_b 11.548042
_cell_length_c 9.570488
_cell_angle_alpha 90.000000
_cell_angle_beta 90.000000
_cell_angle_gamma 90.000000
_cell_volume 1614.040768
_symmetry_space_group_name_H-M "P B A N"
_symmetry_group_IT_number 50
_space_group.IT_coordinate_system_code '2'
_symmetry_cell_setting 'orthorhombic'
loop_
_space_group_symop_operation_xyz
x,y,z
1/2-x,1/2-y,z
x,1/2-y,-z
1/2-x,y,-z
-x,-y,-z
1/2+x,1/2+y,-z
-x,1/2+y,z
1/2+x,-y,z
loop_
_atom_site_type_symbol
_atom_site_label
_atom_site_fract_x
_atom_site_fract_y
_atom_site_fract_z
Si Si1 0.582832 0.547157 0.646891
Si Si2 0.218048 0.630750 0.732260
Si Si3 0.250000 0.750000 0.000000
Si Si4 0.358161 0.251882 0.157739
Si Si5 0.615768 0.962693 0.658010
O O1 0.623873 0.418103 0.670689
O O2 0.612618 0.629450 0.771175
O O3 0.625779 0.589497 0.498874
O O4 0.473182 0.544686 0.650294
O O5 0.250000 0.750000 0.655168
O O6 0.195592 0.662601 0.895709
O O7 0.297662 0.535722 0.711311
O O8 0.250000 0.250000 0.161374
O O9 0.401014 0.142866 0.237345
O O10 0.395921 0.250000 0.000000
#
# Coordination Sequence:
#
# PCOD8205635 Si02
#       5
#     8   8   2   8   8
#     4  11  25  43  66  96 128 165 214 262 312 379
#     4  10  23  43  67  88 130 173 204 266 311 371
#     4   8  24  40  66  94 136 158 218 260 306 384
#     4  11  25  42  67  94 128 168 211 261 319 376
#     4  11  25  43  66  96 128 165 214 262 312 379
#
# _framework density 21.065142000000002
#
# number of rings (size 3 to 8) (size 9 to 14) (size 15 to 20)
#    0.706    0.706    2.353    1.412    6.588    3.765 
#    4.235    0.000    0.000    0.000    0.000    0.000 
#    0.000    0.000    0.000    0.000    0.000    0.000 
#
# Total GULP energy -421337.300719 kJ/mol
# GULP energy per Si atom -12392.273551 kJ/mol
# Density = 2.101720 g / cm^3
# Si number density = 21.065142 Si / 1000 Ang^3
#
#
#
# Elastic Constant Matrix: (Units=GPa)
#
#
# Indices 1 2 3 4 5 6 
#
# 1 66.2196 8.5507 21.9631 0.0000 0.0000 0.0000
# 2 8.5507 93.6071 45.9095 0.0000 0.0000 0.0000
# 3 21.9631 45.9095 177.1791 0.0000 0.0000 0.0000
# 4 0.0000 0.0000 0.0000 18.3010 0.0000 0.0000
# 5 0.0000 0.0000 0.0000 0.0000 31.6528 0.0000
# 6 0.0000 0.0000 0.0000 0.0000 0.0000 21.2276
#
#
#
# Elastic Compliance Matrix: (Units=1/GPa)
#
#
# Indices 1 2 3 4 5 6 
#
# 1 0.015774 -0.000552 -0.001812 0.000000 0.000000 0.000000
# 2 -0.000552 0.012258 -0.003108 0.000000 0.000000 0.000000
# 3 -0.001812 -0.003108 0.006674 0.000000 0.000000 0.000000
# 4 0.000000 0.000000 0.000000 0.054642 0.000000 0.000000
# 5 0.000000 0.000000 0.000000 0.000000 0.031593 0.000000
# 6 0.000000 0.000000 0.000000 0.000000 0.000000 0.047109
#
#
# Mechanical properties :
#
#
# Convention : Reuss Voigt Hill
#
# Bulk Modulus (GPa) = 42.08554 54.42804 48.25679
# Shear Modulus (GPa) = 26.75047 31.60844 29.17945
#
# Velocity S-wave (km/s) = 3.56742 3.87784 3.72587
# Velocity P-wave (km/s) = 6.08201 6.77822 6.43953
#
# Compressibility (1/GPa) = 0.02376113
#
# Stress axis : x y z
#
# Youngs Moduli (GPa) = 63.39692 81.58255 149.83767
#
# Poissons Ratio (x) = 0.04504 0.27154
# Poissons Ratio (y) = 0.03500 0.46564
# Poissons Ratio (z) = 0.11489 0.25353
#
# Static dielectric constant tensor:
#      x y z
#    x 2.982480 0.000000 0.000000 
#    y 0.000000 3.811470 0.000000 
#    z 0.000000 0.000000 4.110000 
# 
# 
# High freq. dielectric constant tensor:
#      x y z
#    x 1.811580 0.000000 0.000000 
#    y 0.000000 1.826360 0.000000 
#    z 0.000000 0.000000 1.838010 
# 
# From -- ./inp_files/12235.got.cif
#   From: 2010.03.12/outbox.cif.g09.slc.cpg/sg50_7_cif.got.tgz:12235.got - 2010.04.16 13:23:21.
