data_PCOD8205955
_publ_section_title
;
Structure prediction by ZEFSAII (Michael W. Deem and Ramdas Pophale) SiO2 
 PCOD8205955
Probable space group: P M M A
;
_chemical_formula_sum "Si O2"
_cell_formula_units_Z 44
_cell_length_a 8.682354
_cell_length_b 28.039690
_cell_length_c 10.010665
_cell_angle_alpha 90.000000
_cell_angle_beta 90.000000
_cell_angle_gamma 90.000000
_cell_volume 2437.101546
_symmetry_space_group_name_H-M "P M M A"
_symmetry_group_IT_number 51
_symmetry_cell_setting 'orthorhombic'
loop_
_space_group_symop_operation_xyz
x,y,z
1/2-x,-y,z
1/2+x,-y,-z
-x,y,-z
-x,-y,-z
1/2+x,y,-z
1/2-x,y,z
x,-y,z
loop_
_atom_site_type_symbol
_atom_site_label
_atom_site_fract_x
_atom_site_fract_y
_atom_site_fract_z
Si Si1 0.068966 0.500000 0.149282
Si Si2 0.432361 0.769993 0.357301
Si Si3 0.068199 0.946312 0.861011
Si Si4 0.070250 0.698379 0.852625
Si Si5 0.433134 0.128336 0.641756
Si Si6 0.427226 0.592691 0.855806
O O1 0.250000 0.500000 0.147023
O O2 0.009960 0.451329 0.222892
O O3 0.000000 0.500000 0.000000
O O4 0.500000 0.753942 0.500000
O O5 0.250000 0.773394 0.369707
O O6 0.478352 0.732522 0.245235
O O7 0.499388 0.820959 0.313467
O O8 0.250000 0.944851 0.871957
O O9 0.009220 0.911348 0.745628
O O10 0.009893 0.000000 0.829665
O O11 0.000000 0.927692 0.000000
O O12 0.250000 0.712242 0.858927
O O13 0.049998 0.644903 0.790604
O O14 0.000000 0.703112 0.000000
O O15 0.500000 0.112445 0.500000
O O16 0.250000 0.132062 0.633911
O O17 0.250000 0.579123 0.869495
O O18 0.500000 0.596911 0.000000
#
# Coordination Sequence:
#
# PCOD8205955 Si02
#       6
#     4   8   8   8   8   8
#     4  10  16  22  36  58  89 126 163 200 243 296
#     4  11  22  37  56  76 102 135 172 213 257 307
#     4   9  19  35  54  77 105 136 169 206 248 296
#     4  10  20  34  52  76 104 134 170 212 258 306
#     4  10  20  35  54  76 103 132 168 211 252 299
#     4   9  16  26  41  62  92 126 161 202 247 296
#
# _framework density 18.054234000000001
#
# number of rings (size 3 to 8) (size 9 to 14) (size 15 to 20)
#    0.000    2.182    0.000    6.273    0.000    4.727 
#    0.000    1.818    0.000    0.000    0.000    0.636 
#    0.000    0.000    0.000    0.000    0.000    0.000 
#
# Total GULP energy -545393.200624 kJ/mol
# GULP energy per Si atom -12395.300014 kJ/mol
# Density = 1.801314 g / cm^3
# Si number density = 18.054234 Si / 1000 Ang^3
#
#
#
# Elastic Constant Matrix: (Units=GPa)
#
#
# Indices 1 2 3 4 5 6 
#
# 1 117.2382 54.9438 39.3531 0.0000 0.0000 0.0000
# 2 54.9438 134.7967 78.7113 0.0000 0.0000 0.0000
# 3 39.3531 78.7113 84.5154 0.0000 0.0000 0.0000
# 4 0.0000 0.0000 0.0000 -3.4036 0.0000 0.0000
# 5 0.0000 0.0000 0.0000 0.0000 27.1379 0.0000
# 6 0.0000 0.0000 0.0000 0.0000 0.0000 20.9112
#
#
#
# Elastic Compliance Matrix: (Units=1/GPa)
#
#
# Indices 1 2 3 4 5 6 
#
# 1 0.010698 -0.003183 -0.002017 0.000000 0.000000 0.000000
# 2 -0.003183 0.017209 -0.014546 0.000000 0.000000 0.000000
# 3 -0.002017 -0.014546 0.026318 0.000000 0.000000 0.000000
# 4 0.000000 0.000000 0.000000 -0.293808 0.000000 0.000000
# 5 0.000000 0.000000 0.000000 0.000000 0.036849 0.000000
# 6 0.000000 0.000000 0.000000 0.000000 0.000000 0.047821
#
#
# Mechanical properties :
#
#
# Convention : Reuss Voigt Hill
#
# Bulk Modulus (GPa) = 67.86727 75.84075 71.85401
# Shear Modulus (GPa) = -45.24533 19.83191 -12.70671
#
# Velocity S-wave (km/s) = -5.01151 3.31790 -2.65582
# Velocity P-wave (km/s) = 2.04584 7.53501 5.52095
#
# Compressibility (1/GPa) = 0.01473464
#
# Stress axis : x y z
#
# Youngs Moduli (GPa) = 93.47198 58.10770 37.99653
#
# Poissons Ratio (x) = 0.18494 0.07665
# Poissons Ratio (y) = 0.29749 0.55268
# Poissons Ratio (z) = 0.18857 0.84521
#
# Static dielectric constant tensor:
#      x y z
#    x 3.440830 0.000000 0.000000 
#    y 0.000000 4.143980 0.000000 
#    z 0.000000 0.000000 3.049040 
# 
# 
# High freq. dielectric constant tensor:
#      x y z
#    x 1.716500 0.000000 0.000000 
#    y 0.000000 1.718990 0.000000 
#    z 0.000000 0.000000 1.656190 
# 
# From -- ./inp_files/5843.got.cif
#   From: 2010.03.12/outbox.cif.g09.slc.cpg/sg51_3_cif.got.tgz:5843.got - 2010.04.16 13:43:02.
