data_PCOD8205027
_publ_section_title
;
Structure prediction by ZEFSAII (Michael W. Deem and Ramdas Pophale) SiO2 
 PCOD8205027
Probable space group: P B A N
;
_chemical_formula_sum "Si O2"
_cell_formula_units_Z 36
_cell_length_a 12.535467
_cell_length_b 26.316675
_cell_length_c 5.082718
_cell_angle_alpha 90.000000
_cell_angle_beta 90.000000
_cell_angle_gamma 90.000000
_cell_volume 1676.747046
_symmetry_space_group_name_H-M "P B A N"
_symmetry_group_IT_number 50
_space_group.IT_coordinate_system_code '2'
_symmetry_cell_setting 'orthorhombic'
loop_
_space_group_symop_operation_xyz
x,y,z
1/2-x,1/2-y,z
x,1/2-y,-z
1/2-x,y,-z
-x,-y,-z
1/2+x,1/2+y,-z
-x,1/2+y,z
1/2+x,-y,z
loop_
_atom_site_type_symbol
_atom_site_label
_atom_site_fract_x
_atom_site_fract_y
_atom_site_fract_z
Si Si1 0.464340 0.867916 0.443926
Si Si2 0.839459 0.927100 0.683946
Si Si3 0.750000 0.493074 0.000000
Si Si4 0.750000 0.424874 0.500000
Si Si5 0.479551 0.306053 0.938541
Si Si6 0.750000 0.661951 0.000000
O O1 0.548132 0.915309 0.457642
O O2 0.351112 0.888731 0.535511
O O3 0.488654 0.822987 0.647054
O O4 0.470134 0.845371 0.148844
O O5 0.750000 0.953738 0.500000
O O6 0.787669 0.873367 0.761191
O O7 0.849289 0.968446 0.922857
O O8 0.721713 0.457517 0.243734
O O9 0.524359 0.250000 0.000000
O O10 0.350945 0.303365 0.930260
#
# Coordination Sequence:
#
# PCOD8205027 Si02
#       6
#     8   8   4   4   8   4
#     4  11  25  42  65  87 132 167 202 259 316 364
#     4  10  19  40  63  95 128 161 197 248 324 373
#     4  11  24  40  67  94 122 160 221 256 302 379
#     4  12  26  46  59  90 124 172 219 258 302 356
#     4  11  22  40  65  97 122 161 210 256 313 379
#     4   9  19  34  63  96 134 158 185 252 321 381
#
# _framework density 21.470144000000001
#
# number of rings (size 3 to 8) (size 9 to 14) (size 15 to 20)
#    0.000    1.333    3.333    2.333    0.000    1.778 
#    0.000    5.556    0.000    0.000    0.000    0.000 
#    0.000    0.000    0.000    0.000    0.000    0.000 
#
# Total GULP energy -446132.173153 kJ/mol
# GULP energy per Si atom -12392.560365 kJ/mol
# Density = 2.142128 g / cm^3
# Si number density = 21.470144 Si / 1000 Ang^3
#
#
#
# Elastic Constant Matrix: (Units=GPa)
#
#
# Indices 1 2 3 4 5 6 
#
# 1 127.0082 42.3911 25.9060 0.0000 0.0000 0.0000
# 2 42.3911 95.4018 26.5820 0.0000 0.0000 0.0000
# 3 25.9060 26.5820 97.3816 0.0000 0.0000 0.0000
# 4 0.0000 0.0000 0.0000 22.9145 0.0000 0.0000
# 5 0.0000 0.0000 0.0000 0.0000 22.1679 0.0000
# 6 0.0000 0.0000 0.0000 0.0000 0.0000 17.1973
#
#
#
# Elastic Compliance Matrix: (Units=1/GPa)
#
#
# Indices 1 2 3 4 5 6 
#
# 1 0.009437 -0.003781 -0.001478 0.000000 0.000000 0.000000
# 2 -0.003781 0.012860 -0.002504 0.000000 0.000000 0.000000
# 3 -0.001478 -0.002504 0.011346 0.000000 0.000000 0.000000
# 4 0.000000 0.000000 0.000000 0.043641 0.000000 0.000000
# 5 0.000000 0.000000 0.000000 0.000000 0.045110 0.000000
# 6 0.000000 0.000000 0.000000 0.000000 0.000000 0.058149
#
#
# Mechanical properties :
#
#
# Convention : Reuss Voigt Hill
#
# Bulk Modulus (GPa) = 55.20392 56.61663 55.91028
# Shear Modulus (GPa) = 24.73910 27.45009 26.09460
#
# Velocity S-wave (km/s) = 3.39817 3.57952 3.49003
# Velocity P-wave (km/s) = 6.41596 6.59630 6.50675
#
# Compressibility (1/GPa) = 0.01811466
#
# Stress axis : x y z
#
# Youngs Moduli (GPa) = 105.96419 77.76026 88.13850
#
# Poissons Ratio (x) = 0.29404 0.13030
# Poissons Ratio (y) = 0.40070 0.22074
# Poissons Ratio (z) = 0.15665 0.19474
#
# Static dielectric constant tensor:
#      x y z
#    x 3.701970 0.000000 0.000000 
#    y 0.000000 3.753920 0.000000 
#    z 0.000000 0.000000 4.015540 
# 
# 
# High freq. dielectric constant tensor:
#      x y z
#    x 1.810650 0.000000 0.000000 
#    y 0.000000 1.841900 0.000000 
#    z 0.000000 0.000000 1.854630 
# 
# From -- ./inp_files/2296.got.cif
#   From: 2010.03.12/outbox.cif.g09.slc.cpg/sg50_2_cif.got.tgz:2296.got - 2010.04.16 13:23:21.
