data_PCOD8205227
_publ_section_title
;
Structure prediction by ZEFSAII (Michael W. Deem and Ramdas Pophale) SiO2 
 PCOD8205227
Probable space group: P B A N
;
_chemical_formula_sum "Si O2"
_cell_formula_units_Z 48
_cell_length_a 9.746776
_cell_length_b 19.426543
_cell_length_c 12.842822
_cell_angle_alpha 90.000000
_cell_angle_beta 90.000000
_cell_angle_gamma 90.000000
_cell_volume 2431.739069
_symmetry_space_group_name_H-M "P B A N"
_symmetry_group_IT_number 50
_space_group.IT_coordinate_system_code '2'
_symmetry_cell_setting 'orthorhombic'
loop_
_space_group_symop_operation_xyz
x,y,z
1/2-x,1/2-y,z
x,1/2-y,-z
1/2-x,y,-z
-x,-y,-z
1/2+x,1/2+y,-z
-x,1/2+y,z
1/2+x,-y,z
loop_
_atom_site_type_symbol
_atom_site_label
_atom_site_fract_x
_atom_site_fract_y
_atom_site_fract_z
Si Si1 0.094011 0.398854 0.886753
Si Si2 0.592278 0.743457 0.787593
Si Si3 0.615244 0.216811 0.613239
Si Si4 0.544913 0.483864 0.727508
Si Si5 0.414678 0.115258 0.116055
Si Si6 0.184420 0.944698 0.610027
O O1 0.048388 0.324532 0.847992
O O2 0.032648 0.454895 0.810219
O O3 0.256456 0.404687 0.883860
O O4 0.029791 0.408341 0.002655
O O5 0.750000 0.750000 0.754645
O O6 0.512702 0.743312 0.678977
O O7 0.558153 0.803996 0.868422
O O8 0.750000 0.250000 0.665306
O O9 0.594694 0.250000 0.500000
O O10 0.633222 0.134249 0.610436
O O11 0.488106 0.417664 0.785588
O O12 0.447072 0.505995 0.631095
O O13 0.698346 0.463494 0.694101
O O14 0.250000 0.964110 0.500000
#
# Coordination Sequence:
#
# PCOD8205227 Si02
#       6
#     8   8   8   8   8   8
#     4  10  20  39  62  93 128 168 211 261 314 380
#     4  10  21  39  64  94 124 164 214 264 310 375
#     4  11  22  41  66  87 126 170 212 259 328 383
#     4  12  23  42  65  94 130 166 216 266 321 391
#     4  10  21  37  64  93 127 169 211 258 320 374
#     4  12  25  44  66  93 126 171 214 269 326 384
#
# _framework density 19.738962000000001
#
# number of rings (size 3 to 8) (size 9 to 14) (size 15 to 20)
#    0.000    1.167    5.000    2.500    0.000    2.333 
#    0.000    0.000    0.000    1.000    0.000    0.000 
#    0.000    0.000    0.000    0.000    0.000    0.000 
#
# Total GULP energy -595057.525255 kJ/mol
# GULP energy per Si atom -12397.031776 kJ/mol
# Density = 1.969404 g / cm^3
# Si number density = 19.738962 Si / 1000 Ang^3
#
#
#
# Elastic Constant Matrix: (Units=GPa)
#
#
# Indices 1 2 3 4 5 6 
#
# 1 53.6909 26.5714 31.3497 0.0000 0.0000 0.0000
# 2 26.5714 76.9679 27.5446 0.0000 0.0000 0.0000
# 3 31.3497 27.5446 100.8388 0.0000 0.0000 0.0000
# 4 0.0000 0.0000 0.0000 32.4751 0.0000 0.0000
# 5 0.0000 0.0000 0.0000 0.0000 33.0439 0.0000
# 6 0.0000 0.0000 0.0000 0.0000 0.0000 24.4621
#
#
#
# Elastic Compliance Matrix: (Units=1/GPa)
#
#
# Indices 1 2 3 4 5 6 
#
# 1 0.025462 -0.006603 -0.006112 0.000000 0.000000 0.000000
# 2 -0.006603 0.016112 -0.002348 0.000000 0.000000 0.000000
# 3 -0.006112 -0.002348 0.012459 0.000000 0.000000 0.000000
# 4 0.000000 0.000000 0.000000 0.030793 0.000000 0.000000
# 5 0.000000 0.000000 0.000000 0.000000 0.030263 0.000000
# 6 0.000000 0.000000 0.000000 0.000000 0.000000 0.040880
#
#
# Mechanical properties :
#
#
# Convention : Reuss Voigt Hill
#
# Bulk Modulus (GPa) = 41.83083 44.71434 43.27258
# Shear Modulus (GPa) = 25.76484 27.73167 26.74826
#
# Velocity S-wave (km/s) = 3.61678 3.75229 3.68516
# Velocity P-wave (km/s) = 6.21929 6.44010 6.33066
#
# Compressibility (1/GPa) = 0.02390582
#
# Stress axis : x y z
#
# Youngs Moduli (GPa) = 39.27477 62.06437 80.26629
#
# Poissons Ratio (x) = 0.40979 0.49060
# Poissons Ratio (y) = 0.25932 0.18850
# Poissons Ratio (z) = 0.24006 0.14576
#
# Static dielectric constant tensor:
#      x y z
#    x 3.570330 0.000000 0.000000 
#    y 0.000000 3.704980 0.000000 
#    z 0.000000 0.000000 3.713090 
# 
# 
# High freq. dielectric constant tensor:
#      x y z
#    x 1.759720 0.000000 0.000000 
#    y 0.000000 1.782210 0.000000 
#    z 0.000000 0.000000 1.776500 
# 
# From -- ./inp_files/21771.got.cif
#   From: 2010.03.12/outbox.cif.g09.slc.cpg/sg50_11_cif.got.tgz:21771.got - 2010.04.16 13:23:21.
