data_PCOD8205768
_publ_section_title
;
Structure prediction by ZEFSAII (Michael W. Deem and Ramdas Pophale) SiO2 
 PCOD8205768
Probable space group: P B A N
;
_chemical_formula_sum "Si O2"
_cell_formula_units_Z 64
_cell_length_a 29.068753
_cell_length_b 12.086347
_cell_length_c 8.451320
_cell_angle_alpha 90.000000
_cell_angle_beta 90.000000
_cell_angle_gamma 90.000000
_cell_volume 2969.244813
_symmetry_space_group_name_H-M "P B A N"
_symmetry_group_IT_number 50
_space_group.IT_coordinate_system_code '2'
_symmetry_cell_setting 'orthorhombic'
loop_
_space_group_symop_operation_xyz
x,y,z
1/2-x,1/2-y,z
x,1/2-y,-z
1/2-x,y,-z
-x,-y,-z
1/2+x,1/2+y,-z
-x,1/2+y,z
1/2+x,-y,z
loop_
_atom_site_type_symbol
_atom_site_label
_atom_site_fract_x
_atom_site_fract_y
_atom_site_fract_z
Si Si1 0.433203 0.533549 0.662032
Si Si2 0.661830 0.017097 0.809518
Si Si3 0.258309 0.376164 0.684676
Si Si4 0.324481 0.990803 0.820884
Si Si5 0.198516 0.750557 0.188057
Si Si6 0.003976 0.288960 0.678565
Si Si7 0.082430 0.464771 0.687881
Si Si8 0.509125 0.422833 0.846271
O O1 0.392666 0.504018 0.784028
O O2 0.452918 0.657319 0.678126
O O3 0.414599 0.504608 0.490648
O O4 0.477816 0.460814 0.699085
O O5 0.690103 0.920572 0.719197
O O6 0.674041 0.140341 0.745272
O O7 0.672602 0.004585 0.992093
O O8 0.250000 0.250000 0.742464
O O9 0.250000 0.385306 0.500000
O O10 0.223836 0.455349 0.777719
O O11 0.365845 0.061630 0.743594
O O12 0.326487 0.863970 0.756493
O O13 0.250000 0.750000 0.256416
O O14 0.199331 0.750000 0.000000
O O15 0.013396 0.250000 0.500000
O O16 0.048023 0.363548 0.720101
O O17 0.001720 0.207747 0.833818
O O18 0.062478 0.563721 0.797431
O O19 0.500000 0.500000 0.000000
#
# Coordination Sequence:
#
# PCOD8205768 Si02
#       8
#     8   8   8   8   8   8   8   8
#     4  11  23  39  63  97 129 171 222 274 340 408
#     4  11  23  41  67  99 132 170 223 281 342 404
#     4  11  25  46  67  92 131 178 224 275 334 403
#     4  11  23  42  66  99 134 171 225 278 338 406
#     4   9  18  37  64  93 129 168 206 273 342 390
#     4  11  21  43  69  91 133 185 223 278 348 408
#     4  11  23  40  64  95 132 175 224 273 339 416
#     4  11  23  42  64  94 128 167 223 286 331 402
#
# _framework density 21.554302
#
# number of rings (size 3 to 8) (size 9 to 14) (size 15 to 20)
#    0.000    1.250    3.750    2.625    1.750    4.000 
#    4.500    3.750    0.000    0.000    0.000    0.000 
#    0.000    0.000    0.000    0.000    0.000    0.000 
#
# Total GULP energy -792959.613929 kJ/mol
# GULP energy per Si atom -12389.993968 kJ/mol
# Density = 2.150524 g / cm^3
# Si number density = 21.554302 Si / 1000 Ang^3
#
#
#
# Elastic Constant Matrix: (Units=GPa)
#
#
# Indices 1 2 3 4 5 6 
#
# 1 97.2297 20.3227 14.2804 0.0000 0.0000 0.0000
# 2 20.3227 123.1481 31.6910 0.0000 0.0000 0.0000
# 3 14.2804 31.6910 77.4607 0.0000 0.0000 0.0000
# 4 0.0000 0.0000 0.0000 33.0597 0.0000 0.0000
# 5 0.0000 0.0000 0.0000 0.0000 35.9097 0.0000
# 6 0.0000 0.0000 0.0000 0.0000 0.0000 23.0594
#
#
#
# Elastic Compliance Matrix: (Units=1/GPa)
#
#
# Indices 1 2 3 4 5 6 
#
# 1 0.010788 -0.001418 -0.001409 0.000000 0.000000 0.000000
# 2 -0.001418 0.009262 -0.003528 0.000000 0.000000 0.000000
# 3 -0.001409 -0.003528 0.014613 0.000000 0.000000 0.000000
# 4 0.000000 0.000000 0.000000 0.030248 0.000000 0.000000
# 5 0.000000 0.000000 0.000000 0.000000 0.027848 0.000000
# 6 0.000000 0.000000 0.000000 0.000000 0.000000 0.043366
#
#
# Mechanical properties :
#
#
# Convention : Reuss Voigt Hill
#
# Bulk Modulus (GPa) = 45.54972 47.82519 46.68745
# Shear Modulus (GPa) = 32.01993 33.84204 32.93098
#
# Velocity S-wave (km/s) = 3.85846 3.96673 3.91297
# Velocity P-wave (km/s) = 6.40537 6.57391 6.49018
#
# Compressibility (1/GPa) = 0.02195403
#
# Stress axis : x y z
#
# Youngs Moduli (GPa) = 92.69402 107.96599 68.43270
#
# Poissons Ratio (x) = 0.15307 0.09641
# Poissons Ratio (y) = 0.13142 0.24143
# Poissons Ratio (z) = 0.13059 0.38090
#
# Static dielectric constant tensor:
#      x y z
#    x 3.934980 0.000000 0.000000 
#    y 0.000000 4.351460 0.000000 
#    z 0.000000 0.000000 3.674230 
# 
# 
# High freq. dielectric constant tensor:
#      x y z
#    x 1.850620 0.000000 0.000000 
#    y 0.000000 1.847500 0.000000 
#    z 0.000000 0.000000 1.839830 
# 
# From -- ./inp_files/17098.got.cif
#   From: 2010.03.12/outbox.cif.g09.slc.cpg/sg50_9_cif.got.tgz:17098.got - 2010.04.16 13:23:21.
