data_PCOD8205789
_publ_section_title
;
Structure prediction by ZEFSAII (Michael W. Deem and Ramdas Pophale) SiO2 
 PCOD8205789
Probable space group: P B A N
;
_chemical_formula_sum "Si O2"
_cell_formula_units_Z 48
_cell_length_a 12.695318
_cell_length_b 8.444505
_cell_length_c 20.334941
_cell_angle_alpha 90.000000
_cell_angle_beta 90.000000
_cell_angle_gamma 90.000000
_cell_volume 2180.021103
_symmetry_space_group_name_H-M "P B A N"
_symmetry_group_IT_number 50
_space_group.IT_coordinate_system_code '2'
_symmetry_cell_setting 'orthorhombic'
loop_
_space_group_symop_operation_xyz
x,y,z
1/2-x,1/2-y,z
x,1/2-y,-z
1/2-x,y,-z
-x,-y,-z
1/2+x,1/2+y,-z
-x,1/2+y,z
1/2+x,-y,z
loop_
_atom_site_type_symbol
_atom_site_label
_atom_site_fract_x
_atom_site_fract_y
_atom_site_fract_z
Si Si1 0.885407 0.902683 0.266505
Si Si2 0.918205 0.398796 0.541468
Si Si3 0.637295 0.670540 0.115107
Si Si4 0.549616 0.376518 0.048245
Si Si5 0.748620 0.435620 0.633518
Si Si6 0.450474 0.400640 0.336558
O O1 0.868926 0.849732 0.192517
O O2 0.886499 0.743182 0.307620
O O3 0.788214 0.002451 0.295294
O O4 0.992766 0.002318 0.277532
O O5 0.877690 0.250000 0.500000
O O6 0.817164 0.496521 0.569854
O O7 0.000000 0.500000 0.500000
O O8 0.968765 0.335017 0.609492
O O9 0.750000 0.750000 0.094658
O O10 0.629332 0.485710 0.090790
O O11 0.541517 0.783648 0.090136
O O12 0.608878 0.250000 0.000000
O O13 0.500000 0.500000 0.000000
O O14 0.750000 0.250000 0.635674
O O15 0.629652 0.489380 0.623014
#
# Coordination Sequence:
#
# PCOD8205789 Si02
#       6
#     8   8   8   8   8   8
#     4  11  23  40  64  94 124 159 208 260 317 381
#     4  11  23  39  58  84 116 156 208 259 311 378
#     4  11  22  41  69  99 133 176 221 274 330 393
#     4   9  21  41  64  96 134 173 220 268 320 387
#     4  11  23  40  61  87 120 162 205 255 320 387
#     4  11  22  40  61  86 124 161 197 260 324 375
#
# _framework density 22.018135999999998
#
# number of rings (size 3 to 8) (size 9 to 14) (size 15 to 20)
#    0.000    1.333    0.000    7.500    0.000    5.333 
#    0.000    8.333    0.000    0.000    0.000    0.000 
#    0.000    0.000    0.000    0.000    0.000    0.000 
#
# Total GULP energy -594657.748830 kJ/mol
# GULP energy per Si atom -12388.703101 kJ/mol
# Density = 2.196802 g / cm^3
# Si number density = 22.018136 Si / 1000 Ang^3
#
#
#
# Elastic Constant Matrix: (Units=GPa)
#
#
# Indices 1 2 3 4 5 6 
#
# 1 95.6557 29.5594 18.7998 0.0000 0.0000 0.0000
# 2 29.5594 106.7792 33.9132 0.0000 0.0000 0.0000
# 3 18.7998 33.9132 110.4434 0.0000 0.0000 0.0000
# 4 0.0000 0.0000 0.0000 46.1130 0.0000 0.0000
# 5 0.0000 0.0000 0.0000 0.0000 21.5334 0.0000
# 6 0.0000 0.0000 0.0000 0.0000 0.0000 38.3754
#
#
#
# Elastic Compliance Matrix: (Units=1/GPa)
#
#
# Indices 1 2 3 4 5 6 
#
# 1 0.011549 -0.002851 -0.001091 0.000000 0.000000 0.000000
# 2 -0.002851 0.011081 -0.002917 0.000000 0.000000 0.000000
# 3 -0.001091 -0.002917 0.010136 0.000000 0.000000 0.000000
# 4 0.000000 0.000000 0.000000 0.021686 0.000000 0.000000
# 5 0.000000 0.000000 0.000000 0.000000 0.046439 0.000000
# 6 0.000000 0.000000 0.000000 0.000000 0.000000 0.026058
#
#
# Mechanical properties :
#
#
# Convention : Reuss Voigt Hill
#
# Bulk Modulus (GPa) = 52.49674 53.04701 52.77187
# Shear Modulus (GPa) = 34.00973 36.57808 35.29391
#
# Velocity S-wave (km/s) = 3.93443 4.08029 4.00803
# Velocity P-wave (km/s) = 6.67338 6.80758 6.74081
#
# Compressibility (1/GPa) = 0.01904880
#
# Stress axis : x y z
#
# Youngs Moduli (GPa) = 86.58409 90.24592 98.65982
#
# Poissons Ratio (x) = 0.25728 0.10760
# Poissons Ratio (y) = 0.24684 0.28782
# Poissons Ratio (z) = 0.09443 0.26327
#
# Static dielectric constant tensor:
#      x y z
#    x 3.706670 0.000000 0.000000 
#    y 0.000000 7.502730 0.000000 
#    z 0.000000 0.000000 3.513630 
# 
# 
# High freq. dielectric constant tensor:
#      x y z
#    x 1.863530 0.000000 0.000000 
#    y 0.000000 1.875960 0.000000 
#    z 0.000000 0.000000 1.869900 
# 
# From -- ./inp_files/29455.got.cif
#   From: 2010.03.12/outbox.cif.g09.slc.cpg/sg50_15_cif.got.tgz:29455.got - 2010.04.16 13:23:21.
