data_PCOD8205923
_publ_section_title
;
Structure prediction by ZEFSAII (Michael W. Deem and Ramdas Pophale) SiO2 
 PCOD8205923
Probable space group: P M M A
;
_chemical_formula_sum "Si O2"
_cell_formula_units_Z 64
_cell_length_a 20.574351
_cell_length_b 8.961874
_cell_length_c 20.759826
_cell_angle_alpha 90.000000
_cell_angle_beta 90.000000
_cell_angle_gamma 90.000000
_cell_volume 3827.795146
_symmetry_space_group_name_H-M "P M M A"
_symmetry_group_IT_number 51
_symmetry_cell_setting 'orthorhombic'
loop_
_space_group_symop_operation_xyz
x,y,z
1/2-x,-y,z
1/2+x,-y,-z
-x,y,-z
-x,-y,-z
1/2+x,y,-z
1/2-x,y,z
x,-y,z
loop_
_atom_site_type_symbol
_atom_site_label
_atom_site_fract_x
_atom_site_fract_y
_atom_site_fract_z
Si Si1 0.934330 0.322709 0.467869
Si Si2 0.425134 0.177347 0.051672
Si Si3 0.564831 0.678026 0.072337
Si Si4 0.677500 0.678134 0.560178
Si Si5 0.539346 0.324616 0.325725
Si Si6 0.443821 0.830252 0.800720
Si Si7 0.890459 0.325461 0.686811
Si Si8 0.598391 0.166218 0.810994
O O1 0.937182 0.500000 0.473189
O O2 0.871314 0.260042 0.505425
O O3 0.928780 0.274494 0.393269
O O4 0.000000 0.256950 0.500000
O O5 0.492198 0.263691 0.062732
O O6 0.380688 0.207772 0.115369
O O7 0.437737 0.000000 0.043997
O O8 0.393174 0.248595 0.986876
O O9 0.568787 0.500000 0.070180
O O10 0.590542 0.737836 0.141369
O O11 0.750000 0.737677 0.545724
O O12 0.675842 0.500000 0.560405
O O13 0.654891 0.739290 0.630060
O O14 0.546083 0.500000 0.313550
O O15 0.576545 0.240393 0.267944
O O16 0.463989 0.276698 0.328333
O O17 0.520933 0.818373 0.807862
O O18 0.419373 0.000000 0.803859
O O19 0.883448 0.500000 0.688851
O O20 0.867641 0.268107 0.757073
O O21 0.620741 0.000000 0.794615
#
# Coordination Sequence:
#
# PCOD8205923 Si02
#       8
#     8   8   8   8   8   8   8   8
#     4   9  14  23  39  58  80 105 134 169 211 254
#     4   9  15  23  32  44  66  98 132 165 203 242
#     4  10  16  21  31  47  68  96 132 168 199 238
#     4   9  16  25  38  59  84 107 133 168 211 256
#     4   9  15  23  38  57  74  96 132 171 205 242
#     4   9  16  25  34  47  71 100 128 162 206 247
#     4   9  15  23  37  55  74  98 129 168 204 239
#     4   8  15  24  34  48  68  96 129 164 199 238
#
# _framework density 16.719809000000001
#
# number of rings (size 3 to 8) (size 9 to 14) (size 15 to 20)
#    0.000    3.000    1.250    3.375    0.000    3.500 
#    0.000    0.000    0.000    1.500    0.000    0.000 
#    0.000    0.000    0.000    1.125    0.000   22.500 
#
# Total GULP energy -792899.438149 kJ/mol
# GULP energy per Si atom -12389.053721 kJ/mol
# Density = 1.668175 g / cm^3
# Si number density = 16.719809 Si / 1000 Ang^3
#
#
#
# Elastic Constant Matrix: (Units=GPa)
#
#
# Indices 1 2 3 4 5 6 
#
# 1 46.2378 17.4353 47.8609 0.0000 0.0000 0.0000
# 2 17.4353 54.5651 48.4069 0.0000 0.0000 0.0000
# 3 47.8609 48.4069 186.8563 0.0000 0.0000 0.0000
# 4 0.0000 0.0000 0.0000 17.2897 0.0000 0.0000
# 5 0.0000 0.0000 0.0000 0.0000 10.3182 0.0000
# 6 0.0000 0.0000 0.0000 0.0000 0.0000 3.4455
#
#
#
# Elastic Compliance Matrix: (Units=1/GPa)
#
#
# Indices 1 2 3 4 5 6 
#
# 1 0.029962 -0.003591 -0.006744 0.000000 0.000000 0.000000
# 2 -0.003591 0.024226 -0.005356 0.000000 0.000000 0.000000
# 3 -0.006744 -0.005356 0.008467 0.000000 0.000000 0.000000
# 4 0.000000 0.000000 0.000000 0.057838 0.000000 0.000000
# 5 0.000000 0.000000 0.000000 0.000000 0.096916 0.000000
# 6 0.000000 0.000000 0.000000 0.000000 0.000000 0.290233
#
#
# Mechanical properties :
#
#
# Convention : Reuss Voigt Hill
#
# Bulk Modulus (GPa) = 31.97709 57.22947 44.60328
# Shear Modulus (GPa) = 9.10003 17.80775 13.45389
#
# Velocity S-wave (km/s) = 2.33548 3.26708 2.83974
# Velocity P-wave (km/s) = 5.14193 6.96668 6.12266
#
# Compressibility (1/GPa) = 0.03127239
#
# Stress axis : x y z
#
# Youngs Moduli (GPa) = 33.37522 41.27831 118.10937
#
# Poissons Ratio (x) = 0.14822 0.79656
# Poissons Ratio (y) = 0.11984 0.63262
# Poissons Ratio (z) = 0.22509 0.22109
#
# Static dielectric constant tensor:
#      x y z
#    x 2.588650 0.000000 0.000000 
#    y 0.000000 2.925210 0.000000 
#    z 0.000000 0.000000 3.964350 
# 
# 
# High freq. dielectric constant tensor:
#      x y z
#    x 1.554350 0.000000 0.000000 
#    y 0.000000 1.622660 0.000000 
#    z 0.000000 0.000000 1.675240 
# 
# From -- ./inp_files/34214.got.cif
#   From: 2010.03.12/outbox.cif.g09.slc.cpg/sg51_18_cif.got.tgz:34214.got - 2010.04.16 13:43:02.
