data_PCOD8205522
_publ_section_title
;
Structure prediction by ZEFSAII (Michael W. Deem and Ramdas Pophale) SiO2 
 PCOD8205522
Probable space group: P B A N
;
_chemical_formula_sum "Si O2"
_cell_formula_units_Z 32
_cell_length_a 30.235220
_cell_length_b 9.092092
_cell_length_c 5.303459
_cell_angle_alpha 90.000000
_cell_angle_beta 90.000000
_cell_angle_gamma 90.000000
_cell_volume 1457.928314
_symmetry_space_group_name_H-M "P B A N"
_symmetry_group_IT_number 50
_space_group.IT_coordinate_system_code '2'
_symmetry_cell_setting 'orthorhombic'
loop_
_space_group_symop_operation_xyz
x,y,z
1/2-x,1/2-y,z
x,1/2-y,-z
1/2-x,y,-z
-x,-y,-z
1/2+x,1/2+y,-z
-x,1/2+y,z
1/2+x,-y,z
loop_
_atom_site_type_symbol
_atom_site_label
_atom_site_fract_x
_atom_site_fract_y
_atom_site_fract_z
Si Si1 0.250000 0.750000 0.000000
Si Si2 0.386075 0.918723 0.587777
Si Si3 0.250000 0.250000 0.000000
Si Si4 0.438009 0.519696 0.882422
Si Si5 0.289275 0.998604 0.695513
Si Si6 0.503773 0.750000 0.000000
O O1 0.284592 0.649406 0.145883
O O2 0.383559 0.750000 0.500000
O O3 0.407204 0.005168 0.356003
O O4 0.338018 0.992918 0.586035
O O5 0.411841 0.947566 0.853139
O O6 0.216043 0.350219 0.845669
O O7 0.471100 0.655576 0.818688
O O8 0.465267 0.368676 0.867785
O O9 0.250000 0.994793 0.500000
#
# Coordination Sequence:
#
# PCOD8205522 Si02
#       6
#     2   8   2   8   8   4
#     4  10  22  40  72 104 124 200 234 278 356 426
#     4  12  25  44  72 110 142 181 246 294 354 415
#     4  10  26  48  68 100 136 204 230 290 360 430
#     4  11  26  45  74 105 143 187 235 303 351 440
#     4  11  25  45  71  99 145 189 234 292 358 425
#     4  10  24  50  72 102 144 190 238 286 384 424
#
# _framework density 21.948952999999999
#
# number of rings (size 3 to 8) (size 9 to 14) (size 15 to 20)
#    0.000    1.000    2.500    2.250   10.500    8.000 
#    4.500    0.000    0.000    0.000    0.000    0.000 
#    0.000    0.000    0.000    0.000    0.000    0.000 
#
# Total GULP energy -396425.874646 kJ/mol
# GULP energy per Si atom -12388.308583 kJ/mol
# Density = 2.189900 g / cm^3
# Si number density = 21.948953 Si / 1000 Ang^3
#
#
#
# Elastic Constant Matrix: (Units=GPa)
#
#
# Indices 1 2 3 4 5 6 
#
# 1 197.5813 80.5584 89.4491 0.0000 0.0000 0.0000
# 2 80.5584 165.1673 54.0915 0.0000 0.0000 0.0000
# 3 89.4491 54.0915 154.0760 0.0000 0.0000 0.0000
# 4 0.0000 0.0000 0.0000 49.2639 0.0000 0.0000
# 5 0.0000 0.0000 0.0000 0.0000 35.9809 0.0000
# 6 0.0000 0.0000 0.0000 0.0000 0.0000 34.2394
#
#
#
# Elastic Compliance Matrix: (Units=1/GPa)
#
#
# Indices 1 2 3 4 5 6 
#
# 1 0.007745 -0.002604 -0.003582 0.000000 0.000000 0.000000
# 2 -0.002604 0.007717 -0.001197 0.000000 0.000000 0.000000
# 3 -0.003582 -0.001197 0.008990 0.000000 0.000000 0.000000
# 4 0.000000 0.000000 0.000000 0.020299 0.000000 0.000000
# 5 0.000000 0.000000 0.000000 0.000000 0.027793 0.000000
# 6 0.000000 0.000000 0.000000 0.000000 0.000000 0.029206
#
#
# Mechanical properties :
#
#
# Convention : Reuss Voigt Hill
#
# Bulk Modulus (GPa) = 103.25537 107.22473 105.24005
# Shear Modulus (GPa) = 41.75577 43.41187 42.58382
#
# Velocity S-wave (km/s) = 4.36639 4.45213 4.40947
# Velocity P-wave (km/s) = 8.51857 8.68254 8.60095
#
# Compressibility (1/GPa) = 0.00968473
#
# Stress axis : x y z
#
# Youngs Moduli (GPa) = 129.12177 129.58810 111.23398
#
# Poissons Ratio (x) = 0.33749 0.39843
# Poissons Ratio (y) = 0.33627 0.13317
# Poissons Ratio (z) = 0.46250 0.15514
#
# Static dielectric constant tensor:
#      x y z
#    x 4.102430 0.000000 0.000000 
#    y 0.000000 4.196570 0.000000 
#    z 0.000000 0.000000 4.297410 
# 
# 
# High freq. dielectric constant tensor:
#      x y z
#    x 1.880430 0.000000 0.000000 
#    y 0.000000 1.882730 0.000000 
#    z 0.000000 0.000000 1.853800 
# 
# From -- ./inp_files/1293.got.cif
#   From: 2010.03.12/outbox.cif.g09.slc.cpg/sg50_1_cif.got.tgz:1293.got - 2010.04.16 13:23:21.
