data_PCOD8205529
_publ_section_title
;
Structure prediction by ZEFSAII (Michael W. Deem and Ramdas Pophale) SiO2 
 PCOD8205529
Probable space group: P B A N
;
_chemical_formula_sum "Si O2"
_cell_formula_units_Z 34
_cell_length_a 4.897917
_cell_length_b 12.660030
_cell_length_c 23.760526
_cell_angle_alpha 90.000000
_cell_angle_beta 90.000000
_cell_angle_gamma 90.000000
_cell_volume 1473.337378
_symmetry_space_group_name_H-M "P B A N"
_symmetry_group_IT_number 50
_space_group.IT_coordinate_system_code '2'
_symmetry_cell_setting 'orthorhombic'
loop_
_space_group_symop_operation_xyz
x,y,z
1/2-x,1/2-y,z
x,1/2-y,-z
1/2-x,y,-z
-x,-y,-z
1/2+x,1/2+y,-z
-x,1/2+y,z
1/2+x,-y,z
loop_
_atom_site_type_symbol
_atom_site_label
_atom_site_fract_x
_atom_site_fract_y
_atom_site_fract_z
Si Si1 0.555893 0.071398 0.934657
Si Si2 0.750000 0.750000 0.648767
Si Si3 0.250000 0.750000 0.724591
Si Si4 0.250000 0.250000 0.000000
Si Si5 0.141636 0.568143 0.193992
Si Si6 0.668873 0.571847 0.559307
O O1 0.566191 0.103281 0.869294
O O2 0.860009 0.029428 0.950483
O O3 0.457449 0.178465 0.963907
O O4 0.494609 0.790090 0.685524
O O5 0.685326 0.649922 0.611038
O O6 0.100363 0.836149 0.763646
O O7 0.449315 0.531585 0.205850
O O8 0.750000 0.628947 0.500000
O O9 0.359634 0.531387 0.562888
#
# Coordination Sequence:
#
# PCOD8205529 Si02
#       6
#     8   4   4   2   8   8
#     4  10  24  43  64  95 128 165 211 254 312 380
#     4  12  25  39  62  98 131 157 208 276 314 366
#     4  12  26  40  65  97 122 166 218 256 322 378
#     4  12  24  40  72 100 134 166 200 274 326 376
#     4  10  23  44  65  87 125 168 208 257 306 372
#     4  10  22  41  64  90 126 172 212 252 316 385
#
# _framework density 23.076858000000001
#
# number of rings (size 3 to 8) (size 9 to 14) (size 15 to 20)
#    0.000    1.412    0.000    3.882    0.000   14.118 
#    0.000    4.706    0.000    0.000    0.000    0.000 
#    0.000    0.000    0.000    0.000    0.000    0.000 
#
# Total GULP energy -421511.446580 kJ/mol
# GULP energy per Si atom -12397.395488 kJ/mol
# Density = 2.302433 g / cm^3
# Si number density = 23.076858 Si / 1000 Ang^3
#
#
#
# Elastic Constant Matrix: (Units=GPa)
#
#
# Indices 1 2 3 4 5 6 
#
# 1 106.7361 19.6649 44.6233 0.0000 0.0000 0.0000
# 2 19.6649 92.6118 65.3989 0.0000 0.0000 0.0000
# 3 44.6233 65.3989 114.2445 0.0000 0.0000 0.0000
# 4 0.0000 0.0000 0.0000 6.7643 0.0000 0.0000
# 5 0.0000 0.0000 0.0000 0.0000 44.1559 0.0000
# 6 0.0000 0.0000 0.0000 0.0000 0.0000 15.9523
#
#
#
# Elastic Compliance Matrix: (Units=1/GPa)
#
#
# Indices 1 2 3 4 5 6 
#
# 1 0.011277 0.001202 -0.005092 0.000000 0.000000 0.000000
# 2 0.001202 0.018252 -0.010918 0.000000 0.000000 0.000000
# 3 -0.005092 -0.010918 0.016992 0.000000 0.000000 0.000000
# 4 0.000000 0.000000 0.000000 0.147835 0.000000 0.000000
# 5 0.000000 0.000000 0.000000 0.000000 0.022647 0.000000
# 6 0.000000 0.000000 0.000000 0.000000 0.000000 0.062687
#
#
# Mechanical properties :
#
#
# Convention : Reuss Voigt Hill
#
# Bulk Modulus (GPa) = 59.15854 63.66296 61.41075
# Shear Modulus (GPa) = 15.87594 25.63485 20.75540
#
# Velocity S-wave (km/s) = 2.62574 3.33655 3.00226
# Velocity P-wave (km/s) = 5.90625 6.51849 6.21991
#
# Compressibility (1/GPa) = 0.01690373
#
# Stress axis : x y z
#
# Youngs Moduli (GPa) = 88.67990 54.78733 58.85078
#
# Poissons Ratio (x) = -0.06584 0.29969
# Poissons Ratio (y) = -0.10656 0.64253
# Poissons Ratio (z) = 0.45160 0.59816
#
# Static dielectric constant tensor:
#      x y z
#    x 4.300680 0.000000 0.000000 
#    y 0.000000 3.810280 0.000000 
#    z 0.000000 0.000000 4.494660 
# 
# 
# High freq. dielectric constant tensor:
#      x y z
#    x 1.930160 0.000000 0.000000 
#    y 0.000000 1.894070 0.000000 
#    z 0.000000 0.000000 1.934790 
# 
# From -- ./inp_files/31369.got.cif
#   From: 2010.03.12/outbox.cif.g09.slc.cpg/sg50_16_cif.got.tgz:31369.got - 2010.04.16 13:23:21.
