data_PCOD8205676
_publ_section_title
;
Structure prediction by ZEFSAII (Michael W. Deem and Ramdas Pophale) SiO2 
 PCOD8205676
Probable space group: P B A N
;
_chemical_formula_sum "Si O2"
_cell_formula_units_Z 30
_cell_length_a 24.959152
_cell_length_b 5.566814
_cell_length_c 8.990565
_cell_angle_alpha 90.000000
_cell_angle_beta 90.000000
_cell_angle_gamma 90.000000
_cell_volume 1249.175684
_symmetry_space_group_name_H-M "P B A N"
_symmetry_group_IT_number 50
_space_group.IT_coordinate_system_code '2'
_symmetry_cell_setting 'orthorhombic'
loop_
_space_group_symop_operation_xyz
x,y,z
1/2-x,1/2-y,z
x,1/2-y,-z
1/2-x,y,-z
-x,-y,-z
1/2+x,1/2+y,-z
-x,1/2+y,z
1/2+x,-y,z
loop_
_atom_site_type_symbol
_atom_site_label
_atom_site_fract_x
_atom_site_fract_y
_atom_site_fract_z
Si Si1 0.681662 0.250000 0.000000
Si Si2 0.703809 0.938163 0.744100
Si Si3 0.608755 0.870682 0.150262
Si Si4 0.750000 0.250000 0.500000
Si Si5 0.939666 0.997746 0.557973
O O1 0.645207 0.405238 0.890453
O O2 0.718129 0.084974 0.893950
O O3 0.750000 0.750000 0.725697
O O4 0.644919 0.824176 0.761509
O O5 0.707544 0.100658 0.597671
O O6 0.563183 0.974505 0.261422
O O7 0.583806 0.750000 0.000000
O O8 0.912782 0.250000 0.500000
O O9 0.911573 0.750000 0.500000
O O10 0.000000 0.000000 0.500000
#
# Coordination Sequence:
#
# PCOD8205676 Si02
#       5
#     4   8   8   2   8
#     4  10  24  43  68  94 136 182 240 294 353 426
#     4  11  25  43  62  97 138 186 240 290 355 425
#     4  10  24  44  70 101 138 189 243 298 364 445
#     4  12  26  42  60  94 144 190 246 300 346 422
#     4  10  24  47  74 106 144 184 238 305 378 443
#
# _framework density 24.015837000000001
#
# number of rings (size 3 to 8) (size 9 to 14) (size 15 to 20)
#    0.000    1.600    0.000    2.000    7.467   17.067 
#    2.400    5.333    0.000    0.000    0.000    0.000 
#    0.000    0.000    0.000    0.000    0.000    0.000 
#
# Total GULP energy -371743.462340 kJ/mol
# GULP energy per Si atom -12391.448745 kJ/mol
# Density = 2.396118 g / cm^3
# Si number density = 24.015837 Si / 1000 Ang^3
#
#
#
# Elastic Constant Matrix: (Units=GPa)
#
#
# Indices 1 2 3 4 5 6 
#
# 1 62.5289 21.9897 64.7223 0.0000 0.0000 0.0000
# 2 21.9897 175.7821 79.5465 0.0000 0.0000 0.0000
# 3 64.7223 79.5465 214.4560 0.0000 0.0000 0.0000
# 4 0.0000 0.0000 0.0000 53.2396 0.0000 0.0000
# 5 0.0000 0.0000 0.0000 0.0000 56.5717 0.0000
# 6 0.0000 0.0000 0.0000 0.0000 0.0000 -3.1523
#
#
#
# Elastic Compliance Matrix: (Units=1/GPa)
#
#
# Indices 1 2 3 4 5 6 
#
# 1 0.023273 0.000321 -0.007143 0.000000 0.000000 0.000000
# 2 0.000321 0.006841 -0.002634 0.000000 0.000000 0.000000
# 3 -0.007143 -0.002634 0.007796 0.000000 0.000000 0.000000
# 4 0.000000 0.000000 0.000000 0.018783 0.000000 0.000000
# 5 0.000000 0.000000 0.000000 0.000000 0.017677 0.000000
# 6 0.000000 0.000000 0.000000 0.000000 0.000000 -0.317231
#
#
# Mechanical properties :
#
#
# Convention : Reuss Voigt Hill
#
# Bulk Modulus (GPa) = 52.63881 87.25380 69.94631
# Shear Modulus (GPa) = -22.97617 40.43237 8.72810
#
# Velocity S-wave (km/s) = -3.09643 4.10759 1.90846
# Velocity P-wave (km/s) = 3.03021 7.67509 5.83477
#
# Compressibility (1/GPa) = 0.01899739
#
# Stress axis : x y z
#
# Youngs Moduli (GPa) = 42.96804 146.18181 128.27491
#
# Poissons Ratio (x) = -0.04692 0.91624
# Poissons Ratio (y) = -0.01379 0.33791
# Poissons Ratio (z) = 0.30691 0.38508
#
# Static dielectric constant tensor:
#      x y z
#    x 3.904310 0.000000 0.000000 
#    y 0.000000 5.448110 0.000000 
#    z 0.000000 0.000000 4.039320 
# 
# 
# High freq. dielectric constant tensor:
#      x y z
#    x 1.904460 0.000000 0.000000 
#    y 0.000000 1.985760 0.000000 
#    z 0.000000 0.000000 1.970320 
# 
# From -- ./inp_files/7923.got.cif
#   From: 2010.03.12/outbox.cif.g09.slc.cpg/sg50_4_cif.got.tgz:7923.got - 2010.04.16 13:23:21.
