data_PCOD8205047
_publ_section_title
;
Structure prediction by ZEFSAII (Michael W. Deem and Ramdas Pophale) SiO2 
 PCOD8205047
Probable space group: P B A N
;
_chemical_formula_sum "Si O2"
_cell_formula_units_Z 40
_cell_length_a 35.239653
_cell_length_b 11.963083
_cell_length_c 4.961928
_cell_angle_alpha 90.000000
_cell_angle_beta 90.000000
_cell_angle_gamma 90.000000
_cell_volume 2091.824269
_symmetry_space_group_name_H-M "P B A N"
_symmetry_group_IT_number 50
_space_group.IT_coordinate_system_code '2'
_symmetry_cell_setting 'orthorhombic'
loop_
_space_group_symop_operation_xyz
x,y,z
1/2-x,1/2-y,z
x,1/2-y,-z
1/2-x,y,-z
-x,-y,-z
1/2+x,1/2+y,-z
-x,1/2+y,z
1/2+x,-y,z
loop_
_atom_site_type_symbol
_atom_site_label
_atom_site_fract_x
_atom_site_fract_y
_atom_site_fract_z
Si Si1 0.479355 0.178630 0.253218
Si Si2 0.791917 0.618174 0.520006
Si Si3 0.938455 0.369054 0.379827
Si Si4 0.340097 0.381632 0.016225
Si Si5 0.417911 0.499132 0.875905
O O1 0.460156 0.250000 0.500000
O O2 0.515828 0.118910 0.388609
O O3 0.450287 0.094734 0.110718
O O4 0.494726 0.250000 0.000000
O O5 0.787317 0.750000 0.500000
O O6 0.750000 0.562920 0.500000
O O7 0.822254 0.578491 0.297759
O O8 0.808279 0.581822 0.804994
O O9 0.925459 0.250000 0.500000
O O10 0.918258 0.460287 0.568294
O O11 0.925643 0.395965 0.074591
O O12 0.348954 0.250000 0.000000
O O13 0.378375 0.446221 0.957717
#
# Coordination Sequence:
#
# PCOD8205047 Si02
#       5
#     8   8   8   8   8
#     4  11  22  37  56  79 105 139 180 221 273 331
#     4   9  17  31  50  73 108 147 171 193 238 310
#     4  11  23  39  54  73 101 141 190 231 265 312
#     4  10  20  32  50  80 111 138 170 207 254 315
#     4  12  22  36  56  78 108 139 175 225 278 313
#
# _framework density 19.122067000000001
#
# number of rings (size 3 to 8) (size 9 to 14) (size 15 to 20)
#    0.000    1.400    0.000    7.800    0.000    4.800 
#    0.000    0.000    0.000    0.000    0.000    0.000 
#    0.000   56.000    0.000    0.000    0.000    0.000 
#
# Total GULP energy -495851.031716 kJ/mol
# GULP energy per Si atom -12396.275793 kJ/mol
# Density = 1.907854 g / cm^3
# Si number density = 19.122067 Si / 1000 Ang^3
#
#
#
# Elastic Constant Matrix: (Units=GPa)
#
#
# Indices 1 2 3 4 5 6 
#
# 1 111.0767 38.2373 13.2362 0.0000 0.0000 0.0000
# 2 38.2373 52.6157 20.0916 0.0000 0.0000 0.0000
# 3 13.2362 20.0916 83.7823 0.0000 0.0000 0.0000
# 4 0.0000 0.0000 0.0000 35.2958 0.0000 0.0000
# 5 0.0000 0.0000 0.0000 0.0000 -154.6136 0.0000
# 6 0.0000 0.0000 0.0000 0.0000 0.0000 6.1293
#
#
#
# Elastic Compliance Matrix: (Units=1/GPa)
#
#
# Indices 1 2 3 4 5 6 
#
# 1 0.012010 -0.008810 0.000215 0.000000 0.000000 0.000000
# 2 -0.008810 0.027385 -0.005175 0.000000 0.000000 0.000000
# 3 0.000215 -0.005175 0.013143 0.000000 0.000000 0.000000
# 4 0.000000 0.000000 0.000000 0.028332 0.000000 0.000000
# 5 0.000000 0.000000 0.000000 0.000000 -0.006468 0.000000
# 6 0.000000 0.000000 0.000000 0.000000 0.000000 0.163152
#
#
# Mechanical properties :
#
#
# Convention : Reuss Voigt Hill
#
# Bulk Modulus (GPa) = 40.00446 43.40058 41.70252
# Shear Modulus (GPa) = 18.28650 -10.91042 3.68804
#
# Velocity S-wave (km/s) = 3.09577 -2.39125 1.39028
# Velocity P-wave (km/s) = 5.80899 3.88867 4.94298
#
# Compressibility (1/GPa) = 0.02499721
#
# Stress axis : x y z
#
# Youngs Moduli (GPa) = 83.26405 36.51695 76.08786
#
# Poissons Ratio (x) = 0.32172 -0.01639
# Poissons Ratio (y) = 0.73358 0.39377
# Poissons Ratio (z) = -0.01793 0.18898
#
# Static dielectric constant tensor:
#      x y z
#    x 3.436160 0.000000 0.000000 
#    y 0.000000 3.246280 0.000000 
#    z 0.000000 0.000000 4.087800 
# 
# 
# High freq. dielectric constant tensor:
#      x y z
#    x 1.733250 0.000000 0.000000 
#    y 0.000000 1.702400 0.000000 
#    z 0.000000 0.000000 1.771200 
# 
# From -- ./inp_files/2548.got.cif
#   From: 2010.03.12/outbox.cif.g09.slc.cpg/sg50_2_cif.got.tgz:2548.got - 2010.04.16 13:23:21.
