data_PCOD8205545
_publ_section_title
;
Structure prediction by ZEFSAII (Michael W. Deem and Ramdas Pophale) SiO2 
 PCOD8205545
Probable space group: P B A N
;
_chemical_formula_sum "Si O2"
_cell_formula_units_Z 48
_cell_length_a 12.844811
_cell_length_b 12.600140
_cell_length_c 15.218291
_cell_angle_alpha 90.000000
_cell_angle_beta 90.000000
_cell_angle_gamma 90.000000
_cell_volume 2463.025869
_symmetry_space_group_name_H-M "P B A N"
_symmetry_group_IT_number 50
_space_group.IT_coordinate_system_code '2'
_symmetry_cell_setting 'orthorhombic'
loop_
_space_group_symop_operation_xyz
x,y,z
1/2-x,1/2-y,z
x,1/2-y,-z
1/2-x,y,-z
-x,-y,-z
1/2+x,1/2+y,-z
-x,1/2+y,z
1/2+x,-y,z
loop_
_atom_site_type_symbol
_atom_site_label
_atom_site_fract_x
_atom_site_fract_y
_atom_site_fract_z
Si Si1 0.533184 0.359156 0.453901
Si Si2 0.153277 0.482080 0.565059
Si Si3 0.114214 0.658768 0.268341
Si Si4 0.157645 0.607215 0.741385
Si Si5 0.996610 0.990735 0.863523
Si Si6 0.870879 0.876139 0.012324
O O1 0.558084 0.250000 0.500000
O O2 0.409948 0.370311 0.428943
O O3 0.566960 0.440146 0.527930
O O4 0.603232 0.382061 0.368032
O O5 0.250000 0.469420 0.500000
O O6 0.179062 0.527003 0.660779
O O7 0.091848 0.785292 0.277186
O O8 0.227619 0.639443 0.227662
O O9 0.036499 0.596239 0.205431
O O10 0.098991 0.551571 0.820272
O O11 0.086376 0.075190 0.894712
O O12 0.948290 0.926376 0.942826
O O13 0.882264 0.750000 0.000000
O O14 0.750000 0.909416 0.000000
#
# Coordination Sequence:
#
# PCOD8205545 Si02
#       6
#     8   8   8   8   8   8
#     4  11  22  37  58  82 116 162 205 245 296 349
#     4  11  22  37  58  82 116 162 205 245 296 349
#     4  11  22  36  59  89 119 155 202 248 297 350
#     4  11  22  36  59  89 119 155 202 248 297 350
#     4  11  22  40  63  90 123 153 192 251 298 353
#     4  10  22  42  66  90 119 157 195 233 302 376
#
# _framework density 19.488225
#
# number of rings (size 3 to 8) (size 9 to 14) (size 15 to 20)
#    0.000    1.167    5.000    2.000    0.000    0.667 
#    0.000    0.000    0.000    8.000    0.000    0.000 
#    0.000    0.000    0.000    0.000    0.000    0.000 
#
# Total GULP energy -594725.624344 kJ/mol
# GULP energy per Si atom -12390.117174 kJ/mol
# Density = 1.944387 g / cm^3
# Si number density = 19.488225 Si / 1000 Ang^3
#
#
#
# Elastic Constant Matrix: (Units=GPa)
#
#
# Indices 1 2 3 4 5 6 
#
# 1 93.4591 33.4694 23.8107 0.0000 0.0000 0.0000
# 2 33.4694 42.4491 20.4831 0.0000 0.0000 0.0000
# 3 23.8107 20.4831 82.5731 0.0000 0.0000 0.0000
# 4 0.0000 0.0000 0.0000 25.6048 0.0000 0.0000
# 5 0.0000 0.0000 0.0000 0.0000 33.4195 0.0000
# 6 0.0000 0.0000 0.0000 0.0000 0.0000 39.6551
#
#
#
# Elastic Compliance Matrix: (Units=1/GPa)
#
#
# Indices 1 2 3 4 5 6 
#
# 1 0.015091 -0.011132 -0.001590 0.000000 0.000000 0.000000
# 2 -0.011132 0.034972 -0.005465 0.000000 0.000000 0.000000
# 3 -0.001590 -0.005465 0.013925 0.000000 0.000000 0.000000
# 4 0.000000 0.000000 0.000000 0.039055 0.000000 0.000000
# 5 0.000000 0.000000 0.000000 0.000000 0.029923 0.000000
# 6 0.000000 0.000000 0.000000 0.000000 0.000000 0.025217
#
#
# Mechanical properties :
#
#
# Convention : Reuss Voigt Hill
#
# Bulk Modulus (GPa) = 36.21424 41.55640 38.88532
# Shear Modulus (GPa) = 24.53843 29.11708 26.82775
#
# Velocity S-wave (km/s) = 3.55229 3.86953 3.71430
# Velocity P-wave (km/s) = 5.95382 6.42919 6.19607
#
# Compressibility (1/GPa) = 0.02761344
#
# Stress axis : x y z
#
# Youngs Moduli (GPa) = 66.26255 28.59466 71.81433
#
# Poissons Ratio (x) = 0.31830 0.11422
# Poissons Ratio (y) = 0.73761 0.39248
# Poissons Ratio (z) = 0.10539 0.15627
#
# Static dielectric constant tensor:
#      x y z
#    x 3.578290 0.000000 0.000000 
#    y 0.000000 5.481370 0.000000 
#    z 0.000000 0.000000 3.521360 
# 
# 
# High freq. dielectric constant tensor:
#      x y z
#    x 1.763790 0.000000 0.000000 
#    y 0.000000 1.761280 0.000000 
#    z 0.000000 0.000000 1.757250 
# 
# From -- ./inp_files/25879.got.cif
#   From: 2010.03.12/outbox.cif.g09.slc.cpg/sg50_13_cif.got.tgz:25879.got - 2010.04.16 13:23:21.
