data_PCOD8205174
_publ_section_title
;
Structure prediction by ZEFSAII (Michael W. Deem and Ramdas Pophale) SiO2 
 PCOD8205174
Probable space group: P B A N
;
_chemical_formula_sum "Si O2"
_cell_formula_units_Z 48
_cell_length_a 12.257021
_cell_length_b 16.625834
_cell_length_c 11.563025
_cell_angle_alpha 90.000000
_cell_angle_beta 90.000000
_cell_angle_gamma 90.000000
_cell_volume 2356.350195
_symmetry_space_group_name_H-M "P B A N"
_symmetry_group_IT_number 50
_space_group.IT_coordinate_system_code '2'
_symmetry_cell_setting 'orthorhombic'
loop_
_space_group_symop_operation_xyz
x,y,z
1/2-x,1/2-y,z
x,1/2-y,-z
1/2-x,y,-z
-x,-y,-z
1/2+x,1/2+y,-z
-x,1/2+y,z
1/2+x,-y,z
loop_
_atom_site_type_symbol
_atom_site_label
_atom_site_fract_x
_atom_site_fract_y
_atom_site_fract_z
Si Si1 0.655235 0.895372 0.127237
Si Si2 0.452449 0.922583 0.268985
Si Si3 0.261607 0.567719 0.133766
Si Si4 0.631792 0.820112 0.909156
Si Si5 0.972943 0.105590 0.741673
Si Si6 0.376047 0.845465 0.501247
O O1 0.554889 0.876594 0.211784
O O2 0.740316 0.819442 0.133473
O O3 0.719407 0.974652 0.164851
O O4 0.617505 0.900805 0.991558
O O5 0.344384 0.899781 0.198833
O O6 0.439768 0.888405 0.397237
O O7 0.472989 0.017737 0.261522
O O8 0.366591 0.614829 0.179268
O O9 0.250000 0.586526 0.000000
O O10 0.556083 0.829024 0.796666
O O11 0.598030 0.750000 0.000000
O O12 0.941702 0.126802 0.612469
O O13 0.381964 0.750000 0.500000
O O14 0.250000 0.874726 0.500000
#
# Coordination Sequence:
#
# PCOD8205174 Si02
#       6
#     8   8   8   8   8   8
#     4  10  20  37  60  96 130 167 201 259 330 390
#     4  11  22  40  69  95 125 171 221 278 323 390
#     4  11  19  36  63  97 129 157 218 269 324 390
#     4  11  22  39  62  93 136 174 202 253 332 404
#     4  11  23  41  66  95 126 171 225 271 324 394
#     4  11  25  46  65  87 127 174 220 282 339 381
#
# _framework density 20.370486
#
# number of rings (size 3 to 8) (size 9 to 14) (size 15 to 20)
#    0.000    1.167    5.000    2.500    2.333    2.667 
#    0.000    0.833    0.000    1.000    0.000    0.000 
#    0.000    0.000    0.000    0.000    0.000    0.000 
#
# Total GULP energy -594938.508019 kJ/mol
# GULP energy per Si atom -12394.552250 kJ/mol
# Density = 2.032412 g / cm^3
# Si number density = 20.370486 Si / 1000 Ang^3
#
#
#
# Elastic Constant Matrix: (Units=GPa)
#
#
# Indices 1 2 3 4 5 6 
#
# 1 132.7445 22.1673 76.2048 0.0000 0.0000 0.0000
# 2 22.1673 43.9752 13.5356 0.0000 0.0000 0.0000
# 3 76.2048 13.5356 143.6799 0.0000 0.0000 0.0000
# 4 0.0000 0.0000 0.0000 27.2266 0.0000 0.0000
# 5 0.0000 0.0000 0.0000 0.0000 55.7746 0.0000
# 6 0.0000 0.0000 0.0000 0.0000 0.0000 13.6538
#
#
#
# Elastic Compliance Matrix: (Units=1/GPa)
#
#
# Indices 1 2 3 4 5 6 
#
# 1 0.011486 -0.004032 -0.005712 0.000000 0.000000 0.000000
# 2 -0.004032 0.024834 -0.000201 0.000000 0.000000 0.000000
# 3 -0.005712 -0.000201 0.010008 0.000000 0.000000 0.000000
# 4 0.000000 0.000000 0.000000 0.036729 0.000000 0.000000
# 5 0.000000 0.000000 0.000000 0.000000 0.017929 0.000000
# 6 0.000000 0.000000 0.000000 0.000000 0.000000 0.073240
#
#
# Mechanical properties :
#
#
# Convention : Reuss Voigt Hill
#
# Bulk Modulus (GPa) = 37.82337 60.46833 49.14585
# Shear Modulus (GPa) = 24.63922 33.23046 28.93484
#
# Velocity S-wave (km/s) = 3.48164 4.04332 3.77295
# Velocity P-wave (km/s) = 5.89665 7.17960 6.56952
#
# Compressibility (1/GPa) = 0.02643868
#
# Stress axis : x y z
#
# Youngs Moduli (GPa) = 87.06601 40.26686 99.91668
#
# Poissons Ratio (x) = 0.16234 0.57071
# Poissons Ratio (y) = 0.35101 0.02011
# Poissons Ratio (z) = 0.49731 0.00811
#
# Static dielectric constant tensor:
#      x y z
#    x 3.869170 0.000000 0.000000 
#    y 0.000000 5.920320 0.000000 
#    z 0.000000 0.000000 3.728810 
# 
# 
# High freq. dielectric constant tensor:
#      x y z
#    x 1.808010 0.000000 0.000000 
#    y 0.000000 1.786340 0.000000 
#    z 0.000000 0.000000 1.792690 
# 
# From -- ./inp_files/20179.got.cif
#   From: 2010.03.12/outbox.cif.g09.slc.cpg/sg50_11_cif.got.tgz:20179.got - 2010.04.16 13:23:21.
