data_PCOD8205249
_publ_section_title
;
Structure prediction by ZEFSAII (Michael W. Deem and Ramdas Pophale) SiO2 
 PCOD8205249
Probable space group: P B A N
;
_chemical_formula_sum "Si O2"
_cell_formula_units_Z 34
_cell_length_a 20.807897
_cell_length_b 9.688045
_cell_length_c 7.889323
_cell_angle_alpha 90.000000
_cell_angle_beta 90.000000
_cell_angle_gamma 90.000000
_cell_volume 1590.391602
_symmetry_space_group_name_H-M "P B A N"
_symmetry_group_IT_number 50
_space_group.IT_coordinate_system_code '2'
_symmetry_cell_setting 'orthorhombic'
loop_
_space_group_symop_operation_xyz
x,y,z
1/2-x,1/2-y,z
x,1/2-y,-z
1/2-x,y,-z
-x,-y,-z
1/2+x,1/2+y,-z
-x,1/2+y,z
1/2+x,-y,z
loop_
_atom_site_type_symbol
_atom_site_label
_atom_site_fract_x
_atom_site_fract_y
_atom_site_fract_z
Si Si1 0.750000 0.750000 0.000000
Si Si2 0.680274 0.267929 0.301769
Si Si3 0.919853 0.386313 0.106462
Si Si4 0.023228 0.121040 0.617604
Si Si5 0.640200 0.937641 0.833381
O O1 0.702435 0.843853 0.882352
O O2 0.750000 0.250000 0.222267
O O3 0.679445 0.250000 0.500000
O O4 0.638965 0.141759 0.231752
O O5 0.659000 0.418203 0.247521
O O6 0.984252 0.404958 0.210931
O O7 0.931463 0.250000 0.000000
O O8 0.902660 0.524926 0.999941
O O9 0.006083 0.250000 0.500000
O O10 0.096880 0.132662 0.685074
O O11 0.000000 0.000000 0.500000
#
# Coordination Sequence:
#
# PCOD8205249 Si02
#       5
#     2   8   8   8   8
#     4  12  28  44  64 100 156 188 232 266 380 436
#     4  10  20  40  68  97 127 173 236 288 337 400
#     4  10  21  40  71  97 127 171 238 282 339 405
#     4  12  26  44  70 102 140 179 232 297 361 415
#     4  11  25  43  66 100 138 188 225 288 347 436
#
# _framework density 21.378385000000002
#
# number of rings (size 3 to 8) (size 9 to 14) (size 15 to 20)
#    0.000    1.176    0.000    7.059    4.941    3.294 
#    8.471    0.000    0.000    0.000    0.000    0.000 
#    0.000    0.000    0.000    0.000    0.000    0.000 
#
# Total GULP energy -421217.622078 kJ/mol
# GULP energy per Si atom -12388.753591 kJ/mol
# Density = 2.132973 g / cm^3
# Si number density = 21.378385 Si / 1000 Ang^3
#
#
#
# Elastic Constant Matrix: (Units=GPa)
#
#
# Indices 1 2 3 4 5 6 
#
# 1 123.6771 29.8812 49.1661 0.0000 0.0000 0.0000
# 2 29.8812 86.7993 24.6316 0.0000 0.0000 0.0000
# 3 49.1661 24.6316 73.1979 0.0000 0.0000 0.0000
# 4 0.0000 0.0000 0.0000 3.0655 0.0000 0.0000
# 5 0.0000 0.0000 0.0000 0.0000 53.7595 0.0000
# 6 0.0000 0.0000 0.0000 0.0000 0.0000 37.1711
#
#
#
# Elastic Compliance Matrix: (Units=1/GPa)
#
#
# Indices 1 2 3 4 5 6 
#
# 1 0.011314 -0.001922 -0.006953 0.000000 0.000000 0.000000
# 2 -0.001922 0.013064 -0.003105 0.000000 0.000000 0.000000
# 3 -0.006953 -0.003105 0.019376 0.000000 0.000000 0.000000
# 4 0.000000 0.000000 0.000000 0.326211 0.000000 0.000000
# 5 0.000000 0.000000 0.000000 0.000000 0.018601 0.000000
# 6 0.000000 0.000000 0.000000 0.000000 0.000000 0.026903
#
#
# Mechanical properties :
#
#
# Convention : Reuss Voigt Hill
#
# Bulk Modulus (GPa) = 50.51853 54.55910 52.53882
# Shear Modulus (GPa) = 11.21009 30.79890 21.00450
#
# Velocity S-wave (km/s) = 2.29239 3.79972 3.13790
# Velocity P-wave (km/s) = 5.53974 6.69526 6.14472
#
# Compressibility (1/GPa) = 0.01979472
#
# Stress axis : x y z
#
# Youngs Moduli (GPa) = 88.38741 76.54862 51.60898
#
# Poissons Ratio (x) = 0.14712 0.35882
# Poissons Ratio (y) = 0.16987 0.16025
# Poissons Ratio (z) = 0.61453 0.23769
#
# Static dielectric constant tensor:
#      x y z
#    x 4.249390 0.000000 0.000000 
#    y 0.000000 3.754560 0.000000 
#    z 0.000000 0.000000 4.267140 
# 
# 
# High freq. dielectric constant tensor:
#      x y z
#    x 1.853790 0.000000 0.000000 
#    y 0.000000 1.834180 0.000000 
#    z 0.000000 0.000000 1.855340 
# 
# From -- ./inp_files/9231.got.cif
#   From: 2010.03.12/outbox.cif.g09.slc.cpg/sg50_5_cif.got.tgz:9231.got - 2010.04.16 13:23:21.
