data_PCOD8205656
_publ_section_title
;
Structure prediction by ZEFSAII (Michael W. Deem and Ramdas Pophale) SiO2 
 PCOD8205656
Probable space group: P B A N
;
_chemical_formula_sum "Si O2"
_cell_formula_units_Z 48
_cell_length_a 12.075242
_cell_length_b 22.874737
_cell_length_c 8.865029
_cell_angle_alpha 90.000000
_cell_angle_beta 90.000000
_cell_angle_gamma 90.000000
_cell_volume 2448.680447
_symmetry_space_group_name_H-M "P B A N"
_symmetry_group_IT_number 50
_space_group.IT_coordinate_system_code '2'
_symmetry_cell_setting 'orthorhombic'
loop_
_space_group_symop_operation_xyz
x,y,z
1/2-x,1/2-y,z
x,1/2-y,-z
1/2-x,y,-z
-x,-y,-z
1/2+x,1/2+y,-z
-x,1/2+y,z
1/2+x,-y,z
loop_
_atom_site_type_symbol
_atom_site_label
_atom_site_fract_x
_atom_site_fract_y
_atom_site_fract_z
Si Si1 0.750000 0.961223 0.000000
Si Si2 0.921887 0.243564 0.822706
Si Si3 0.639200 0.458417 0.244287
Si Si4 0.866336 0.729376 0.328210
Si Si5 0.608181 0.593245 0.742365
Si Si6 0.250000 0.026707 0.500000
Si Si7 0.740441 0.341825 0.178426
O O1 0.825643 0.919513 0.896400
O O2 0.666462 0.000445 0.899089
O O3 0.854256 0.187085 0.764878
O O4 0.862295 0.302441 0.764115
O O5 0.042143 0.233088 0.756748
O O6 0.928727 0.250000 0.000000
O O7 0.514288 0.434074 0.237619
O O8 0.662943 0.489925 0.401628
O O9 0.727788 0.405951 0.244348
O O10 0.750000 0.750000 0.258195
O O11 0.871041 0.750000 0.500000
O O12 0.892971 0.661777 0.295540
O O13 0.671289 0.565150 0.603214
O O14 0.750000 0.344058 0.000000
#
# Coordination Sequence:
#
# PCOD8205656 Si02
#       7
#     4   8   8   8   8   4   8
#     4  10  24  40  65  95 118 158 212 258 310 368
#     4   9  19  36  59  88 117 154 192 241 299 361
#     4  11  20  39  65  92 124 160 201 255 314 373
#     4  11  24  41  59  83 120 164 202 244 304 362
#     4  11  23  44  62  86 126 163 207 265 304 362
#     4  10  24  38  59  91 120 164 210 246 310 378
#     4   9  17  35  60  88 123 149 186 246 307 357
#
# _framework density 19.602394
#
# number of rings (size 3 to 8) (size 9 to 14) (size 15 to 20)
#    0.000    1.833    2.500    3.000    0.000    3.000 
#    0.000    4.167    0.000    0.000    0.000    0.000 
#    0.000    0.000    0.000    0.000    0.000    0.000 
#
# Total GULP energy -594906.094711 kJ/mol
# GULP energy per Si atom -12393.876973 kJ/mol
# Density = 1.955778 g / cm^3
# Si number density = 19.602394 Si / 1000 Ang^3
#
#
#
# Elastic Constant Matrix: (Units=GPa)
#
#
# Indices 1 2 3 4 5 6 
#
# 1 158.1676 53.1448 52.7690 0.0000 0.0000 0.0000
# 2 53.1448 101.6443 45.5523 0.0000 0.0000 0.0000
# 3 52.7690 45.5523 88.9384 0.0000 0.0000 0.0000
# 4 0.0000 0.0000 0.0000 19.1928 0.0000 0.0000
# 5 0.0000 0.0000 0.0000 0.0000 33.9376 0.0000
# 6 0.0000 0.0000 0.0000 0.0000 0.0000 20.1298
#
#
#
# Elastic Compliance Matrix: (Units=1/GPa)
#
#
# Indices 1 2 3 4 5 6 
#
# 1 0.008464 -0.002823 -0.003576 0.000000 0.000000 0.000000
# 2 -0.002823 0.013711 -0.005347 0.000000 0.000000 0.000000
# 3 -0.003576 -0.005347 0.016104 0.000000 0.000000 0.000000
# 4 0.000000 0.000000 0.000000 0.052103 0.000000 0.000000
# 5 0.000000 0.000000 0.000000 0.000000 0.029466 0.000000
# 6 0.000000 0.000000 0.000000 0.000000 0.000000 0.049678
#
#
# Mechanical properties :
#
#
# Convention : Reuss Voigt Hill
#
# Bulk Modulus (GPa) = 67.63018 72.40915 70.01967
# Shear Modulus (GPa) = 25.25937 27.80434 26.53185
#
# Velocity S-wave (km/s) = 3.59358 3.77027 3.68299
# Velocity P-wave (km/s) = 7.19683 7.48147 7.34053
#
# Compressibility (1/GPa) = 0.01478630
#
# Stress axis : x y z
#
# Youngs Moduli (GPa) = 118.14836 72.93631 62.09504
#
# Poissons Ratio (x) = 0.20588 0.22206
# Poissons Ratio (y) = 0.33350 0.33205
# Poissons Ratio (z) = 0.42251 0.39002
#
# Static dielectric constant tensor:
#      x y z
#    x 3.978400 0.000000 0.000000 
#    y 0.000000 3.814340 0.000000 
#    z 0.000000 0.000000 3.438010 
# 
# 
# High freq. dielectric constant tensor:
#      x y z
#    x 1.776470 0.000000 0.000000 
#    y 0.000000 1.769160 0.000000 
#    z 0.000000 0.000000 1.756870 
# 
# From -- ./inp_files/11578.got.cif
#   From: 2010.03.12/outbox.cif.g09.slc.cpg/sg50_6_cif.got.tgz:11578.got - 2010.04.16 13:23:21.
