data_PCOD8205685
_publ_section_title
;
Structure prediction by ZEFSAII (Michael W. Deem and Ramdas Pophale) SiO2 
 PCOD8205685
Probable space group: P B A N
;
_chemical_formula_sum "Si O2"
_cell_formula_units_Z 34
_cell_length_a 9.538151
_cell_length_b 8.898633
_cell_length_c 18.518122
_cell_angle_alpha 90.000000
_cell_angle_beta 90.000000
_cell_angle_gamma 90.000000
_cell_volume 1571.753479
_symmetry_space_group_name_H-M "P B A N"
_symmetry_group_IT_number 50
_space_group.IT_coordinate_system_code '2'
_symmetry_cell_setting 'orthorhombic'
loop_
_space_group_symop_operation_xyz
x,y,z
1/2-x,1/2-y,z
x,1/2-y,-z
1/2-x,y,-z
-x,-y,-z
1/2+x,1/2+y,-z
-x,1/2+y,z
1/2+x,-y,z
loop_
_atom_site_type_symbol
_atom_site_label
_atom_site_fract_x
_atom_site_fract_y
_atom_site_fract_z
Si Si1 0.750000 0.750000 0.000000
Si Si2 0.043163 0.837869 0.365352
Si Si3 0.689012 0.457371 0.419916
Si Si4 0.396130 0.675647 0.207196
Si Si5 0.872318 0.647360 0.137849
O O1 0.845287 0.858237 0.948943
O O2 0.173800 0.955174 0.369080
O O3 0.087812 0.684123 0.404381
O O4 0.010679 0.824906 0.280226
O O5 0.903086 0.894461 0.405729
O O6 0.750000 0.452165 0.500000
O O7 0.250000 0.750000 0.228020
O O8 0.476682 0.777176 0.149241
O O9 0.369033 0.514522 0.173195
O O10 0.750000 0.750000 0.173992
#
# Coordination Sequence:
#
# PCOD8205685 Si02
#       5
#     2   8   8   8   8
#     4   8  24  48  64 100 144 180 230 276 332 412
#     4  11  24  43  66  99 136 171 227 281 341 402
#     4  11  24  44  67  94 135 177 225 279 337 414
#     4  12  23  43  70 105 137 180 226 290 341 403
#     4  10  24  44  70  97 142 177 231 272 342 410
#
# _framework density 21.631889999999999
#
# number of rings (size 3 to 8) (size 9 to 14) (size 15 to 20)
#    0.706    0.471    2.353    4.941    3.294    1.882 
#    0.000    2.353    0.000    0.000    0.000    0.000 
#    0.000    0.000    0.000    0.000    0.000    0.000 
#
# Total GULP energy -421507.546315 kJ/mol
# GULP energy per Si atom -12397.280774 kJ/mol
# Density = 2.158266 g / cm^3
# Si number density = 21.631890 Si / 1000 Ang^3
#
#
#
# Elastic Constant Matrix: (Units=GPa)
#
#
# Indices 1 2 3 4 5 6 
#
# 1 77.7292 25.3395 35.6928 0.0000 0.0000 0.0000
# 2 25.3395 103.2559 59.0472 0.0000 0.0000 0.0000
# 3 35.6928 59.0472 163.5223 0.0000 0.0000 0.0000
# 4 0.0000 0.0000 0.0000 79.1782 0.0000 0.0000
# 5 0.0000 0.0000 0.0000 0.0000 32.0139 0.0000
# 6 0.0000 0.0000 0.0000 0.0000 0.0000 33.7401
#
#
#
# Elastic Compliance Matrix: (Units=1/GPa)
#
#
# Indices 1 2 3 4 5 6 
#
# 1 0.014696 -0.002233 -0.002401 0.000000 0.000000 0.000000
# 2 -0.002233 0.012544 -0.004042 0.000000 0.000000 0.000000
# 3 -0.002401 -0.004042 0.008099 0.000000 0.000000 0.000000
# 4 0.000000 0.000000 0.000000 0.012630 0.000000 0.000000
# 5 0.000000 0.000000 0.000000 0.000000 0.031236 0.000000
# 6 0.000000 0.000000 0.000000 0.000000 0.000000 0.029638
#
#
# Mechanical properties :
#
#
# Convention : Reuss Voigt Hill
#
# Bulk Modulus (GPa) = 55.59962 64.96293 60.28127
# Shear Modulus (GPa) = 37.82361 43.94832 40.88596
#
# Velocity S-wave (km/s) = 4.18606 4.51227 4.35222
# Velocity P-wave (km/s) = 7.00875 7.56596 7.29267
#
# Compressibility (1/GPa) = 0.01798574
#
# Stress axis : x y z
#
# Youngs Moduli (GPa) = 68.04633 79.71767 123.46970
#
# Poissons Ratio (x) = 0.17803 0.29649
# Poissons Ratio (y) = 0.15196 0.49909
# Poissons Ratio (z) = 0.16340 0.32224
#
# Static dielectric constant tensor:
#      x y z
#    x 3.569060 0.000000 0.000000 
#    y 0.000000 3.794430 0.000000 
#    z 0.000000 0.000000 3.848690 
# 
# 
# High freq. dielectric constant tensor:
#      x y z
#    x 1.855880 0.000000 0.000000 
#    y 0.000000 1.840580 0.000000 
#    z 0.000000 0.000000 1.850310 
# 
# From -- ./inp_files/30527.got.cif
#   From: 2010.03.12/outbox.cif.g09.slc.cpg/sg50_16_cif.got.tgz:30527.got - 2010.04.16 13:23:21.
