data_PCOD8205964
_publ_section_title
;
Structure prediction by ZEFSAII (Michael W. Deem and Ramdas Pophale) SiO2 
 PCOD8205964
Probable space group: P M M A
;
_chemical_formula_sum "Si O2"
_cell_formula_units_Z 64
_cell_length_a 27.123607
_cell_length_b 9.056512
_cell_length_c 17.106301
_cell_angle_alpha 90.000000
_cell_angle_beta 90.000000
_cell_angle_gamma 90.000000
_cell_volume 4202.081967
_symmetry_space_group_name_H-M "P M M A"
_symmetry_group_IT_number 51
_symmetry_cell_setting 'orthorhombic'
loop_
_space_group_symop_operation_xyz
x,y,z
1/2-x,-y,z
1/2+x,-y,-z
-x,y,-z
-x,-y,-z
1/2+x,y,-z
1/2-x,y,z
x,-y,z
loop_
_atom_site_type_symbol
_atom_site_label
_atom_site_fract_x
_atom_site_fract_y
_atom_site_fract_z
Si Si1 0.373039 0.165486 0.282442
Si Si2 0.072363 0.175675 0.137807
Si Si3 0.306321 0.823932 0.417761
Si Si4 0.615797 0.669983 0.485216
Si Si5 0.970613 0.672669 0.175124
Si Si6 0.043483 0.832964 0.404014
Si Si7 0.558278 0.336156 0.012670
Si Si8 0.449654 0.668988 0.652273
O O1 0.383584 0.233445 0.196128
O O2 0.331514 0.241781 0.337883
O O3 0.425768 0.171228 0.324424
O O4 0.354134 0.000000 0.270316
O O5 0.021001 0.237390 0.169635
O O6 0.069356 0.000000 0.139322
O O7 0.084628 0.228872 0.049731
O O8 0.250000 0.772098 0.420186
O O9 0.334638 0.759330 0.493137
O O10 0.311970 0.000000 0.420935
O O11 0.624593 0.500000 0.507024
O O12 0.568797 0.729446 0.532171
O O13 0.602524 0.689349 0.393074
O O14 0.984358 0.500000 0.167832
O O15 0.933824 0.715561 0.102963
O O16 0.942743 0.709192 0.256225
O O17 0.989103 0.775492 0.387430
O O18 0.040551 0.000000 0.436495
O O19 0.579729 0.500000 0.999094
O O20 0.500000 0.333844 0.000000
O O21 0.468141 0.500000 0.643991
#
# Coordination Sequence:
#
# PCOD8205964 Si02
#       8
#     8   8   8   8   8   8   8   8
#     4   8  15  26  40  61  83 104 134 171 207 243
#     4  10  16  24  38  57  81 106 137 174 207 240
#     4   9  18  34  52  65  81 107 138 172 212 258
#     4  10  20  31  43  62  85 108 138 175 215 256
#     4   9  17  28  39  52  77 113 147 173 201 239
#     4  10  18  29  42  58  83 114 146 176 207 245
#     4   8  15  26  37  51  74 107 143 173 199 234
#     4  10  19  29  41  58  83 114 145 177 212 247
#
# _framework density 15.230544999999999
#
# number of rings (size 3 to 8) (size 9 to 14) (size 15 to 20)
#    0.000    2.750    1.250    3.000    0.000    5.000 
#    0.000    0.625    0.000    0.000    0.000    0.000 
#    0.000    1.000    0.000    7.000    0.000    1.250 
#
# Total GULP energy -792910.243511 kJ/mol
# GULP energy per Si atom -12389.222555 kJ/mol
# Density = 1.519588 g / cm^3
# Si number density = 15.230545 Si / 1000 Ang^3
#
#
#
# Elastic Constant Matrix: (Units=GPa)
#
#
# Indices 1 2 3 4 5 6 
#
# 1 71.3951 25.2934 51.4249 0.0000 0.0000 0.0000
# 2 25.2934 49.2707 33.5631 0.0000 0.0000 0.0000
# 3 51.4249 33.5631 119.5954 0.0000 0.0000 0.0000
# 4 0.0000 0.0000 0.0000 20.4973 0.0000 0.0000
# 5 0.0000 0.0000 0.0000 0.0000 13.0435 0.0000
# 6 0.0000 0.0000 0.0000 0.0000 0.0000 13.1337
#
#
#
# Elastic Compliance Matrix: (Units=1/GPa)
#
#
# Indices 1 2 3 4 5 6 
#
# 1 0.021588 -0.005884 -0.007631 0.000000 0.000000 0.000000
# 2 -0.005884 0.026697 -0.004962 0.000000 0.000000 0.000000
# 3 -0.007631 -0.004962 0.013036 0.000000 0.000000 0.000000
# 4 0.000000 0.000000 0.000000 0.048787 0.000000 0.000000
# 5 0.000000 0.000000 0.000000 0.000000 0.076666 0.000000
# 6 0.000000 0.000000 0.000000 0.000000 0.000000 0.076140
#
#
# Mechanical properties :
#
#
# Convention : Reuss Voigt Hill
#
# Bulk Modulus (GPa) = 41.04169 51.20267 46.12218
# Shear Modulus (GPa) = 16.23431 18.00023 17.11727
#
# Velocity S-wave (km/s) = 3.26836 3.44153 3.35607
# Velocity P-wave (km/s) = 6.42249 7.03446 6.73543
#
# Compressibility (1/GPa) = 0.02436547
#
# Stress axis : x y z
#
# Youngs Moduli (GPa) = 46.32252 37.45779 76.71351
#
# Poissons Ratio (x) = 0.22039 0.58543
# Poissons Ratio (y) = 0.27255 0.38067
# Poissons Ratio (z) = 0.35350 0.18587
#
# Static dielectric constant tensor:
#      x y z
#    x 2.557810 0.000000 0.000000 
#    y 0.000000 2.904320 0.000000 
#    z 0.000000 0.000000 3.415650 
# 
# 
# High freq. dielectric constant tensor:
#      x y z
#    x 1.522370 0.000000 0.000000 
#    y 0.000000 1.580640 0.000000 
#    z 0.000000 0.000000 1.593820 
# 
# From -- ./inp_files/30984.got.cif
#   From: 2010.03.12/outbox.cif.g09.slc.cpg/sg51_16_cif.got.tgz:30984.got - 2010.04.16 13:43:02.
