data_PCOD8205837
_publ_section_title
;
Structure prediction by ZEFSAII (Michael W. Deem and Ramdas Pophale) SiO2 
 PCOD8205837
Probable space group: P B A N
;
_chemical_formula_sum "Si O2"
_cell_formula_units_Z 64
_cell_length_a 17.188814
_cell_length_b 8.495587
_cell_length_c 21.193405
_cell_angle_alpha 90.000000
_cell_angle_beta 90.000000
_cell_angle_gamma 90.000000
_cell_volume 3094.853111
_symmetry_space_group_name_H-M "P B A N"
_symmetry_group_IT_number 50
_space_group.IT_coordinate_system_code '2'
_symmetry_cell_setting 'orthorhombic'
loop_
_space_group_symop_operation_xyz
x,y,z
1/2-x,1/2-y,z
x,1/2-y,-z
1/2-x,y,-z
-x,-y,-z
1/2+x,1/2+y,-z
-x,1/2+y,z
1/2+x,-y,z
loop_
_atom_site_type_symbol
_atom_site_label
_atom_site_fract_x
_atom_site_fract_y
_atom_site_fract_z
Si Si1 0.432399 0.467815 0.362198
Si Si2 0.038391 0.581246 0.246436
Si Si3 0.539524 0.689143 0.156761
Si Si4 0.166050 0.753631 0.668580
Si Si5 0.562330 0.095606 0.040059
Si Si6 0.161615 0.186159 0.064222
Si Si7 0.945604 0.833280 0.440308
Si Si8 0.668295 0.100094 0.534288
O O1 0.467471 0.447305 0.293338
O O2 0.357166 0.578417 0.354855
O O3 0.494319 0.553918 0.406379
O O4 0.411961 0.297010 0.391306
O O5 0.067182 0.418829 0.215638
O O6 0.106050 0.674570 0.282041
O O7 0.007650 0.667933 0.185390
O O8 0.478944 0.621064 0.106782
O O9 0.619026 0.744169 0.124736
O O10 0.250000 0.750000 0.702518
O O11 0.175432 0.866679 0.608483
O O12 0.643038 0.001256 0.057203
O O13 0.586189 0.250000 0.000000
O O14 0.500000 0.000000 0.000000
O O15 0.250000 0.250000 0.068369
O O16 0.122880 0.250000 0.000000
O O17 0.986991 0.750000 0.500000
O O18 0.878368 0.938279 0.472253
O O19 0.627056 0.250000 0.500000
O O20 0.750000 0.072553 0.500000
#
# Coordination Sequence:
#
# PCOD8205837 Si02
#       8
#     8   8   8   8   8   8   8   8
#     4  12  24  46  68 101 133 180 229 293 351 434
#     4  12  24  44  72  97 136 188 246 290 347 440
#     4  12  22  42  75 101 138 191 251 290 350 441
#     4  12  25  48  71  95 141 184 231 301 373 429
#     4  12  20  40  76 109 142 197 248 298 360 428
#     4  11  24  44  70 107 158 190 231 313 374 408
#     4  12  24  40  71  98 128 167 234 284 355 442
#     4  11  23  45  69  97 135 178 218 291 381 438
#
# _framework density 20.679496
#
# number of rings (size 3 to 8) (size 9 to 14) (size 15 to 20)
#    0.000    0.250    8.750    1.125    0.000    1.250 
#    4.500    1.250    0.000    0.000    0.000    0.000 
#    0.000    0.000    0.000    0.000    0.000    0.000 
#
# Total GULP energy -793166.081285 kJ/mol
# GULP energy per Si atom -12393.220020 kJ/mol
# Density = 2.063243 g / cm^3
# Si number density = 20.679496 Si / 1000 Ang^3
#
#
#
# Elastic Constant Matrix: (Units=GPa)
#
#
# Indices 1 2 3 4 5 6 
#
# 1 114.1386 52.5682 32.1399 0.0000 0.0000 0.0000
# 2 52.5682 127.4121 32.4704 0.0000 0.0000 0.0000
# 3 32.1399 32.4704 112.4305 0.0000 0.0000 0.0000
# 4 0.0000 0.0000 0.0000 50.6518 0.0000 0.0000
# 5 0.0000 0.0000 0.0000 0.0000 17.0436 0.0000
# 6 0.0000 0.0000 0.0000 0.0000 0.0000 27.3370
#
#
#
# Elastic Compliance Matrix: (Units=1/GPa)
#
#
# Indices 1 2 3 4 5 6 
#
# 1 0.011226 -0.004117 -0.002020 0.000000 0.000000 0.000000
# 2 -0.004117 0.009982 -0.001706 0.000000 0.000000 0.000000
# 3 -0.002020 -0.001706 0.009965 0.000000 0.000000 0.000000
# 4 0.000000 0.000000 0.000000 0.019743 0.000000 0.000000
# 5 0.000000 0.000000 0.000000 0.000000 0.058673 0.000000
# 6 0.000000 0.000000 0.000000 0.000000 0.000000 0.036580
#
#
# Mechanical properties :
#
#
# Convention : Reuss Voigt Hill
#
# Bulk Modulus (GPa) = 64.57204 65.37092 64.97148
# Shear Modulus (GPa) = 29.93704 34.79332 32.36518
#
# Velocity S-wave (km/s) = 3.80895 4.10628 3.96041
# Velocity P-wave (km/s) = 7.11597 7.35950 7.23876
#
# Compressibility (1/GPa) = 0.01548658
#
# Stress axis : x y z
#
# Youngs Moduli (GPa) = 89.07691 100.18156 100.35562
#
# Poissons Ratio (x) = 0.41244 0.20274
# Poissons Ratio (y) = 0.36672 0.17120
# Poissons Ratio (z) = 0.17995 0.17090
#
# Static dielectric constant tensor:
#      x y z
#    x 2.087710 0.000000 0.000000 
#    y 0.000000 4.261540 0.000000 
#    z 0.000000 0.000000 4.172430 
# 
# 
# High freq. dielectric constant tensor:
#      x y z
#    x 1.786510 0.000000 0.000000 
#    y 0.000000 1.823780 0.000000 
#    z 0.000000 0.000000 1.825650 
# 
# From -- ./inp_files/31107.got.cif
#   From: 2010.03.12/outbox.cif.g09.slc.cpg/sg50_16_cif.got.tgz:31107.got - 2010.04.16 13:23:21.
