data_PCOD8205345
_publ_section_title
;
Structure prediction by ZEFSAII (Michael W. Deem and Ramdas Pophale) SiO2 
 PCOD8205345
Probable space group: P B A N
;
_chemical_formula_sum "Si O2"
_cell_formula_units_Z 48
_cell_length_a 18.349920
_cell_length_b 10.056328
_cell_length_c 12.328785
_cell_angle_alpha 90.000000
_cell_angle_beta 90.000000
_cell_angle_gamma 90.000000
_cell_volume 2275.065393
_symmetry_space_group_name_H-M "P B A N"
_symmetry_group_IT_number 50
_space_group.IT_coordinate_system_code '2'
_symmetry_cell_setting 'orthorhombic'
loop_
_space_group_symop_operation_xyz
x,y,z
1/2-x,1/2-y,z
x,1/2-y,-z
1/2-x,y,-z
-x,-y,-z
1/2+x,1/2+y,-z
-x,1/2+y,z
1/2+x,-y,z
loop_
_atom_site_type_symbol
_atom_site_label
_atom_site_fract_x
_atom_site_fract_y
_atom_site_fract_z
Si Si1 0.914184 0.511529 0.375864
Si Si2 0.666599 0.896111 0.817093
Si Si3 0.414184 0.488472 0.624136
Si Si4 0.666600 0.896111 0.182907
Si Si5 0.663377 0.096781 0.000000
Si Si6 0.830485 0.250000 0.372792
O O1 0.894345 0.549819 0.500000
O O2 0.881506 0.617448 0.292437
O O3 0.876593 0.375955 0.336443
O O4 1.000000 0.500000 0.362631
O O5 0.618494 0.882552 0.707563
O O6 0.661510 0.750000 0.873459
O O7 0.750000 0.927270 0.784985
O O8 0.636061 0.012973 0.895476
O O9 0.376593 0.624045 0.663557
O O10 0.636061 0.012973 0.104524
O O11 0.633366 0.250000 0.000000
O O12 0.750000 0.098087 0.000000
O O13 0.750000 0.250000 0.317034
O O14 0.820210 0.250000 0.500000
#
# Coordination Sequence:
#
# PCOD8205345 Si02
#       6
#     8   8   8   8   8   8
#     4  10  22  37  57  85 122 164 203 246 303 365
#     4  10  21  37  60  89 121 155 194 247 305 365
#     4  10  22  37  57  85 122 164 203 246 303 365
#     4  10  21  37  60  89 121 155 194 247 305 365
#     4   9  19  37  62  89 116 151 198 250 302 361
#     4   9  18  34  56  81 112 156 209 257 293 343
#
# _framework density 21.098293999999999
#
# number of rings (size 3 to 8) (size 9 to 14) (size 15 to 20)
#    0.000    2.333    0.000    1.500    4.667    4.667 
#    0.000    2.500    0.000    0.000    0.000    0.000 
#    0.000    0.000    0.000    0.000    0.000    0.000 
#
# Total GULP energy -594839.674691 kJ/mol
# GULP energy per Si atom -12392.493223 kJ/mol
# Density = 2.105027 g / cm^3
# Si number density = 21.098294 Si / 1000 Ang^3
#
#
#
# Elastic Constant Matrix: (Units=GPa)
#
#
# Indices 1 2 3 4 5 6 
#
# 1 93.0671 37.4831 41.3252 0.0000 0.0000 0.0000
# 2 37.4831 137.3630 50.7954 0.0000 0.0000 0.0000
# 3 41.3252 50.7954 128.6537 0.0000 0.0000 0.0000
# 4 0.0000 0.0000 0.0000 14.9912 0.0000 0.0000
# 5 0.0000 0.0000 0.0000 0.0000 23.4537 0.0000
# 6 0.0000 0.0000 0.0000 0.0000 0.0000 22.3958
#
#
#
# Elastic Compliance Matrix: (Units=1/GPa)
#
#
# Indices 1 2 3 4 5 6 
#
# 1 0.013162 -0.002375 -0.003290 0.000000 0.000000 0.000000
# 2 -0.002375 0.008953 -0.002772 0.000000 0.000000 0.000000
# 3 -0.003290 -0.002772 0.009924 0.000000 0.000000 0.000000
# 4 0.000000 0.000000 0.000000 0.066706 0.000000 0.000000
# 5 0.000000 0.000000 0.000000 0.000000 0.042637 0.000000
# 6 0.000000 0.000000 0.000000 0.000000 0.000000 0.044651
#
#
# Mechanical properties :
#
#
# Convention : Reuss Voigt Hill
#
# Bulk Modulus (GPa) = 65.94058 68.69903 67.31980
# Shear Modulus (GPa) = 24.04269 27.46683 25.75476
#
# Velocity S-wave (km/s) = 3.37939 3.61203 3.49765
# Velocity P-wave (km/s) = 6.82268 7.07303 6.94898
#
# Compressibility (1/GPa) = 0.01516517
#
# Stress axis : x y z
#
# Youngs Moduli (GPa) = 75.97355 111.69277 100.76458
#
# Poissons Ratio (x) = 0.26527 0.33154
# Poissons Ratio (y) = 0.18044 0.27932
# Poissons Ratio (z) = 0.24997 0.30961
#
# Static dielectric constant tensor:
#      x y z
#    x 3.521150 0.000000 0.000000 
#    y 0.000000 4.047720 0.000000 
#    z 0.000000 0.000000 3.681210 
# 
# 
# High freq. dielectric constant tensor:
#      x y z
#    x 1.798080 0.000000 0.000000 
#    y 0.000000 1.835890 0.000000 
#    z 0.000000 0.000000 1.819670 
# 
# From -- ./inp_files/22335.got.cif
#   From: 2010.03.12/outbox.cif.g09.slc.cpg/sg50_12_cif.got.tgz:22335.got - 2010.04.16 13:23:21.
