data_PCOD8205221
_publ_section_title
;
Structure prediction by ZEFSAII (Michael W. Deem and Ramdas Pophale) SiO2 
 PCOD8205221
Probable space group: P B A N
;
_chemical_formula_sum "Si O2"
_cell_formula_units_Z 40
_cell_length_a 14.948360
_cell_length_b 12.843077
_cell_length_c 9.961948
_cell_angle_alpha 90.000000
_cell_angle_beta 90.000000
_cell_angle_gamma 90.000000
_cell_volume 1912.524050
_symmetry_space_group_name_H-M "P B A N"
_symmetry_group_IT_number 50
_space_group.IT_coordinate_system_code '2'
_symmetry_cell_setting 'orthorhombic'
loop_
_space_group_symop_operation_xyz
x,y,z
1/2-x,1/2-y,z
x,1/2-y,-z
1/2-x,y,-z
-x,-y,-z
1/2+x,1/2+y,-z
-x,1/2+y,z
1/2+x,-y,z
loop_
_atom_site_type_symbol
_atom_site_label
_atom_site_fract_x
_atom_site_fract_y
_atom_site_fract_z
Si Si1 0.518006 0.161234 0.248615
Si Si2 0.387737 0.750000 0.500000
Si Si3 0.352408 0.243068 0.840558
Si Si4 0.346052 0.481339 0.245875
Si Si5 0.750000 0.424700 0.500000
Si Si6 0.250000 0.923417 0.000000
Si Si7 0.110626 0.750000 0.000000
O O1 0.546445 0.215310 0.384369
O O2 0.409679 0.163993 0.231770
O O3 0.562693 0.048189 0.239748
O O4 0.549661 0.232809 0.127316
O O5 0.327768 0.653050 0.552892
O O6 0.250000 0.250000 0.798162
O O7 0.383769 0.134234 0.774157
O O8 0.365433 0.250000 0.000000
O O9 0.290328 0.502555 0.382471
O O10 0.277619 0.504495 0.124343
O O11 0.168292 0.850060 0.958778
#
# Coordination Sequence:
#
# PCOD8205221 Si02
#       7
#     8   4   8   8   4   4   4
#     4  10  20  39  59  91 120 162 210 255 308 372
#     4   9  18  36  65  92 134 158 199 264 314 361
#     4  11  24  44  61  85 125 166 209 261 316 371
#     4  10  21  39  64  91 122 164 208 250 318 373
#     4   9  18  38  63  98 126 164 201 252 317 384
#     4   9  16  30  57  94 116 152 201 258 315 366
#     4   9  16  30  57  88 122 146 201 266 306 365
#
# _framework density 20.914769
#
# number of rings (size 3 to 8) (size 9 to 14) (size 15 to 20)
#    0.000    2.200    1.000    2.400    0.000    5.600 
#   10.800    2.000    0.000    0.000    0.000    0.000 
#    0.000    0.000    0.000    0.000    0.000    0.000 
#
# Total GULP energy -495745.186301 kJ/mol
# GULP energy per Si atom -12393.629658 kJ/mol
# Density = 2.086717 g / cm^3
# Si number density = 20.914769 Si / 1000 Ang^3
#
#
#
# Elastic Constant Matrix: (Units=GPa)
#
#
# Indices 1 2 3 4 5 6 
#
# 1 136.1457 36.2865 44.2593 0.0000 0.0000 0.0000
# 2 36.2865 90.1122 43.4496 0.0000 0.0000 0.0000
# 3 44.2593 43.4496 96.8196 0.0000 0.0000 0.0000
# 4 0.0000 0.0000 0.0000 31.2537 0.0000 0.0000
# 5 0.0000 0.0000 0.0000 0.0000 22.5518 0.0000
# 6 0.0000 0.0000 0.0000 0.0000 0.0000 21.2861
#
#
#
# Elastic Compliance Matrix: (Units=1/GPa)
#
#
# Indices 1 2 3 4 5 6 
#
# 1 0.008921 -0.002075 -0.003147 0.000000 0.000000 0.000000
# 2 -0.002075 0.014644 -0.005623 0.000000 0.000000 0.000000
# 3 -0.003147 -0.005623 0.014291 0.000000 0.000000 0.000000
# 4 0.000000 0.000000 0.000000 0.031996 0.000000 0.000000
# 5 0.000000 0.000000 0.000000 0.000000 0.044342 0.000000
# 6 0.000000 0.000000 0.000000 0.000000 0.000000 0.046979
#
#
# Mechanical properties :
#
#
# Convention : Reuss Voigt Hill
#
# Bulk Modulus (GPa) = 61.86026 63.45204 62.65615
# Shear Modulus (GPa) = 26.56004 28.29045 27.42525
#
# Velocity S-wave (km/s) = 3.56746 3.68183 3.62510
# Velocity P-wave (km/s) = 6.82719 6.96267 6.89526
#
# Compressibility (1/GPa) = 0.01616547
#
# Stress axis : x y z
#
# Youngs Moduli (GPa) = 112.09315 68.28608 69.97590
#
# Poissons Ratio (x) = 0.14169 0.22021
# Poissons Ratio (y) = 0.23259 0.39350
# Poissons Ratio (z) = 0.35275 0.38400
#
# Static dielectric constant tensor:
#      x y z
#    x 3.933240 0.000000 0.000000 
#    y 0.000000 3.638610 0.000000 
#    z 0.000000 0.000000 3.639160 
# 
# 
# High freq. dielectric constant tensor:
#      x y z
#    x 1.824130 0.000000 0.000000 
#    y 0.000000 1.808380 0.000000 
#    z 0.000000 0.000000 1.814420 
# 
# From -- ./inp_files/12651.got.cif
#   From: 2010.03.12/outbox.cif.g09.slc.cpg/sg50_7_cif.got.tgz:12651.got - 2010.04.16 13:23:21.
