data_PCOD8205670
_publ_section_title
;
Structure prediction by ZEFSAII (Michael W. Deem and Ramdas Pophale) SiO2 
 PCOD8205670
Probable space group: P B A N
;
_chemical_formula_sum "Si O2"
_cell_formula_units_Z 36
_cell_length_a 21.456557
_cell_length_b 7.794805
_cell_length_c 10.735186
_cell_angle_alpha 90.000000
_cell_angle_beta 90.000000
_cell_angle_gamma 90.000000
_cell_volume 1795.456399
_symmetry_space_group_name_H-M "P B A N"
_symmetry_group_IT_number 50
_space_group.IT_coordinate_system_code '2'
_symmetry_cell_setting 'orthorhombic'
loop_
_space_group_symop_operation_xyz
x,y,z
1/2-x,1/2-y,z
x,1/2-y,-z
1/2-x,y,-z
-x,-y,-z
1/2+x,1/2+y,-z
-x,1/2+y,z
1/2+x,-y,z
loop_
_atom_site_type_symbol
_atom_site_label
_atom_site_fract_x
_atom_site_fract_y
_atom_site_fract_z
Si Si1 0.780119 0.079817 0.133697
Si Si2 0.750000 0.750000 0.293181
Si Si3 0.923804 0.037528 0.152533
Si Si4 0.651158 0.750000 0.500000
Si Si5 0.976939 0.750000 0.000000
Si Si6 0.435415 0.562209 0.553649
O O1 0.750000 0.250000 0.196492
O O2 0.854545 0.105091 0.122950
O O3 0.761695 0.916560 0.212436
O O4 0.750000 0.054226 0.000000
O O5 0.689918 0.779742 0.376069
O O6 0.937682 0.057375 0.297801
O O7 0.930986 0.845717 0.097595
O O8 0.978012 0.137380 0.083458
O O9 0.614084 0.574318 0.492788
O O10 0.418040 0.750000 0.500000
O O11 0.500000 0.500000 0.500000
#
# Coordination Sequence:
#
# PCOD8205670 Si02
#       6
#     8   4   8   4   4   8
#     4  11  25  44  68 101 134 178 225 276 344 402
#     4  11  25  44  70  94 135 175 226 278 332 407
#     4  11  24  46  66 106 134 177 229 280 343 411
#     4  11  26  44  64 104 130 175 230 274 336 399
#     4  10  24  42  72  96 140 172 222 288 346 398
#     4  12  25  44  70 101 138 180 225 278 342 406
#
# _framework density 20.050612999999998
#
# number of rings (size 3 to 8) (size 9 to 14) (size 15 to 20)
#    0.000    0.889    3.333    3.000    6.222    0.000 
#    4.000    2.222    0.000    0.000    0.000    0.000 
#    0.000    0.000    0.000    0.000    0.000    0.000 
#
# Total GULP energy -446311.395053 kJ/mol
# GULP energy per Si atom -12397.538751 kJ/mol
# Density = 2.000498 g / cm^3
# Si number density = 20.050613 Si / 1000 Ang^3
#
#
#
# Elastic Constant Matrix: (Units=GPa)
#
#
# Indices 1 2 3 4 5 6 
#
# 1 132.8368 26.3855 48.8839 0.0000 0.0000 0.0000
# 2 26.3855 104.0892 57.3912 0.0000 0.0000 0.0000
# 3 48.8839 57.3912 155.3087 0.0000 0.0000 0.0000
# 4 0.0000 0.0000 0.0000 38.2957 0.0000 0.0000
# 5 0.0000 0.0000 0.0000 0.0000 38.8159 0.0000
# 6 0.0000 0.0000 0.0000 0.0000 0.0000 31.6388
#
#
#
# Elastic Compliance Matrix: (Units=1/GPa)
#
#
# Indices 1 2 3 4 5 6 
#
# 1 0.008575 -0.000861 -0.002381 0.000000 0.000000 0.000000
# 2 -0.000861 0.012152 -0.004219 0.000000 0.000000 0.000000
# 3 -0.002381 -0.004219 0.008747 0.000000 0.000000 0.000000
# 4 0.000000 0.000000 0.000000 0.026113 0.000000 0.000000
# 5 0.000000 0.000000 0.000000 0.000000 0.025763 0.000000
# 6 0.000000 0.000000 0.000000 0.000000 0.000000 0.031607
#
#
# Mechanical properties :
#
#
# Convention : Reuss Voigt Hill
#
# Bulk Modulus (GPa) = 68.72023 73.06177 70.89100
# Shear Modulus (GPa) = 37.67050 39.05502 38.36276
#
# Velocity S-wave (km/s) = 4.33918 4.41820 4.37887
# Velocity P-wave (km/s) = 7.71054 7.90855 7.81017
#
# Compressibility (1/GPa) = 0.01455176
#
# Stress axis : x y z
#
# Youngs Moduli (GPa) = 116.61497 82.29183 114.31935
#
# Poissons Ratio (x) = 0.07085 0.27219
# Poissons Ratio (y) = 0.10040 0.48237
# Poissons Ratio (z) = 0.27765 0.34723
#
# Static dielectric constant tensor:
#      x y z
#    x 3.931210 0.000000 0.000000 
#    y 0.000000 4.244890 0.000000 
#    z 0.000000 0.000000 4.596590 
# 
# 
# High freq. dielectric constant tensor:
#      x y z
#    x 1.799410 0.000000 0.000000 
#    y 0.000000 1.798260 0.000000 
#    z 0.000000 0.000000 1.797420 
# 
# From -- ./inp_files/14977.got.cif
#   From: 2010.03.12/outbox.cif.g09.slc.cpg/sg50_8_cif.got.tgz:14977.got - 2010.04.16 13:23:21.
