data_PCOD8205307
_publ_section_title
;
Structure prediction by ZEFSAII (Michael W. Deem and Ramdas Pophale) SiO2 
 PCOD8205307
Probable space group: P B A N
;
_chemical_formula_sum "Si O2"
_cell_formula_units_Z 36
_cell_length_a 8.455549
_cell_length_b 22.340669
_cell_length_c 9.450850
_cell_angle_alpha 90.000000
_cell_angle_beta 90.000000
_cell_angle_gamma 90.000000
_cell_volume 1785.290340
_symmetry_space_group_name_H-M "P B A N"
_symmetry_group_IT_number 50
_space_group.IT_coordinate_system_code '2'
_symmetry_cell_setting 'orthorhombic'
loop_
_space_group_symop_operation_xyz
x,y,z
1/2-x,1/2-y,z
x,1/2-y,-z
1/2-x,y,-z
-x,-y,-z
1/2+x,1/2+y,-z
-x,1/2+y,z
1/2+x,-y,z
loop_
_atom_site_type_symbol
_atom_site_label
_atom_site_fract_x
_atom_site_fract_y
_atom_site_fract_z
Si Si1 0.553931 0.423598 0.860137
Si Si2 0.931208 0.937328 0.546175
Si Si3 0.750000 0.750000 0.500000
Si Si4 0.595271 0.047357 0.824388
Si Si5 0.503204 0.169191 0.362022
Si Si6 0.750000 0.250000 0.500000
O O1 0.720806 0.442129 0.786596
O O2 0.425853 0.475482 0.829566
O O3 0.498518 0.359489 0.796281
O O4 0.563557 0.418130 0.029101
O O5 0.750000 0.932889 0.500000
O O6 0.970352 0.926078 0.711495
O O7 0.025852 0.885986 0.467157
O O8 0.000000 0.000000 0.500000
O O9 0.652903 0.792412 0.605851
O O10 0.651488 0.211545 0.388055
#
# Coordination Sequence:
#
# PCOD8205307 Si02
#       6
#     8   8   2   8   8   2
#     4  10  21  37  61  89 132 168 199 251 332 390
#     4  12  23  35  61  96 133 160 203 266 330 389
#     4  10  24  42  62  84 128 166 234 260 296 354
#     4  10  21  36  57  98 132 161 195 253 331 411
#     4  11  22  41  62  90 119 171 212 270 309 370
#     4  10  24  38  66  88 120 170 236 266 304 362
#
# _framework density 20.164788000000001
#
# number of rings (size 3 to 8) (size 9 to 14) (size 15 to 20)
#    0.000    1.333    3.333    2.667    1.556    0.000 
#    0.000    0.000    0.000   21.333    0.000    0.000 
#    0.000    0.000    0.000    0.000    0.000    0.000 
#
# Total GULP energy -446256.842098 kJ/mol
# GULP energy per Si atom -12396.023392 kJ/mol
# Density = 2.011889 g / cm^3
# Si number density = 20.164788 Si / 1000 Ang^3
#
#
#
# Elastic Constant Matrix: (Units=GPa)
#
#
# Indices 1 2 3 4 5 6 
#
# 1 120.5852 50.8596 56.1695 0.0000 0.0000 0.0000
# 2 50.8596 137.1772 57.4814 0.0000 0.0000 0.0000
# 3 56.1695 57.4814 131.6686 0.0000 0.0000 0.0000
# 4 0.0000 0.0000 0.0000 43.6408 0.0000 0.0000
# 5 0.0000 0.0000 0.0000 0.0000 31.4937 0.0000
# 6 0.0000 0.0000 0.0000 0.0000 0.0000 109.8448
#
#
#
# Elastic Compliance Matrix: (Units=1/GPa)
#
#
# Indices 1 2 3 4 5 6 
#
# 1 0.011058 -0.002598 -0.003583 0.000000 0.000000 0.000000
# 2 -0.002598 0.009533 -0.003053 0.000000 0.000000 0.000000
# 3 -0.003583 -0.003053 0.010456 0.000000 0.000000 0.000000
# 4 0.000000 0.000000 0.000000 0.022914 0.000000 0.000000
# 5 0.000000 0.000000 0.000000 0.000000 0.031752 0.000000
# 6 0.000000 0.000000 0.000000 0.000000 0.000000 0.009104
#
#
# Mechanical properties :
#
#
# Convention : Reuss Voigt Hill
#
# Bulk Modulus (GPa) = 79.50546 79.82799 79.66673
# Shear Modulus (GPa) = 42.56112 51.99058 47.27585
#
# Velocity S-wave (km/s) = 4.59918 5.08319 4.84723
# Velocity P-wave (km/s) = 8.22902 8.60962 8.42147
#
# Compressibility (1/GPa) = 0.01257775
#
# Stress axis : x y z
#
# Youngs Moduli (GPa) = 90.43428 104.90366 95.63800
#
# Poissons Ratio (x) = 0.27259 0.34265
# Poissons Ratio (y) = 0.23499 0.29199
# Poissons Ratio (z) = 0.32401 0.32028
#
# Static dielectric constant tensor:
#      x y z
#    x 3.896600 0.000000 0.000000 
#    y 0.000000 3.978050 0.000000 
#    z 0.000000 0.000000 3.895900 
# 
# 
# High freq. dielectric constant tensor:
#      x y z
#    x 1.797350 0.000000 0.000000 
#    y 0.000000 1.774690 0.000000 
#    z 0.000000 0.000000 1.783390 
# 
# From -- ./inp_files/9296.got.cif
#   From: 2010.03.12/outbox.cif.g09.slc.cpg/sg50_5_cif.got.tgz:9296.got - 2010.04.16 13:23:21.
