data_PCOD8205807
_publ_section_title
;
Structure prediction by ZEFSAII (Michael W. Deem and Ramdas Pophale) SiO2 
 PCOD8205807
Probable space group: P B A N
;
_chemical_formula_sum "Si O2"
_cell_formula_units_Z 56
_cell_length_a 9.512396
_cell_length_b 15.480002
_cell_length_c 17.996196
_cell_angle_alpha 90.000000
_cell_angle_beta 90.000000
_cell_angle_gamma 90.000000
_cell_volume 2649.974218
_symmetry_space_group_name_H-M "P B A N"
_symmetry_group_IT_number 50
_space_group.IT_coordinate_system_code '2'
_symmetry_cell_setting 'orthorhombic'
loop_
_space_group_symop_operation_xyz
x,y,z
1/2-x,1/2-y,z
x,1/2-y,-z
1/2-x,y,-z
-x,-y,-z
1/2+x,1/2+y,-z
-x,1/2+y,z
1/2+x,-y,z
loop_
_atom_site_type_symbol
_atom_site_label
_atom_site_fract_x
_atom_site_fract_y
_atom_site_fract_z
Si Si1 0.406620 0.921644 0.326853
Si Si2 0.571453 0.088157 0.323710
Si Si3 0.219942 0.620702 0.918785
Si Si4 0.537160 0.842103 0.828441
Si Si5 0.475659 0.650618 0.828726
Si Si6 0.416239 0.753779 0.416974
Si Si7 0.719823 0.580883 0.917063
O O1 0.237810 0.931374 0.328027
O O2 0.464186 0.907611 0.244098
O O3 0.460351 0.843109 0.378120
O O4 0.482112 0.008197 0.356847
O O5 0.524873 0.102714 0.239141
O O6 0.527434 0.172010 0.370987
O O7 0.059619 0.641440 0.900130
O O8 0.320238 0.669507 0.860283
O O9 0.254004 0.519516 0.915179
O O10 0.250000 0.657917 0.000000
O O11 0.545529 0.741590 0.807145
O O12 0.690693 0.872775 0.852618
O O13 0.559613 0.599817 0.893432
O O14 0.250000 0.750000 0.419911
O O15 0.480151 0.750000 0.500000
O O16 0.750000 0.617881 0.000000
#
# Coordination Sequence:
#
# PCOD8205807 Si02
#       7
#     8   8   8   8   8   8   8
#     4  11  23  41  66  98 131 169 214 260 312 374
#     4  11  23  41  66  98 131 169 214 260 312 374
#     4  11  23  39  61  85 117 160 211 263 319 373
#     4  12  24  39  60  88 121 163 212 266 311 375
#     4  12  24  39  60  88 121 163 212 266 311 375
#     4   9  20  42  71 101 134 171 209 251 309 379
#     4  11  25  43  59  85 123 164 211 265 329 383
#
# _framework density 21.132282
#
# number of rings (size 3 to 8) (size 9 to 14) (size 15 to 20)
#    0.000    1.000    2.857    4.286    2.000    6.286 
#    0.000    0.714    0.000    0.857    0.000    0.000 
#    0.000    0.000    0.000    0.000    0.000    0.000 
#
# Total GULP energy -694656.414097 kJ/mol
# GULP energy per Si atom -12404.578823 kJ/mol
# Density = 2.108418 g / cm^3
# Si number density = 21.132282 Si / 1000 Ang^3
#
#
#
# Elastic Constant Matrix: (Units=GPa)
#
#
# Indices 1 2 3 4 5 6 
#
# 1 70.5074 30.1125 26.0402 0.0000 0.0000 0.0000
# 2 30.1125 131.7030 38.4259 0.0000 0.0000 0.0000
# 3 26.0402 38.4259 115.7922 0.0000 0.0000 0.0000
# 4 0.0000 0.0000 0.0000 23.0440 0.0000 0.0000
# 5 0.0000 0.0000 0.0000 0.0000 19.6675 0.0000
# 6 0.0000 0.0000 0.0000 0.0000 0.0000 36.5211
#
#
#
# Elastic Compliance Matrix: (Units=1/GPa)
#
#
# Indices 1 2 3 4 5 6 
#
# 1 0.016454 -0.002970 -0.002715 0.000000 0.000000 0.000000
# 2 -0.002970 0.008943 -0.002300 0.000000 0.000000 0.000000
# 3 -0.002715 -0.002300 0.010010 0.000000 0.000000 0.000000
# 4 0.000000 0.000000 0.000000 0.043395 0.000000 0.000000
# 5 0.000000 0.000000 0.000000 0.000000 0.050845 0.000000
# 6 0.000000 0.000000 0.000000 0.000000 0.000000 0.027381
#
#
# Mechanical properties :
#
#
# Convention : Reuss Voigt Hill
#
# Bulk Modulus (GPa) = 51.44630 56.35108 53.89869
# Shear Modulus (GPa) = 27.85873 30.74144 29.30008
#
# Velocity S-wave (km/s) = 3.63478 3.81821 3.72762
# Velocity P-wave (km/s) = 6.48176 6.79427 6.63985
#
# Compressibility (1/GPa) = 0.01943775
#
# Stress axis : x y z
#
# Youngs Moduli (GPa) = 60.77571 111.82060 99.90155
#
# Poissons Ratio (x) = 0.33210 0.27120
# Poissons Ratio (y) = 0.18050 0.22975
# Poissons Ratio (z) = 0.16499 0.25717
#
# Static dielectric constant tensor:
#      x y z
#    x 3.617050 0.000000 0.000000 
#    y 0.000000 3.888990 0.000000 
#    z 0.000000 0.000000 3.854230 
# 
# 
# High freq. dielectric constant tensor:
#      x y z
#    x 1.816110 0.000000 0.000000 
#    y 0.000000 1.842440 0.000000 
#    z 0.000000 0.000000 1.817630 
# 
# From -- ./inp_files/30640.got.cif
#   From: 2010.03.12/outbox.cif.g09.slc.cpg/sg50_16_cif.got.tgz:30640.got - 2010.04.16 13:23:21.
