data_PCOD8205358
_publ_section_title
;
Structure prediction by ZEFSAII (Michael W. Deem and Ramdas Pophale) SiO2 
 PCOD8205358
Probable space group: P B A N
;
_chemical_formula_sum "Si O2"
_cell_formula_units_Z 64
_cell_length_a 23.377396
_cell_length_b 9.236237
_cell_length_c 15.206405
_cell_angle_alpha 90.000000
_cell_angle_beta 90.000000
_cell_angle_gamma 90.000000
_cell_volume 3283.354345
_symmetry_space_group_name_H-M "P B A N"
_symmetry_group_IT_number 50
_space_group.IT_coordinate_system_code '2'
_symmetry_cell_setting 'orthorhombic'
loop_
_space_group_symop_operation_xyz
x,y,z
1/2-x,1/2-y,z
x,1/2-y,-z
1/2-x,y,-z
-x,-y,-z
1/2+x,1/2+y,-z
-x,1/2+y,z
1/2+x,-y,z
loop_
_atom_site_type_symbol
_atom_site_label
_atom_site_fract_x
_atom_site_fract_y
_atom_site_fract_z
Si Si1 0.364561 0.587337 0.103761
Si Si2 0.068332 0.956942 0.750000
Si Si3 0.851953 0.416073 0.593846
Si Si4 0.135438 0.587337 0.603761
Si Si5 0.246062 0.415302 0.851504
Si Si6 0.746062 0.584698 0.648496
Si Si7 0.648047 0.083927 0.906154
Si Si8 0.952393 0.378032 0.250000
O O1 0.317611 0.472072 0.133372
O O2 0.340663 0.749192 0.119767
O O3 0.420727 0.562809 0.162788
O O4 0.381073 0.566982 0.001707
O O5 0.106113 0.990193 0.663914
O O6 0.106113 0.990193 0.836087
O O7 0.044549 0.794854 0.750000
O O8 0.016769 0.068467 0.750000
O O9 0.881073 0.433018 0.498293
O O10 0.840663 0.249192 0.619767
O O11 0.790525 0.493050 0.590793
O O12 0.182389 0.472072 0.633372
O O13 0.079273 0.562809 0.662788
O O14 0.250000 0.250000 0.882790
O O15 0.263466 0.431219 0.750000
O O16 0.290525 0.506950 0.909207
O O17 0.750000 0.750000 0.617210
#
# Coordination Sequence:
#
# PCOD8205358 Si02
#       8
#     8   8   8   8   8   8   8   8
#     4  10  21  38  60  84 111 148 189 226 273 334
#     4  10  22  39  58  81 111 146 188 234 275 324
#     4  10  21  38  60  84 111 148 189 226 273 334
#     4  10  21  38  60  84 111 148 189 226 273 334
#     4  11  22  35  56  87 119 148 181 226 281 333
#     4  11  22  35  56  87 119 148 181 226 281 333
#     4  10  21  38  60  84 111 148 189 226 273 334
#     4  10  22  39  58  81 111 146 188 234 275 324
#
# _framework density 19.492260999999999
#
# number of rings (size 3 to 8) (size 9 to 14) (size 15 to 20)
#    0.000    1.750    2.500    1.500    0.000    8.000 
#    0.000    0.000    0.000    0.000    0.000    0.000 
#    0.000    0.000    0.000    0.000    0.000    0.000 
#
# Total GULP energy -793954.277643 kJ/mol
# GULP energy per Si atom -12405.535588 kJ/mol
# Density = 1.944790 g / cm^3
# Si number density = 19.492261 Si / 1000 Ang^3
#
#
#
# Elastic Constant Matrix: (Units=GPa)
#
#
# Indices 1 2 3 4 5 6 
#
# 1 76.8445 24.9305 16.5504 0.0000 0.0000 0.0000
# 2 24.9305 63.5905 12.2473 0.0000 0.0000 0.0000
# 3 16.5504 12.2473 102.0406 0.0000 0.0000 0.0000
# 4 0.0000 0.0000 0.0000 19.5881 0.0000 0.0000
# 5 0.0000 0.0000 0.0000 0.0000 17.6624 0.0000
# 6 0.0000 0.0000 0.0000 0.0000 0.0000 38.6909
#
#
#
# Elastic Compliance Matrix: (Units=1/GPa)
#
#
# Indices 1 2 3 4 5 6 
#
# 1 0.015224 -0.005623 -0.001794 0.000000 0.000000 0.000000
# 2 -0.005623 0.018175 -0.001269 0.000000 0.000000 0.000000
# 3 -0.001794 -0.001269 0.010243 0.000000 0.000000 0.000000
# 4 0.000000 0.000000 0.000000 0.051051 0.000000 0.000000
# 5 0.000000 0.000000 0.000000 0.000000 0.056617 0.000000
# 6 0.000000 0.000000 0.000000 0.000000 0.000000 0.025846
#
#
# Mechanical properties :
#
#
# Convention : Reuss Voigt Hill
#
# Bulk Modulus (GPa) = 38.06824 38.88133 38.47478
# Shear Modulus (GPa) = 24.59587 27.77146 26.18367
#
# Velocity S-wave (km/s) = 3.55608 3.77867 3.66906
# Velocity P-wave (km/s) = 6.03599 6.24725 6.14253
#
# Compressibility (1/GPa) = 0.02626862
#
# Stress axis : x y z
#
# Youngs Moduli (GPa) = 65.68577 55.02199 97.62376
#
# Poissons Ratio (x) = 0.30939 0.17517
# Poissons Ratio (y) = 0.36935 0.12392
# Poissons Ratio (z) = 0.11786 0.06984
#
# Static dielectric constant tensor:
#      x y z
#    x 3.256760 0.000000 0.000000 
#    y 0.000000 3.473740 0.000000 
#    z 0.000000 0.000000 3.804240 
# 
# 
# High freq. dielectric constant tensor:
#      x y z
#    x 1.741310 0.000000 0.000000 
#    y 0.000000 1.752920 0.000000 
#    z 0.000000 0.000000 1.776660 
# 
# From -- ./inp_files/27496.got.cif
#   From: 2010.03.12/outbox.cif.g09.slc.cpg/sg50_14_cif.got.tgz:27496.got - 2010.04.16 13:23:21.
