data_PCOD8205134
_publ_section_title
;
Structure prediction by ZEFSAII (Michael W. Deem and Ramdas Pophale) SiO2 
 PCOD8205134
Probable space group: P B A N
;
_chemical_formula_sum "Si O2"
_cell_formula_units_Z 56
_cell_length_a 9.173896
_cell_length_b 18.739755
_cell_length_c 16.662153
_cell_angle_alpha 90.000000
_cell_angle_beta 90.000000
_cell_angle_gamma 90.000000
_cell_volume 2864.500083
_symmetry_space_group_name_H-M "P B A N"
_symmetry_group_IT_number 50
_space_group.IT_coordinate_system_code '2'
_symmetry_cell_setting 'orthorhombic'
loop_
_space_group_symop_operation_xyz
x,y,z
1/2-x,1/2-y,z
x,1/2-y,-z
1/2-x,y,-z
-x,-y,-z
1/2+x,1/2+y,-z
-x,1/2+y,z
1/2+x,-y,z
loop_
_atom_site_type_symbol
_atom_site_label
_atom_site_fract_x
_atom_site_fract_y
_atom_site_fract_z
Si Si1 0.951658 0.016358 0.685505
Si Si2 0.438305 0.424427 0.167355
Si Si3 0.340258 0.685402 0.662011
Si Si4 0.914355 0.772360 0.771692
Si Si5 0.759027 0.039109 0.094443
Si Si6 0.816667 0.040933 0.414440
Si Si7 0.892538 0.141829 0.790556
O O1 0.043203 0.008606 0.602936
O O2 0.974888 0.946849 0.740829
O O3 0.785271 0.019627 0.659420
O O4 0.988630 0.088139 0.735051
O O5 0.411744 0.339455 0.167121
O O6 0.572585 0.447096 0.112380
O O7 0.294177 0.464995 0.135182
O O8 0.250000 0.750000 0.621157
O O9 0.502716 0.709240 0.688303
O O10 0.352826 0.624744 0.593973
O O11 0.253978 0.663940 0.743388
O O12 0.750000 0.750000 0.750630
O O13 0.004005 0.707981 0.813899
O O14 0.657554 0.103085 0.127748
O O15 0.750000 0.033774 0.000000
O O16 0.750000 0.022103 0.500000
#
# Coordination Sequence:
#
# PCOD8205134 Si02
#       7
#     8   8   8   8   8   8   8
#     4  10  20  36  59  84 115 158 202 246 297 361
#     4  11  22  40  63  90 119 159 210 250 298 370
#     4   9  18  38  57  81 115 156 201 246 296 365
#     4  11  22  35  62  92 117 153 211 265 295 351
#     4  11  23  40  65  90 123 161 200 253 314 368
#     4  11  21  34  56  89 120 155 195 253 306 358
#     4   9  20  37  61  83 116 159 206 246 303 369
#
# _framework density 19.549658000000001
#
# number of rings (size 3 to 8) (size 9 to 14) (size 15 to 20)
#    0.000    1.714    2.857    2.571    6.000    0.286 
#    0.000    1.429    0.000    0.000    0.000   10.000 
#    0.000    0.000    0.000    0.000    0.000    0.000 
#
# Total GULP energy -694307.131495 kJ/mol
# GULP energy per Si atom -12398.341634 kJ/mol
# Density = 1.950516 g / cm^3
# Si number density = 19.549658 Si / 1000 Ang^3
#
#
#
# Elastic Constant Matrix: (Units=GPa)
#
#
# Indices 1 2 3 4 5 6 
#
# 1 100.6106 39.6496 15.5612 0.0000 0.0000 0.0000
# 2 39.6496 118.8798 21.8129 0.0000 0.0000 0.0000
# 3 15.5612 21.8129 73.4963 0.0000 0.0000 0.0000
# 4 0.0000 0.0000 0.0000 19.0638 0.0000 0.0000
# 5 0.0000 0.0000 0.0000 0.0000 28.2784 0.0000
# 6 0.0000 0.0000 0.0000 0.0000 0.0000 30.4817
#
#
#
# Elastic Compliance Matrix: (Units=1/GPa)
#
#
# Indices 1 2 3 4 5 6 
#
# 1 0.011574 -0.003607 -0.001380 0.000000 0.000000 0.000000
# 2 -0.003607 0.010020 -0.002210 0.000000 0.000000 0.000000
# 3 -0.001380 -0.002210 0.014554 0.000000 0.000000 0.000000
# 4 0.000000 0.000000 0.000000 0.052455 0.000000 0.000000
# 5 0.000000 0.000000 0.000000 0.000000 0.035363 0.000000
# 6 0.000000 0.000000 0.000000 0.000000 0.000000 0.032807
#
#
# Mechanical properties :
#
#
# Convention : Reuss Voigt Hill
#
# Bulk Modulus (GPa) = 45.96800 49.67044 47.81922
# Shear Modulus (GPa) = 28.02378 29.96231 28.99305
#
# Velocity S-wave (km/s) = 3.79022 3.91912 3.85521
# Velocity P-wave (km/s) = 6.53597 6.77804 6.65811
#
# Compressibility (1/GPa) = 0.02175427
#
# Stress axis : x y z
#
# Youngs Moduli (GPa) = 86.39845 99.79565 68.70822
#
# Poissons Ratio (x) = 0.35997 0.09482
# Poissons Ratio (y) = 0.31165 0.15186
# Poissons Ratio (z) = 0.11923 0.22057
#
# Static dielectric constant tensor:
#      x y z
#    x 3.598270 0.000000 0.000000 
#    y 0.000000 3.823590 0.000000 
#    z 0.000000 0.000000 3.152400 
# 
# 
# High freq. dielectric constant tensor:
#      x y z
#    x 1.768970 0.000000 0.000000 
#    y 0.000000 1.770480 0.000000 
#    z 0.000000 0.000000 1.723670 
# 
# From -- ./inp_files/28936.got.cif
#   From: 2010.03.12/outbox.cif.g09.slc.cpg/sg50_15_cif.got.tgz:28936.got - 2010.04.16 13:23:21.
