data_PCOD8205663
_publ_section_title
;
Structure prediction by ZEFSAII (Michael W. Deem and Ramdas Pophale) SiO2 
 PCOD8205663
Probable space group: P B A N
;
_chemical_formula_sum "Si O2"
_cell_formula_units_Z 28
_cell_length_a 13.705868
_cell_length_b 16.783637
_cell_length_c 5.487822
_cell_angle_alpha 90.000000
_cell_angle_beta 90.000000
_cell_angle_gamma 90.000000
_cell_volume 1262.387365
_symmetry_space_group_name_H-M "P B A N"
_symmetry_group_IT_number 50
_space_group.IT_coordinate_system_code '2'
_symmetry_cell_setting 'orthorhombic'
loop_
_space_group_symop_operation_xyz
x,y,z
1/2-x,1/2-y,z
x,1/2-y,-z
1/2-x,y,-z
-x,-y,-z
1/2+x,1/2+y,-z
-x,1/2+y,z
1/2+x,-y,z
loop_
_atom_site_type_symbol
_atom_site_label
_atom_site_fract_x
_atom_site_fract_y
_atom_site_fract_z
Si Si1 0.486845 0.169883 0.123379
Si Si2 0.692984 0.937239 0.742032
Si Si3 0.161062 0.611485 0.181166
Si Si4 0.621812 0.250000 0.500000
O O1 0.400894 0.117222 0.228508
O O2 0.555218 0.191466 0.345767
O O3 0.443699 0.250000 0.000000
O O4 0.553615 0.121022 0.933912
O O5 0.750000 0.906122 0.500000
O O6 0.659598 0.027361 0.677536
O O7 0.750000 0.932163 0.000000
O O8 0.187238 0.689047 0.342869
O O9 0.250000 0.607669 0.000000
#
# Coordination Sequence:
#
# PCOD8205663 Si02
#       4
#     8   8   8   4
#     4  10  24  45  68 102 136 182 235 293 355 415
#     4  11  27  47  71 103 140 188 239 287 352 421
#     4  10  24  44  67 103 139 183 233 290 360 423
#     4  10  24  41  71  98 140 178 235 288 359 414
#
# _framework density 22.180195999999999
#
# number of rings (size 3 to 8) (size 9 to 14) (size 15 to 20)
#    0.000    1.714    0.000    0.857   16.000    8.000 
#    0.000    0.000    0.000    0.000    0.000    0.000 
#    0.000    0.000    0.000    0.000    0.000    0.000 
#
# Total GULP energy -347098.692193 kJ/mol
# GULP energy per Si atom -12396.381864 kJ/mol
# Density = 2.212971 g / cm^3
# Si number density = 22.180196 Si / 1000 Ang^3
#
#
#
# Elastic Constant Matrix: (Units=GPa)
#
#
# Indices 1 2 3 4 5 6 
#
# 1 111.9639 69.2768 33.4119 0.0000 0.0000 0.0000
# 2 69.2768 133.5514 25.6645 0.0000 0.0000 0.0000
# 3 33.4119 25.6645 98.4045 0.0000 0.0000 0.0000
# 4 0.0000 0.0000 0.0000 14.3537 0.0000 0.0000
# 5 0.0000 0.0000 0.0000 0.0000 20.9470 0.0000
# 6 0.0000 0.0000 0.0000 0.0000 0.0000 72.5977
#
#
#
# Elastic Compliance Matrix: (Units=1/GPa)
#
#
# Indices 1 2 3 4 5 6 
#
# 1 0.013946 -0.006658 -0.002999 0.000000 0.000000 0.000000
# 2 -0.006658 0.011061 -0.000624 0.000000 0.000000 0.000000
# 3 -0.002999 -0.000624 0.011343 0.000000 0.000000 0.000000
# 4 0.000000 0.000000 0.000000 0.069669 0.000000 0.000000
# 5 0.000000 0.000000 0.000000 0.000000 0.047739 0.000000
# 6 0.000000 0.000000 0.000000 0.000000 0.000000 0.013775
#
#
# Mechanical properties :
#
#
# Convention : Reuss Voigt Hill
#
# Bulk Modulus (GPa) = 63.33674 66.73623 65.03648
# Shear Modulus (GPa) = 25.85886 35.95078 30.90482
#
# Velocity S-wave (km/s) = 3.41816 4.03035 3.73681
# Velocity P-wave (km/s) = 6.64801 7.19804 6.92848
#
# Compressibility (1/GPa) = 0.01578863
#
# Stress axis : x y z
#
# Youngs Moduli (GPa) = 71.70631 90.40519 88.15913
#
# Poissons Ratio (x) = 0.60190 0.26436
# Poissons Ratio (y) = 0.47741 0.05504
# Poissons Ratio (z) = 0.21503 0.05644
#
# Static dielectric constant tensor:
#      x y z
#    x 3.878750 0.000000 0.000000 
#    y 0.000000 4.476190 0.000000 
#    z 0.000000 0.000000 4.257650 
# 
# 
# High freq. dielectric constant tensor:
#      x y z
#    x 1.871120 0.000000 0.000000 
#    y 0.000000 1.886740 0.000000 
#    z 0.000000 0.000000 1.882630 
# 
# From -- ./inp_files/2923.got.cif
#   From: 2010.03.12/outbox.cif.g09.slc.cpg/sg50_2_cif.got.tgz:2923.got - 2010.04.16 13:23:21.
