data_PCOD8205966
_publ_section_title
;
Structure prediction by ZEFSAII (Michael W. Deem and Ramdas Pophale) SiO2 
 PCOD8205966
Probable space group: P M M A
;
_chemical_formula_sum "Si O2"
_cell_formula_units_Z 48
_cell_length_a 8.645265
_cell_length_b 20.899495
_cell_length_c 19.652401
_cell_angle_alpha 90.000000
_cell_angle_beta 90.000000
_cell_angle_gamma 90.000000
_cell_volume 3550.828684
_symmetry_space_group_name_H-M "P M M A"
_symmetry_group_IT_number 51
_symmetry_cell_setting 'orthorhombic'
loop_
_space_group_symop_operation_xyz
x,y,z
1/2-x,-y,z
1/2+x,-y,-z
-x,y,-z
-x,-y,-z
1/2+x,y,-z
1/2-x,y,z
x,-y,z
loop_
_atom_site_type_symbol
_atom_site_label
_atom_site_fract_x
_atom_site_fract_y
_atom_site_fract_z
Si Si1 0.565988 0.371980 0.075691
Si Si2 0.930607 0.928279 0.294694
Si Si3 0.566577 0.758364 0.924959
Si Si4 0.433816 0.500000 0.076063
Si Si5 0.065503 0.000000 0.075016
Si Si6 0.074304 0.075767 0.431765
Si Si7 0.932757 0.877728 0.150244
O O1 0.750000 0.373829 0.076186
O O2 0.503455 0.306419 0.109023
O O3 0.498326 0.435649 0.113093
O O4 0.500000 0.371182 0.000000
O O5 0.750000 0.933321 0.305948
O O6 0.970710 0.884239 0.230225
O O7 0.000557 0.896070 0.362667
O O8 0.998258 0.000000 0.282489
O O9 0.750000 0.752856 0.930295
O O10 0.518100 0.814772 0.875106
O O11 0.500000 0.771708 0.000000
O O12 0.250000 0.500000 0.075557
O O13 0.500000 0.500000 0.000000
O O14 0.002027 0.937922 0.111944
O O15 0.250000 0.000000 0.074494
O O16 0.000000 0.000000 0.000000
O O17 0.250000 0.096486 0.432462
O O18 0.000000 0.105584 0.500000
O O19 0.048315 0.000000 0.431624
O O20 0.750000 0.873834 0.136139
#
# Coordination Sequence:
#
# PCOD8205966 Si02
#       7
#     8   8   8   4   4   8   8
#     4  10  17  27  41  58  77  99 123 152 188 231
#     4   9  17  30  45  59  76  98 121 152 192 234
#     4  11  21  33  45  59  76  99 128 163 202 242
#     4  10  16  24  38  58  80 100 120 148 183 226
#     4  12  24  36  48  60  73  92 123 164 206 248
#     4   9  16  25  39  59  80 100 120 145 177 221
#     4  11  21  35  48  60  76  98 126 161 203 244
#
# _framework density 13.517970999999999
#
# number of rings (size 3 to 8) (size 9 to 14) (size 15 to 20)
#    0.000    1.833    0.833    8.000    0.000    3.333 
#    0.000    0.000    0.000    0.000    0.000    0.000 
#    0.000    0.000    0.000    0.000    0.000    0.000 
#
# Total GULP energy -594998.351309 kJ/mol
# GULP energy per Si atom -12395.798986 kJ/mol
# Density = 1.348720 g / cm^3
# Si number density = 13.517971 Si / 1000 Ang^3
#
#
#
# Elastic Constant Matrix: (Units=GPa)
#
#
# Indices 1 2 3 4 5 6 
#
# 1 104.0446 40.1403 40.1375 0.0000 0.0000 0.0000
# 2 40.1403 99.8991 32.4610 0.0000 0.0000 0.0000
# 3 40.1375 32.4610 80.0544 0.0000 0.0000 0.0000
# 4 0.0000 0.0000 0.0000 -22.4211 0.0000 0.0000
# 5 0.0000 0.0000 0.0000 0.0000 20.3818 0.0000
# 6 0.0000 0.0000 0.0000 0.0000 0.0000 22.4264
#
#
#
# Elastic Compliance Matrix: (Units=1/GPa)
#
#
# Indices 1 2 3 4 5 6 
#
# 1 0.012928 -0.003557 -0.005039 0.000000 0.000000 0.000000
# 2 -0.003557 0.012508 -0.003288 0.000000 0.000000 0.000000
# 3 -0.005039 -0.003288 0.016351 0.000000 0.000000 0.000000
# 4 0.000000 0.000000 0.000000 -0.044601 0.000000 0.000000
# 5 0.000000 0.000000 0.000000 0.000000 0.049063 0.000000
# 6 0.000000 0.000000 0.000000 0.000000 0.000000 0.044590
#
#
# Mechanical properties :
#
#
# Convention : Reuss Voigt Hill
#
# Bulk Modulus (GPa) = 55.50119 56.60840 56.05479
# Shear Modulus (GPa) = 41.45430 15.49471 28.47451
#
# Velocity S-wave (km/s) = 5.54370 3.38928 4.59455
# Velocity P-wave (km/s) = 9.06219 7.56859 8.34886
#
# Compressibility (1/GPa) = 0.01801763
#
# Stress axis : x y z
#
# Youngs Moduli (GPa) = 77.35424 79.94991 61.15654
#
# Poissons Ratio (x) = 0.28438 0.30818
# Poissons Ratio (y) = 0.27514 0.20111
# Poissons Ratio (z) = 0.38981 0.26291
#
# Static dielectric constant tensor:
#      x y z
#    x 2.836490 0.000000 0.000000 
#    y 0.000000 3.081970 0.000000 
#    z 0.000000 0.000000 2.585970 
# 
# 
# High freq. dielectric constant tensor:
#      x y z
#    x 1.537390 0.000000 0.000000 
#    y 0.000000 1.492700 0.000000 
#    z 0.000000 0.000000 1.477970 
# 
# From -- ./inp_files/28134.got.cif
#   From: 2010.03.12/outbox.cif.g09.slc.cpg/sg51_15_cif.got.tgz:28134.got - 2010.04.16 13:43:02.
