data_PCOD8205145
_publ_section_title
;
Structure prediction by ZEFSAII (Michael W. Deem and Ramdas Pophale) SiO2 
 PCOD8205145
Probable space group: P B A N
;
_chemical_formula_sum "Si O2"
_cell_formula_units_Z 58
_cell_length_a 15.587943
_cell_length_b 8.383432
_cell_length_c 19.973425
_cell_angle_alpha 90.000000
_cell_angle_beta 90.000000
_cell_angle_gamma 90.000000
_cell_volume 2610.136370
_symmetry_space_group_name_H-M "P B A N"
_symmetry_group_IT_number 50
_space_group.IT_coordinate_system_code '2'
_symmetry_cell_setting 'orthorhombic'
loop_
_space_group_symop_operation_xyz
x,y,z
1/2-x,1/2-y,z
x,1/2-y,-z
1/2-x,y,-z
-x,-y,-z
1/2+x,1/2+y,-z
-x,1/2+y,z
1/2+x,-y,z
loop_
_atom_site_type_symbol
_atom_site_label
_atom_site_fract_x
_atom_site_fract_y
_atom_site_fract_z
Si Si1 0.223494 0.568520 0.641316
Si Si2 0.410421 0.005341 0.370896
Si Si3 0.875459 0.426590 0.096204
Si Si4 0.750000 0.250000 0.000000
Si Si5 0.228723 0.437783 0.780935
Si Si6 0.085606 0.458223 0.220157
Si Si7 0.018307 0.189393 0.134886
Si Si8 0.063602 0.820654 0.427170
O O1 0.250000 0.750000 0.658071
O O2 0.308507 0.477610 0.612060
O O3 0.190855 0.476262 0.707692
O O4 0.143778 0.560883 0.589294
O O5 0.470946 0.093474 0.425058
O O6 0.432189 0.077826 0.298039
O O7 0.435350 0.818993 0.371985
O O8 0.833520 0.481473 0.165659
O O9 0.932793 0.583750 0.077245
O O10 0.938055 0.275869 0.101598
O O11 0.805129 0.375639 0.042579
O O12 0.250000 0.250000 0.789571
O O13 0.319404 0.531922 0.787477
O O14 0.084897 0.300524 0.173900
O O15 0.013587 0.574528 0.193505
O O16 0.080093 0.750000 0.500000
#
# Coordination Sequence:
#
# PCOD8205145 Si02
#       8
#     8   8   8   2   8   8   8   8
#     4   9  23  39  62  96 127 178 228 295 354 424
#     4  10  22  37  61  92 129 174 229 288 352 425
#     4  11  25  44  70 102 142 184 235 278 350 413
#     4  12  28  48  74 104 140 202 236 280 332 424
#     4  11  22  39  64  99 137 171 225 288 354 415
#     4  10  20  36  61  98 133 166 225 286 360 409
#     4  10  22  39  68 100 135 179 221 292 347 409
#     4  11  23  41  62  90 132 185 238 282 357 438
#
# _framework density 22.221060999999999
#
# number of rings (size 3 to 8) (size 9 to 14) (size 15 to 20)
#    0.000    1.655    1.379    2.069   10.621    5.241 
#    0.000    0.345    0.000    0.828    0.000    0.000 
#    0.000    0.000    0.000    0.000    0.000    0.000 
#
# Total GULP energy -718773.018232 kJ/mol
# GULP energy per Si atom -12392.638245 kJ/mol
# Density = 2.217049 g / cm^3
# Si number density = 22.221061 Si / 1000 Ang^3
#
#
#
# Elastic Constant Matrix: (Units=GPa)
#
#
# Indices 1 2 3 4 5 6 
#
# 1 153.8178 56.4421 73.9946 0.0000 0.0000 0.0000
# 2 56.4421 76.6171 45.3751 0.0000 0.0000 0.0000
# 3 73.9946 45.3751 90.9226 0.0000 0.0000 0.0000
# 4 0.0000 0.0000 0.0000 19.8639 0.0000 0.0000
# 5 0.0000 0.0000 0.0000 0.0000 23.8632 0.0000
# 6 0.0000 0.0000 0.0000 0.0000 0.0000 41.1582
#
#
#
# Elastic Compliance Matrix: (Units=1/GPa)
#
#
# Indices 1 2 3 4 5 6 
#
# 1 0.011555 -0.004178 -0.007319 0.000000 0.000000 0.000000
# 2 -0.004178 0.020039 -0.006600 0.000000 0.000000 0.000000
# 3 -0.007319 -0.006600 0.020248 0.000000 0.000000 0.000000
# 4 0.000000 0.000000 0.000000 0.050343 0.000000 0.000000
# 5 0.000000 0.000000 0.000000 0.000000 0.041906 0.000000
# 6 0.000000 0.000000 0.000000 0.000000 0.000000 0.024297
#
#
# Mechanical properties :
#
#
# Convention : Reuss Voigt Hill
#
# Bulk Modulus (GPa) = 63.90502 74.77569 69.34035
# Shear Modulus (GPa) = 23.83269 26.68010 25.25639
#
# Velocity S-wave (km/s) = 3.27850 3.46882 3.37500
# Velocity P-wave (km/s) = 6.56906 7.05461 6.81616
#
# Compressibility (1/GPa) = 0.01564822
#
# Stress axis : x y z
#
# Youngs Moduli (GPa) = 86.54350 49.90385 49.38708
#
# Poissons Ratio (x) = 0.20849 0.36144
# Poissons Ratio (y) = 0.36157 0.32596
# Poissons Ratio (z) = 0.63338 0.32937
#
# Static dielectric constant tensor:
#      x y z
#    x 4.442930 0.000000 0.000000 
#    y 0.000000 4.388800 0.000000 
#    z 0.000000 0.000000 3.613070 
# 
# 
# High freq. dielectric constant tensor:
#      x y z
#    x 1.901220 0.000000 0.000000 
#    y 0.000000 1.870440 0.000000 
#    z 0.000000 0.000000 1.842600 
# 
# From -- ./inp_files/29710.got.cif
#   From: 2010.03.12/outbox.cif.g09.slc.cpg/sg50_15_cif.got.tgz:29710.got - 2010.04.16 13:23:21.
