data_PCOD8205273
_publ_section_title
;
Structure prediction by ZEFSAII (Michael W. Deem and Ramdas Pophale) SiO2 
 PCOD8205273
Probable space group: P B A N
;
_chemical_formula_sum "Si O2"
_cell_formula_units_Z 56
_cell_length_a 21.846581
_cell_length_b 15.313507
_cell_length_c 8.341423
_cell_angle_alpha 90.000000
_cell_angle_beta 90.000000
_cell_angle_gamma 90.000000
_cell_volume 2790.604472
_symmetry_space_group_name_H-M "P B A N"
_symmetry_group_IT_number 50
_space_group.IT_coordinate_system_code '2'
_symmetry_cell_setting 'orthorhombic'
loop_
_space_group_symop_operation_xyz
x,y,z
1/2-x,1/2-y,z
x,1/2-y,-z
1/2-x,y,-z
-x,-y,-z
1/2+x,1/2+y,-z
-x,1/2+y,z
1/2+x,-y,z
loop_
_atom_site_type_symbol
_atom_site_label
_atom_site_fract_x
_atom_site_fract_y
_atom_site_fract_z
Si Si1 0.814502 0.014770 0.059603
Si Si2 0.096250 0.340141 0.583257
Si Si3 0.088941 0.657889 0.025443
Si Si4 0.361556 0.158402 0.936570
Si Si5 0.023134 0.418335 0.100657
Si Si6 0.452131 0.664102 0.606340
Si Si7 0.609254 0.992840 0.637202
O O1 0.830582 0.008847 0.249971
O O2 0.866256 0.078134 0.989620
O O3 0.750000 0.055181 0.000000
O O4 0.815714 0.919512 0.980070
O O5 0.112360 0.250000 0.500000
O O6 0.130681 0.336117 0.749057
O O7 0.127854 0.420640 0.491414
O O8 0.023757 0.354559 0.591927
O O9 0.063016 0.664137 0.205086
O O10 0.123127 0.750000 0.000000
O O11 0.035051 0.646981 0.890686
O O12 0.334664 0.250000 0.000000
O O13 0.426374 0.139832 0.016033
O O14 0.050155 0.453685 0.266814
O O15 0.000000 0.500000 0.000000
O O16 0.433897 0.750000 0.500000
O O17 0.412267 0.580942 0.544196
#
# Coordination Sequence:
#
# PCOD8205273 Si02
#       7
#     8   8   8   8   8   8   8
#     4  10  23  43  62  81 108 156 218 263 294 335
#     4  11  21  32  52  89 125 157 182 227 304 377
#     4  11  22  35  60  88 119 156 197 247 295 362
#     4  11  21  36  60  87 120 156 193 244 301 367
#     4  11  17  34  57  85 123 155 192 235 297 364
#     4  10  21  32  49  85 128 159 183 225 297 375
#     4  10  21  36  57  85 122 155 196 247 295 362
#
# _framework density 20.067336000000001
#
# number of rings (size 3 to 8) (size 9 to 14) (size 15 to 20)
#    0.000    1.429    5.714    2.571    4.000    1.714 
#    0.000    0.714    0.000    0.857    0.000    1.000 
#    0.000    0.000    0.000    0.000    0.000    0.000 
#
# Total GULP energy -693823.679768 kJ/mol
# GULP energy per Si atom -12389.708567 kJ/mol
# Density = 2.002166 g / cm^3
# Si number density = 20.067336 Si / 1000 Ang^3
#
#
#
# Elastic Constant Matrix: (Units=GPa)
#
#
# Indices 1 2 3 4 5 6 
#
# 1 72.9923 10.2091 21.9009 0.0000 0.0000 0.0000
# 2 10.2091 110.2598 32.2609 0.0000 0.0000 0.0000
# 3 21.9009 32.2609 79.0201 0.0000 0.0000 0.0000
# 4 0.0000 0.0000 0.0000 36.4523 0.0000 0.0000
# 5 0.0000 0.0000 0.0000 0.0000 15.2424 0.0000
# 6 0.0000 0.0000 0.0000 0.0000 0.0000 3.8356
#
#
#
# Elastic Compliance Matrix: (Units=1/GPa)
#
#
# Indices 1 2 3 4 5 6 
#
# 1 0.014946 -0.000195 -0.004063 0.000000 0.000000 0.000000
# 2 -0.000195 0.010302 -0.004152 0.000000 0.000000 0.000000
# 3 -0.004063 -0.004152 0.015476 0.000000 0.000000 0.000000
# 4 0.000000 0.000000 0.000000 0.027433 0.000000 0.000000
# 5 0.000000 0.000000 0.000000 0.000000 0.065607 0.000000
# 6 0.000000 0.000000 0.000000 0.000000 0.000000 0.260715
#
#
# Mechanical properties :
#
#
# Convention : Reuss Voigt Hill
#
# Bulk Modulus (GPa) = 41.83225 43.44601 42.63913
# Shear Modulus (GPa) = 11.92554 24.29948 18.11251
#
# Velocity S-wave (km/s) = 2.44042 3.48357 3.00757
# Velocity P-wave (km/s) = 5.36955 6.15447 5.77536
#
# Compressibility (1/GPa) = 0.02390500
#
# Stress axis : x y z
#
# Youngs Moduli (GPa) = 66.90577 97.06491 64.61566
#
# Poissons Ratio (x) = 0.01894 0.26252
# Poissons Ratio (y) = 0.01306 0.26828
# Poissons Ratio (z) = 0.27183 0.40301
#
# Static dielectric constant tensor:
#      x y z
#    x 3.294030 0.000000 0.000000 
#    y 0.000000 4.200570 0.000000 
#    z 0.000000 0.000000 3.763590 
# 
# 
# High freq. dielectric constant tensor:
#      x y z
#    x 1.736810 0.000000 0.000000 
#    y 0.000000 1.809980 0.000000 
#    z 0.000000 0.000000 1.774450 
# 
# From -- ./inp_files/15366.got.cif
#   From: 2010.03.12/outbox.cif.g09.slc.cpg/sg50_8_cif.got.tgz:15366.got - 2010.04.16 13:23:21.
