data_PCOD8205967
_publ_section_title
;
Structure prediction by ZEFSAII (Michael W. Deem and Ramdas Pophale) SiO2 
 PCOD8205967
Probable space group: P M M A
;
_chemical_formula_sum "Si O2"
_cell_formula_units_Z 36
_cell_length_a 8.696490
_cell_length_b 17.981263
_cell_length_c 15.302282
_cell_angle_alpha 90.000000
_cell_angle_beta 90.000000
_cell_angle_gamma 90.000000
_cell_volume 2392.877115
_symmetry_space_group_name_H-M "P M M A"
_symmetry_group_IT_number 51
_symmetry_cell_setting 'orthorhombic'
loop_
_space_group_symop_operation_xyz
x,y,z
1/2-x,-y,z
1/2+x,-y,-z
-x,y,-z
-x,-y,-z
1/2+x,y,-z
1/2-x,y,z
x,-y,z
loop_
_atom_site_type_symbol
_atom_site_label
_atom_site_fract_x
_atom_site_fract_y
_atom_site_fract_z
Si Si1 0.932949 0.648316 0.902926
Si Si2 0.432971 0.500000 0.902516
Si Si3 0.430532 0.086434 0.223223
Si Si4 0.918566 0.088091 0.584467
Si Si5 0.931207 0.798083 0.095299
O O1 0.750000 0.644173 0.902830
O O2 0.002698 0.574759 0.855081
O O3 0.992309 0.724844 0.859171
O O4 0.000000 0.650831 0.000000
O O5 0.250000 0.500000 0.903561
O O6 0.500000 0.500000 0.000000
O O7 0.250000 0.105672 0.214632
O O8 0.492998 0.106554 0.321029
O O9 0.531659 0.131702 0.155111
O O10 0.457846 0.000000 0.203260
O O11 0.750000 0.122900 0.584133
O O12 0.000000 0.124306 0.500000
O O13 0.910712 0.000000 0.573511
O O14 0.750000 0.786282 0.086873
O O15 0.000000 0.813644 0.000000
#
# Coordination Sequence:
#
# PCOD8205967 Si02
#       5
#     8   4   8   8   8
#     4  10  17  27  41  57  77 102 132 165 203 244
#     4  10  16  24  38  58  80 100 127 162 199 240
#     4   9  18  32  46  60  80 107 139 174 210 247
#     4   8  14  25  42  62  82 102 125 158 202 249
#     4  11  21  32  44  58  78 107 142 178 213 246
#
# _framework density 15.044651
#
# number of rings (size 3 to 8) (size 9 to 14) (size 15 to 20)
#    0.000    2.444    0.000    9.000    0.000    1.778 
#    0.000    2.222    0.000    0.000    0.000    0.000 
#    0.000    0.000    0.000    1.000    0.000   13.667 
#
# Total GULP energy -446025.118393 kJ/mol
# GULP energy per Si atom -12389.586622 kJ/mol
# Density = 1.501041 g / cm^3
# Si number density = 15.044651 Si / 1000 Ang^3
#
#
#
# Elastic Constant Matrix: (Units=GPa)
#
#
# Indices 1 2 3 4 5 6 
#
# 1 119.5214 41.3913 32.8994 0.0000 0.0000 0.0000
# 2 41.3913 79.3076 38.1220 0.0000 0.0000 0.0000
# 3 32.8994 38.1220 67.0910 0.0000 0.0000 0.0000
# 4 0.0000 0.0000 0.0000 -0.0835 0.0000 0.0000
# 5 0.0000 0.0000 0.0000 0.0000 19.9082 0.0000
# 6 0.0000 0.0000 0.0000 0.0000 0.0000 25.3191
#
#
#
# Elastic Compliance Matrix: (Units=1/GPa)
#
#
# Indices 1 2 3 4 5 6 
#
# 1 0.010587 -0.004169 -0.002823 0.000000 0.000000 0.000000
# 2 -0.004169 0.018989 -0.008745 0.000000 0.000000 0.000000
# 3 -0.002823 -0.008745 0.021259 0.000000 0.000000 0.000000
# 4 0.000000 0.000000 0.000000-11.979206 0.000000 0.000000
# 5 0.000000 0.000000 0.000000 0.000000 0.050231 0.000000
# 6 0.000000 0.000000 0.000000 0.000000 0.000000 0.039496
#
#
# Mechanical properties :
#
#
# Convention : Reuss Voigt Hill
#
# Bulk Modulus (GPa) = 51.65155 54.52727 53.08941
# Shear Modulus (GPa) = -0.42370 19.26259 9.41944
#
# Velocity S-wave (km/s) = -0.53126 3.58210 2.50491
# Velocity P-wave (km/s) = 5.83356 7.30964 6.61291
#
# Compressibility (1/GPa) = 0.01936050
#
# Stress axis : x y z
#
# Youngs Moduli (GPa) = 94.45177 52.66325 47.03956
#
# Poissons Ratio (x) = 0.21953 0.13280
# Poissons Ratio (y) = 0.39374 0.41138
# Poissons Ratio (z) = 0.26664 0.46056
#
# Static dielectric constant tensor:
#      x y z
#    x 3.023430 0.000000 0.000000 
#    y 0.000000 3.517880 0.000000 
#    z 0.000000 0.000000 2.688030 
# 
# 
# High freq. dielectric constant tensor:
#      x y z
#    x 1.588130 0.000000 0.000000 
#    y 0.000000 1.564470 0.000000 
#    z 0.000000 0.000000 1.528050 
# 
# From -- ./inp_files/20769.got.cif
#   From: 2010.03.12/outbox.cif.g09.slc.cpg/sg51_11_cif.got.tgz:20769.got - 2010.04.16 13:43:02.
