data_PCOD8205080
_publ_section_title
;
Structure prediction by ZEFSAII (Michael W. Deem and Ramdas Pophale) SiO2 
 PCOD8205080
Probable space group: P B A N
;
_chemical_formula_sum "Si O2"
_cell_formula_units_Z 48
_cell_length_a 19.276957
_cell_length_b 21.087168
_cell_length_c 5.064746
_cell_angle_alpha 90.000000
_cell_angle_beta 90.000000
_cell_angle_gamma 90.000000
_cell_volume 2058.801172
_symmetry_space_group_name_H-M "P B A N"
_symmetry_group_IT_number 50
_space_group.IT_coordinate_system_code '2'
_symmetry_cell_setting 'orthorhombic'
loop_
_space_group_symop_operation_xyz
x,y,z
1/2-x,1/2-y,z
x,1/2-y,-z
1/2-x,y,-z
-x,-y,-z
1/2+x,1/2+y,-z
-x,1/2+y,z
1/2+x,-y,z
loop_
_atom_site_type_symbol
_atom_site_label
_atom_site_fract_x
_atom_site_fract_y
_atom_site_fract_z
Si Si1 0.929180 0.953205 0.247129
Si Si2 0.434889 0.912593 0.500565
Si Si3 0.489237 0.791485 0.246381
Si Si4 0.344832 0.072188 0.740894
Si Si5 0.292011 0.937983 0.748217
Si Si6 0.151209 0.290774 0.758625
O O1 0.873036 0.923765 0.443388
O O2 0.001303 0.917192 0.295739
O O3 0.932830 0.028026 0.302209
O O4 0.907826 0.941204 0.945366
O O5 0.442329 0.853435 0.301337
O O6 0.369074 0.910523 0.699822
O O7 0.479829 0.750000 0.500000
O O8 0.570056 0.808626 0.207054
O O9 0.461099 0.750000 0.000000
O O10 0.309339 0.141235 0.775563
O O11 0.290453 0.014939 0.769765
O O12 0.250000 0.913994 0.500000
O O13 0.250000 0.910478 0.000000
O O14 0.168034 0.250000 0.500000
O O15 0.179274 0.250000 0.000000
#
# Coordination Sequence:
#
# PCOD8205080 Si02
#       6
#     8   8   8   8   8   8
#     4  10  22  34  62  97 122 162 196 253 333 382
#     4  10  22  40  62  92 133 164 209 259 320 397
#     4  10  22  35  56  90 131 163 197 246 312 391
#     4  11  21  39  61  90 129 162 204 256 316 384
#     4  11  25  42  61  89 122 168 217 269 319 366
#     4  10  20  34  55  87 128 165 196 240 305 382
#
# _framework density 23.314537999999999
#
# number of rings (size 3 to 8) (size 9 to 14) (size 15 to 20)
#    0.000    1.667    1.667    3.000    4.667   11.333 
#    0.000    0.000    0.000    3.500    0.000    4.667 
#    0.000    0.000    0.000    0.000    0.000    0.000 
#
# Total GULP energy -595036.937133 kJ/mol
# GULP energy per Si atom -12396.602857 kJ/mol
# Density = 2.326147 g / cm^3
# Si number density = 23.314538 Si / 1000 Ang^3
#
#
#
# Elastic Constant Matrix: (Units=GPa)
#
#
# Indices 1 2 3 4 5 6 
#
# 1 60.9796 -3.2887 22.0576 0.0000 0.0000 0.0000
# 2 -3.2887 75.9956 9.1524 0.0000 0.0000 0.0000
# 3 22.0576 9.1524 113.1540 0.0000 0.0000 0.0000
# 4 0.0000 0.0000 0.0000 22.0521 0.0000 0.0000
# 5 0.0000 0.0000 0.0000 0.0000 58.0779 0.0000
# 6 0.0000 0.0000 0.0000 0.0000 0.0000 66.8129
#
#
#
# Elastic Compliance Matrix: (Units=1/GPa)
#
#
# Indices 1 2 3 4 5 6 
#
# 1 0.017750 0.001197 -0.003557 0.000000 0.000000 0.000000
# 2 0.001197 0.013369 -0.001315 0.000000 0.000000 0.000000
# 3 -0.003557 -0.001315 0.009637 0.000000 0.000000 0.000000
# 4 0.000000 0.000000 0.000000 0.045347 0.000000 0.000000
# 5 0.000000 0.000000 0.000000 0.000000 0.017218 0.000000
# 6 0.000000 0.000000 0.000000 0.000000 0.000000 0.014967
#
#
# Mechanical properties :
#
#
# Convention : Reuss Voigt Hill
#
# Bulk Modulus (GPa) = 29.93463 33.99686 31.96574
# Shear Modulus (GPa) = 36.55669 44.20242 40.37956
#
# Velocity S-wave (km/s) = 3.96407 4.35894 4.16618
# Velocity P-wave (km/s) = 5.81542 6.32038 6.07315
#
# Compressibility (1/GPa) = 0.03340613
#
# Stress axis : x y z
#
# Youngs Moduli (GPa) = 56.33789 74.80132 103.76456
#
# Poissons Ratio (x) = -0.08950 0.36908
# Poissons Ratio (y) = -0.06741 0.13640
# Poissons Ratio (z) = 0.20039 0.09833
#
# Static dielectric constant tensor:
#      x y z
#    x 4.605670 0.000000 0.000000 
#    y 0.000000 4.026290 0.000000 
#    z 0.000000 0.000000 4.252670 
# 
# 
# High freq. dielectric constant tensor:
#      x y z
#    x 1.893960 0.000000 0.000000 
#    y 0.000000 1.910150 0.000000 
#    z 0.000000 0.000000 1.938950 
# 
# From -- ./inp_files/5292.got.cif
#   From: 2010.03.12/outbox.cif.g09.slc.cpg/sg50_3_cif.got.tgz:5292.got - 2010.04.16 13:23:21.
