data_PCOD8205170
_publ_section_title
;
Structure prediction by ZEFSAII (Michael W. Deem and Ramdas Pophale) SiO2 
 PCOD8205170
Probable space group: P B A N
;
_chemical_formula_sum "Si O2"
_cell_formula_units_Z 58
_cell_length_a 11.241963
_cell_length_b 8.731490
_cell_length_c 29.088431
_cell_angle_alpha 90.000000
_cell_angle_beta 90.000000
_cell_angle_gamma 90.000000
_cell_volume 2855.293844
_symmetry_space_group_name_H-M "P B A N"
_symmetry_group_IT_number 50
_space_group.IT_coordinate_system_code '2'
_symmetry_cell_setting 'orthorhombic'
loop_
_space_group_symop_operation_xyz
x,y,z
1/2-x,1/2-y,z
x,1/2-y,-z
1/2-x,y,-z
-x,-y,-z
1/2+x,1/2+y,-z
-x,1/2+y,z
1/2+x,-y,z
loop_
_atom_site_type_symbol
_atom_site_label
_atom_site_fract_x
_atom_site_fract_y
_atom_site_fract_z
Si Si1 0.491122 0.533452 0.260742
Si Si2 0.885188 0.713086 0.201634
Si Si3 0.621127 0.280218 0.314023
Si Si4 0.125616 0.313065 0.448768
Si Si5 0.947355 0.435714 0.953571
Si Si6 0.610699 0.775847 0.898946
Si Si7 0.374605 0.664269 0.580304
Si Si8 0.750000 0.250000 0.000000
O O1 0.563618 0.659905 0.234644
O O2 0.398735 0.454732 0.225096
O O3 0.575095 0.401396 0.278148
O O4 0.440283 0.614173 0.307131
O O5 0.750000 0.750000 0.194413
O O6 0.943100 0.727945 0.150995
O O7 0.750000 0.250000 0.295606
O O8 0.620998 0.349255 0.365031
O O9 0.250000 0.250000 0.424505
O O10 0.132824 0.250000 0.500000
O O11 0.125407 0.497909 0.444136
O O12 0.997713 0.253479 0.430637
O O13 0.920416 0.550152 0.911642
O O14 0.049402 0.322806 0.937708
O O15 0.825545 0.351132 0.964973
O O16 0.000000 0.500000 0.000000
O O17 0.750000 0.750000 0.901872
O O18 0.250000 0.750000 0.565295
#
# Coordination Sequence:
#
# PCOD8205170 Si02
#       8
#     8   8   8   8   8   8   8   2
#     4  10  20  37  60  85 120 155 194 239 294 360
#     4  10  21  38  59  85 116 153 194 237 290 353
#     4  10  21  37  60  90 121 156 198 247 304 358
#     4  11  24  42  63  92 128 171 218 267 323 381
#     4  12  23  42  62  87 118 153 199 246 302 357
#     4  11  24  40  62  87 119 155 196 249 297 357
#     4  11  23  41  65  95 129 166 215 270 320 381
#     4  12  24  40  64  88 116 156 202 246 304 360
#
# _framework density 20.313144999999999
#
# number of rings (size 3 to 8) (size 9 to 14) (size 15 to 20)
#    0.000    1.241    1.379    4.552    0.000    3.034 
#    0.000    3.448    3.034    0.000    0.000    0.000 
#    0.000    0.000    0.000    0.000    0.000    0.000 
#
# Total GULP energy -718537.786119 kJ/mol
# GULP energy per Si atom -12388.582519 kJ/mol
# Density = 2.026691 g / cm^3
# Si number density = 20.313145 Si / 1000 Ang^3
#
#
#
# Elastic Constant Matrix: (Units=GPa)
#
#
# Indices 1 2 3 4 5 6 
#
# 1 128.4969 44.6124 26.2373 0.0000 0.0000 0.0000
# 2 44.6124 133.8029 48.1060 0.0000 0.0000 0.0000
# 3 26.2373 48.1060 100.0155 0.0000 0.0000 0.0000
# 4 0.0000 0.0000 0.0000 87.4503 0.0000 0.0000
# 5 0.0000 0.0000 0.0000 0.0000 56.6398 0.0000
# 6 0.0000 0.0000 0.0000 0.0000 0.0000 29.1773
#
#
#
# Elastic Compliance Matrix: (Units=1/GPa)
#
#
# Indices 1 2 3 4 5 6 
#
# 1 0.008900 -0.002573 -0.001097 0.000000 0.000000 0.000000
# 2 -0.002573 0.009780 -0.004029 0.000000 0.000000 0.000000
# 3 -0.001097 -0.004029 0.012224 0.000000 0.000000 0.000000
# 4 0.000000 0.000000 0.000000 0.011435 0.000000 0.000000
# 5 0.000000 0.000000 0.000000 0.000000 0.017655 0.000000
# 6 0.000000 0.000000 0.000000 0.000000 0.000000 0.034273
#
#
# Mechanical properties :
#
#
# Convention : Reuss Voigt Hill
#
# Bulk Modulus (GPa) = 64.49266 66.69186 65.59226
# Shear Modulus (GPa) = 43.54099 50.87748 47.20924
#
# Velocity S-wave (km/s) = 4.63480 5.01009 4.82609
# Velocity P-wave (km/s) = 7.77561 8.14685 7.96339
#
# Compressibility (1/GPa) = 0.01550564
#
# Stress axis : x y z
#
# Youngs Moduli (GPa) = 112.36512 102.24847 81.80477
#
# Poissons Ratio (x) = 0.26307 0.08975
# Poissons Ratio (y) = 0.28910 0.32960
# Poissons Ratio (z) = 0.12328 0.41197
#
# Static dielectric constant tensor:
#      x y z
#    x 4.106880 0.000000 0.000000 
#    y 0.000000 7.455590 0.000000 
#    z 0.000000 0.000000 3.951120 
# 
# 
# High freq. dielectric constant tensor:
#      x y z
#    x 1.807260 0.000000 0.000000 
#    y 0.000000 1.805600 0.000000 
#    z 0.000000 0.000000 1.797780 
# 
# From -- ./inp_files/32189.got.cif
#   From: 2010.03.12/outbox.cif.g09.slc.cpg/sg50_17_cif.got.tgz:32189.got - 2010.04.16 13:23:21.
