data_PCOD8205396
_publ_section_title
;
Structure prediction by ZEFSAII (Michael W. Deem and Ramdas Pophale) SiO2 
 PCOD8205396
Probable space group: P B A N
;
_chemical_formula_sum "Si O2"
_cell_formula_units_Z 64
_cell_length_a 9.289201
_cell_length_b 13.225143
_cell_length_c 25.389602
_cell_angle_alpha 90.000000
_cell_angle_beta 90.000000
_cell_angle_gamma 90.000000
_cell_volume 3119.138289
_symmetry_space_group_name_H-M "P B A N"
_symmetry_group_IT_number 50
_space_group.IT_coordinate_system_code '2'
_symmetry_cell_setting 'orthorhombic'
loop_
_space_group_symop_operation_xyz
x,y,z
1/2-x,1/2-y,z
x,1/2-y,-z
1/2-x,y,-z
-x,-y,-z
1/2+x,1/2+y,-z
-x,1/2+y,z
1/2+x,-y,z
loop_
_atom_site_type_symbol
_atom_site_label
_atom_site_fract_x
_atom_site_fract_y
_atom_site_fract_z
Si Si1 0.765582 0.498396 0.637411
Si Si2 0.831862 0.146828 0.549673
Si Si3 0.254152 0.368400 0.937798
Si Si4 0.500210 0.492527 0.113311
Si Si5 0.403495 0.623516 0.208646
Si Si6 0.519292 0.968276 0.288682
Si Si7 0.918106 0.346750 0.801742
Si Si8 0.335966 0.148103 0.450984
O O1 0.678657 0.418250 0.602475
O O2 0.657463 0.554138 0.676312
O O3 0.840161 0.579221 0.600043
O O4 0.885033 0.446684 0.673656
O O5 0.750000 0.250000 0.561788
O O6 0.750000 0.094172 0.500000
O O7 0.997728 0.167538 0.533971
O O8 0.250000 0.250000 0.916849
O O9 0.114816 0.434758 0.922882
O O10 0.396410 0.429177 0.917950
O O11 0.250000 0.364560 0.000000
O O12 0.415849 0.551740 0.158492
O O13 0.587796 0.402503 0.141836
O O14 0.481955 0.579947 0.261154
O O15 0.237821 0.638600 0.224173
O O16 0.467843 0.731314 0.191300
O O17 0.530614 0.891519 0.239988
O O18 0.250000 0.250000 0.437508
O O19 0.250000 0.096639 0.500000
#
# Coordination Sequence:
#
# PCOD8205396 Si02
#       8
#     8   8   8   8   8   8   8   8
#     4  12  25  41  63  87 123 159 200 247 312 378
#     4  11  25  42  65  90 118 161 206 252 312 377
#     4  11  24  41  64  98 139 182 225 278 341 395
#     4  11  21  42  65  95 131 173 227 278 323 389
#     4  10  21  39  64  91 121 165 213 263 322 382
#     4  11  24  40  58  92 122 157 199 256 312 380
#     4  10  21  39  65  89 122 165 213 265 318 385
#     4  11  25  42  64  91 120 153 201 255 304 374
#
# _framework density 20.518487
#
# number of rings (size 3 to 8) (size 9 to 14) (size 15 to 20)
#    0.000    1.125    3.750    3.000    3.500    3.000 
#    0.000    1.250    0.000    3.000    0.000    0.000 
#    0.000    0.000    0.000    0.000    0.000    0.000 
#
# Total GULP energy -793124.933904 kJ/mol
# GULP energy per Si atom -12392.577092 kJ/mol
# Density = 2.047179 g / cm^3
# Si number density = 20.518487 Si / 1000 Ang^3
#
#
#
# Elastic Constant Matrix: (Units=GPa)
#
#
# Indices 1 2 3 4 5 6 
#
# 1 108.7770 39.7300 25.0556 0.0000 0.0000 0.0000
# 2 39.7300 112.7619 40.6532 0.0000 0.0000 0.0000
# 3 25.0556 40.6532 98.4027 0.0000 0.0000 0.0000
# 4 0.0000 0.0000 0.0000 -1.4065 0.0000 0.0000
# 5 0.0000 0.0000 0.0000 0.0000 48.8024 0.0000
# 6 0.0000 0.0000 0.0000 0.0000 0.0000 30.0976
#
#
#
# Elastic Compliance Matrix: (Units=1/GPa)
#
#
# Indices 1 2 3 4 5 6 
#
# 1 0.010706 -0.003278 -0.001372 0.000000 0.000000 0.000000
# 2 -0.003278 0.011424 -0.003885 0.000000 0.000000 0.000000
# 3 -0.001372 -0.003885 0.012117 0.000000 0.000000 0.000000
# 4 0.000000 0.000000 0.000000 -0.710973 0.000000 0.000000
# 5 0.000000 0.000000 0.000000 0.000000 0.020491 0.000000
# 6 0.000000 0.000000 0.000000 0.000000 0.000000 0.033225
#
#
# Mechanical properties :
#
#
# Convention : Reuss Voigt Hill
#
# Bulk Modulus (GPa) = 58.21537 58.97991 58.59764
# Shear Modulus (GPa) = -8.33035 29.79887 10.73426
#
# Velocity S-wave (km/s) = -2.01711 3.81503 2.28973
# Velocity P-wave (km/s) = 4.79675 6.94357 5.96749
#
# Compressibility (1/GPa) = 0.01717759
#
# Stress axis : x y z
#
# Youngs Moduli (GPa) = 93.40347 87.53772 82.53104
#
# Poissons Ratio (x) = 0.28691 0.11323
# Poissons Ratio (y) = 0.30613 0.32063
# Poissons Ratio (z) = 0.12815 0.34008
#
# Static dielectric constant tensor:
#      x y z
#    x 4.417960 0.000000 0.000000 
#    y 0.000000 3.862190 0.000000 
#    z 0.000000 0.000000 3.742720 
# 
# 
# High freq. dielectric constant tensor:
#      x y z
#    x 1.803950 0.000000 0.000000 
#    y 0.000000 1.803950 0.000000 
#    z 0.000000 0.000000 1.808190 
# 
# From -- ./inp_files/31611.got.cif
#   From: 2010.03.12/outbox.cif.g09.slc.cpg/sg50_16_cif.got.tgz:31611.got - 2010.04.16 13:23:21.
