data_PCOD8205182
_publ_section_title
;
Structure prediction by ZEFSAII (Michael W. Deem and Ramdas Pophale) SiO2 
 PCOD8205182
Probable space group: P B A N
;
_chemical_formula_sum "Si O2"
_cell_formula_units_Z 58
_cell_length_a 12.436326
_cell_length_b 8.972073
_cell_length_c 23.826607
_cell_angle_alpha 90.000000
_cell_angle_beta 90.000000
_cell_angle_gamma 90.000000
_cell_volume 2658.563868
_symmetry_space_group_name_H-M "P B A N"
_symmetry_group_IT_number 50
_space_group.IT_coordinate_system_code '2'
_symmetry_cell_setting 'orthorhombic'
loop_
_space_group_symop_operation_xyz
x,y,z
1/2-x,1/2-y,z
x,1/2-y,-z
1/2-x,y,-z
-x,-y,-z
1/2+x,1/2+y,-z
-x,1/2+y,z
1/2+x,-y,z
loop_
_atom_site_type_symbol
_atom_site_label
_atom_site_fract_x
_atom_site_fract_y
_atom_site_fract_z
Si Si1 0.250000 0.750000 0.500000
Si Si2 0.873635 0.739424 0.934011
Si Si3 0.867981 0.240797 0.812771
Si Si4 0.865811 0.732475 0.293191
Si Si5 0.494756 0.510694 0.871049
Si Si6 0.428768 0.606562 0.293770
Si Si7 0.925006 0.097779 0.576422
Si Si8 0.368275 0.263054 0.421282
O O1 0.174805 0.847520 0.460073
O O2 0.750000 0.750000 0.916373
O O3 0.916270 0.580992 0.911806
O O4 0.936688 0.877048 0.908093
O O5 0.890165 0.750000 0.000000
O O6 0.750000 0.250000 0.839861
O O7 0.927021 0.099237 0.838736
O O8 0.853323 0.207816 0.745847
O O9 0.928672 0.395205 0.824876
O O10 0.750000 0.750000 0.262240
O O11 0.910199 0.567372 0.284696
O O12 0.849147 0.779321 0.357334
O O13 0.951257 0.852269 0.270512
O O14 0.411295 0.653497 0.358911
O O15 0.042587 0.149392 0.552699
O O16 0.924428 0.921513 0.572775
O O17 0.250000 0.250000 0.451160
#
# Coordination Sequence:
#
# PCOD8205182 Si02
#       8
#     2   8   8   8   8   8   8   8
#     4  12  28  44  64  96 128 160 210 266 326 372
#     4  10  20  37  63  90 123 171 213 253 309 361
#     4  11  23  38  59  87 121 166 208 255 320 362
#     4   9  19  37  60  89 121 153 195 254 305 367
#     4  10  22  39  57  89 131 158 210 267 302 364
#     4  10  21  39  62  90 118 164 210 253 309 389
#     4  10  24  43  66  93 128 160 209 259 319 391
#     4   9  20  42  68  93 123 159 196 249 309 379
#
# _framework density 21.816289000000001
#
# number of rings (size 3 to 8) (size 9 to 14) (size 15 to 20)
#    0.000    2.069    0.000    2.069    2.897    2.759 
#    4.966    3.448    0.000    6.621    0.000    0.000 
#    0.000    0.000    0.000    0.000    0.000    0.000 
#
# Total GULP energy -718911.740753 kJ/mol
# GULP energy per Si atom -12395.030013 kJ/mol
# Density = 2.176663 g / cm^3
# Si number density = 21.816289 Si / 1000 Ang^3
#
#
#
# Elastic Constant Matrix: (Units=GPa)
#
#
# Indices 1 2 3 4 5 6 
#
# 1 186.1779 75.6550 35.1285 0.0000 0.0000 0.0000
# 2 75.6550 118.0850 33.5109 0.0000 0.0000 0.0000
# 3 35.1285 33.5109 80.5407 0.0000 0.0000 0.0000
# 4 0.0000 0.0000 0.0000 12.4643 0.0000 0.0000
# 5 0.0000 0.0000 0.0000 0.0000 15.5852 0.0000
# 6 0.0000 0.0000 0.0000 0.0000 0.0000 17.5412
#
#
#
# Elastic Compliance Matrix: (Units=1/GPa)
#
#
# Indices 1 2 3 4 5 6 
#
# 1 0.007403 -0.004339 -0.001424 0.000000 0.000000 0.000000
# 2 -0.004339 0.012145 -0.003161 0.000000 0.000000 0.000000
# 3 -0.001424 -0.003161 0.014352 0.000000 0.000000 0.000000
# 4 0.000000 0.000000 0.000000 0.080229 0.000000 0.000000
# 5 0.000000 0.000000 0.000000 0.000000 0.064164 0.000000
# 6 0.000000 0.000000 0.000000 0.000000 0.000000 0.057009
#
#
# Mechanical properties :
#
#
# Convention : Reuss Voigt Hill
#
# Bulk Modulus (GPa) = 62.29101 74.82140 68.55620
# Shear Modulus (GPa) = 19.34237 25.15208 22.24723
#
# Velocity S-wave (km/s) = 2.98082 3.39913 3.19682
# Velocity P-wave (km/s) = 6.36094 7.05521 6.71705
#
# Compressibility (1/GPa) = 0.01605368
#
# Stress axis : x y z
#
# Youngs Moduli (GPa) = 135.08063 82.33564 69.67603
#
# Poissons Ratio (x) = 0.35725 0.09919
# Poissons Ratio (y) = 0.58611 0.22024
# Poissons Ratio (z) = 0.19229 0.26026
#
# Static dielectric constant tensor:
#      x y z
#    x 4.402330 0.000000 0.000000 
#    y 0.000000 3.845430 0.000000 
#    z 0.000000 0.000000 4.108270 
# 
# 
# High freq. dielectric constant tensor:
#      x y z
#    x 1.871950 0.000000 0.000000 
#    y 0.000000 1.861070 0.000000 
#    z 0.000000 0.000000 1.850790 
# 
# From -- ./inp_files/32193.got.cif
#   From: 2010.03.12/outbox.cif.g09.slc.cpg/sg50_17_cif.got.tgz:32193.got - 2010.04.16 13:23:21.
