data_PCOD8205843
_publ_section_title
;
Structure prediction by ZEFSAII (Michael W. Deem and Ramdas Pophale) SiO2 
 PCOD8205843
Probable space group: P B A N
;
_chemical_formula_sum "Si O2"
_cell_formula_units_Z 48
_cell_length_a 17.351800
_cell_length_b 9.198946
_cell_length_c 13.754497
_cell_angle_alpha 90.000000
_cell_angle_beta 90.000000
_cell_angle_gamma 90.000000
_cell_volume 2195.469032
_symmetry_space_group_name_H-M "P B A N"
_symmetry_group_IT_number 50
_space_group.IT_coordinate_system_code '2'
_symmetry_cell_setting 'orthorhombic'
loop_
_space_group_symop_operation_xyz
x,y,z
1/2-x,1/2-y,z
x,1/2-y,-z
1/2-x,y,-z
-x,-y,-z
1/2+x,1/2+y,-z
-x,1/2+y,z
1/2+x,-y,z
loop_
_atom_site_type_symbol
_atom_site_label
_atom_site_fract_x
_atom_site_fract_y
_atom_site_fract_z
Si Si1 0.329626 0.172975 0.098321
Si Si2 0.841430 0.032675 0.402004
Si Si3 0.829598 0.327570 0.902810
Si Si4 0.093422 0.729361 0.713052
Si Si5 0.415928 0.293155 0.707790
Si Si6 0.166852 0.469303 0.624276
O O1 0.250000 0.250000 0.130687
O O2 0.393853 0.203967 0.179010
O O3 0.317395 0.000267 0.081665
O O4 0.359339 0.250000 0.000000
O O5 0.906306 0.951310 0.339074
O O6 0.855355 0.199729 0.373375
O O7 0.758264 0.982283 0.363281
O O8 0.855725 0.012752 0.515305
O O9 0.750000 0.250000 0.873491
O O10 0.889933 0.298313 0.817730
O O11 0.861832 0.250000 0.000000
O O12 0.119866 0.561923 0.704967
O O13 0.003585 0.753828 0.694667
O O14 0.358539 0.194598 0.643893
#
# Coordination Sequence:
#
# PCOD8205843 Si02
#       6
#     8   8   8   8   8   8
#     4  11  24  44  71 101 133 173 225 273 327 396
#     4  11  23  47  64 101 126 179 233 270 326 387
#     4  11  24  44  71 101 133 173 225 273 327 396
#     4  12  26  42  65 101 139 174 215 274 339 395
#     4  12  26  42  65 101 139 174 215 274 339 395
#     4  11  25  41  74  91 134 177 227 278 318 393
#
# _framework density 21.863209999999999
#
# number of rings (size 3 to 8) (size 9 to 14) (size 15 to 20)
#    0.000    0.667    1.667    7.000    4.667    7.333 
#    0.000    1.667    0.000    0.000    0.000    0.000 
#    0.000    0.000    0.000    0.000    0.000    0.000 
#
# Total GULP energy -595368.282911 kJ/mol
# GULP energy per Si atom -12403.505894 kJ/mol
# Density = 2.181345 g / cm^3
# Si number density = 21.863210 Si / 1000 Ang^3
#
#
#
# Elastic Constant Matrix: (Units=GPa)
#
#
# Indices 1 2 3 4 5 6 
#
# 1 110.2704 28.5991 44.5203 0.0000 0.0000 0.0000
# 2 28.5991 101.5145 35.0345 0.0000 0.0000 0.0000
# 3 44.5203 35.0345 107.0429 0.0000 0.0000 0.0000
# 4 0.0000 0.0000 0.0000 42.8782 0.0000 0.0000
# 5 0.0000 0.0000 0.0000 0.0000 20.8670 0.0000
# 6 0.0000 0.0000 0.0000 0.0000 0.0000 32.0619
#
#
#
# Elastic Compliance Matrix: (Units=1/GPa)
#
#
# Indices 1 2 3 4 5 6 
#
# 1 0.011165 -0.001739 -0.004074 0.000000 0.000000 0.000000
# 2 -0.001739 0.011376 -0.003000 0.000000 0.000000 0.000000
# 3 -0.004074 -0.003000 0.012018 0.000000 0.000000 0.000000
# 4 0.000000 0.000000 0.000000 0.023322 0.000000 0.000000
# 5 0.000000 0.000000 0.000000 0.000000 0.047923 0.000000
# 6 0.000000 0.000000 0.000000 0.000000 0.000000 0.031190
#
#
# Mechanical properties :
#
#
# Convention : Reuss Voigt Hill
#
# Bulk Modulus (GPa) = 59.05878 59.45951 59.25915
# Shear Modulus (GPa) = 31.19845 33.20634 32.20239
#
# Velocity S-wave (km/s) = 3.78164 3.90144 3.84201
# Velocity P-wave (km/s) = 6.79259 6.89566 6.84432
#
# Compressibility (1/GPa) = 0.01693228
#
# Stress axis : x y z
#
# Youngs Moduli (GPa) = 89.56868 87.90321 83.20549
#
# Poissons Ratio (x) = 0.15289 0.33900
# Poissons Ratio (y) = 0.15578 0.24961
# Poissons Ratio (z) = 0.36492 0.26371
#
# Static dielectric constant tensor:
#      x y z
#    x 3.652300 0.000000 0.000000 
#    y 0.000000 4.124800 0.000000 
#    z 0.000000 0.000000 3.928800 
# 
# 
# High freq. dielectric constant tensor:
#      x y z
#    x 1.845870 0.000000 0.000000 
#    y 0.000000 1.881020 0.000000 
#    z 0.000000 0.000000 1.868480 
# 
# From -- ./inp_files/16951.got.cif
#   From: 2010.03.12/outbox.cif.g09.slc.cpg/sg50_9_cif.got.tgz:16951.got - 2010.04.16 13:23:21.
