data_PCOD8205202
_publ_section_title
;
Structure prediction by ZEFSAII (Michael W. Deem and Ramdas Pophale) SiO2 
 PCOD8205202
Probable space group: P B A N
;
_chemical_formula_sum "Si O2"
_cell_formula_units_Z 40
_cell_length_a 12.845348
_cell_length_b 12.793742
_cell_length_c 12.920368
_cell_angle_alpha 90.000000
_cell_angle_beta 90.000000
_cell_angle_gamma 90.000000
_cell_volume 2123.334158
_symmetry_space_group_name_H-M "P B A N"
_symmetry_group_IT_number 50
_space_group.IT_coordinate_system_code '2'
_symmetry_cell_setting 'orthorhombic'
loop_
_space_group_symop_operation_xyz
x,y,z
1/2-x,1/2-y,z
x,1/2-y,-z
1/2-x,y,-z
-x,-y,-z
1/2+x,1/2+y,-z
-x,1/2+y,z
1/2+x,-y,z
loop_
_atom_site_type_symbol
_atom_site_label
_atom_site_fract_x
_atom_site_fract_y
_atom_site_fract_z
Si Si1 0.811894 0.487173 0.895155
Si Si2 0.628981 0.242282 0.386170
Si Si3 0.456114 0.182687 0.102800
Si Si4 0.885232 0.062134 0.772707
Si Si5 0.520526 0.131127 0.777753
O O1 0.855729 0.606332 0.898304
O O2 0.732144 0.470564 0.800536
O O3 0.907188 0.406583 0.875169
O O4 0.750000 0.461825 0.000000
O O5 0.750000 0.250000 0.400762
O O6 0.575679 0.250000 0.500000
O O7 0.604752 0.134571 0.327539
O O8 0.592045 0.340491 0.319090
O O9 0.560842 0.115742 0.126156
O O10 0.447717 0.270524 0.191986
O O11 0.465979 0.250000 0.000000
O O12 0.946106 0.959525 0.739655
#
# Coordination Sequence:
#
# PCOD8205202 Si02
#       5
#     8   8   8   8   8
#     4  11  21  34  55  80 112 151 184 217 267 316
#     4  10  20  38  61  80 104 139 183 229 275 326
#     4  10  21  35  52  80 114 149 184 219 261 318
#     4  10  21  36  56  83 110 142 182 227 269 321
#     4  10  21  37  55  82 112 141 183 225 269 322
#
# _framework density 18.838296
#
# number of rings (size 3 to 8) (size 9 to 14) (size 15 to 20)
#    0.000    1.800    2.000    2.400    0.000    6.800 
#    0.000    3.000    0.000    0.000    0.000    1.400 
#    0.000    0.000    0.000    0.000    0.000    0.000 
#
# Total GULP energy -495727.681444 kJ/mol
# GULP energy per Si atom -12393.192036 kJ/mol
# Density = 1.879542 g / cm^3
# Si number density = 18.838296 Si / 1000 Ang^3
#
#
#
# Elastic Constant Matrix: (Units=GPa)
#
#
# Indices 1 2 3 4 5 6 
#
# 1 59.6916 32.6166 15.7893 0.0000 0.0000 0.0000
# 2 32.6166 106.6467 28.8654 0.0000 0.0000 0.0000
# 3 15.7893 28.8654 93.6507 0.0000 0.0000 0.0000
# 4 0.0000 0.0000 0.0000 33.5737 0.0000 0.0000
# 5 0.0000 0.0000 0.0000 0.0000 12.2351 0.0000
# 6 0.0000 0.0000 0.0000 0.0000 0.0000 26.5010
#
#
#
# Elastic Compliance Matrix: (Units=1/GPa)
#
#
# Indices 1 2 3 4 5 6 
#
# 1 0.020345 -0.005776 -0.001650 0.000000 0.000000 0.000000
# 2 -0.005776 0.011870 -0.002685 0.000000 0.000000 0.000000
# 3 -0.001650 -0.002685 0.011784 0.000000 0.000000 0.000000
# 4 0.000000 0.000000 0.000000 0.029785 0.000000 0.000000
# 5 0.000000 0.000000 0.000000 0.000000 0.081732 0.000000
# 6 0.000000 0.000000 0.000000 0.000000 0.000000 0.037734
#
#
# Mechanical properties :
#
#
# Convention : Reuss Voigt Hill
#
# Bulk Modulus (GPa) = 42.05609 46.05908 44.05758
# Shear Modulus (GPa) = 22.58386 26.64315 24.61351
#
# Velocity S-wave (km/s) = 3.46616 3.76481 3.61857
# Velocity P-wave (km/s) = 6.19615 6.58796 6.39506
#
# Compressibility (1/GPa) = 0.02377777
#
# Stress axis : x y z
#
# Youngs Moduli (GPa) = 49.15167 84.24685 84.86318
#
# Poissons Ratio (x) = 0.48659 0.14002
# Poissons Ratio (y) = 0.28389 0.22784
# Poissons Ratio (z) = 0.08110 0.22619
#
# Static dielectric constant tensor:
#      x y z
#    x 3.437420 0.000000 0.000000 
#    y 0.000000 3.678210 0.000000 
#    z 0.000000 0.000000 3.622600 
# 
# 
# High freq. dielectric constant tensor:
#      x y z
#    x 1.725150 0.000000 0.000000 
#    y 0.000000 1.745110 0.000000 
#    z 0.000000 0.000000 1.713450 
# 
# From -- ./inp_files/20015.got.cif
#   From: 2010.03.12/outbox.cif.g09.slc.cpg/sg50_11_cif.got.tgz:20015.got - 2010.04.16 13:23:21.
