data_PCOD8205637
_publ_section_title
;
Structure prediction by ZEFSAII (Michael W. Deem and Ramdas Pophale) SiO2 
 PCOD8205637
Probable space group: P B A N
;
_chemical_formula_sum "Si O2"
_cell_formula_units_Z 32
_cell_length_a 10.259183
_cell_length_b 13.598616
_cell_length_c 8.880833
_cell_angle_alpha 90.000000
_cell_angle_beta 90.000000
_cell_angle_gamma 90.000000
_cell_volume 1238.971140
_symmetry_space_group_name_H-M "P B A N"
_symmetry_group_IT_number 50
_space_group.IT_coordinate_system_code '2'
_symmetry_cell_setting 'orthorhombic'
loop_
_space_group_symop_operation_xyz
x,y,z
1/2-x,1/2-y,z
x,1/2-y,-z
1/2-x,y,-z
-x,-y,-z
1/2+x,1/2+y,-z
-x,1/2+y,z
1/2+x,-y,z
loop_
_atom_site_type_symbol
_atom_site_label
_atom_site_fract_x
_atom_site_fract_y
_atom_site_fract_z
Si Si1 0.983858 0.780151 0.336173
Si Si2 0.973348 0.910397 0.827915
Si Si3 0.632450 0.393721 0.892641
Si Si4 0.625804 0.980280 0.600041
O O1 0.036363 0.750000 0.500000
O O2 0.917830 0.685525 0.256265
O O3 0.110239 0.814695 0.239596
O O4 0.875283 0.866074 0.347655
O O5 0.108829 0.948099 0.745877
O O6 0.003105 0.888894 0.002198
O O7 0.861792 0.995986 0.819592
O O8 0.750000 0.363173 0.000000
O O9 0.750000 0.007094 0.500000
O O10 0.500000 0.000000 0.500000
#
# Coordination Sequence:
#
# PCOD8205637 Si02
#       4
#     8   8   8   8
#     4  11  23  43  71 108 145 189 257 308 375 455
#     4  10  23  43  68 102 144 193 248 307 375 447
#     4  10  24  44  70  98 146 196 245 310 382 448
#     4  11  25  46  72 108 152 198 249 312 379 444
#
# _framework density 25.82788
#
# number of rings (size 3 to 8) (size 9 to 14) (size 15 to 20)
#    0.000    1.500    2.500    0.750    7.000    2.500 
#    0.000    2.500    0.000    0.000    0.000    0.000 
#    0.000    0.000    0.000    0.000    0.000    0.000 
#
# Total GULP energy -396772.862217 kJ/mol
# GULP energy per Si atom -12399.151944 kJ/mol
# Density = 2.576909 g / cm^3
# Si number density = 25.827880 Si / 1000 Ang^3
#
#
#
# Elastic Constant Matrix: (Units=GPa)
#
#
# Indices 1 2 3 4 5 6 
#
# 1 69.4658 -6.5309 9.1077 0.0000 0.0000 0.0000
# 2 -6.5309 135.9368 45.8576 0.0000 0.0000 0.0000
# 3 9.1077 45.8576 135.9407 0.0000 0.0000 0.0000
# 4 0.0000 0.0000 0.0000 64.9180 0.0000 0.0000
# 5 0.0000 0.0000 0.0000 0.0000 37.4535 0.0000
# 6 0.0000 0.0000 0.0000 0.0000 0.0000 11.0827
#
#
#
# Elastic Compliance Matrix: (Units=1/GPa)
#
#
# Indices 1 2 3 4 5 6 
#
# 1 0.014686 0.001171 -0.001379 0.000000 0.000000 0.000000
# 2 0.001171 0.008394 -0.002910 0.000000 0.000000 0.000000
# 3 -0.001379 -0.002910 0.008430 0.000000 0.000000 0.000000
# 4 0.000000 0.000000 0.000000 0.015404 0.000000 0.000000
# 5 0.000000 0.000000 0.000000 0.000000 0.026700 0.000000
# 6 0.000000 0.000000 0.000000 0.000000 0.000000 0.090230
#
#
# Mechanical properties :
#
#
# Convention : Reuss Voigt Hill
#
# Bulk Modulus (GPa) = 39.56571 48.69024 44.12798
# Shear Modulus (GPa) = 28.01018 42.21811 35.11414
#
# Velocity S-wave (km/s) = 3.29674 4.04740 3.69120
# Velocity P-wave (km/s) = 5.46293 6.38237 5.94046
#
# Compressibility (1/GPa) = 0.02527441
#
# Stress axis : x y z
#
# Youngs Moduli (GPa) = 68.09010 119.12806 118.62078
#
# Poissons Ratio (x) = -0.13947 0.16356
# Poissons Ratio (y) = -0.07972 0.34520
# Poissons Ratio (z) = 0.09389 0.34668
#
# Static dielectric constant tensor:
#      x y z
#    x 4.046790 0.000000 0.000000 
#    y 0.000000 5.065330 0.000000 
#    z 0.000000 0.000000 5.467960 
# 
# 
# High freq. dielectric constant tensor:
#      x y z
#    x 1.976330 0.000000 0.000000 
#    y 0.000000 2.043270 0.000000 
#    z 0.000000 0.000000 2.066870 
# 
# From -- ./inp_files/10683.got.cif
#   From: 2010.03.12/outbox.cif.g09.slc.cpg/sg50_6_cif.got.tgz:10683.got - 2010.04.16 13:23:21.
