data_PCOD8205371
_publ_section_title
;
Structure prediction by ZEFSAII (Michael W. Deem and Ramdas Pophale) SiO2 
 PCOD8205371
Probable space group: P B A N
;
_chemical_formula_sum "Si O2"
_cell_formula_units_Z 60
_cell_length_a 20.301645
_cell_length_b 10.970566
_cell_length_c 13.821466
_cell_angle_alpha 90.000000
_cell_angle_beta 90.000000
_cell_angle_gamma 90.000000
_cell_volume 3078.324321
_symmetry_space_group_name_H-M "P B A N"
_symmetry_group_IT_number 50
_space_group.IT_coordinate_system_code '2'
_symmetry_cell_setting 'orthorhombic'
loop_
_space_group_symop_operation_xyz
x,y,z
1/2-x,1/2-y,z
x,1/2-y,-z
1/2-x,y,-z
-x,-y,-z
1/2+x,1/2+y,-z
-x,1/2+y,z
1/2+x,-y,z
loop_
_atom_site_type_symbol
_atom_site_label
_atom_site_fract_x
_atom_site_fract_y
_atom_site_fract_z
Si Si1 0.628979 0.897362 0.844183
Si Si2 0.823131 0.299233 0.101052
Si Si3 0.058167 0.176902 0.227264
Si Si4 0.417987 0.877125 0.458593
Si Si5 0.750000 0.750000 0.121682
Si Si6 0.904114 0.353392 0.760925
Si Si7 0.645930 0.929959 0.062119
Si Si8 0.073537 0.371596 0.553650
O O1 0.570899 0.820622 0.792099
O O2 0.698446 0.831559 0.816306
O O3 0.632035 0.032756 0.807100
O O4 0.612348 0.912829 0.957917
O O5 0.750000 0.250000 0.119700
O O6 0.869772 0.264780 0.191702
O O7 0.821216 0.442961 0.088593
O O8 0.852886 0.250000 0.000000
O O9 0.093211 0.098981 0.144674
O O10 0.087092 0.138296 0.331697
O O11 0.981325 0.151484 0.218664
O O12 0.389698 0.750000 0.500000
O O13 0.390135 0.871197 0.351213
O O14 0.496277 0.876304 0.465755
O O15 0.393713 0.002104 0.512639
O O16 0.706267 0.837452 0.055627
O O17 0.102253 0.250000 0.500000
#
# Coordination Sequence:
#
# PCOD8205371 Si02
#       8
#     8   8   8   8   4   8   8   8
#     4  11  21  38  56  86 117 156 198 237 289 346
#     4  11  24  40  59  86 115 157 205 249 289 345
#     4  10  23  34  57  89 121 155 190 237 304 358
#     4   9  19  33  56  81 112 152 196 240 292 345
#     4  10  21  38  64  80 107 150 205 246 270 324
#     4  11  23  37  58  86 123 158 190 240 302 364
#     4  11  22  38  58  85 118 153 198 243 286 353
#     4   9  17  34  54  81 113 151 197 245 283 344
#
# _framework density 19.491125
#
# number of rings (size 3 to 8) (size 9 to 14) (size 15 to 20)
#    0.000    1.733    1.333    4.000    5.600    3.733 
#    0.000    0.000    0.000    0.400    0.000   26.133 
#    0.000    0.000    0.000    0.000    0.000    0.000 
#
# Total GULP energy -743597.253582 kJ/mol
# GULP energy per Si atom -12393.287560 kJ/mol
# Density = 1.944676 g / cm^3
# Si number density = 19.491125 Si / 1000 Ang^3
#
#
#
# Elastic Constant Matrix: (Units=GPa)
#
#
# Indices 1 2 3 4 5 6 
#
# 1 58.4909 29.2436 48.6004 0.0000 0.0000 0.0000
# 2 29.2436 153.3851 63.6908 0.0000 0.0000 0.0000
# 3 48.6004 63.6908 148.3919 0.0000 0.0000 0.0000
# 4 0.0000 0.0000 0.0000 28.9585 0.0000 0.0000
# 5 0.0000 0.0000 0.0000 0.0000 33.0601 0.0000
# 6 0.0000 0.0000 0.0000 0.0000 0.0000 11.8984
#
#
#
# Elastic Compliance Matrix: (Units=1/GPa)
#
#
# Indices 1 2 3 4 5 6 
#
# 1 0.023800 -0.001583 -0.007116 0.000000 0.000000 0.000000
# 2 -0.001583 0.008039 -0.002932 0.000000 0.000000 0.000000
# 3 -0.007116 -0.002932 0.010328 0.000000 0.000000 0.000000
# 4 0.000000 0.000000 0.000000 0.034532 0.000000 0.000000
# 5 0.000000 0.000000 0.000000 0.000000 0.030248 0.000000
# 6 0.000000 0.000000 0.000000 0.000000 0.000000 0.084045
#
#
# Mechanical properties :
#
#
# Convention : Reuss Voigt Hill
#
# Bulk Modulus (GPa) = 52.89293 71.48196 62.18745
# Shear Modulus (GPa) = 22.67009 29.36559 26.01784
#
# Velocity S-wave (km/s) = 3.41412 3.88572 3.65753
# Velocity P-wave (km/s) = 6.53739 7.54225 7.05773
#
# Compressibility (1/GPa) = 0.01890612
#
# Stress axis : x y z
#
# Youngs Moduli (GPa) = 42.01596 124.39756 96.82697
#
# Poissons Ratio (x) = 0.19693 0.68898
# Poissons Ratio (y) = 0.06651 0.28388
# Poissons Ratio (z) = 0.29897 0.36471
#
# Static dielectric constant tensor:
#      x y z
#    x 3.301970 0.000000 0.000000 
#    y 0.000000 3.714170 0.000000 
#    z 0.000000 0.000000 3.417790 
# 
# 
# High freq. dielectric constant tensor:
#      x y z
#    x 1.721830 0.000000 0.000000 
#    y 0.000000 1.783720 0.000000 
#    z 0.000000 0.000000 1.760570 
# 
# From -- ./inp_files/22438.got.cif
#   From: 2010.03.12/outbox.cif.g09.slc.cpg/sg50_12_cif.got.tgz:22438.got - 2010.04.16 13:23:21.
