data_PCOD8205271
_publ_section_title
;
Structure prediction by ZEFSAII (Michael W. Deem and Ramdas Pophale) SiO2 
 PCOD8205271
Probable space group: P B A N
;
_chemical_formula_sum "Si O2"
_cell_formula_units_Z 34
_cell_length_a 5.029916
_cell_length_b 24.243075
_cell_length_c 13.858984
_cell_angle_alpha 90.000000
_cell_angle_beta 90.000000
_cell_angle_gamma 90.000000
_cell_volume 1689.973252
_symmetry_space_group_name_H-M "P B A N"
_symmetry_group_IT_number 50
_space_group.IT_coordinate_system_code '2'
_symmetry_cell_setting 'orthorhombic'
loop_
_space_group_symop_operation_xyz
x,y,z
1/2-x,1/2-y,z
x,1/2-y,-z
1/2-x,y,-z
-x,-y,-z
1/2+x,1/2+y,-z
-x,1/2+y,z
1/2+x,-y,z
loop_
_atom_site_type_symbol
_atom_site_label
_atom_site_fract_x
_atom_site_fract_y
_atom_site_fract_z
Si Si1 0.869878 0.304671 0.189263
Si Si2 0.739775 0.536424 0.611279
Si Si3 0.250000 0.750000 0.000000
Si Si4 0.237354 0.468801 0.113168
Si Si5 0.643229 0.629067 0.765575
O O1 0.750000 0.250000 0.240718
O O2 0.912176 0.290853 0.073604
O O3 0.659032 0.353176 0.213008
O O4 0.154704 0.318944 0.236456
O O5 0.750000 0.554282 0.500000
O O6 0.524080 0.489653 0.636790
O O7 0.673973 0.592175 0.669857
O O8 0.474498 0.504728 0.158650
O O9 0.258190 0.405533 0.142279
O O10 0.250000 0.473415 0.000000
#
# Coordination Sequence:
#
# PCOD8205271 Si02
#       5
#     8   8   2   8   8
#     4  10  24  37  58  81 113 144 199 246 280 335
#     4  10  21  38  62  91 121 150 190 239 287 350
#     4   8  24  42  56  82 114 150 208 250 284 330
#     4  10  21  32  46  74 109 140 175 215 268 341
#     4  12  21  36  61  81 110 154 189 237 290 341
#
# _framework density 20.118662
#
# number of rings (size 3 to 8) (size 9 to 14) (size 15 to 20)
#    0.706    0.941    0.000    4.941    3.294    0.941 
#    0.000    0.000    0.000    4.235    0.000    0.000 
#    0.000    0.000    0.000    0.000    0.000    0.000 
#
# Total GULP energy -421260.363221 kJ/mol
# GULP energy per Si atom -12390.010683 kJ/mol
# Density = 2.007287 g / cm^3
# Si number density = 20.118662 Si / 1000 Ang^3
#
#
#
# Elastic Constant Matrix: (Units=GPa)
#
#
# Indices 1 2 3 4 5 6 
#
# 1 84.5857 6.6917 25.3464 0.0000 0.0000 0.0000
# 2 6.6917 74.0244 31.9580 0.0000 0.0000 0.0000
# 3 25.3464 31.9580 94.5269 0.0000 0.0000 0.0000
# 4 0.0000 0.0000 0.0000 34.5085 0.0000 0.0000
# 5 0.0000 0.0000 0.0000 0.0000 7.2266 0.0000
# 6 0.0000 0.0000 0.0000 0.0000 0.0000 34.3518
#
#
#
# Elastic Compliance Matrix: (Units=1/GPa)
#
#
# Indices 1 2 3 4 5 6 
#
# 1 0.012864 0.000382 -0.003579 0.000000 0.000000 0.000000
# 2 0.000382 0.015829 -0.005454 0.000000 0.000000 0.000000
# 3 -0.003579 -0.005454 0.013382 0.000000 0.000000 0.000000
# 4 0.000000 0.000000 0.000000 0.028978 0.000000 0.000000
# 5 0.000000 0.000000 0.000000 0.000000 0.138378 0.000000
# 6 0.000000 0.000000 0.000000 0.000000 0.000000 0.029111
#
#
# Mechanical properties :
#
#
# Convention : Reuss Voigt Hill
#
# Bulk Modulus (GPa) = 40.36346 42.34769 41.35557
# Shear Modulus (GPa) = 18.93204 27.82677 23.37940
#
# Velocity S-wave (km/s) = 3.07093 3.72308 3.41262
# Velocity P-wave (km/s) = 5.71668 6.29098 6.01069
#
# Compressibility (1/GPa) = 0.02477489
#
# Stress axis : x y z
#
# Youngs Moduli (GPa) = 77.73357 63.17461 74.72456
#
# Poissons Ratio (x) = -0.02414 0.26741
# Poissons Ratio (y) = -0.02970 0.40755
# Poissons Ratio (z) = 0.27818 0.34455
#
# Static dielectric constant tensor:
#      x y z
#    x 3.966650 0.000000 0.000000 
#    y 0.000000 3.569790 0.000000 
#    z 0.000000 0.000000 3.332260 
# 
# 
# High freq. dielectric constant tensor:
#      x y z
#    x 1.797950 0.000000 0.000000 
#    y 0.000000 1.781570 0.000000 
#    z 0.000000 0.000000 1.764910 
# 
# From -- ./inp_files/23835.got.cif
#   From: 2010.03.12/outbox.cif.g09.slc.cpg/sg50_12_cif.got.tgz:23835.got - 2010.04.16 13:23:21.
