data_PCOD8205864
_publ_section_title
;
Structure prediction by ZEFSAII (Michael W. Deem and Ramdas Pophale) SiO2 
 PCOD8205864
Probable space group: P B A N
;
_chemical_formula_sum "Si O2"
_cell_formula_units_Z 34
_cell_length_a 18.306080
_cell_length_b 16.178924
_cell_length_c 5.114271
_cell_angle_alpha 90.000000
_cell_angle_beta 90.000000
_cell_angle_gamma 90.000000
_cell_volume 1514.707333
_symmetry_space_group_name_H-M "P B A N"
_symmetry_group_IT_number 50
_space_group.IT_coordinate_system_code '2'
_symmetry_cell_setting 'orthorhombic'
loop_
_space_group_symop_operation_xyz
x,y,z
1/2-x,1/2-y,z
x,1/2-y,-z
1/2-x,y,-z
-x,-y,-z
1/2+x,1/2+y,-z
-x,1/2+y,z
1/2+x,-y,z
loop_
_atom_site_type_symbol
_atom_site_label
_atom_site_fract_x
_atom_site_fract_y
_atom_site_fract_z
Si Si1 0.795409 0.925882 0.268678
Si Si2 0.943276 0.841654 0.409454
Si Si3 0.981736 0.093876 0.068637
Si Si4 0.316260 0.607492 0.803059
Si Si5 0.750000 0.250000 0.500000
O O1 0.750000 0.883294 0.500000
O O2 0.873023 0.881949 0.270225
O O3 0.808948 0.021295 0.351540
O O4 0.750000 0.914829 0.000000
O O5 0.924531 0.750000 0.500000
O O6 0.976535 0.889578 0.658330
O O7 0.998583 0.843584 0.166441
O O8 0.895627 0.108223 0.072413
O O9 0.000000 0.000000 0.000000
O O10 0.307974 0.691092 0.641358
O O11 0.250000 0.609987 0.000000
#
# Coordination Sequence:
#
# PCOD8205864 Si02
#       5
#     8   8   8   8   2
#     4  11  24  46  77 104 144 195 250 302 372 462
#     4  12  28  48  74 115 148 194 258 321 381 452
#     4  12  27  48  79 107 150 205 253 314 387 464
#     4  11  27  44  73 107 148 198 250 302 384 452
#     4  12  26  44  72 110 154 184 256 312 382 444
#
# _framework density 22.446583
#
# number of rings (size 3 to 8) (size 9 to 14) (size 15 to 20)
#    0.000    0.471    3.529    3.176    8.235    2.353 
#    0.000    1.176    0.000    0.000    0.000    0.000 
#    0.000    0.000    0.000    0.000    0.000    0.000 
#
# Total GULP energy -421300.641356 kJ/mol
# GULP energy per Si atom -12391.195334 kJ/mol
# Density = 2.239549 g / cm^3
# Si number density = 22.446583 Si / 1000 Ang^3
#
#
#
# Elastic Constant Matrix: (Units=GPa)
#
#
# Indices 1 2 3 4 5 6 
#
# 1 196.5931 80.5640 80.8308 0.0000 0.0000 0.0000
# 2 80.5640 135.6259 46.7038 0.0000 0.0000 0.0000
# 3 80.8308 46.7038 147.5637 0.0000 0.0000 0.0000
# 4 0.0000 0.0000 0.0000 69.6565 0.0000 0.0000
# 5 0.0000 0.0000 0.0000 0.0000 41.6827 0.0000
# 6 0.0000 0.0000 0.0000 0.0000 0.0000 34.5751
#
#
#
# Elastic Compliance Matrix: (Units=1/GPa)
#
#
# Indices 1 2 3 4 5 6 
#
# 1 0.007855 -0.003574 -0.003172 0.000000 0.000000 0.000000
# 2 -0.003574 0.009901 -0.001176 0.000000 0.000000 0.000000
# 3 -0.003172 -0.001176 0.008886 0.000000 0.000000 0.000000
# 4 0.000000 0.000000 0.000000 0.014356 0.000000 0.000000
# 5 0.000000 0.000000 0.000000 0.000000 0.023991 0.000000
# 6 0.000000 0.000000 0.000000 0.000000 0.000000 0.028923
#
#
# Mechanical properties :
#
#
# Convention : Reuss Voigt Hill
#
# Bulk Modulus (GPa) = 92.59784 99.55331 96.07558
# Shear Modulus (GPa) = 44.10894 47.29512 45.70203
#
# Velocity S-wave (km/s) = 4.43771 4.59519 4.51714
# Velocity P-wave (km/s) = 8.22191 8.52068 8.37263
#
# Compressibility (1/GPa) = 0.01079939
#
# Stress axis : x y z
#
# Youngs Moduli (GPa) = 127.30154 100.99787 112.53249
#
# Poissons Ratio (x) = 0.36097 0.35693
# Poissons Ratio (y) = 0.45498 0.13234
# Poissons Ratio (z) = 0.40377 0.11877
#
# Static dielectric constant tensor:
#      x y z
#    x 4.225650 0.000000 0.000000 
#    y 0.000000 3.190610 0.000000 
#    z 0.000000 0.000000 4.088620 
# 
# 
# High freq. dielectric constant tensor:
#      x y z
#    x 1.907230 0.000000 0.000000 
#    y 0.000000 1.891730 0.000000 
#    z 0.000000 0.000000 1.890760 
# 
# From -- ./inp_files/4059.got.cif
#   From: 2010.03.12/outbox.cif.g09.slc.cpg/sg50_3_cif.got.tgz:4059.got - 2010.04.16 13:23:21.
