data_PCOD8205700
_publ_section_title
;
Structure prediction by ZEFSAII (Michael W. Deem and Ramdas Pophale) SiO2 
 PCOD8205700
Probable space group: P B A N
;
_chemical_formula_sum "Si O2"
_cell_formula_units_Z 40
_cell_length_a 9.618353
_cell_length_b 10.802106
_cell_length_c 17.575505
_cell_angle_alpha 90.000000
_cell_angle_beta 90.000000
_cell_angle_gamma 90.000000
_cell_volume 1826.068055
_symmetry_space_group_name_H-M "P B A N"
_symmetry_group_IT_number 50
_space_group.IT_coordinate_system_code '2'
_symmetry_cell_setting 'orthorhombic'
loop_
_space_group_symop_operation_xyz
x,y,z
1/2-x,1/2-y,z
x,1/2-y,-z
1/2-x,y,-z
-x,-y,-z
1/2+x,1/2+y,-z
-x,1/2+y,z
1/2+x,-y,z
loop_
_atom_site_type_symbol
_atom_site_label
_atom_site_fract_x
_atom_site_fract_y
_atom_site_fract_z
Si Si1 0.750000 0.250000 0.000000
Si Si2 0.901199 0.107715 0.128510
Si Si3 0.923354 0.045768 0.425357
Si Si4 0.816758 0.509756 0.327750
Si Si5 0.789260 0.612224 0.165853
Si Si6 0.750000 0.250000 0.255798
Si Si7 0.250000 0.750000 0.500000
O O1 0.854510 0.329637 0.949260
O O2 0.870320 0.195087 0.201498
O O3 0.063981 0.077851 0.128228
O O4 0.825509 0.976725 0.131046
O O5 0.796811 0.960444 0.393971
O O6 0.852152 0.175689 0.444523
O O7 0.000000 0.000000 0.500000
O O8 0.032972 0.052828 0.357213
O O9 0.788148 0.596162 0.256465
O O10 0.812527 0.362588 0.306425
O O11 0.750000 0.750000 0.143319
#
# Coordination Sequence:
#
# PCOD8205700 Si02
#       7
#     2   8   8   8   8   4   2
#     4  10  24  48  82  96 154 200 228 274 366 428
#     4  10  24  46  71 108 145 188 233 286 350 422
#     4  12  25  43  66  94 134 179 238 286 363 432
#     4  11  23  42  72 100 132 188 231 290 369 410
#     4  11  26  44  72 107 145 178 244 298 343 420
#     4   9  21  41  75  98 140 174 234 292 343 425
#     4  12  26  48  64  86 146 176 218 318 348 436
#
# _framework density 21.904987999999999
#
# number of rings (size 3 to 8) (size 9 to 14) (size 15 to 20)
#    0.000    1.200    2.000    3.000   11.200    2.400 
#    0.000    1.000    0.000    0.000    0.000    0.000 
#    0.000    0.000    0.000    0.000    0.000    0.000 
#
# Total GULP energy -495939.714156 kJ/mol
# GULP energy per Si atom -12398.492854 kJ/mol
# Density = 2.185513 g / cm^3
# Si number density = 21.904988 Si / 1000 Ang^3
#
#
#
# Elastic Constant Matrix: (Units=GPa)
#
#
# Indices 1 2 3 4 5 6 
#
# 1 175.2862 75.6514 52.2548 0.0000 0.0000 0.0000
# 2 75.6514 128.7954 55.1570 0.0000 0.0000 0.0000
# 3 52.2548 55.1570 111.8945 0.0000 0.0000 0.0000
# 4 0.0000 0.0000 0.0000 8.8693 0.0000 0.0000
# 5 0.0000 0.0000 0.0000 0.0000 10.5753 0.0000
# 6 0.0000 0.0000 0.0000 0.0000 0.0000 42.7856
#
#
#
# Elastic Compliance Matrix: (Units=1/GPa)
#
#
# Indices 1 2 3 4 5 6 
#
# 1 0.007912 -0.003885 -0.001780 0.000000 0.000000 0.000000
# 2 -0.003885 0.011750 -0.003977 0.000000 0.000000 0.000000
# 3 -0.001780 -0.003977 0.011729 0.000000 0.000000 0.000000
# 4 0.000000 0.000000 0.000000 0.112749 0.000000 0.000000
# 5 0.000000 0.000000 0.000000 0.000000 0.094560 0.000000
# 6 0.000000 0.000000 0.000000 0.000000 0.000000 0.023372
#
#
# Mechanical properties :
#
#
# Convention : Reuss Voigt Hill
#
# Bulk Modulus (GPa) = 82.60576 86.90028 84.75302
# Shear Modulus (GPa) = 17.51973 27.97357 22.74665
#
# Velocity S-wave (km/s) = 2.83115 3.57745 3.22595
# Velocity P-wave (km/s) = 6.96276 7.53802 7.25609
#
# Compressibility (1/GPa) = 0.01210569
#
# Stress axis : x y z
#
# Youngs Moduli (GPa) = 126.38355 85.10811 85.26004
#
# Poissons Ratio (x) = 0.33067 0.15175
# Poissons Ratio (y) = 0.49104 0.33912
# Poissons Ratio (z) = 0.22495 0.33851
#
# Static dielectric constant tensor:
#      x y z
#    x 5.933450 0.000000 0.000000 
#    y 0.000000 4.097970 0.000000 
#    z 0.000000 0.000000 4.121180 
# 
# 
# High freq. dielectric constant tensor:
#      x y z
#    x 1.872260 0.000000 0.000000 
#    y 0.000000 1.850610 0.000000 
#    z 0.000000 0.000000 1.871790 
# 
# From -- ./inp_files/30576.got.cif
#   From: 2010.03.12/outbox.cif.g09.slc.cpg/sg50_16_cif.got.tgz:30576.got - 2010.04.16 13:23:21.
