data_PCOD8205331
_publ_section_title
;
Structure prediction by ZEFSAII (Michael W. Deem and Ramdas Pophale) SiO2 
 PCOD8205331
Probable space group: P B A N
;
_chemical_formula_sum "Si O2"
_cell_formula_units_Z 56
_cell_length_a 14.266815
_cell_length_b 9.788417
_cell_length_c 20.045831
_cell_angle_alpha 90.000000
_cell_angle_beta 90.000000
_cell_angle_gamma 90.000000
_cell_volume 2799.390967
_symmetry_space_group_name_H-M "P B A N"
_symmetry_group_IT_number 50
_space_group.IT_coordinate_system_code '2'
_symmetry_cell_setting 'orthorhombic'
loop_
_space_group_symop_operation_xyz
x,y,z
1/2-x,1/2-y,z
x,1/2-y,-z
1/2-x,y,-z
-x,-y,-z
1/2+x,1/2+y,-z
-x,1/2+y,z
1/2+x,-y,z
loop_
_atom_site_type_symbol
_atom_site_label
_atom_site_fract_x
_atom_site_fract_y
_atom_site_fract_z
Si Si1 0.750239 0.907424 0.606493
Si Si2 0.392732 0.023077 0.842314
Si Si3 0.896278 0.229191 0.928224
Si Si4 0.408041 0.093590 0.498526
Si Si5 0.391899 0.967654 0.158884
Si Si6 0.612828 0.767335 0.925896
Si Si7 0.753622 0.413958 0.263607
O O1 0.750000 0.750000 0.632070
O O2 0.653468 0.935882 0.567360
O O3 0.841312 0.934627 0.561414
O O4 0.757942 0.016979 0.664792
O O5 0.500068 0.042388 0.820506
O O6 0.344908 0.161762 0.870765
O O7 0.384385 0.925086 0.906033
O O8 0.344365 0.960326 0.777726
O O9 0.849707 0.330413 0.874618
O O10 0.004540 0.274089 0.932691
O O11 0.848193 0.250000 0.000000
O O12 0.442449 0.250000 0.500000
O O13 0.500000 0.000000 0.500000
O O14 0.336252 0.981257 0.227619
O O15 0.371490 0.083643 0.104147
O O16 0.658721 0.750000 0.000000
O O17 0.750000 0.250000 0.271183
#
# Coordination Sequence:
#
# PCOD8205331 Si02
#       7
#     8   8   8   8   8   8   8
#     4   9  22  42  64  91 129 167 195 235 286 339
#     4  10  21  37  56  82 115 151 198 253 308 362
#     4   9  16  33  57  79 108 149 193 251 318 365
#     4   9  19  41  70 102 130 157 197 237 282 336
#     4  10  21  37  56  82 115 151 198 253 308 362
#     4   9  18  33  57  81 106 147 199 253 314 375
#     4  12  25  41  58  85 123 163 204 241 289 353
#
# _framework density 20.004351
#
# number of rings (size 3 to 8) (size 9 to 14) (size 15 to 20)
#    0.000    2.286    1.429    1.714    2.000    5.714 
#    0.000    8.571    0.000    0.000    0.000    0.000 
#    0.000    0.000    0.000    0.000    0.000    0.000 
#
# Total GULP energy -694146.077662 kJ/mol
# GULP energy per Si atom -12395.465673 kJ/mol
# Density = 1.995882 g / cm^3
# Si number density = 20.004351 Si / 1000 Ang^3
#
#
#
# Elastic Constant Matrix: (Units=GPa)
#
#
# Indices 1 2 3 4 5 6 
#
# 1 101.4284 43.2939 41.4980 0.0000 0.0000 0.0000
# 2 43.2939 115.2284 55.9698 0.0000 0.0000 0.0000
# 3 41.4980 55.9698 127.2740 0.0000 0.0000 0.0000
# 4 0.0000 0.0000 0.0000 39.0521 0.0000 0.0000
# 5 0.0000 0.0000 0.0000 0.0000 21.1447 0.0000
# 6 0.0000 0.0000 0.0000 0.0000 0.0000 26.9770
#
#
#
# Elastic Compliance Matrix: (Units=1/GPa)
#
#
# Indices 1 2 3 4 5 6 
#
# 1 0.012349 -0.003413 -0.002526 0.000000 0.000000 0.000000
# 2 -0.003413 0.011979 -0.004155 0.000000 0.000000 0.000000
# 3 -0.002526 -0.004155 0.010508 0.000000 0.000000 0.000000
# 4 0.000000 0.000000 0.000000 0.025607 0.000000 0.000000
# 5 0.000000 0.000000 0.000000 0.000000 0.047293 0.000000
# 6 0.000000 0.000000 0.000000 0.000000 0.000000 0.037069
#
#
# Mechanical properties :
#
#
# Convention : Reuss Voigt Hill
#
# Bulk Modulus (GPa) = 68.26585 69.49492 68.88039
# Shear Modulus (GPa) = 29.43338 30.97936 30.20637
#
# Velocity S-wave (km/s) = 3.83998 3.93953 3.89007
# Velocity P-wave (km/s) = 7.33895 7.45041 7.39489
#
# Compressibility (1/GPa) = 0.01464861
#
# Stress axis : x y z
#
# Youngs Moduli (GPa) = 80.97582 83.47923 95.16808
#
# Poissons Ratio (x) = 0.28493 0.24035
# Poissons Ratio (y) = 0.27639 0.39542
# Poissons Ratio (z) = 0.20451 0.34686
#
# Static dielectric constant tensor:
#      x y z
#    x 3.570080 0.000000 0.000000 
#    y 0.000000 3.685210 0.000000 
#    z 0.000000 0.000000 3.510460 
# 
# 
# High freq. dielectric constant tensor:
#      x y z
#    x 1.777890 0.000000 0.000000 
#    y 0.000000 1.791370 0.000000 
#    z 0.000000 0.000000 1.768200 
# 
# From -- ./inp_files/30983.got.cif
#   From: 2010.03.12/outbox.cif.g09.slc.cpg/sg50_16_cif.got.tgz:30983.got - 2010.04.16 13:23:21.
