data_PCOD8205794
_publ_section_title
;
Structure prediction by ZEFSAII (Michael W. Deem and Ramdas Pophale) SiO2 
 PCOD8205794
Probable space group: P B A N
;
_chemical_formula_sum "Si O2"
_cell_formula_units_Z 48
_cell_length_a 9.170097
_cell_length_b 17.460491
_cell_length_c 13.357277
_cell_angle_alpha 90.000000
_cell_angle_beta 90.000000
_cell_angle_gamma 90.000000
_cell_volume 2138.692341
_symmetry_space_group_name_H-M "P B A N"
_symmetry_group_IT_number 50
_space_group.IT_coordinate_system_code '2'
_symmetry_cell_setting 'orthorhombic'
loop_
_space_group_symop_operation_xyz
x,y,z
1/2-x,1/2-y,z
x,1/2-y,-z
1/2-x,y,-z
-x,-y,-z
1/2+x,1/2+y,-z
-x,1/2+y,z
1/2+x,-y,z
loop_
_atom_site_type_symbol
_atom_site_label
_atom_site_fract_x
_atom_site_fract_y
_atom_site_fract_z
Si Si1 0.257355 0.335762 0.773296
Si Si2 0.975547 0.666257 0.951214
Si Si3 0.817588 0.411568 0.186031
Si Si4 0.982828 0.568819 0.142930
Si Si5 0.171400 0.916515 0.408204
Si Si6 0.842503 0.926492 0.412130
O O1 0.250000 0.250000 0.733807
O O2 0.334911 0.340072 0.880755
O O3 0.094979 0.370256 0.783482
O O4 0.348363 0.380999 0.691193
O O5 0.124420 0.655137 0.887364
O O6 0.982412 0.750000 0.000000
O O7 0.958596 0.596829 0.029485
O O8 0.918642 0.485448 0.166032
O O9 0.653297 0.434108 0.163549
O O10 0.829288 0.377291 0.299064
O O11 0.250000 0.869334 0.500000
O O12 0.009371 0.936535 0.445483
O O13 0.265339 0.993067 0.392930
O O14 0.750000 0.883443 0.500000
#
# Coordination Sequence:
#
# PCOD8205794 Si02
#       6
#     8   8   8   8   8   8
#     4  12  25  46  70  99 134 187 237 291 352 430
#     4  12  26  48  68 100 144 188 237 289 357 425
#     4  12  25  45  71 107 138 187 237 297 352 425
#     4  12  26  43  70 100 144 183 239 289 353 420
#     4  11  22  40  69 104 138 174 226 293 359 416
#     4  11  23  41  71 101 138 178 232 291 354 423
#
# _framework density 22.443621
#
# number of rings (size 3 to 8) (size 9 to 14) (size 15 to 20)
#    0.000    0.333    5.000    5.500    2.333    3.000 
#    0.000    0.000    0.000    0.000    0.000    0.000 
#    0.000    0.000    0.000    0.000    0.000    0.000 
#
# Total GULP energy -595086.240239 kJ/mol
# GULP energy per Si atom -12397.630005 kJ/mol
# Density = 2.239254 g / cm^3
# Si number density = 22.443621 Si / 1000 Ang^3
#
#
#
# Elastic Constant Matrix: (Units=GPa)
#
#
# Indices 1 2 3 4 5 6 
#
# 1 152.4027 6.2254 10.7009 0.0000 0.0000 0.0000
# 2 6.2254 36.6951 17.0827 0.0000 0.0000 0.0000
# 3 10.7009 17.0827 132.9394 0.0000 0.0000 0.0000
# 4 0.0000 0.0000 0.0000 27.1303 0.0000 0.0000
# 5 0.0000 0.0000 0.0000 0.0000 38.1252 0.0000
# 6 0.0000 0.0000 0.0000 0.0000 0.0000 20.0420
#
#
#
# Elastic Compliance Matrix: (Units=1/GPa)
#
#
# Indices 1 2 3 4 5 6 
#
# 1 0.006629 -0.000932 -0.000414 0.000000 0.000000 0.000000
# 2 -0.000932 0.029117 -0.003666 0.000000 0.000000 0.000000
# 3 -0.000414 -0.003666 0.008027 0.000000 0.000000 0.000000
# 4 0.000000 0.000000 0.000000 0.036859 0.000000 0.000000
# 5 0.000000 0.000000 0.000000 0.000000 0.026229 0.000000
# 6 0.000000 0.000000 0.000000 0.000000 0.000000 0.049895
#
#
# Mechanical properties :
#
#
# Convention : Reuss Voigt Hill
#
# Bulk Modulus (GPa) = 29.63185 43.33948 36.48567
# Shear Modulus (GPa) = 28.08528 36.26139 32.17333
#
# Velocity S-wave (km/s) = 3.54131 4.02389 3.79029
# Velocity P-wave (km/s) = 5.47290 6.39854 5.95373
#
# Compressibility (1/GPa) = 0.03374747
#
# Stress axis : x y z
#
# Youngs Moduli (GPa) = 150.85946 34.34478 124.58464
#
# Poissons Ratio (x) = 0.03201 0.05156
# Poissons Ratio (y) = 0.14059 0.45678
# Poissons Ratio (z) = 0.06243 0.12592
#
# Static dielectric constant tensor:
#      x y z
#    x 4.299660 0.000000 0.000000 
#    y 0.000000 3.790330 0.000000 
#    z 0.000000 0.000000 4.909750 
# 
# 
# High freq. dielectric constant tensor:
#      x y z
#    x 1.906340 0.000000 0.000000 
#    y 0.000000 1.844910 0.000000 
#    z 0.000000 0.000000 1.906740 
# 
# From -- ./inp_files/25001.got.cif
#   From: 2010.03.12/outbox.cif.g09.slc.cpg/sg50_13_cif.got.tgz:25001.got - 2010.04.16 13:23:21.
