data_PCOD8205650
_publ_section_title
;
Structure prediction by ZEFSAII (Michael W. Deem and Ramdas Pophale) SiO2 
 PCOD8205650
Probable space group: P B A N
;
_chemical_formula_sum "Si O2"
_cell_formula_units_Z 58
_cell_length_a 12.070306
_cell_length_b 26.149480
_cell_length_c 8.101659
_cell_angle_alpha 90.000000
_cell_angle_beta 90.000000
_cell_angle_gamma 90.000000
_cell_volume 2557.144659
_symmetry_space_group_name_H-M "P B A N"
_symmetry_group_IT_number 50
_space_group.IT_coordinate_system_code '2'
_symmetry_cell_setting 'orthorhombic'
loop_
_space_group_symop_operation_xyz
x,y,z
1/2-x,1/2-y,z
x,1/2-y,-z
1/2-x,y,-z
-x,-y,-z
1/2+x,1/2+y,-z
-x,1/2+y,z
1/2+x,-y,z
loop_
_atom_site_type_symbol
_atom_site_label
_atom_site_fract_x
_atom_site_fract_y
_atom_site_fract_z
Si Si1 0.906669 0.956734 0.340851
Si Si2 0.854959 0.724413 0.822118
Si Si3 0.250000 0.750000 0.500000
Si Si4 0.752836 0.616853 0.182293
Si Si5 0.558198 0.187352 0.331610
Si Si6 0.032817 0.116050 0.390353
Si Si7 0.606786 0.412252 0.847393
Si Si8 0.655700 0.066553 0.775358
O O1 0.796358 0.924667 0.304690
O O2 0.940361 0.939381 0.525953
O O3 0.004040 0.945059 0.212847
O O4 0.879151 0.015704 0.321159
O O5 0.750000 0.750000 0.726272
O O6 0.829172 0.664592 0.836166
O O7 0.973122 0.731344 0.731481
O O8 0.865072 0.750000 0.000000
O O9 0.328475 0.786004 0.611124
O O10 0.873379 0.631839 0.256267
O O11 0.750000 0.591604 0.000000
O O12 0.486002 0.159175 0.472511
O O13 0.585187 0.148344 0.180980
O O14 0.915449 0.112702 0.299244
O O15 0.715193 0.424942 0.738250
O O16 0.629494 0.431267 0.031189
#
# Coordination Sequence:
#
# PCOD8205650 Si02
#       8
#     8   8   2   8   8   8   8   8
#     4  11  24  42  65 103 141 182 234 280 341 419
#     4  11  24  45  72 105 134 175 232 297 364 433
#     4  12  28  48  72 108 132 192 246 314 344 440
#     4  12  24  43  71 101 143 177 225 291 356 416
#     4  11  26  51  71 100 144 182 242 292 367 419
#     4  11  25  44  71 100 143 190 217 291 352 422
#     4  10  23  46  66  97 143 184 230 295 339 412
#     4  11  24  40  71 102 135 191 238 275 338 412
#
# _framework density 22.681546999999998
#
# number of rings (size 3 to 8) (size 9 to 14) (size 15 to 20)
#    0.000    0.966    4.138    2.897    5.793    1.655 
#    9.931    0.000    0.000    0.000    0.000    0.000 
#    0.000    0.000    0.000    0.000    0.000    0.000 
#
# Total GULP energy -718943.884748 kJ/mol
# GULP energy per Si atom -12395.584220 kJ/mol
# Density = 2.262992 g / cm^3
# Si number density = 22.681547 Si / 1000 Ang^3
#
#
#
# Elastic Constant Matrix: (Units=GPa)
#
#
# Indices 1 2 3 4 5 6 
#
# 1 145.6361 36.9338 26.0240 0.0000 0.0000 0.0000
# 2 36.9338 72.2564 20.8349 0.0000 0.0000 0.0000
# 3 26.0240 20.8349 69.0687 0.0000 0.0000 0.0000
# 4 0.0000 0.0000 0.0000 43.4806 0.0000 0.0000
# 5 0.0000 0.0000 0.0000 0.0000 39.7360 0.0000
# 6 0.0000 0.0000 0.0000 0.0000 0.0000 44.1381
#
#
#
# Elastic Compliance Matrix: (Units=1/GPa)
#
#
# Indices 1 2 3 4 5 6 
#
# 1 0.008129 -0.003584 -0.001982 0.000000 0.000000 0.000000
# 2 -0.003584 0.016738 -0.003699 0.000000 0.000000 0.000000
# 3 -0.001982 -0.003699 0.016341 0.000000 0.000000 0.000000
# 4 0.000000 0.000000 0.000000 0.022999 0.000000 0.000000
# 5 0.000000 0.000000 0.000000 0.000000 0.025166 0.000000
# 6 0.000000 0.000000 0.000000 0.000000 0.000000 0.022656
#
#
# Mechanical properties :
#
#
# Convention : Reuss Voigt Hill
#
# Bulk Modulus (GPa) = 44.09334 50.50517 47.29925
# Shear Modulus (GPa) = 36.20086 39.01551 37.60819
#
# Velocity S-wave (km/s) = 3.99939 4.15196 4.07639
# Velocity P-wave (km/s) = 6.38821 6.73056 6.56162
#
# Compressibility (1/GPa) = 0.02267916
#
# Stress axis : x y z
#
# Youngs Moduli (GPa) = 123.00917 59.74419 61.19632
#
# Poissons Ratio (x) = 0.21412 0.12129
# Poissons Ratio (y) = 0.44085 0.22635
# Poissons Ratio (z) = 0.24380 0.22098
#
# Static dielectric constant tensor:
#      x y z
#    x 4.526400 0.000000 0.000000 
#    y 0.000000 4.086550 0.000000 
#    z 0.000000 0.000000 4.079360 
# 
# 
# High freq. dielectric constant tensor:
#      x y z
#    x 1.919840 0.000000 0.000000 
#    y 0.000000 1.881720 0.000000 
#    z 0.000000 0.000000 1.888540 
# 
# From -- ./inp_files/11779.got.cif
#   From: 2010.03.12/outbox.cif.g09.slc.cpg/sg50_6_cif.got.tgz:11779.got - 2010.04.16 13:23:21.
