data_PCOD8205591
_publ_section_title
;
Structure prediction by ZEFSAII (Michael W. Deem and Ramdas Pophale) SiO2 
 PCOD8205591
Probable space group: P B A N
;
_chemical_formula_sum "Si O2"
_cell_formula_units_Z 30
_cell_length_a 5.206453
_cell_length_b 13.107210
_cell_length_c 19.337679
_cell_angle_alpha 90.000000
_cell_angle_beta 90.000000
_cell_angle_gamma 90.000000
_cell_volume 1319.643299
_symmetry_space_group_name_H-M "P B A N"
_symmetry_group_IT_number 50
_space_group.IT_coordinate_system_code '2'
_symmetry_cell_setting 'orthorhombic'
loop_
_space_group_symop_operation_xyz
x,y,z
1/2-x,1/2-y,z
x,1/2-y,-z
1/2-x,y,-z
-x,-y,-z
1/2+x,1/2+y,-z
-x,1/2+y,z
1/2+x,-y,z
loop_
_atom_site_type_symbol
_atom_site_label
_atom_site_fract_x
_atom_site_fract_y
_atom_site_fract_z
Si Si1 0.005965 0.193555 0.304119
Si Si2 0.250000 0.250000 0.500000
Si Si3 0.574201 0.562913 0.578733
Si Si4 0.763957 0.938944 0.080381
Si Si5 0.750000 0.750000 0.828931
O O1 0.250000 0.250000 0.338066
O O2 0.022467 0.080369 0.338193
O O3 0.030729 0.198305 0.220233
O O4 0.750000 0.250000 0.328082
O O5 0.437673 0.324287 0.455226
O O6 0.347178 0.486589 0.556286
O O7 0.852782 0.839455 0.122337
O O8 0.479574 0.977667 0.099763
O O9 0.750000 0.910222 0.000000
#
# Coordination Sequence:
#
# PCOD8205591 Si02
#       5
#     8   2   8   8   4
#     4  10  23  44  64  94 132 171 214 272 325 383
#     4  12  26  50  72 106 140 170 226 286 300 418
#     4  12  27  46  72 102 134 180 217 267 339 389
#     4  10  23  40  61  93 130 169 218 273 329 393
#     4  10  24  40  68  94 126 178 214 276 326 386
#
# _framework density 22.733414
#
# number of rings (size 3 to 8) (size 9 to 14) (size 15 to 20)
#    0.800    0.533    1.333    2.800    3.733    3.200 
#    0.000    4.000    0.000    0.000    0.000    0.000 
#    0.000    0.000    0.000    0.000    0.000    0.000 
#
# Total GULP energy -371660.546154 kJ/mol
# GULP energy per Si atom -12388.684872 kJ/mol
# Density = 2.268167 g / cm^3
# Si number density = 22.733414 Si / 1000 Ang^3
#
#
#
# Elastic Constant Matrix: (Units=GPa)
#
#
# Indices 1 2 3 4 5 6 
#
# 1 159.4820 46.3207 34.5197 0.0000 0.0000 0.0000
# 2 46.3207 132.3182 71.5985 0.0000 0.0000 0.0000
# 3 34.5197 71.5985 96.7223 0.0000 0.0000 0.0000
# 4 0.0000 0.0000 0.0000 19.9760 0.0000 0.0000
# 5 0.0000 0.0000 0.0000 0.0000 -213.2383 0.0000
# 6 0.0000 0.0000 0.0000 0.0000 0.0000 29.6326
#
#
#
# Elastic Compliance Matrix: (Units=1/GPa)
#
#
# Indices 1 2 3 4 5 6 
#
# 1 0.007056 -0.001847 -0.001151 0.000000 0.000000 0.000000
# 2 -0.001847 0.013091 -0.009031 0.000000 0.000000 0.000000
# 3 -0.001151 -0.009031 0.017435 0.000000 0.000000 0.000000
# 4 0.000000 0.000000 0.000000 0.050060 0.000000 0.000000
# 5 0.000000 0.000000 0.000000 0.000000 -0.004690 0.000000
# 6 0.000000 0.000000 0.000000 0.000000 0.000000 0.033747
#
#
# Mechanical properties :
#
#
# Convention : Reuss Voigt Hill
#
# Bulk Modulus (GPa) = 73.94720 77.04448 75.49584
# Shear Modulus (GPa) = 34.41955 -16.98705 8.71625
#
# Velocity S-wave (km/s) = 3.89530 -2.73651 1.96021
# Velocity P-wave (km/s) = 7.26841 4.89687 6.19714
#
# Compressibility (1/GPa) = 0.01352316
#
# Stress axis : x y z
#
# Youngs Moduli (GPa) = 141.72458 76.38682 57.35572
#
# Poissons Ratio (x) = 0.14112 0.06600
# Poissons Ratio (y) = 0.26183 0.51800
# Poissons Ratio (z) = 0.16308 0.68988
#
# Static dielectric constant tensor:
#      x y z
#    x 3.835640 0.000000 0.000000 
#    y 0.000000 3.918540 0.000000 
#    z 0.000000 0.000000 4.212090 
# 
# 
# High freq. dielectric constant tensor:
#      x y z
#    x 1.889230 0.000000 0.000000 
#    y 0.000000 1.882680 0.000000 
#    z 0.000000 0.000000 1.914100 
# 
# From -- ./inp_files/30171.got.cif
#   From: 2010.03.12/outbox.cif.g09.slc.cpg/sg50_16_cif.got.tgz:30171.got - 2010.04.16 13:23:21.
