data_PCOD8205049
_publ_section_title
;
Structure prediction by ZEFSAII (Michael W. Deem and Ramdas Pophale) SiO2 
 PCOD8205049
Probable space group: P B A N
;
_chemical_formula_sum "Si O2"
_cell_formula_units_Z 56
_cell_length_a 13.084262
_cell_length_b 12.971092
_cell_length_c 18.281282
_cell_angle_alpha 90.000000
_cell_angle_beta 90.000000
_cell_angle_gamma 90.000000
_cell_volume 3102.647375
_symmetry_space_group_name_H-M "P B A N"
_symmetry_group_IT_number 50
_space_group.IT_coordinate_system_code '2'
_symmetry_cell_setting 'orthorhombic'
loop_
_space_group_symop_operation_xyz
x,y,z
1/2-x,1/2-y,z
x,1/2-y,-z
1/2-x,y,-z
-x,-y,-z
1/2+x,1/2+y,-z
-x,1/2+y,z
1/2+x,-y,z
loop_
_atom_site_type_symbol
_atom_site_label
_atom_site_fract_x
_atom_site_fract_y
_atom_site_fract_z
Si Si1 0.681354 0.033257 0.719362
Si Si2 0.735415 0.869349 0.919955
Si Si3 0.997081 0.189006 0.273299
Si Si4 0.370227 0.473240 0.198036
Si Si5 0.945906 0.614266 0.813523
Si Si6 0.745853 0.923038 0.580405
Si Si7 0.086677 0.238900 0.419224
O O1 0.614607 0.136351 0.729890
O O2 0.784228 0.046401 0.766371
O O3 0.619558 0.932327 0.746324
O O4 0.716565 0.014245 0.635972
O O5 0.750000 0.750000 0.928392
O O6 0.824669 0.910600 0.868870
O O7 0.622998 0.886536 0.886288
O O8 0.750000 0.921783 0.000000
O O9 0.085955 0.104774 0.259515
O O10 0.011028 0.274384 0.210179
O O11 0.004777 0.241537 0.353556
O O12 0.458952 0.543567 0.165577
O O13 0.750000 0.973894 0.500000
O O14 0.855790 0.870100 0.592716
O O15 0.663128 0.833412 0.587081
O O16 0.034508 0.250000 0.500000
#
# Coordination Sequence:
#
# PCOD8205049 Si02
#       7
#     8   8   8   8   8   8   8
#     4  10  20  32  53  81 105 146 190 229 280 328
#     4  10  20  36  61  89 114 140 177 224 268 319
#     4  11  19  33  55  78 111 145 184 237 278 324
#     4  10  21  36  55  82 111 146 185 221 271 332
#     4  10  21  35  56  83 109 147 182 221 277 328
#     4   9  16  29  49  73 102 135 184 238 286 328
#     4   9  17  29  50  75 103 137 182 237 289 329
#
# _framework density 18.049102000000001
#
# number of rings (size 3 to 8) (size 9 to 14) (size 15 to 20)
#    0.000    2.143    4.286    0.857    0.000    1.143 
#    0.000    4.286    0.000    0.000    0.000    1.000 
#    0.000    0.000    0.000    0.000    0.000    0.000 
#
# Total GULP energy -694059.642163 kJ/mol
# GULP energy per Si atom -12393.922181 kJ/mol
# Density = 1.800802 g / cm^3
# Si number density = 18.049102 Si / 1000 Ang^3
#
#
#
# Elastic Constant Matrix: (Units=GPa)
#
#
# Indices 1 2 3 4 5 6 
#
# 1 93.8964 35.9835 54.6858 0.0000 0.0000 0.0000
# 2 35.9835 57.3183 34.8823 0.0000 0.0000 0.0000
# 3 54.6858 34.8823 138.8074 0.0000 0.0000 0.0000
# 4 0.0000 0.0000 0.0000 18.3495 0.0000 0.0000
# 5 0.0000 0.0000 0.0000 0.0000 27.2404 0.0000
# 6 0.0000 0.0000 0.0000 0.0000 0.0000 27.4922
#
#
#
# Elastic Compliance Matrix: (Units=1/GPa)
#
#
# Indices 1 2 3 4 5 6 
#
# 1 0.016087 -0.007369 -0.004486 0.000000 0.000000 0.000000
# 2 -0.007369 0.023972 -0.003121 0.000000 0.000000 0.000000
# 3 -0.004486 -0.003121 0.009756 0.000000 0.000000 0.000000
# 4 0.000000 0.000000 0.000000 0.054497 0.000000 0.000000
# 5 0.000000 0.000000 0.000000 0.000000 0.036710 0.000000
# 6 0.000000 0.000000 0.000000 0.000000 0.000000 0.036374
#
#
# Mechanical properties :
#
#
# Convention : Reuss Voigt Hill
#
# Bulk Modulus (GPa) = 50.34544 60.12504 55.23524
# Shear Modulus (GPa) = 23.36795 25.58110 24.47452
#
# Velocity S-wave (km/s) = 3.60208 3.76880 3.68638
# Velocity P-wave (km/s) = 6.72712 7.23344 6.98487
#
# Compressibility (1/GPa) = 0.01986277
#
# Stress axis : x y z
#
# Youngs Moduli (GPa) = 62.16370 41.71550 102.50318
#
# Poissons Ratio (x) = 0.30740 0.45981
# Poissons Ratio (y) = 0.45808 0.31991
# Poissons Ratio (z) = 0.27885 0.13019
#
# Static dielectric constant tensor:
#      x y z
#    x 2.817290 0.000000 0.000000 
#    y 0.000000 3.070430 0.000000 
#    z 0.000000 0.000000 3.616020 
# 
# 
# High freq. dielectric constant tensor:
#      x y z
#    x 1.687240 0.000000 0.000000 
#    y 0.000000 1.673800 0.000000 
#    z 0.000000 0.000000 1.698970 
# 
# From -- ./inp_files/30857.got.cif
#   From: 2010.03.12/outbox.cif.g09.slc.cpg/sg50_16_cif.got.tgz:30857.got - 2010.04.16 13:23:21.
