data_PCOD8205597
_publ_section_title
;
Structure prediction by ZEFSAII (Michael W. Deem and Ramdas Pophale) SiO2 
 PCOD8205597
Probable space group: P B A N
;
_chemical_formula_sum "Si O2"
_cell_formula_units_Z 26
_cell_length_a 14.450878
_cell_length_b 14.863942
_cell_length_c 5.177703
_cell_angle_alpha 90.000000
_cell_angle_beta 90.000000
_cell_angle_gamma 90.000000
_cell_volume 1112.155136
_symmetry_space_group_name_H-M "P B A N"
_symmetry_group_IT_number 50
_space_group.IT_coordinate_system_code '2'
_symmetry_cell_setting 'orthorhombic'
loop_
_space_group_symop_operation_xyz
x,y,z
1/2-x,1/2-y,z
x,1/2-y,-z
1/2-x,y,-z
-x,-y,-z
1/2+x,1/2+y,-z
-x,1/2+y,z
1/2+x,-y,z
loop_
_atom_site_type_symbol
_atom_site_label
_atom_site_fract_x
_atom_site_fract_y
_atom_site_fract_z
Si Si1 0.250000 0.250000 0.500000
Si Si2 0.910462 0.058659 0.479441
Si Si3 0.169337 0.408618 0.198297
Si Si4 0.472172 0.854282 0.975398
O O1 0.183283 0.311095 0.326209
O O2 0.902481 0.118950 0.739053
O O3 0.828739 0.986171 0.421048
O O4 0.917836 0.123463 0.234667
O O5 0.000000 0.000000 0.500000
O O6 0.070371 0.407329 0.049831
O O7 0.250000 0.431738 0.000000
O O8 0.494691 0.750000 0.000000
#
# Coordination Sequence:
#
# PCOD8205597 Si02
#       4
#     2   8   8   8
#     4  12  26  36  64  98 138 164 200 264 342 404
#     4  10  23  40  64  92 132 172 217 267 322 385
#     4  11  25  39  61  96 138 173 211 266 344 400
#     4  11  23  41  67  95 130 171 226 272 317 386
#
# _framework density 23.378032000000001
#
# number of rings (size 3 to 8) (size 9 to 14) (size 15 to 20)
#    0.000    1.231    0.000    6.923   21.538    0.000 
#    0.000    0.000    0.000    0.923    0.000    0.000 
#    0.000    0.000    0.000    0.000    0.000    0.000 
#
# Total GULP energy -322260.676503 kJ/mol
# GULP energy per Si atom -12394.641404 kJ/mol
# Density = 2.332482 g / cm^3
# Si number density = 23.378032 Si / 1000 Ang^3
#
#
#
# Elastic Constant Matrix: (Units=GPa)
#
#
# Indices 1 2 3 4 5 6 
#
# 1 73.8404 38.3501 35.5040 0.0000 0.0000 0.0000
# 2 38.3501 92.8113 43.2654 0.0000 0.0000 0.0000
# 3 35.5040 43.2654 159.8116 0.0000 0.0000 0.0000
# 4 0.0000 0.0000 0.0000 60.4400 0.0000 0.0000
# 5 0.0000 0.0000 0.0000 0.0000 14.3663 0.0000
# 6 0.0000 0.0000 0.0000 0.0000 0.0000 24.5736
#
#
#
# Elastic Compliance Matrix: (Units=1/GPa)
#
#
# Indices 1 2 3 4 5 6 
#
# 1 0.017931 -0.006354 -0.002263 0.000000 0.000000 0.000000
# 2 -0.006354 0.014582 -0.002536 0.000000 0.000000 0.000000
# 3 -0.002263 -0.002536 0.007447 0.000000 0.000000 0.000000
# 4 0.000000 0.000000 0.000000 0.016545 0.000000 0.000000
# 5 0.000000 0.000000 0.000000 0.000000 0.069607 0.000000
# 6 0.000000 0.000000 0.000000 0.000000 0.000000 0.040694
#
#
# Mechanical properties :
#
#
# Convention : Reuss Voigt Hill
#
# Bulk Modulus (GPa) = 56.64783 62.30026 59.47405
# Shear Modulus (GPa) = 25.64118 33.83223 29.73671
#
# Velocity S-wave (km/s) = 3.31540 3.80831 3.57037
# Velocity P-wave (km/s) = 6.24017 6.78561 6.51860
#
# Compressibility (1/GPa) = 0.01765293
#
# Stress axis : x y z
#
# Youngs Moduli (GPa) = 55.76901 68.57580 134.28539
#
# Poissons Ratio (x) = 0.43574 0.30394
# Poissons Ratio (y) = 0.35436 0.34058
# Poissons Ratio (z) = 0.12623 0.17392
#
# Static dielectric constant tensor:
#      x y z
#    x 3.928300 0.000000 0.000000 
#    y 0.000000 4.296420 0.000000 
#    z 0.000000 0.000000 5.402390 
# 
# 
# High freq. dielectric constant tensor:
#      x y z
#    x 1.892080 0.000000 0.000000 
#    y 0.000000 1.929310 0.000000 
#    z 0.000000 0.000000 1.943570 
# 
# From -- ./inp_files/2764.got.cif
#   From: 2010.03.12/outbox.cif.g09.slc.cpg/sg50_2_cif.got.tgz:2764.got - 2010.04.16 13:23:21.
