data_PCOD8205239
_publ_section_title
;
Structure prediction by ZEFSAII (Michael W. Deem and Ramdas Pophale) SiO2 
 PCOD8205239
Probable space group: P B A N
;
_chemical_formula_sum "Si O2"
_cell_formula_units_Z 52
_cell_length_a 8.086886
_cell_length_b 18.788555
_cell_length_c 15.521424
_cell_angle_alpha 90.000000
_cell_angle_beta 90.000000
_cell_angle_gamma 90.000000
_cell_volume 2358.339169
_symmetry_space_group_name_H-M "P B A N"
_symmetry_group_IT_number 50
_space_group.IT_coordinate_system_code '2'
_symmetry_cell_setting 'orthorhombic'
loop_
_space_group_symop_operation_xyz
x,y,z
1/2-x,1/2-y,z
x,1/2-y,-z
1/2-x,y,-z
-x,-y,-z
1/2+x,1/2+y,-z
-x,1/2+y,z
1/2+x,-y,z
loop_
_atom_site_type_symbol
_atom_site_label
_atom_site_fract_x
_atom_site_fract_y
_atom_site_fract_z
Si Si1 0.078040 0.577807 0.183878
Si Si2 0.320925 0.600356 0.627740
Si Si3 0.920886 0.778907 0.241515
Si Si4 0.587256 0.285367 0.092919
Si Si5 0.674908 0.537081 0.588825
Si Si6 0.250000 0.750000 0.349369
Si Si7 0.202348 0.429809 0.228934
O O1 0.176168 0.606793 0.267815
O O2 0.116569 0.628228 0.100169
O O3 0.125745 0.494887 0.172992
O O4 0.883886 0.584924 0.196042
O O5 0.492739 0.567916 0.594855
O O6 0.173656 0.549709 0.592000
O O7 0.284271 0.679769 0.592572
O O8 0.750000 0.750000 0.286218
O O9 0.914812 0.861992 0.216796
O O10 0.932969 0.734628 0.152666
O O11 0.080174 0.762697 0.298026
O O12 0.750000 0.250000 0.133641
O O13 0.557452 0.250000 0.000000
O O14 0.750000 0.566393 0.500000
O O15 0.794429 0.556582 0.668476
#
# Coordination Sequence:
#
# PCOD8205239 Si02
#       7
#     8   8   8   8   8   4   8
#     4  10  20  40  59 100 123 165 224 266 329 393
#     4  10  21  38  64  98 126 177 222 277 332 406
#     4  12  22  42  67  97 129 177 224 270 330 408
#     4  11  23  41  67  93 131 173 218 269 336 406
#     4  10  21  40  66  94 132 176 225 275 345 405
#     4  12  24  40  68  98 138 168 234 280 332 390
#     4  10  23  36  68  94 125 166 223 277 319 394
#
# _framework density 22.049415
#
# number of rings (size 3 to 8) (size 9 to 14) (size 15 to 20)
#    0.000    1.385    3.846    1.385   10.769    0.308 
#    0.000    1.154    0.000    3.231    0.000    0.000 
#    0.000    0.000    0.000    0.000    0.000    0.000 
#
# Total GULP energy -644276.400770 kJ/mol
# GULP energy per Si atom -12389.930784 kJ/mol
# Density = 2.199923 g / cm^3
# Si number density = 22.049415 Si / 1000 Ang^3
#
#
#
# Elastic Constant Matrix: (Units=GPa)
#
#
# Indices 1 2 3 4 5 6 
#
# 1 113.4439 53.6426 31.7942 0.0000 0.0000 0.0000
# 2 53.6426 200.8850 38.5552 0.0000 0.0000 0.0000
# 3 31.7942 38.5552 73.8115 0.0000 0.0000 0.0000
# 4 0.0000 0.0000 0.0000 -2.7054 0.0000 0.0000
# 5 0.0000 0.0000 0.0000 0.0000 13.5780 0.0000
# 6 0.0000 0.0000 0.0000 0.0000 0.0000 12.3060
#
#
#
# Elastic Compliance Matrix: (Units=1/GPa)
#
#
# Indices 1 2 3 4 5 6 
#
# 1 0.010851 -0.002223 -0.003513 0.000000 0.000000 0.000000
# 2 -0.002223 0.005988 -0.002170 0.000000 0.000000 0.000000
# 3 -0.003513 -0.002170 0.016195 0.000000 0.000000 0.000000
# 4 0.000000 0.000000 0.000000 -0.369631 0.000000 0.000000
# 5 0.000000 0.000000 0.000000 0.000000 0.073649 0.000000
# 6 0.000000 0.000000 0.000000 0.000000 0.000000 0.081261
#
#
# Mechanical properties :
#
#
# Convention : Reuss Voigt Hill
#
# Bulk Modulus (GPa) = 58.06757 70.68049 64.37403
# Shear Modulus (GPa) = -31.22369 22.24560 -4.48904
#
# Velocity S-wave (km/s) = -3.76716 3.17976 -1.42840
# Velocity P-wave (km/s) = 2.73319 6.75324 5.15153
#
# Compressibility (1/GPa) = 0.01722132
#
# Stress axis : x y z
#
# Youngs Moduli (GPa) = 92.16000 166.99528 61.74871
#
# Poissons Ratio (x) = 0.37128 0.21690
# Poissons Ratio (y) = 0.20490 0.13401
# Poissons Ratio (z) = 0.32372 0.36242
#
# Static dielectric constant tensor:
#      x y z
#    x 4.079600 0.000000 0.000000 
#    y 0.000000 4.513350 0.000000 
#    z 0.000000 0.000000 3.620820 
# 
# 
# High freq. dielectric constant tensor:
#      x y z
#    x 1.876870 0.000000 0.000000 
#    y 0.000000 1.886510 0.000000 
#    z 0.000000 0.000000 1.819140 
# 
# From -- ./inp_files/28855.got.cif
#   From: 2010.03.12/outbox.cif.g09.slc.cpg/sg50_15_cif.got.tgz:28855.got - 2010.04.16 13:23:21.
