data_PCOD8205907
_publ_section_title
;
Structure prediction by ZEFSAII (Michael W. Deem and Ramdas Pophale) SiO2 
 PCOD8205907
Probable space group: P B A N
;
_chemical_formula_sum "Si O2"
_cell_formula_units_Z 20
_cell_length_a 6.542179
_cell_length_b 13.289740
_cell_length_c 9.766625
_cell_angle_alpha 90.000000
_cell_angle_beta 90.000000
_cell_angle_gamma 90.000000
_cell_volume 849.148057
_symmetry_space_group_name_H-M "P B A N"
_symmetry_group_IT_number 50
_space_group.IT_coordinate_system_code '2'
_symmetry_cell_setting 'orthorhombic'
loop_
_space_group_symop_operation_xyz
x,y,z
1/2-x,1/2-y,z
x,1/2-y,-z
1/2-x,y,-z
-x,-y,-z
1/2+x,1/2+y,-z
-x,1/2+y,z
1/2+x,-y,z
loop_
_atom_site_type_symbol
_atom_site_label
_atom_site_fract_x
_atom_site_fract_y
_atom_site_fract_z
Si Si1 0.064874 0.097998 0.084139
Si Si2 0.250000 0.750000 0.500000
Si Si3 0.750000 0.250000 0.000000
Si Si4 0.372802 0.351052 0.373057
O O1 0.129299 0.074136 0.241511
O O2 0.250000 0.147522 0.000000
O O3 0.884726 0.179153 0.097169
O O4 0.000000 0.000000 0.000000
O O5 0.394370 0.677004 0.589778
O O6 0.250000 0.250000 0.333312
O O7 0.250000 0.403495 0.500000
#
# Coordination Sequence:
#
# PCOD8205907 Si02
#       4
#     8   2   2   8
#     4  12  25  45  69 104 143 184 241 289 363 431
#     4   8  16  36  68 104 126 180 238 276 378 402
#     4  12  24  44  76  94 142 188 226 310 358 420
#     4   9  19  38  67  98 135 179 232 295 352 424
#
# _framework density 23.553016
#
# number of rings (size 3 to 8) (size 9 to 14) (size 15 to 20)
#    0.000    2.000    2.000    4.200    0.000    3.200 
#    0.000    2.000    0.000    0.000    0.000    0.000 
#    0.000    0.000    0.000    0.000    0.000    0.000 
#
# Total GULP energy -247861.960674 kJ/mol
# GULP energy per Si atom -12393.098034 kJ/mol
# Density = 2.349941 g / cm^3
# Si number density = 23.553016 Si / 1000 Ang^3
#
#
#
# Elastic Constant Matrix: (Units=GPa)
#
#
# Indices 1 2 3 4 5 6 
#
# 1 168.4379 36.8274 73.6385 0.0000 0.0000 0.0000
# 2 36.8274 82.3134 57.4294 0.0000 0.0000 0.0000
# 3 73.6385 57.4294 253.7094 0.0000 0.0000 0.0000
# 4 0.0000 0.0000 0.0000 12.7860 0.0000 0.0000
# 5 0.0000 0.0000 0.0000 0.0000 26.1188 0.0000
# 6 0.0000 0.0000 0.0000 0.0000 0.0000 22.2929
#
#
#
# Elastic Compliance Matrix: (Units=1/GPa)
#
#
# Indices 1 2 3 4 5 6 
#
# 1 0.007082 -0.002060 -0.001589 0.000000 0.000000 0.000000
# 2 -0.002060 0.015026 -0.002803 0.000000 0.000000 0.000000
# 3 -0.001589 -0.002803 0.005037 0.000000 0.000000 0.000000
# 4 0.000000 0.000000 0.000000 0.078211 0.000000 0.000000
# 5 0.000000 0.000000 0.000000 0.000000 0.038287 0.000000
# 6 0.000000 0.000000 0.000000 0.000000 0.000000 0.044857
#
#
# Mechanical properties :
#
#
# Convention : Reuss Voigt Hill
#
# Bulk Modulus (GPa) = 70.22155 93.36125 81.79140
# Shear Modulus (GPa) = 24.25395 34.67724 29.46560
#
# Velocity S-wave (km/s) = 3.21247 3.84123 3.54083
# Velocity P-wave (km/s) = 6.60598 7.70702 7.17764
#
# Compressibility (1/GPa) = 0.01424064
#
# Stress axis : x y z
#
# Youngs Moduli (GPa) = 141.20176 66.55056 198.51471
#
# Poissons Ratio (x) = 0.13707 0.31550
# Poissons Ratio (y) = 0.29083 0.55653
# Poissons Ratio (z) = 0.22441 0.18657
#
# Static dielectric constant tensor:
#      x y z
#    x 5.209090 0.000000 0.000000 
#    y 0.000000 3.655140 0.000000 
#    z 0.000000 0.000000 4.580310 
# 
# 
# High freq. dielectric constant tensor:
#      x y z
#    x 1.956750 0.000000 0.000000 
#    y 0.000000 1.887070 0.000000 
#    z 0.000000 0.000000 1.939320 
# 
# From -- ./inp_files/17273.got.cif
#   From: 2010.03.12/outbox.cif.g09.slc.cpg/sg50_9_cif.got.tgz:17273.got - 2010.04.16 13:23:21.
