data_PCOD8205858
_publ_section_title
;
Structure prediction by ZEFSAII (Michael W. Deem and Ramdas Pophale) SiO2 
 PCOD8205858
Probable space group: P B A N
;
_chemical_formula_sum "Si O2"
_cell_formula_units_Z 48
_cell_length_a 8.534801
_cell_length_b 14.221821
_cell_length_c 17.863504
_cell_angle_alpha 90.000000
_cell_angle_beta 90.000000
_cell_angle_gamma 90.000000
_cell_volume 2168.279477
_symmetry_space_group_name_H-M "P B A N"
_symmetry_group_IT_number 50
_space_group.IT_coordinate_system_code '2'
_symmetry_cell_setting 'orthorhombic'
loop_
_space_group_symop_operation_xyz
x,y,z
1/2-x,1/2-y,z
x,1/2-y,-z
1/2-x,y,-z
-x,-y,-z
1/2+x,1/2+y,-z
-x,1/2+y,z
1/2+x,-y,z
loop_
_atom_site_type_symbol
_atom_site_label
_atom_site_fract_x
_atom_site_fract_y
_atom_site_fract_z
Si Si1 0.074515 0.228190 0.913210
Si Si2 0.614846 0.451077 0.445171
Si Si3 0.958392 0.437159 0.173767
Si Si4 0.974564 0.688280 0.334539
Si Si5 0.102829 0.628556 0.183527
Si Si6 0.861004 0.612545 0.675499
O O1 0.250000 0.250000 0.884278
O O2 0.041247 0.119219 0.894008
O O3 0.938884 0.285706 0.870855
O O4 0.058192 0.250000 0.000000
O O5 0.750000 0.415462 0.500000
O O6 0.500000 0.500000 0.500000
O O7 0.536779 0.359753 0.409354
O O8 0.660815 0.526555 0.381697
O O9 0.776264 0.411820 0.174507
O O10 0.977726 0.548171 0.161009
O O11 0.045139 0.418806 0.251957
O O12 0.954985 0.797689 0.357394
O O13 0.813402 0.644194 0.303659
O O14 0.095345 0.670476 0.267294
#
# Coordination Sequence:
#
# PCOD8205858 Si02
#       6
#     8   8   8   8   8   8
#     4  11  25  47  73 105 144 184 233 294 354 419
#     4  12  26  46  68  98 139 179 228 291 351 410
#     4  12  25  42  71 104 140 186 236 286 347 422
#     4  11  24  44  71  99 134 184 231 286 347 421
#     4  12  25  42  71 104 140 186 236 286 347 418
#     4  11  24  44  71  97 137 182 233 283 350 420
#
# _framework density 22.137367000000001
#
# number of rings (size 3 to 8) (size 9 to 14) (size 15 to 20)
#    0.000    0.500    5.000    3.500    2.333    2.667 
#    0.000    0.833    0.000    0.000    0.000    0.000 
#    0.000    0.000    0.000    0.000    0.000    0.000 
#
# Total GULP energy -595167.546355 kJ/mol
# GULP energy per Si atom -12399.323882 kJ/mol
# Density = 2.208698 g / cm^3
# Si number density = 22.137367 Si / 1000 Ang^3
#
#
#
# Elastic Constant Matrix: (Units=GPa)
#
#
# Indices 1 2 3 4 5 6 
#
# 1 97.4374 -0.7085 18.9854 0.0000 0.0000 0.0000
# 2 -0.7085 101.3708 24.1846 0.0000 0.0000 0.0000
# 3 18.9854 24.1846 105.6398 0.0000 0.0000 0.0000
# 4 0.0000 0.0000 0.0000 19.9452 0.0000 0.0000
# 5 0.0000 0.0000 0.0000 0.0000 37.3590 0.0000
# 6 0.0000 0.0000 0.0000 0.0000 0.0000 36.9374
#
#
#
# Elastic Compliance Matrix: (Units=1/GPa)
#
#
# Indices 1 2 3 4 5 6 
#
# 1 0.010666 0.000563 -0.002046 0.000000 0.000000 0.000000
# 2 0.000563 0.010464 -0.002497 0.000000 0.000000 0.000000
# 3 -0.002046 -0.002497 0.010405 0.000000 0.000000 0.000000
# 4 0.000000 0.000000 0.000000 0.050137 0.000000 0.000000
# 5 0.000000 0.000000 0.000000 0.000000 0.026767 0.000000
# 6 0.000000 0.000000 0.000000 0.000000 0.000000 0.027073
#
#
# Mechanical properties :
#
#
# Convention : Reuss Voigt Hill
#
# Bulk Modulus (GPa) = 42.41634 43.26343 42.83988
# Shear Modulus (GPa) = 33.04010 36.31406 34.67708
#
# Velocity S-wave (km/s) = 3.86748 4.05458 3.96213
# Velocity P-wave (km/s) = 6.25663 6.44244 6.35021
#
# Compressibility (1/GPa) = 0.02357582
#
# Stress axis : x y z
#
# Youngs Moduli (GPa) = 93.75872 95.56235 96.10428
#
# Poissons Ratio (x) = -0.05376 0.19659
# Poissons Ratio (y) = -0.05275 0.23995
# Poissons Ratio (z) = 0.19179 0.23860
#
# Static dielectric constant tensor:
#      x y z
#    x 4.114100 0.000000 0.000000 
#    y 0.000000 4.065380 0.000000 
#    z 0.000000 0.000000 3.897810 
# 
# 
# High freq. dielectric constant tensor:
#      x y z
#    x 1.885070 0.000000 0.000000 
#    y 0.000000 1.886720 0.000000 
#    z 0.000000 0.000000 1.860280 
# 
# From -- ./inp_files/28699.got.cif
#   From: 2010.03.12/outbox.cif.g09.slc.cpg/sg50_15_cif.got.tgz:28699.got - 2010.04.16 13:23:21.
