data_PCOD8205887
_publ_section_title
;
Structure prediction by ZEFSAII (Michael W. Deem and Ramdas Pophale) SiO2 
 PCOD8205887
Probable space group: P B A N
;
_chemical_formula_sum "Si O2"
_cell_formula_units_Z 40
_cell_length_a 8.968116
_cell_length_b 13.654998
_cell_length_c 14.054659
_cell_angle_alpha 90.000000
_cell_angle_beta 90.000000
_cell_angle_gamma 90.000000
_cell_volume 1721.128004
_symmetry_space_group_name_H-M "P B A N"
_symmetry_group_IT_number 50
_space_group.IT_coordinate_system_code '2'
_symmetry_cell_setting 'orthorhombic'
loop_
_space_group_symop_operation_xyz
x,y,z
1/2-x,1/2-y,z
x,1/2-y,-z
1/2-x,y,-z
-x,-y,-z
1/2+x,1/2+y,-z
-x,1/2+y,z
1/2+x,-y,z
loop_
_atom_site_type_symbol
_atom_site_label
_atom_site_fract_x
_atom_site_fract_y
_atom_site_fract_z
Si Si1 0.094082 0.299407 0.664415
Si Si2 0.392674 0.684968 0.187549
Si Si3 0.240695 0.486214 0.740825
Si Si4 0.104504 0.929727 0.559494
Si Si5 0.328075 0.347308 0.900068
O O1 0.250000 0.250000 0.630593
O O2 0.120934 0.405432 0.710719
O O3 0.003539 0.228959 0.733685
O O4 0.984084 0.327457 0.577187
O O5 0.250000 0.750000 0.164198
O O6 0.344581 0.581735 0.226950
O O7 0.493905 0.675157 0.091394
O O8 0.353216 0.512852 0.656233
O O9 0.324393 0.441451 0.832252
O O10 0.250000 0.901655 0.500000
O O11 0.000000 0.000000 0.500000
O O12 0.250000 0.250000 0.854162
O O13 0.250000 0.370800 0.000000
#
# Coordination Sequence:
#
# PCOD8205887 Si02
#       5
#     8   8   8   8   8
#     4  12  25  48  77 111 153 214 260 319 413 471
#     4  12  25  44  79 117 151 206 257 332 395 476
#     4  12  24  47  82 106 163 203 265 325 401 466
#     4  12  27  47  76 119 159 208 275 335 393 489
#     4  11  25  49  79 111 155 208 260 324 403 490
#
# _framework density 23.240573000000001
#
# number of rings (size 3 to 8) (size 9 to 14) (size 15 to 20)
#    0.000    0.200    8.000    1.200    0.000    0.800 
#    0.000   15.000    0.000    0.000    0.000    0.000 
#    0.000    0.000    0.000    0.000    0.000    0.000 
#
# Total GULP energy -495801.273581 kJ/mol
# GULP energy per Si atom -12395.031840 kJ/mol
# Density = 2.318768 g / cm^3
# Si number density = 23.240573 Si / 1000 Ang^3
#
#
#
# Elastic Constant Matrix: (Units=GPa)
#
#
# Indices 1 2 3 4 5 6 
#
# 1 208.4447 79.0289 93.2831 0.0000 0.0000 0.0000
# 2 79.0289 151.5699 63.7983 0.0000 0.0000 0.0000
# 3 93.2831 63.7983 133.8479 0.0000 0.0000 0.0000
# 4 0.0000 0.0000 0.0000 21.2773 0.0000 0.0000
# 5 0.0000 0.0000 0.0000 0.0000 42.6177 0.0000
# 6 0.0000 0.0000 0.0000 0.0000 0.0000 54.7270
#
#
#
# Elastic Compliance Matrix: (Units=1/GPa)
#
#
# Indices 1 2 3 4 5 6 
#
# 1 0.007487 -0.002136 -0.004200 0.000000 0.000000 0.000000
# 2 -0.002136 0.008863 -0.002736 0.000000 0.000000 0.000000
# 3 -0.004200 -0.002736 0.011702 0.000000 0.000000 0.000000
# 4 0.000000 0.000000 0.000000 0.046998 0.000000 0.000000
# 5 0.000000 0.000000 0.000000 0.000000 0.023464 0.000000
# 6 0.000000 0.000000 0.000000 0.000000 0.000000 0.018273
#
#
# Mechanical properties :
#
#
# Convention : Reuss Voigt Hill
#
# Bulk Modulus (GPa) = 100.92059 107.34260 104.13160
# Shear Modulus (GPa) = 36.17088 40.90785 38.53937
#
# Velocity S-wave (km/s) = 3.94936 4.20001 4.07662
# Velocity P-wave (km/s) = 8.01968 8.35512 8.18912
#
# Compressibility (1/GPa) = 0.00990878
#
# Stress axis : x y z
#
# Youngs Moduli (GPa) = 133.57136 112.83054 85.45471
#
# Poissons Ratio (x) = 0.24099 0.35888
# Poissons Ratio (y) = 0.28529 0.23380
# Poissons Ratio (z) = 0.56095 0.30869
#
# Static dielectric constant tensor:
#      x y z
#    x 5.333460 0.000000 0.000000 
#    y 0.000000 4.481450 0.000000 
#    z 0.000000 0.000000 4.145840 
# 
# 
# High freq. dielectric constant tensor:
#      x y z
#    x 1.946660 0.000000 0.000000 
#    y 0.000000 1.929800 0.000000 
#    z 0.000000 0.000000 1.898630 
# 
# From -- ./inp_files/24634.got.cif
#   From: 2010.03.12/outbox.cif.g09.slc.cpg/sg50_13_cif.got.tgz:24634.got - 2010.04.16 13:23:21.
