data_PCOD8205649
_publ_section_title
;
Structure prediction by ZEFSAII (Michael W. Deem and Ramdas Pophale) SiO2 
 PCOD8205649
Probable space group: P B A N
;
_chemical_formula_sum "Si O2"
_cell_formula_units_Z 56
_cell_length_a 14.459757
_cell_length_b 13.407808
_cell_length_c 13.494198
_cell_angle_alpha 90.000000
_cell_angle_beta 90.000000
_cell_angle_gamma 90.000000
_cell_volume 2616.169360
_symmetry_space_group_name_H-M "P B A N"
_symmetry_group_IT_number 50
_space_group.IT_coordinate_system_code '2'
_symmetry_cell_setting 'orthorhombic'
loop_
_space_group_symop_operation_xyz
x,y,z
1/2-x,1/2-y,z
x,1/2-y,-z
1/2-x,y,-z
-x,-y,-z
1/2+x,1/2+y,-z
-x,1/2+y,z
1/2+x,-y,z
loop_
_atom_site_type_symbol
_atom_site_label
_atom_site_fract_x
_atom_site_fract_y
_atom_site_fract_z
Si Si1 0.363973 0.485202 0.643840
Si Si2 0.823778 0.957302 0.731901
Si Si3 0.419127 0.692366 0.587068
Si Si4 0.039730 0.872466 0.276074
Si Si5 0.117067 0.144157 0.462152
Si Si6 0.025776 0.646833 0.952496
Si Si7 0.646067 0.955471 0.041654
O O1 0.286751 0.460274 0.725009
O O2 0.360599 0.604973 0.636198
O O3 0.460139 0.444439 0.683542
O O4 0.340909 0.439226 0.535770
O O5 0.857453 0.875672 0.652139
O O6 0.853515 0.926582 0.842174
O O7 0.865392 0.066646 0.708554
O O8 0.362151 0.750000 0.500000
O O9 0.455741 0.767347 0.669828
O O10 0.506050 0.642404 0.529577
O O11 0.018801 0.843272 0.164412
O O12 0.156962 0.250000 0.500000
O O13 0.102984 0.564411 0.980428
O O14 0.060488 0.750000 0.000000
O O15 0.922544 0.623410 0.991350
O O16 0.750000 0.949162 0.000000
#
# Coordination Sequence:
#
# PCOD8205649 Si02
#       7
#     8   8   8   8   8   8   8
#     4  12  23  41  65  90 132 173 206 256 323 367
#     4  11  25  40  66  96 126 165 216 262 311 391
#     4  11  22  39  67  88 129 173 209 260 312 381
#     4  11  23  42  63  96 126 164 216 261 321 373
#     4  11  22  41  62  95 126 168 208 259 307 379
#     4  10  24  41  69  96 126 169 216 271 328 388
#     4  10  23  46  66  94 131 167 216 270 330 381
#
# _framework density 21.405342999999998
#
# number of rings (size 3 to 8) (size 9 to 14) (size 15 to 20)
#    0.000    1.143    4.286    2.571    2.000    4.571 
#    0.000    5.000    0.000    0.000    0.000    0.000 
#    0.000    0.000    0.000    0.000    0.000    0.000 
#
# Total GULP energy -694428.995344 kJ/mol
# GULP energy per Si atom -12400.517774 kJ/mol
# Density = 2.135662 g / cm^3
# Si number density = 21.405343 Si / 1000 Ang^3
#
#
#
# Elastic Constant Matrix: (Units=GPa)
#
#
# Indices 1 2 3 4 5 6 
#
# 1 76.0473 12.8607 27.6736 0.0000 0.0000 0.0000
# 2 12.8607 114.9057 56.0021 0.0000 0.0000 0.0000
# 3 27.6736 56.0021 134.2242 0.0000 0.0000 0.0000
# 4 0.0000 0.0000 0.0000 33.9176 0.0000 0.0000
# 5 0.0000 0.0000 0.0000 0.0000 30.4538 0.0000
# 6 0.0000 0.0000 0.0000 0.0000 0.0000 8.5969
#
#
#
# Elastic Compliance Matrix: (Units=1/GPa)
#
#
# Indices 1 2 3 4 5 6 
#
# 1 0.014220 -0.000204 -0.002847 0.000000 0.000000 0.000000
# 2 -0.000204 0.010927 -0.004517 0.000000 0.000000 0.000000
# 3 -0.002847 -0.004517 0.009922 0.000000 0.000000 0.000000
# 4 0.000000 0.000000 0.000000 0.029483 0.000000 0.000000
# 5 0.000000 0.000000 0.000000 0.000000 0.032837 0.000000
# 6 0.000000 0.000000 0.000000 0.000000 0.000000 0.116321
#
#
# Mechanical properties :
#
#
# Convention : Reuss Voigt Hill
#
# Bulk Modulus (GPa) = 50.16721 57.58333 53.87527
# Shear Modulus (GPa) = 21.23233 29.83638 25.53436
#
# Velocity S-wave (km/s) = 3.15289 3.73751 3.45758
# Velocity P-wave (km/s) = 6.06151 6.75168 6.41588
#
# Compressibility (1/GPa) = 0.01993334
#
# Stress axis : x y z
#
# Youngs Moduli (GPa) = 70.32280 91.51544 100.78870
#
# Poissons Ratio (x) = 0.01869 0.28691
# Poissons Ratio (y) = 0.01436 0.45526
# Poissons Ratio (z) = 0.20018 0.41338
#
# Static dielectric constant tensor:
#      x y z
#    x 3.779830 0.000000 0.000000 
#    y 0.000000 3.897020 0.000000 
#    z 0.000000 0.000000 3.994020 
# 
# 
# High freq. dielectric constant tensor:
#      x y z
#    x 1.834400 0.000000 0.000000 
#    y 0.000000 1.839630 0.000000 
#    z 0.000000 0.000000 1.849860 
# 
# From -- ./inp_files/26506.got.cif
#   From: 2010.03.12/outbox.cif.g09.slc.cpg/sg50_14_cif.got.tgz:26506.got - 2010.04.16 13:23:21.
