data_PCOD8205052
_publ_section_title
;
Structure prediction by ZEFSAII (Michael W. Deem and Ramdas Pophale) SiO2 
 PCOD8205052
Probable space group: P B A N
;
_chemical_formula_sum "Si O2"
_cell_formula_units_Z 64
_cell_length_a 7.848365
_cell_length_b 28.310063
_cell_length_c 17.065133
_cell_angle_alpha 90.000000
_cell_angle_beta 90.000000
_cell_angle_gamma 90.000000
_cell_volume 3791.662781
_symmetry_space_group_name_H-M "P B A N"
_symmetry_group_IT_number 50
_space_group.IT_coordinate_system_code '2'
_symmetry_cell_setting 'orthorhombic'
loop_
_space_group_symop_operation_xyz
x,y,z
1/2-x,1/2-y,z
x,1/2-y,-z
1/2-x,y,-z
-x,-y,-z
1/2+x,1/2+y,-z
-x,1/2+y,z
1/2+x,-y,z
loop_
_atom_site_type_symbol
_atom_site_label
_atom_site_fract_x
_atom_site_fract_y
_atom_site_fract_z
Si Si1 0.449932 0.948536 0.089100
Si Si2 0.250000 0.305956 0.412758
Si Si3 0.445265 0.353946 0.154633
Si Si4 0.440801 0.804409 0.305856
Si Si5 0.952784 0.696860 0.000000
Si Si6 0.054735 0.146054 0.845367
Si Si7 0.449932 0.551464 0.089100
Si Si8 0.940801 0.195591 0.694144
O O1 0.539638 0.910312 0.144924
O O2 0.250000 0.940920 0.092653
O O3 0.500000 0.000000 0.121595
O O4 0.518689 0.942922 0.000000
O O5 0.250000 0.250000 0.418787
O O6 0.250000 0.328128 0.500000
O O7 0.420854 0.323247 0.368388
O O8 0.079146 0.323247 0.368388
O O9 0.552009 0.336036 0.228268
O O10 0.250000 0.339210 0.168094
O O11 0.522690 0.329534 0.076886
O O12 0.250000 0.809233 0.341463
O O13 0.480436 0.750000 0.283597
O O14 0.022690 0.670466 0.923114
O O15 0.023195 0.750000 0.000000
O O16 0.750000 0.695423 0.000000
O O17 0.039638 0.089688 0.855076
O O18 0.947991 0.163964 0.771732
#
# Coordination Sequence:
#
# PCOD8205052 Si02
#       8
#     8   8   8   8   8   8   8   8
#     4  10  20  33  48  66  92 126 171 218 262 304
#     4   9  18  34  54  75 101 133 167 204 252 310
#     4  11  19  31  49  68  97 134 171 212 258 298
#     4  10  20  33  50  74 104 137 170 209 254 300
#     4   9  18  28  42  65  92 130 178 213 241 289
#     4  11  19  31  49  68  97 134 171 212 258 298
#     4  10  20  33  48  66  92 126 171 218 262 304
#     4  10  20  33  50  74 104 137 170 209 254 300
#
# _framework density 16.879138000000001
#
# number of rings (size 3 to 8) (size 9 to 14) (size 15 to 20)
#    0.000    2.000    2.500    2.250    0.000    2.500 
#    0.000    2.500    0.000    3.000    0.000    0.000 
#    0.000    1.000    0.500    0.000    0.000    0.000 
#
# Total GULP energy -793726.695003 kJ/mol
# GULP energy per Si atom -12401.979609 kJ/mol
# Density = 1.684072 g / cm^3
# Si number density = 16.879138 Si / 1000 Ang^3
#
#
#
# Elastic Constant Matrix: (Units=GPa)
#
#
# Indices 1 2 3 4 5 6 
#
# 1 87.1032 15.8206 40.4347 0.0000 0.0000 0.0000
# 2 15.8206 89.4451 37.7675 0.0000 0.0000 0.0000
# 3 40.4347 37.7675 108.9684 0.0000 0.0000 0.0000
# 4 0.0000 0.0000 0.0000 8.4560 0.0000 0.0000
# 5 0.0000 0.0000 0.0000 0.0000 14.8912 0.0000
# 6 0.0000 0.0000 0.0000 0.0000 0.0000 20.1373
#
#
#
# Elastic Compliance Matrix: (Units=1/GPa)
#
#
# Indices 1 2 3 4 5 6 
#
# 1 0.013878 -0.000328 -0.005036 0.000000 0.000000 0.000000
# 2 -0.000328 0.013104 -0.004420 0.000000 0.000000 0.000000
# 3 -0.005036 -0.004420 0.012578 0.000000 0.000000 0.000000
# 4 0.000000 0.000000 0.000000 0.118259 0.000000 0.000000
# 5 0.000000 0.000000 0.000000 0.000000 0.067154 0.000000
# 6 0.000000 0.000000 0.000000 0.000000 0.000000 0.049659
#
#
# Mechanical properties :
#
#
# Convention : Reuss Voigt Hill
#
# Bulk Modulus (GPa) = 50.02123 52.61804 51.31964
# Shear Modulus (GPa) = 16.61881 21.46316 19.04098
#
# Velocity S-wave (km/s) = 3.14120 3.56979 3.36233
# Velocity P-wave (km/s) = 6.54641 6.94495 6.74862
#
# Compressibility (1/GPa) = 0.01999151
#
# Stress axis : x y z
#
# Youngs Moduli (GPa) = 72.05644 76.30998 79.50645
#
# Poissons Ratio (x) = 0.02505 0.40039
# Poissons Ratio (y) = 0.02366 0.35142
# Poissons Ratio (z) = 0.36287 0.33730
#
# Static dielectric constant tensor:
#      x y z
#    x 3.160310 0.000000 0.000000 
#    y 0.000000 3.025080 0.000000 
#    z 0.000000 0.000000 3.017250 
# 
# 
# High freq. dielectric constant tensor:
#      x y z
#    x 1.661140 0.000000 0.000000 
#    y 0.000000 1.629030 0.000000 
#    z 0.000000 0.000000 1.615450 
# 
# From -- ./inp_files/29013.got.cif
#   From: 2010.03.12/outbox.cif.g09.slc.cpg/sg50_15_cif.got.tgz:29013.got - 2010.04.16 13:23:21.
