data_PCOD8205942
_publ_section_title
;
Structure prediction by ZEFSAII (Michael W. Deem and Ramdas Pophale) SiO2 
 PCOD8205942
Probable space group: P M M A
;
_chemical_formula_sum "Si O2"
_cell_formula_units_Z 44
_cell_length_a 8.688287
_cell_length_b 28.304401
_cell_length_c 9.278198
_cell_angle_alpha 90.000000
_cell_angle_beta 90.000000
_cell_angle_gamma 90.000000
_cell_volume 2281.664384
_symmetry_space_group_name_H-M "P M M A"
_symmetry_group_IT_number 51
_symmetry_cell_setting 'orthorhombic'
loop_
_space_group_symop_operation_xyz
x,y,z
1/2-x,-y,z
1/2+x,-y,-z
-x,y,-z
-x,-y,-z
1/2+x,y,-z
1/2-x,y,z
x,-y,z
loop_
_atom_site_type_symbol
_atom_site_label
_atom_site_fract_x
_atom_site_fract_y
_atom_site_fract_z
Si Si1 0.069850 0.907509 0.157620
Si Si2 0.931290 0.000000 0.160844
Si Si3 0.429814 0.804068 0.156406
Si Si4 0.929207 0.444842 0.651925
Si Si5 0.066857 0.283486 0.341987
Si Si6 0.432517 0.367859 0.842535
O O1 0.250000 0.917408 0.149589
O O2 0.032547 0.855945 0.225842
O O3 0.990939 0.952005 0.241068
O O4 0.000000 0.905459 0.000000
O O5 0.750000 0.000000 0.157302
O O6 0.000000 0.000000 0.000000
O O7 0.250000 0.798637 0.133570
O O8 0.491776 0.764284 0.264400
O O9 0.500000 0.796293 0.000000
O O10 0.750000 0.431649 0.652240
O O11 0.957430 0.500000 0.677582
O O12 0.000000 0.428385 0.500000
O O13 0.015316 0.418502 0.781420
O O14 0.250000 0.287244 0.346094
O O15 0.000000 0.282688 0.500000
O O16 0.998791 0.328012 0.260496
O O17 0.250000 0.364952 0.849146
O O18 0.500000 0.360196 0.000000
#
# Coordination Sequence:
#
# PCOD8205942 Si02
#       6
#     8   4   8   8   8   8
#     4   9  15  25  40  62  92 128 165 206 255 308
#     4  10  16  22  34  58  91 128 165 204 250 304
#     4   9  19  33  52  76 104 136 174 218 267 320
#     4  10  21  39  63  90 120 155 193 232 275 324
#     4  11  23  40  59  82 110 143 183 226 273 328
#     4  12  25  41  61  86 116 150 187 230 278 328
#
# _framework density 19.284168000000001
#
# number of rings (size 3 to 8) (size 9 to 14) (size 15 to 20)
#    0.000    1.818    0.000    6.273    0.000    5.091 
#    0.000    0.000    0.000    0.000    0.000    0.636 
#    0.000    0.000    0.000    0.000    0.000    0.000 
#
# Total GULP energy -545456.032738 kJ/mol
# GULP energy per Si atom -12396.728017 kJ/mol
# Density = 1.924028 g / cm^3
# Si number density = 19.284168 Si / 1000 Ang^3
#
#
#
# Elastic Constant Matrix: (Units=GPa)
#
#
# Indices 1 2 3 4 5 6 
#
# 1 122.0661 58.2269 44.3640 0.0000 0.0000 0.0000
# 2 58.2269 137.1100 62.0131 0.0000 0.0000 0.0000
# 3 44.3640 62.0131 106.1544 0.0000 0.0000 0.0000
# 4 0.0000 0.0000 0.0000 5.3503 0.0000 0.0000
# 5 0.0000 0.0000 0.0000 0.0000 28.5195 0.0000
# 6 0.0000 0.0000 0.0000 0.0000 0.0000 29.3711
#
#
#
# Elastic Compliance Matrix: (Units=1/GPa)
#
#
# Indices 1 2 3 4 5 6 
#
# 1 0.010732 -0.003437 -0.002477 0.000000 0.000000 0.000000
# 2 -0.003437 0.011013 -0.004997 0.000000 0.000000 0.000000
# 3 -0.002477 -0.004997 0.013375 0.000000 0.000000 0.000000
# 4 0.000000 0.000000 0.000000 0.186906 0.000000 0.000000
# 5 0.000000 0.000000 0.000000 0.000000 0.035064 0.000000
# 6 0.000000 0.000000 0.000000 0.000000 0.000000 0.034047
#
#
# Mechanical properties :
#
#
# Convention : Reuss Voigt Hill
#
# Bulk Modulus (GPa) = 75.20565 77.17094 76.18829
# Shear Modulus (GPa) = 15.75333 26.02994 20.89164
#
# Velocity S-wave (km/s) = 2.86126 3.67796 3.29501
# Velocity P-wave (km/s) = 7.07100 7.62504 7.35324
#
# Compressibility (1/GPa) = 0.01329687
#
# Stress axis : x y z
#
# Youngs Moduli (GPa) = 93.17731 90.79920 74.76751
#
# Poissons Ratio (x) = 0.31210 0.18522
# Poissons Ratio (y) = 0.32028 0.37363
# Poissons Ratio (z) = 0.23082 0.45374
#
# Static dielectric constant tensor:
#      x y z
#    x 3.653420 0.000000 0.000000 
#    y 0.000000 4.678320 0.000000 
#    z 0.000000 0.000000 3.299270 
# 
# 
# High freq. dielectric constant tensor:
#      x y z
#    x 1.765200 0.000000 0.000000 
#    y 0.000000 1.781310 0.000000 
#    z 0.000000 0.000000 1.707430 
# 
# From -- ./inp_files/5803.got.cif
#   From: 2010.03.12/outbox.cif.g09.slc.cpg/sg51_3_cif.got.tgz:5803.got - 2010.04.16 13:43:02.
