data_PCOD8205690
_publ_section_title
;
Structure prediction by ZEFSAII (Michael W. Deem and Ramdas Pophale) SiO2 
 PCOD8205690
Probable space group: P B A N
;
_chemical_formula_sum "Si O2"
_cell_formula_units_Z 56
_cell_length_a 8.568045
_cell_length_b 19.667980
_cell_length_c 14.144685
_cell_angle_alpha 90.000000
_cell_angle_beta 90.000000
_cell_angle_gamma 90.000000
_cell_volume 2383.607685
_symmetry_space_group_name_H-M "P B A N"
_symmetry_group_IT_number 50
_space_group.IT_coordinate_system_code '2'
_symmetry_cell_setting 'orthorhombic'
loop_
_space_group_symop_operation_xyz
x,y,z
1/2-x,1/2-y,z
x,1/2-y,-z
1/2-x,y,-z
-x,-y,-z
1/2+x,1/2+y,-z
-x,1/2+y,z
1/2+x,-y,z
loop_
_atom_site_type_symbol
_atom_site_label
_atom_site_fract_x
_atom_site_fract_y
_atom_site_fract_z
Si Si1 0.859447 0.192608 0.825514
Si Si2 0.314674 0.579797 0.307673
Si Si3 0.382136 0.032481 0.229249
Si Si4 0.582913 0.906763 0.172918
Si Si5 0.430377 0.329476 0.993072
Si Si6 0.493355 0.250000 0.500000
Si Si7 0.409259 0.221161 0.705628
Si Si8 0.250000 0.858454 0.500000
O O1 0.750000 0.250000 0.875804
O O2 0.756964 0.135132 0.770833
O O3 0.951658 0.232599 0.743972
O O4 0.971608 0.151187 0.898748
O O5 0.247509 0.504957 0.292032
O O6 0.504634 0.577811 0.296784
O O7 0.239273 0.595618 0.408019
O O8 0.271350 0.078184 0.159929
O O9 0.487838 0.977148 0.175702
O O10 0.502405 0.867328 0.084961
O O11 0.567483 0.858070 0.265517
O O12 0.455867 0.250000 0.000000
O O13 0.250000 0.348969 0.000000
O O14 0.393543 0.230425 0.592431
O O15 0.598129 0.185139 0.478797
O O16 0.250000 0.250000 0.752668
#
# Coordination Sequence:
#
# PCOD8205690 Si02
#       8
#     8   8   8   8   8   4   8   4
#     4  12  24  43  71 104 142 180 227 294 362 423
#     4  11  23  43  65  97 130 189 233 286 348 416
#     4  10  24  45  68  93 137 190 237 279 343 410
#     4  11  23  45  71  99 140 182 235 287 343 426
#     4  11  23  41  68 105 139 176 226 287 358 421
#     4  11  23  38  62 110 140 176 224 294 384 426
#     4  12  23  41  69 103 143 180 227 301 365 427
#     4  11  22  38  68  94 144 176 233 294 358 422
#
# _framework density 23.493798999999999
#
# number of rings (size 3 to 8) (size 9 to 14) (size 15 to 20)
#    0.000    0.857    2.857    5.357    0.000    0.857 
#    0.000    7.857    0.000    0.000    0.000    0.000 
#    0.000    0.000    0.000    0.000    0.000    0.000 
#
# Total GULP energy -693944.385550 kJ/mol
# GULP energy per Si atom -12391.864028 kJ/mol
# Density = 2.344033 g / cm^3
# Si number density = 23.493799 Si / 1000 Ang^3
#
#
#
# Elastic Constant Matrix: (Units=GPa)
#
#
# Indices 1 2 3 4 5 6 
#
# 1 78.9580 16.6194 30.5341 0.0000 0.0000 0.0000
# 2 16.6194 90.1643 39.2453 0.0000 0.0000 0.0000
# 3 30.5341 39.2453 143.0363 0.0000 0.0000 0.0000
# 4 0.0000 0.0000 0.0000 24.6989 0.0000 0.0000
# 5 0.0000 0.0000 0.0000 0.0000 33.6294 0.0000
# 6 0.0000 0.0000 0.0000 0.0000 0.0000 51.1516
#
#
#
# Elastic Compliance Matrix: (Units=1/GPa)
#
#
# Indices 1 2 3 4 5 6 
#
# 1 0.013970 -0.001450 -0.002584 0.000000 0.000000 0.000000
# 2 -0.001450 0.012746 -0.003187 0.000000 0.000000 0.000000
# 3 -0.002584 -0.003187 0.008417 0.000000 0.000000 0.000000
# 4 0.000000 0.000000 0.000000 0.040488 0.000000 0.000000
# 5 0.000000 0.000000 0.000000 0.000000 0.029736 0.000000
# 6 0.000000 0.000000 0.000000 0.000000 0.000000 0.019550
#
#
# Mechanical properties :
#
#
# Convention : Reuss Voigt Hill
#
# Bulk Modulus (GPa) = 48.33504 53.88404 51.10954
# Shear Modulus (GPa) = 34.18904 36.94664 35.56784
#
# Velocity S-wave (km/s) = 3.81889 3.96992 3.89514
# Velocity P-wave (km/s) = 6.32957 6.63317 6.48315
#
# Compressibility (1/GPa) = 0.02068892
#
# Stress axis : x y z
#
# Youngs Moduli (GPa) = 71.58432 78.45882 118.80088
#
# Poissons Ratio (x) = 0.11377 0.30701
# Poissons Ratio (y) = 0.10380 0.37867
# Poissons Ratio (z) = 0.18499 0.25009
#
# Static dielectric constant tensor:
#      x y z
#    x 4.358890 0.000000 0.000000 
#    y 0.000000 4.280970 0.000000 
#    z 0.000000 0.000000 4.078440 
# 
# 
# High freq. dielectric constant tensor:
#      x y z
#    x 1.945030 0.000000 0.000000 
#    y 0.000000 1.936300 0.000000 
#    z 0.000000 0.000000 1.906210 
# 
# From -- ./inp_files/25314.got.cif
#   From: 2010.03.12/outbox.cif.g09.slc.cpg/sg50_13_cif.got.tgz:25314.got - 2010.04.16 13:23:21.
