data_PCOD8205385
_publ_section_title
;
Structure prediction by ZEFSAII (Michael W. Deem and Ramdas Pophale) SiO2 
 PCOD8205385
Probable space group: P B A N
;
_chemical_formula_sum "Si O2"
_cell_formula_units_Z 64
_cell_length_a 15.134049
_cell_length_b 24.480421
_cell_length_c 8.423786
_cell_angle_alpha 90.000000
_cell_angle_beta 90.000000
_cell_angle_gamma 90.000000
_cell_volume 3120.910709
_symmetry_space_group_name_H-M "P B A N"
_symmetry_group_IT_number 50
_space_group.IT_coordinate_system_code '2'
_symmetry_cell_setting 'orthorhombic'
loop_
_space_group_symop_operation_xyz
x,y,z
1/2-x,1/2-y,z
x,1/2-y,-z
1/2-x,y,-z
-x,-y,-z
1/2+x,1/2+y,-z
-x,1/2+y,z
1/2+x,-y,z
loop_
_atom_site_type_symbol
_atom_site_label
_atom_site_fract_x
_atom_site_fract_y
_atom_site_fract_z
Si Si1 0.099379 0.996744 0.430870
Si Si2 0.346298 0.626224 0.058119
Si Si3 0.648725 0.493585 0.941688
Si Si4 0.347616 0.396121 0.931564
Si Si5 0.992685 0.810688 0.438800
Si Si6 0.013238 0.309499 0.062751
Si Si7 0.157325 0.878575 0.434031
Si Si8 0.841754 0.890405 0.440916
O O1 0.118501 0.998114 0.241985
O O2 0.151890 0.047730 0.499388
O O3 0.137577 0.939648 0.498068
O O4 0.000000 0.000000 0.500000
O O5 0.376916 0.566409 0.992845
O O6 0.417901 0.670036 0.998382
O O7 0.342073 0.621471 0.245832
O O8 0.250000 0.644586 0.000000
O O9 0.750000 0.501496 0.000000
O O10 0.604040 0.545938 0.026291
O O11 0.409897 0.348816 0.003055
O O12 0.343686 0.390928 0.745812
O O13 0.250000 0.388583 0.000000
O O14 0.978477 0.750000 0.500000
O O15 0.988094 0.809920 0.250807
O O16 0.085353 0.835524 0.498651
O O17 0.917869 0.850942 0.508861
O O18 0.033728 0.250000 0.000000
O O19 0.250000 0.857669 0.500000
O O20 0.750000 0.865048 0.500000
#
# Coordination Sequence:
#
# PCOD8205385 Si02
#       8
#     8   8   8   8   8   8   8   8
#     4  11  21  38  62  94 128 160 201 253 310 372
#     4   9  20  39  59  84 117 153 195 242 293 355
#     4   9  19  37  61  88 124 159 199 246 301 372
#     4  10  22  40  59  88 121 155 197 247 298 360
#     4  10  23  42  60  84 120 154 203 256 299 361
#     4  10  23  41  59  82 114 156 199 249 297 350
#     4  10  21  39  60  87 123 156 195 245 302 362
#     4  11  22  39  64  88 123 161 197 250 307 365
#
# _framework density 20.506834000000001
#
# number of rings (size 3 to 8) (size 9 to 14) (size 15 to 20)
#    0.000    2.000    1.250    1.875    1.750    7.500 
#    2.250    5.000    0.000    0.000    0.000    0.000 
#    0.000    0.000    0.000    0.000    0.000    0.000 
#
# Total GULP energy -793031.045543 kJ/mol
# GULP energy per Si atom -12391.110087 kJ/mol
# Density = 2.046016 g / cm^3
# Si number density = 20.506834 Si / 1000 Ang^3
#
#
#
# Elastic Constant Matrix: (Units=GPa)
#
#
# Indices 1 2 3 4 5 6 
#
# 1 113.1450 28.2590 29.0549 0.0000 0.0000 0.0000
# 2 28.2590 112.9261 16.5240 0.0000 0.0000 0.0000
# 3 29.0549 16.5240 42.6627 0.0000 0.0000 0.0000
# 4 0.0000 0.0000 0.0000 37.9203 0.0000 0.0000
# 5 0.0000 0.0000 0.0000 0.0000 35.3160 0.0000
# 6 0.0000 0.0000 0.0000 0.0000 0.0000 26.5821
#
#
#
# Elastic Compliance Matrix: (Units=1/GPa)
#
#
# Indices 1 2 3 4 5 6 
#
# 1 0.011032 -0.001761 -0.006831 0.000000 0.000000 0.000000
# 2 -0.001761 0.009669 -0.002545 0.000000 0.000000 0.000000
# 3 -0.006831 -0.002545 0.029078 0.000000 0.000000 0.000000
# 4 0.000000 0.000000 0.000000 0.026371 0.000000 0.000000
# 5 0.000000 0.000000 0.000000 0.000000 0.028316 0.000000
# 6 0.000000 0.000000 0.000000 0.000000 0.000000 0.037619
#
#
# Mechanical properties :
#
#
# Convention : Reuss Voigt Hill
#
# Bulk Modulus (GPa) = 36.35955 46.26773 41.31364
# Shear Modulus (GPa) = 28.81376 32.95673 30.88525
#
# Velocity S-wave (km/s) = 3.75251 4.01323 3.88505
# Velocity P-wave (km/s) = 6.04517 6.63971 6.34940
#
# Compressibility (1/GPa) = 0.02750309
#
# Stress axis : x y z
#
# Youngs Moduli (GPa) = 90.64282 103.42845 34.39043
#
# Poissons Ratio (x) = 0.18216 0.23493
# Poissons Ratio (y) = 0.15964 0.08754
# Poissons Ratio (z) = 0.61921 0.26326
#
# Static dielectric constant tensor:
#      x y z
#    x 4.119720 0.000000 0.000000 
#    y 0.000000 4.291700 0.000000 
#    z 0.000000 0.000000 3.486650 
# 
# 
# High freq. dielectric constant tensor:
#      x y z
#    x 1.809320 0.000000 0.000000 
#    y 0.000000 1.810440 0.000000 
#    z 0.000000 0.000000 1.787230 
# 
# From -- ./inp_files/13464.got.cif
#   From: 2010.03.12/outbox.cif.g09.slc.cpg/sg50_7_cif.got.tgz:13464.got - 2010.04.16 13:23:21.
