data_PCOD8205152
_publ_section_title
;
Structure prediction by ZEFSAII (Michael W. Deem and Ramdas Pophale) SiO2 
 PCOD8205152
Probable space group: P B A N
;
_chemical_formula_sum "Si O2"
_cell_formula_units_Z 48
_cell_length_a 13.024000
_cell_length_b 12.780953
_cell_length_c 15.580410
_cell_angle_alpha 90.000000
_cell_angle_beta 90.000000
_cell_angle_gamma 90.000000
_cell_volume 2593.501523
_symmetry_space_group_name_H-M "P B A N"
_symmetry_group_IT_number 50
_space_group.IT_coordinate_system_code '2'
_symmetry_cell_setting 'orthorhombic'
loop_
_space_group_symop_operation_xyz
x,y,z
1/2-x,1/2-y,z
x,1/2-y,-z
1/2-x,y,-z
-x,-y,-z
1/2+x,1/2+y,-z
-x,1/2+y,z
1/2+x,-y,z
loop_
_atom_site_type_symbol
_atom_site_label
_atom_site_fract_x
_atom_site_fract_y
_atom_site_fract_z
Si Si1 0.587743 0.250000 0.000000
Si Si2 0.995088 0.188389 0.174881
Si Si3 0.678552 0.966967 0.169023
Si Si4 0.735274 0.370781 0.593538
Si Si5 0.053624 0.616498 0.718589
Si Si6 0.133534 0.976605 0.733560
Si Si7 0.250000 0.929795 0.000000
O O1 0.518775 0.252103 0.914142
O O2 0.652683 0.144905 0.986757
O O3 0.984787 0.268413 0.254381
O O4 0.908246 0.099833 0.190725
O O5 0.107888 0.136161 0.172180
O O6 0.617235 0.069209 0.201464
O O7 0.777371 0.948431 0.229354
O O8 0.723050 0.990957 0.075797
O O9 0.750000 0.250000 0.581371
O O10 0.750000 0.425506 0.500000
O O11 0.622320 0.388142 0.633055
O O12 0.824615 0.409748 0.655250
O O13 0.955844 0.547406 0.695562
#
# Coordination Sequence:
#
# PCOD8205152 Si02
#       7
#     4   8   8   8   8   8   4
#     4  11  22  32  58  81 110 154 197 250 293 334
#     4  11  21  37  56  84 114 152 198 242 290 337
#     4  10  22  35  57  82 113 152 200 243 283 344
#     4  10  20  36  63  92 114 143 189 238 282 345
#     4  10  21  37  59  84 115 154 187 235 291 345
#     4  10  21  38  58  83 118 152 189 233 288 351
#     4  11  20  34  54  81 108 154 201 246 291 338
#
# _framework density 18.507797
#
# number of rings (size 3 to 8) (size 9 to 14) (size 15 to 20)
#    0.000    1.667    5.000    0.000    0.000    3.333 
#    0.000    0.000    0.000    0.000    0.000    1.167 
#    0.000    0.000    0.000    0.000    0.000    0.000 
#
# Total GULP energy -595020.033257 kJ/mol
# GULP energy per Si atom -12396.250693 kJ/mol
# Density = 1.846567 g / cm^3
# Si number density = 18.507797 Si / 1000 Ang^3
#
#
#
# Elastic Constant Matrix: (Units=GPa)
#
#
# Indices 1 2 3 4 5 6 
#
# 1 127.1398 51.3275 64.3543 0.0000 0.0000 0.0000
# 2 51.3275 70.0336 37.6205 0.0000 0.0000 0.0000
# 3 64.3543 37.6205 129.9865 0.0000 0.0000 0.0000
# 4 0.0000 0.0000 0.0000 18.2935 0.0000 0.0000
# 5 0.0000 0.0000 0.0000 0.0000 25.8022 0.0000
# 6 0.0000 0.0000 0.0000 0.0000 0.0000 24.5241
#
#
#
# Elastic Compliance Matrix: (Units=1/GPa)
#
#
# Indices 1 2 3 4 5 6 
#
# 1 0.012954 -0.007162 -0.004340 0.000000 0.000000 0.000000
# 2 -0.007162 0.020868 -0.002494 0.000000 0.000000 0.000000
# 3 -0.004340 -0.002494 0.010564 0.000000 0.000000 0.000000
# 4 0.000000 0.000000 0.000000 0.054664 0.000000 0.000000
# 5 0.000000 0.000000 0.000000 0.000000 0.038756 0.000000
# 6 0.000000 0.000000 0.000000 0.000000 0.000000 0.040776
#
#
# Mechanical properties :
#
#
# Convention : Reuss Voigt Hill
#
# Bulk Modulus (GPa) = 61.00278 70.41827 65.71053
# Shear Modulus (GPa) = 23.58066 25.31446 24.44756
#
# Velocity S-wave (km/s) = 3.57332 3.70235 3.63841
# Velocity P-wave (km/s) = 7.07509 7.51046 7.29603
#
# Compressibility (1/GPa) = 0.01639270
#
# Stress axis : x y z
#
# Youngs Moduli (GPa) = 77.19761 47.92131 94.66467
#
# Poissons Ratio (x) = 0.34323 0.41088
# Poissons Ratio (y) = 0.55291 0.23605
# Poissons Ratio (z) = 0.33506 0.11949
#
# Static dielectric constant tensor:
#      x y z
#    x 3.567550 0.000000 0.000000 
#    y 0.000000 3.201240 0.000000 
#    z 0.000000 0.000000 3.616420 
# 
# 
# High freq. dielectric constant tensor:
#      x y z
#    x 1.722460 0.000000 0.000000 
#    y 0.000000 1.702180 0.000000 
#    z 0.000000 0.000000 1.710310 
# 
# From -- ./inp_files/25895.got.cif
#   From: 2010.03.12/outbox.cif.g09.slc.cpg/sg50_13_cif.got.tgz:25895.got - 2010.04.16 13:23:21.
