data_PCOD8205621
_publ_section_title
;
Structure prediction by ZEFSAII (Michael W. Deem and Ramdas Pophale) SiO2 
 PCOD8205621
Probable space group: P B A N
;
_chemical_formula_sum "Si O2"
_cell_formula_units_Z 48
_cell_length_a 10.750431
_cell_length_b 23.233501
_cell_length_c 8.076995
_cell_angle_alpha 90.000000
_cell_angle_beta 90.000000
_cell_angle_gamma 90.000000
_cell_volume 2017.392248
_symmetry_space_group_name_H-M "P B A N"
_symmetry_group_IT_number 50
_space_group.IT_coordinate_system_code '2'
_symmetry_cell_setting 'orthorhombic'
loop_
_space_group_symop_operation_xyz
x,y,z
1/2-x,1/2-y,z
x,1/2-y,-z
1/2-x,y,-z
-x,-y,-z
1/2+x,1/2+y,-z
-x,1/2+y,z
1/2+x,-y,z
loop_
_atom_site_type_symbol
_atom_site_label
_atom_site_fract_x
_atom_site_fract_y
_atom_site_fract_z
Si Si1 0.066696 0.268030 0.678639
Si Si2 0.524295 0.060230 0.695164
Si Si3 0.054581 0.429783 0.317192
Si Si4 0.294225 0.126058 0.812860
Si Si5 0.845920 0.165124 0.222942
Si Si6 0.073043 0.829442 0.149900
O O1 0.116726 0.250000 0.500000
O O2 0.172655 0.308936 0.756294
O O3 0.935662 0.301580 0.649677
O O4 0.039043 0.212079 0.792310
O O5 0.488746 0.070154 0.505399
O O6 0.413700 0.084674 0.808683
O O7 0.648896 0.097105 0.734802
O O8 0.555001 0.995305 0.746213
O O9 0.190796 0.401597 0.306846
O O10 0.959815 0.394412 0.201434
O O11 0.250000 0.128519 0.000000
O O12 0.705016 0.187474 0.234130
O O13 0.909815 0.176975 0.045143
#
# Coordination Sequence:
#
# PCOD8205621 Si02
#       6
#     8   8   8   8   8   8
#     4  11  24  44  69  98 136 179 228 282 335 407
#     4  10  24  44  67  99 134 178 230 280 339 403
#     4  11  24  43  68  97 138 178 225 282 339 408
#     4  11  25  46  70 101 139 179 230 283 343 412
#     4  10  23  42  66 101 134 176 233 279 339 396
#     4  11  23  41  67  99 137 181 222 285 337 399
#
# _framework density 23.793092000000001
#
# number of rings (size 3 to 8) (size 9 to 14) (size 15 to 20)
#    0.000    1.333    0.000    5.500    2.333    8.000 
#    0.000    6.667    0.000    0.000    0.000    0.000 
#    0.000    0.000    0.000    0.000    0.000    0.000 
#
# Total GULP energy -595282.163397 kJ/mol
# GULP energy per Si atom -12401.711737 kJ/mol
# Density = 2.373894 g / cm^3
# Si number density = 23.793092 Si / 1000 Ang^3
#
#
#
# Elastic Constant Matrix: (Units=GPa)
#
#
# Indices 1 2 3 4 5 6 
#
# 1 87.4305 26.0218 32.8874 0.0000 0.0000 0.0000
# 2 26.0218 154.0807 45.8872 0.0000 0.0000 0.0000
# 3 32.8874 45.8872 78.9230 0.0000 0.0000 0.0000
# 4 0.0000 0.0000 0.0000 34.7210 0.0000 0.0000
# 5 0.0000 0.0000 0.0000 0.0000 34.2354 0.0000
# 6 0.0000 0.0000 0.0000 0.0000 0.0000 36.0882
#
#
#
# Elastic Compliance Matrix: (Units=1/GPa)
#
#
# Indices 1 2 3 4 5 6 
#
# 1 0.013633 -0.000738 -0.005252 0.000000 0.000000 0.000000
# 2 -0.000738 0.007889 -0.004279 0.000000 0.000000 0.000000
# 3 -0.005252 -0.004279 0.017347 0.000000 0.000000 0.000000
# 4 0.000000 0.000000 0.000000 0.028801 0.000000 0.000000
# 5 0.000000 0.000000 0.000000 0.000000 0.029210 0.000000
# 6 0.000000 0.000000 0.000000 0.000000 0.000000 0.027710
#
#
# Mechanical properties :
#
#
# Convention : Reuss Voigt Hill
#
# Bulk Modulus (GPa) = 54.55343 58.89190 56.72267
# Shear Modulus (GPa) = 33.06049 35.38477 34.22263
#
# Velocity S-wave (km/s) = 3.73164 3.86059 3.79666
# Velocity P-wave (km/s) = 6.44553 6.68413 6.56592
#
# Compressibility (1/GPa) = 0.01833065
#
# Stress axis : x y z
#
# Youngs Moduli (GPa) = 73.35243 126.75514 57.64708
#
# Poissons Ratio (x) = 0.09360 0.30273
# Poissons Ratio (y) = 0.05416 0.24669
# Poissons Ratio (z) = 0.38521 0.54242
#
# Static dielectric constant tensor:
#      x y z
#    x 4.421270 0.000000 0.000000 
#    y 0.000000 4.633560 0.000000 
#    z 0.000000 0.000000 4.094610 
# 
# 
# High freq. dielectric constant tensor:
#      x y z
#    x 1.947890 0.000000 0.000000 
#    y 0.000000 1.956760 0.000000 
#    z 0.000000 0.000000 1.940350 
# 
# From -- ./inp_files/11518.got.cif
#   From: 2010.03.12/outbox.cif.g09.slc.cpg/sg50_6_cif.got.tgz:11518.got - 2010.04.16 13:23:21.
