data_PCOD8205763
_publ_section_title
;
Structure prediction by ZEFSAII (Michael W. Deem and Ramdas Pophale) SiO2 
 PCOD8205763
Probable space group: P B A N
;
_chemical_formula_sum "Si O2"
_cell_formula_units_Z 48
_cell_length_a 27.128508
_cell_length_b 9.963951
_cell_length_c 8.320186
_cell_angle_alpha 90.000000
_cell_angle_beta 90.000000
_cell_angle_gamma 90.000000
_cell_volume 2249.005552
_symmetry_space_group_name_H-M "P B A N"
_symmetry_group_IT_number 50
_space_group.IT_coordinate_system_code '2'
_symmetry_cell_setting 'orthorhombic'
loop_
_space_group_symop_operation_xyz
x,y,z
1/2-x,1/2-y,z
x,1/2-y,-z
1/2-x,y,-z
-x,-y,-z
1/2+x,1/2+y,-z
-x,1/2+y,z
1/2+x,-y,z
loop_
_atom_site_type_symbol
_atom_site_label
_atom_site_fract_x
_atom_site_fract_y
_atom_site_fract_z
Si Si1 0.246932 0.093183 0.812155
Si Si2 0.153038 0.502850 0.704142
Si Si3 0.911420 0.711677 0.177910
Si Si4 0.897455 0.269789 0.678978
Si Si5 0.641331 0.957293 0.670214
Si Si6 0.994315 0.864430 0.606194
O O1 0.250000 0.250000 0.776018
O O2 0.195766 0.056983 0.733078
O O3 0.287810 0.999592 0.723410
O O4 0.250000 0.060444 0.000000
O O5 0.136289 0.383691 0.824067
O O6 0.124544 0.637438 0.767100
O O7 0.137821 0.464139 0.522824
O O8 0.897645 0.845185 0.276063
O O9 0.955735 0.619096 0.249150
O O10 0.927458 0.750000 0.000000
O O11 0.876879 0.250000 0.500000
O O12 0.874912 0.403737 0.753796
O O13 0.956205 0.294624 0.676245
O O14 0.968878 0.750000 0.500000
O O15 0.000000 0.000000 0.500000
#
# Coordination Sequence:
#
# PCOD8205763 Si02
#       6
#     8   8   8   8   8   8
#     4  11  23  40  61  91 128 162 205 263 321 380
#     4  11  22  40  66  92 124 163 212 264 317 382
#     4  12  24  39  61  95 130 164 209 268 322 374
#     4   9  21  40  62  93 124 157 208 268 312 366
#     4  11  22  40  67  92 120 163 215 256 312 384
#     4  11  21  41  68  91 124 171 219 263 316 385
#
# _framework density 21.342766000000001
#
# number of rings (size 3 to 8) (size 9 to 14) (size 15 to 20)
#    0.000    1.167    1.667    7.000    0.000    1.333 
#    0.000   15.833    0.000    0.000    0.000    0.000 
#    0.000    0.000    0.000    0.000    0.000    0.000 
#
# Total GULP energy -594735.876357 kJ/mol
# GULP energy per Si atom -12390.330757 kJ/mol
# Density = 2.129419 g / cm^3
# Si number density = 21.342766 Si / 1000 Ang^3
#
#
#
# Elastic Constant Matrix: (Units=GPa)
#
#
# Indices 1 2 3 4 5 6 
#
# 1 126.5789 56.5371 41.7029 0.0000 0.0000 0.0000
# 2 56.5371 146.4538 36.6969 0.0000 0.0000 0.0000
# 3 41.7029 36.6969 72.4382 0.0000 0.0000 0.0000
# 4 0.0000 0.0000 0.0000 18.4938 0.0000 0.0000
# 5 0.0000 0.0000 0.0000 0.0000 -41.8939 0.0000
# 6 0.0000 0.0000 0.0000 0.0000 0.0000 38.9976
#
#
#
# Elastic Compliance Matrix: (Units=1/GPa)
#
#
# Indices 1 2 3 4 5 6 
#
# 1 0.010780 -0.002985 -0.004694 0.000000 0.000000 0.000000
# 2 -0.002985 0.008648 -0.002662 0.000000 0.000000 0.000000
# 3 -0.004694 -0.002662 0.017856 0.000000 0.000000 0.000000
# 4 0.000000 0.000000 0.000000 0.054072 0.000000 0.000000
# 5 0.000000 0.000000 0.000000 0.000000 -0.023870 0.000000
# 6 0.000000 0.000000 0.000000 0.000000 0.000000 0.025643
#
#
# Mechanical properties :
#
#
# Convention : Reuss Voigt Hill
#
# Bulk Modulus (GPa) = 60.23796 68.37164 64.30480
# Shear Modulus (GPa) = 41.89551 17.15510 29.52531
#
# Velocity S-wave (km/s) = 4.43536 2.83819 3.72343
# Velocity P-wave (km/s) = 7.38345 6.54561 6.97712
#
# Compressibility (1/GPa) = 0.01660083
#
# Stress axis : x y z
#
# Youngs Moduli (GPa) = 92.76378 115.63844 56.00458
#
# Poissons Ratio (x) = 0.34523 0.26287
# Poissons Ratio (y) = 0.27694 0.14909
# Poissons Ratio (z) = 0.43541 0.30785
#
# Static dielectric constant tensor:
#      x y z
#    x 3.894270 0.000000 0.000000 
#    y 0.000000 5.666320 0.000000 
#    z 0.000000 0.000000 3.690130 
# 
# 
# High freq. dielectric constant tensor:
#      x y z
#    x 1.851570 0.000000 0.000000 
#    y 0.000000 1.847370 0.000000 
#    z 0.000000 0.000000 1.809760 
# 
# From -- ./inp_files/16965.got.cif
#   From: 2010.03.12/outbox.cif.g09.slc.cpg/sg50_9_cif.got.tgz:16965.got - 2010.04.16 13:23:21.
