data_PCOD8205460
_publ_section_title
;
Structure prediction by ZEFSAII (Michael W. Deem and Ramdas Pophale) SiO2 
 PCOD8205460
Probable space group: P B A N
;
_chemical_formula_sum "Si O2"
_cell_formula_units_Z 40
_cell_length_a 9.379596
_cell_length_b 16.755404
_cell_length_c 11.757053
_cell_angle_alpha 90.000000
_cell_angle_beta 90.000000
_cell_angle_gamma 90.000000
_cell_volume 1847.725756
_symmetry_space_group_name_H-M "P B A N"
_symmetry_group_IT_number 50
_space_group.IT_coordinate_system_code '2'
_symmetry_cell_setting 'orthorhombic'
loop_
_space_group_symop_operation_xyz
x,y,z
1/2-x,1/2-y,z
x,1/2-y,-z
1/2-x,y,-z
-x,-y,-z
1/2+x,1/2+y,-z
-x,1/2+y,z
1/2+x,-y,z
loop_
_atom_site_type_symbol
_atom_site_label
_atom_site_fract_x
_atom_site_fract_y
_atom_site_fract_z
Si Si1 0.088014 0.754184 0.780477
Si Si2 0.724731 0.943254 0.308670
Si Si3 0.174314 0.323933 0.878539
Si Si4 0.541154 0.406352 0.662345
Si Si5 0.974642 0.829196 0.559269
O O1 0.250000 0.750000 0.823211
O O2 0.036140 0.664153 0.755417
O O3 0.992934 0.797283 0.879000
O O4 0.076193 0.807151 0.665409
O O5 0.696704 0.907239 0.183821
O O6 0.655166 0.885379 0.402304
O O7 0.891016 0.952208 0.334314
O O8 0.664875 0.032178 0.307886
O O9 0.250000 0.250000 0.810606
O O10 0.250000 0.331079 0.000000
O O11 0.570190 0.374317 0.534872
O O12 0.909182 0.750000 0.500000
#
# Coordination Sequence:
#
# PCOD8205460 Si02
#       5
#     8   8   8   8   8
#     4  10  22  41  68  94 129 167 221 275 320 381
#     4  11  23  39  61  93 132 177 217 273 331 391
#     4  10  21  44  74  91 117 167 224 276 330 389
#     4  11  23  38  60  93 137 174 217 262 334 387
#     4   9  21  37  61  92 131 180 227 263 310 387
#
# _framework density 21.648233999999999
#
# number of rings (size 3 to 8) (size 9 to 14) (size 15 to 20)
#    0.000    1.800    2.000    1.200    5.600    6.000 
#    0.000    3.000    0.000    0.000    0.000    0.000 
#    0.000    0.000    0.000    0.000    0.000    0.000 
#
# Total GULP energy -495896.365319 kJ/mol
# GULP energy per Si atom -12397.409133 kJ/mol
# Density = 2.159896 g / cm^3
# Si number density = 21.648234 Si / 1000 Ang^3
#
#
#
# Elastic Constant Matrix: (Units=GPa)
#
#
# Indices 1 2 3 4 5 6 
#
# 1 127.0561 31.5514 37.9934 0.0000 0.0000 0.0000
# 2 31.5514 115.1066 48.7066 0.0000 0.0000 0.0000
# 3 37.9934 48.7066 108.5978 0.0000 0.0000 0.0000
# 4 0.0000 0.0000 0.0000 22.9505 0.0000 0.0000
# 5 0.0000 0.0000 0.0000 0.0000 25.2114 0.0000
# 6 0.0000 0.0000 0.0000 0.0000 0.0000 34.8355
#
#
#
# Elastic Compliance Matrix: (Units=1/GPa)
#
#
# Indices 1 2 3 4 5 6 
#
# 1 0.008968 -0.001395 -0.002512 0.000000 0.000000 0.000000
# 2 -0.001395 0.010940 -0.004418 0.000000 0.000000 0.000000
# 3 -0.002512 -0.004418 0.012069 0.000000 0.000000 0.000000
# 4 0.000000 0.000000 0.000000 0.043572 0.000000 0.000000
# 5 0.000000 0.000000 0.000000 0.000000 0.039665 0.000000
# 6 0.000000 0.000000 0.000000 0.000000 0.000000 0.028706
#
#
# Mechanical properties :
#
#
# Convention : Reuss Voigt Hill
#
# Bulk Modulus (GPa) = 65.25014 65.25147 65.25081
# Shear Modulus (GPa) = 30.17888 32.10008 31.13948
#
# Velocity S-wave (km/s) = 3.73776 3.85490 3.79678
# Velocity P-wave (km/s) = 6.98816 7.07254 7.03047
#
# Compressibility (1/GPa) = 0.01532564
#
# Stress axis : x y z
#
# Youngs Moduli (GPa) = 111.50608 91.41050 82.85934
#
# Poissons Ratio (x) = 0.12755 0.20812
# Poissons Ratio (y) = 0.15560 0.36610
# Poissons Ratio (z) = 0.28007 0.40388
#
# Static dielectric constant tensor:
#      x y z
#    x 3.790100 0.000000 0.000000 
#    y 0.000000 3.991580 0.000000 
#    z 0.000000 0.000000 3.614280 
# 
# 
# High freq. dielectric constant tensor:
#      x y z
#    x 1.848280 0.000000 0.000000 
#    y 0.000000 1.852560 0.000000 
#    z 0.000000 0.000000 1.823880 
# 
# From -- ./inp_files/18730.got.cif
#   From: 2010.03.12/outbox.cif.g09.slc.cpg/sg50_10_cif.got.tgz:18730.got - 2010.04.16 13:23:21.
