data_PCOD8205681
_publ_section_title
;
Structure prediction by ZEFSAII (Michael W. Deem and Ramdas Pophale) SiO2 
 PCOD8205681
Probable space group: P B A N
;
_chemical_formula_sum "Si O2"
_cell_formula_units_Z 58
_cell_length_a 18.806131
_cell_length_b 16.589753
_cell_length_c 9.144629
_cell_angle_alpha 90.000000
_cell_angle_beta 90.000000
_cell_angle_gamma 90.000000
_cell_volume 2853.024281
_symmetry_space_group_name_H-M "P B A N"
_symmetry_group_IT_number 50
_space_group.IT_coordinate_system_code '2'
_symmetry_cell_setting 'orthorhombic'
loop_
_space_group_symop_operation_xyz
x,y,z
1/2-x,1/2-y,z
x,1/2-y,-z
1/2-x,y,-z
-x,-y,-z
1/2+x,1/2+y,-z
-x,1/2+y,z
1/2+x,-y,z
loop_
_atom_site_type_symbol
_atom_site_label
_atom_site_fract_x
_atom_site_fract_y
_atom_site_fract_z
Si Si1 0.160165 0.632290 0.701977
Si Si2 0.470705 0.656344 0.479914
Si Si3 0.737121 0.996152 0.664725
Si Si4 0.590828 0.064563 0.740191
Si Si5 0.250000 0.750000 0.500000
Si Si6 0.572663 0.161222 0.032805
Si Si7 0.560640 0.880629 0.779704
Si Si8 0.783738 0.833470 0.159666
O O1 0.087322 0.612770 0.619791
O O2 0.198291 0.547577 0.727950
O O3 0.203401 0.695785 0.606461
O O4 0.141630 0.665758 0.862245
O O5 0.452523 0.750000 0.500000
O O6 0.466854 0.609366 0.634811
O O7 0.544271 0.648899 0.387872
O O8 0.750000 0.970590 0.500000
O O9 0.735984 0.912431 0.749734
O O10 0.669299 0.056643 0.670429
O O11 0.595408 0.113929 0.888947
O O12 0.569318 0.975195 0.776109
O O13 0.548091 0.250000 0.000000
O O14 0.503236 0.125549 0.107650
O O15 0.629746 0.831237 0.838980
O O16 0.750000 0.750000 0.225737
O O17 0.750000 0.844385 0.000000
#
# Coordination Sequence:
#
# PCOD8205681 Si02
#       8
#     8   8   8   8   2   8   8   8
#     4  11  23  38  64  96 134 184 212 269 322 396
#     4  11  21  42  66  97 135 171 220 266 326 397
#     4  11  23  42  67  98 136 174 229 266 326 397
#     4  11  22  43  65  96 134 175 215 276 325 394
#     4  12  20  40  66  88 142 188 228 256 332 384
#     4  11  26  41  63  99 135 168 227 269 328 406
#     4  10  24  44  67  97 124 172 222 271 342 393
#     4  10  25  49  73  96 128 172 221 286 348 395
#
# _framework density 20.329305999999999
#
# number of rings (size 3 to 8) (size 9 to 14) (size 15 to 20)
#    0.000    1.241    2.759    2.483    7.724    0.276 
#    4.966    0.000    0.000    0.000    0.000    0.000 
#    0.000    0.000    0.000    0.000    0.000    0.000 
#
# Total GULP energy -718826.732836 kJ/mol
# GULP energy per Si atom -12393.564359 kJ/mol
# Density = 2.028304 g / cm^3
# Si number density = 20.329306 Si / 1000 Ang^3
#
#
#
# Elastic Constant Matrix: (Units=GPa)
#
#
# Indices 1 2 3 4 5 6 
#
# 1 102.4044 40.7661 54.4811 0.0000 0.0000 0.0000
# 2 40.7661 104.9666 32.3352 0.0000 0.0000 0.0000
# 3 54.4811 32.3352 134.8169 0.0000 0.0000 0.0000
# 4 0.0000 0.0000 0.0000 97.5583 0.0000 0.0000
# 5 0.0000 0.0000 0.0000 0.0000 8.8114 0.0000
# 6 0.0000 0.0000 0.0000 0.0000 0.0000 20.1705
#
#
#
# Elastic Compliance Matrix: (Units=1/GPa)
#
#
# Indices 1 2 3 4 5 6 
#
# 1 0.013794 -0.003930 -0.004632 0.000000 0.000000 0.000000
# 2 -0.003930 0.011407 -0.001148 0.000000 0.000000 0.000000
# 3 -0.004632 -0.001148 0.009564 0.000000 0.000000 0.000000
# 4 0.000000 0.000000 0.000000 0.010250 0.000000 0.000000
# 5 0.000000 0.000000 0.000000 0.000000 0.113489 0.000000
# 6 0.000000 0.000000 0.000000 0.000000 0.000000 0.049577
#
#
# Mechanical properties :
#
#
# Convention : Reuss Voigt Hill
#
# Bulk Modulus (GPa) = 65.16347 66.37253 65.76800
# Shear Modulus (GPa) = 21.49465 39.61508 30.55487
#
# Velocity S-wave (km/s) = 3.25518 4.41916 3.88106
# Velocity P-wave (km/s) = 6.80087 7.66539 7.24603
#
# Compressibility (1/GPa) = 0.01534602
#
# Stress axis : x y z
#
# Youngs Moduli (GPa) = 72.49545 87.66697 104.55446
#
# Poissons Ratio (x) = 0.34457 0.48426
# Poissons Ratio (y) = 0.28494 0.11998
# Poissons Ratio (z) = 0.33577 0.10060
#
# Static dielectric constant tensor:
#      x y z
#    x 4.088750 0.000000 0.000000 
#    y 0.000000 3.750110 0.000000 
#    z 0.000000 0.000000 3.857370 
# 
# 
# High freq. dielectric constant tensor:
#      x y z
#    x 1.794690 0.000000 0.000000 
#    y 0.000000 1.806130 0.000000 
#    z 0.000000 0.000000 1.802520 
# 
# From -- ./inp_files/14473.got.cif
#   From: 2010.03.12/outbox.cif.g09.slc.cpg/sg50_8_cif.got.tgz:14473.got - 2010.04.16 13:23:21.
