data_PCOD8205374
_publ_section_title
;
Structure prediction by ZEFSAII (Michael W. Deem and Ramdas Pophale) SiO2 
 PCOD8205374
Probable space group: P B A N
;
_chemical_formula_sum "Si O2"
_cell_formula_units_Z 32
_cell_length_a 11.316817
_cell_length_b 12.274711
_cell_length_c 8.938761
_cell_angle_alpha 90.000000
_cell_angle_beta 90.000000
_cell_angle_gamma 90.000000
_cell_volume 1241.689173
_symmetry_space_group_name_H-M "P B A N"
_symmetry_group_IT_number 50
_space_group.IT_coordinate_system_code '2'
_symmetry_cell_setting 'orthorhombic'
loop_
_space_group_symop_operation_xyz
x,y,z
1/2-x,1/2-y,z
x,1/2-y,-z
1/2-x,y,-z
-x,-y,-z
1/2+x,1/2+y,-z
-x,1/2+y,z
1/2+x,-y,z
loop_
_atom_site_type_symbol
_atom_site_label
_atom_site_fract_x
_atom_site_fract_y
_atom_site_fract_z
Si Si1 0.660342 0.485269 0.840607
Si Si2 0.577955 0.298643 0.653244
Si Si3 0.806082 0.861855 0.339909
Si Si4 0.048918 0.646536 0.092407
O O1 0.649130 0.404588 0.701405
O O2 0.780028 0.551629 0.796092
O O3 0.554039 0.570373 0.848190
O O4 0.651461 0.418954 0.999506
O O5 0.624777 0.250000 0.500000
O O6 0.443894 0.340560 0.643721
O O7 0.608738 0.198824 0.763240
O O8 0.750000 0.750000 0.285060
O O9 0.750000 0.898304 0.500000
O O10 0.996027 0.750000 0.000000
#
# Coordination Sequence:
#
# PCOD8205374 Si02
#       4
#     8   8   8   8
#     4  10  21  38  64  94 136 180 220 294 354 404
#     4  11  21  38  68  99 132 182 236 286 344 413
#     4  11  20  37  61 100 135 169 235 297 336 415
#     4   9  19  37  59  92 133 172 222 274 348 414
#
# _framework density 25.771346999999999
#
# number of rings (size 3 to 8) (size 9 to 14) (size 15 to 20)
#    0.000    1.750    5.000    0.000    0.000    4.000 
#    0.000   15.000    0.000   17.250    0.000    0.000 
#    0.000    0.000    0.000    0.000    0.000    0.000 
#
# Total GULP energy -396437.300214 kJ/mol
# GULP energy per Si atom -12388.665632 kJ/mol
# Density = 2.571269 g / cm^3
# Si number density = 25.771347 Si / 1000 Ang^3
#
#
#
# Elastic Constant Matrix: (Units=GPa)
#
#
# Indices 1 2 3 4 5 6 
#
# 1 66.0919 21.6059 9.1252 0.0000 0.0000 0.0000
# 2 21.6059 154.6991 96.0358 0.0000 0.0000 0.0000
# 3 9.1252 96.0358 172.4031 0.0000 0.0000 0.0000
# 4 0.0000 0.0000 0.0000 38.6144 0.0000 0.0000
# 5 0.0000 0.0000 0.0000 0.0000 34.3676 0.0000
# 6 0.0000 0.0000 0.0000 0.0000 0.0000 37.3007
#
#
#
# Elastic Compliance Matrix: (Units=1/GPa)
#
#
# Indices 1 2 3 4 5 6 
#
# 1 0.015895 -0.002595 0.000604 0.000000 0.000000 0.000000
# 2 -0.002595 0.010305 -0.005603 0.000000 0.000000 0.000000
# 3 0.000604 -0.005603 0.008889 0.000000 0.000000 0.000000
# 4 0.000000 0.000000 0.000000 0.025897 0.000000 0.000000
# 5 0.000000 0.000000 0.000000 0.000000 0.029097 0.000000
# 6 0.000000 0.000000 0.000000 0.000000 0.000000 0.026809
#
#
# Mechanical properties :
#
#
# Convention : Reuss Voigt Hill
#
# Bulk Modulus (GPa) = 50.24585 71.85867 61.05226
# Shear Modulus (GPa) = 36.04526 39.81836 37.93181
#
# Velocity S-wave (km/s) = 3.74392 3.93499 3.84064
# Velocity P-wave (km/s) = 6.18291 6.97060 6.58854
#
# Compressibility (1/GPa) = 0.01990214
#
# Stress axis : x y z
#
# Youngs Moduli (GPa) = 62.91138 97.04199 112.49344
#
# Poissons Ratio (x) = 0.25184 -0.06798
# Poissons Ratio (y) = 0.16326 0.63029
# Poissons Ratio (z) = -0.03802 0.54371
#
# Static dielectric constant tensor:
#      x y z
#    x 4.426390 0.000000 0.000000 
#    y 0.000000 5.220860 0.000000 
#    z 0.000000 0.000000 5.105120 
# 
# 
# High freq. dielectric constant tensor:
#      x y z
#    x 2.021340 0.000000 0.000000 
#    y 0.000000 2.055730 0.000000 
#    z 0.000000 0.000000 2.037660 
# 
# From -- ./inp_files/10572.got.cif
#   From: 2010.03.12/outbox.cif.g09.slc.cpg/sg50_6_cif.got.tgz:10572.got - 2010.04.16 13:23:21.
