data_PCOD8205512
_publ_section_title
;
Structure prediction by ZEFSAII (Michael W. Deem and Ramdas Pophale) SiO2 
 PCOD8205512
Probable space group: P B A N
;
_chemical_formula_sum "Si O2"
_cell_formula_units_Z 64
_cell_length_a 23.673355
_cell_length_b 15.244195
_cell_length_c 8.877675
_cell_angle_alpha 90.000000
_cell_angle_beta 90.000000
_cell_angle_gamma 90.000000
_cell_volume 3203.786362
_symmetry_space_group_name_H-M "P B A N"
_symmetry_group_IT_number 50
_space_group.IT_coordinate_system_code '2'
_symmetry_cell_setting 'orthorhombic'
loop_
_space_group_symop_operation_xyz
x,y,z
1/2-x,1/2-y,z
x,1/2-y,-z
1/2-x,y,-z
-x,-y,-z
1/2+x,1/2+y,-z
-x,1/2+y,z
1/2+x,-y,z
loop_
_atom_site_type_symbol
_atom_site_label
_atom_site_fract_x
_atom_site_fract_y
_atom_site_fract_z
Si Si1 0.441991 0.249796 0.323298
Si Si2 0.631339 0.398918 0.324833
Si Si3 0.141568 0.095866 0.666907
Si Si4 0.637668 0.104455 0.328322
Si Si5 0.248115 0.348399 0.822732
Si Si6 0.636537 0.907432 0.323585
Si Si7 0.247834 0.646094 0.172378
Si Si8 0.938238 0.250226 0.821881
O O1 0.457011 0.250000 0.500000
O O2 0.401284 0.170031 0.275712
O O3 0.413127 0.341249 0.275078
O O4 0.497856 0.236307 0.227314
O O5 0.612800 0.500591 0.313547
O O6 0.637260 0.367729 0.497177
O O7 0.690614 0.387601 0.243928
O O8 0.583444 0.342273 0.243588
O O9 0.199290 0.097159 0.759917
O O10 0.156344 0.113579 0.493041
O O11 0.701256 0.105364 0.267234
O O12 0.599299 0.170363 0.235824
O O13 0.613160 0.006283 0.307807
O O14 0.250000 0.250000 0.755377
O O15 0.190551 0.396214 0.780768
O O16 0.250000 0.346146 0.000000
O O17 0.250000 0.750000 0.181273
O O18 0.250000 0.613423 0.000000
O O19 0.933164 0.250000 0.000000
#
# Coordination Sequence:
#
# PCOD8205512 Si02
#       8
#     8   8   8   8   8   8   8   8
#     4  10  22  43  66  87 117 158 203 252 298 350
#     4  11  23  40  64  93 121 156 203 251 298 355
#     4  10  22  40  65  92 120 158 204 250 298 352
#     4  11  23  40  64  93 121 156 203 251 298 355
#     4  11  22  35  58  93 131 165 196 239 299 360
#     4  10  22  40  65  92 120 158 204 250 298 352
#     4  11  22  37  60  91 126 160 196 241 300 363
#     4  12  26  43  62  87 120 160 201 248 305 362
#
# _framework density 19.976362999999999
#
# number of rings (size 3 to 8) (size 9 to 14) (size 15 to 20)
#    0.000    1.250    2.500    3.375    0.000    8.000 
#    0.000    5.000    0.000    0.000    0.000    0.000 
#    0.000    0.000    0.000    0.000    0.000    0.000 
#
# Total GULP energy -793959.034356 kJ/mol
# GULP energy per Si atom -12405.609912 kJ/mol
# Density = 1.993090 g / cm^3
# Si number density = 19.976363 Si / 1000 Ang^3
#
#
#
# Elastic Constant Matrix: (Units=GPa)
#
#
# Indices 1 2 3 4 5 6 
#
# 1 67.9851 3.9079 20.1217 0.0000 0.0000 0.0000
# 2 3.9079 86.7419 17.7097 0.0000 0.0000 0.0000
# 3 20.1217 17.7097 100.2078 0.0000 0.0000 0.0000
# 4 0.0000 0.0000 0.0000 19.9860 0.0000 0.0000
# 5 0.0000 0.0000 0.0000 0.0000 61.3729 0.0000
# 6 0.0000 0.0000 0.0000 0.0000 0.0000 9.0683
#
#
#
# Elastic Compliance Matrix: (Units=1/GPa)
#
#
# Indices 1 2 3 4 5 6 
#
# 1 0.015639 -0.000066 -0.003129 0.000000 0.000000 0.000000
# 2 -0.000066 0.011960 -0.002101 0.000000 0.000000 0.000000
# 3 -0.003129 -0.002101 0.010979 0.000000 0.000000 0.000000
# 4 0.000000 0.000000 0.000000 0.050035 0.000000 0.000000
# 5 0.000000 0.000000 0.000000 0.000000 0.016294 0.000000
# 6 0.000000 0.000000 0.000000 0.000000 0.000000 0.110274
#
#
# Mechanical properties :
#
#
# Convention : Reuss Voigt Hill
#
# Bulk Modulus (GPa) = 35.72971 37.60150 36.66560
# Shear Modulus (GPa) = 21.26756 32.29850 26.78303
#
# Velocity S-wave (km/s) = 3.26642 4.02535 3.66558
# Velocity P-wave (km/s) = 5.67017 6.36148 6.02575
#
# Compressibility (1/GPa) = 0.02798791
#
# Stress axis : x y z
#
# Youngs Moduli (GPa) = 63.94320 83.61017 91.08533
#
# Poissons Ratio (x) = 0.00550 0.28498
# Poissons Ratio (y) = 0.00421 0.19133
# Poissons Ratio (z) = 0.20006 0.17562
#
# Static dielectric constant tensor:
#      x y z
#    x 3.554670 0.000000 0.000000 
#    y 0.000000 3.879800 0.000000 
#    z 0.000000 0.000000 3.625610 
# 
# 
# High freq. dielectric constant tensor:
#      x y z
#    x 1.770900 0.000000 0.000000 
#    y 0.000000 1.798130 0.000000 
#    z 0.000000 0.000000 1.783350 
# 
# From -- ./inp_files/16136.got.cif
#   From: 2010.03.12/outbox.cif.g09.slc.cpg/sg50_9_cif.got.tgz:16136.got - 2010.04.16 13:23:21.
