data_PCOD8205773
_publ_section_title
;
Structure prediction by ZEFSAII (Michael W. Deem and Ramdas Pophale) SiO2 
 PCOD8205773
Probable space group: P B A N
;
_chemical_formula_sum "Si O2"
_cell_formula_units_Z 34
_cell_length_a 15.312954
_cell_length_b 7.668380
_cell_length_c 12.885104
_cell_angle_alpha 90.000000
_cell_angle_beta 90.000000
_cell_angle_gamma 90.000000
_cell_volume 1513.040427
_symmetry_space_group_name_H-M "P B A N"
_symmetry_group_IT_number 50
_space_group.IT_coordinate_system_code '2'
_symmetry_cell_setting 'orthorhombic'
loop_
_space_group_symop_operation_xyz
x,y,z
1/2-x,1/2-y,z
x,1/2-y,-z
1/2-x,y,-z
-x,-y,-z
1/2+x,1/2+y,-z
-x,1/2+y,z
1/2+x,-y,z
loop_
_atom_site_type_symbol
_atom_site_label
_atom_site_fract_x
_atom_site_fract_y
_atom_site_fract_z
Si Si1 0.407257 0.462916 0.788218
Si Si2 0.652683 0.045273 0.006760
Si Si3 0.739013 0.058466 0.646488
Si Si4 0.750000 0.750000 0.500000
Si Si5 0.598001 0.567045 0.768843
O O1 0.407059 0.475663 0.912927
O O2 0.329728 0.581823 0.740752
O O3 0.498870 0.520871 0.738667
O O4 0.385688 0.269118 0.755375
O O5 0.657083 0.250000 0.000000
O O6 0.750000 0.964185 0.000000
O O7 0.609402 0.991326 0.113456
O O8 0.750000 0.250000 0.592141
O O9 0.702301 0.897317 0.573421
O O10 0.835388 0.019429 0.689156
#
# Coordination Sequence:
#
# PCOD8205773 Si02
#       5
#     8   8   8   2   8
#     4  12  24  42  68 102 143 185 232 280 341 412
#     4  11  22  37  62 100 141 191 231 271 334 409
#     4  12  25  48  76 103 137 180 227 291 354 415
#     4  12  26  52  76 104 132 178 234 292 368 408
#     4  12  24  42  68 102 143 185 232 280 341 412
#
# _framework density 22.471311
#
# number of rings (size 3 to 8) (size 9 to 14) (size 15 to 20)
#    0.000    0.235    4.706    6.000    0.000    0.941 
#    0.000    1.176    0.000    0.000    0.000    0.000 
#    0.000    0.000    0.000    0.000    0.000    0.000 
#
# Total GULP energy -421321.447299 kJ/mol
# GULP energy per Si atom -12391.807274 kJ/mol
# Density = 2.242017 g / cm^3
# Si number density = 22.471311 Si / 1000 Ang^3
#
#
#
# Elastic Constant Matrix: (Units=GPa)
#
#
# Indices 1 2 3 4 5 6 
#
# 1 121.0766 25.1367 17.5526 0.0000 0.0000 0.0000
# 2 25.1367 157.1744 32.0103 0.0000 0.0000 0.0000
# 3 17.5526 32.0103 92.1564 0.0000 0.0000 0.0000
# 4 0.0000 0.0000 0.0000 20.6284 0.0000 0.0000
# 5 0.0000 0.0000 0.0000 0.0000 10.2166 0.0000
# 6 0.0000 0.0000 0.0000 0.0000 0.0000 29.5751
#
#
#
# Elastic Compliance Matrix: (Units=1/GPa)
#
#
# Indices 1 2 3 4 5 6 
#
# 1 0.008677 -0.001131 -0.001260 0.000000 0.000000 0.000000
# 2 -0.001131 0.006994 -0.002214 0.000000 0.000000 0.000000
# 3 -0.001260 -0.002214 0.011860 0.000000 0.000000 0.000000
# 4 0.000000 0.000000 0.000000 0.048477 0.000000 0.000000
# 5 0.000000 0.000000 0.000000 0.000000 0.097880 0.000000
# 6 0.000000 0.000000 0.000000 0.000000 0.000000 0.033812
#
#
# Mechanical properties :
#
#
# Convention : Reuss Voigt Hill
#
# Bulk Modulus (GPa) = 54.58119 57.75629 56.16874
# Shear Modulus (GPa) = 22.41983 31.79787 27.10885
#
# Velocity S-wave (km/s) = 3.16208 3.76579 3.47706
# Velocity P-wave (km/s) = 6.13789 6.68328 6.41638
#
# Compressibility (1/GPa) = 0.01832133
#
# Stress axis : x y z
#
# Youngs Moduli (GPa) = 115.25141 142.97652 84.31657
#
# Poissons Ratio (x) = 0.16172 0.10622
# Poissons Ratio (y) = 0.13036 0.18667
# Poissons Ratio (z) = 0.14518 0.31655
#
# Static dielectric constant tensor:
#      x y z
#    x 4.074810 0.000000 0.000000 
#    y 0.000000 4.323030 0.000000 
#    z 0.000000 0.000000 3.900130 
# 
# 
# High freq. dielectric constant tensor:
#      x y z
#    x 1.875950 0.000000 0.000000 
#    y 0.000000 1.908190 0.000000 
#    z 0.000000 0.000000 1.875030 
# 
# From -- ./inp_files/20797.got.cif
#   From: 2010.03.12/outbox.cif.g09.slc.cpg/sg50_11_cif.got.tgz:20797.got - 2010.04.16 13:23:21.
