data_PCOD8205305
_publ_section_title
;
Structure prediction by ZEFSAII (Michael W. Deem and Ramdas Pophale) SiO2 
 PCOD8205305
Probable space group: P B A N
;
_chemical_formula_sum "Si O2"
_cell_formula_units_Z 38
_cell_length_a 17.340198
_cell_length_b 4.942801
_cell_length_c 21.604269
_cell_angle_alpha 90.000000
_cell_angle_beta 90.000000
_cell_angle_gamma 90.000000
_cell_volume 1851.683489
_symmetry_space_group_name_H-M "P B A N"
_symmetry_group_IT_number 50
_space_group.IT_coordinate_system_code '2'
_symmetry_cell_setting 'orthorhombic'
loop_
_space_group_symop_operation_xyz
x,y,z
1/2-x,1/2-y,z
x,1/2-y,-z
1/2-x,y,-z
-x,-y,-z
1/2+x,1/2+y,-z
-x,1/2+y,z
1/2+x,-y,z
loop_
_atom_site_type_symbol
_atom_site_label
_atom_site_fract_x
_atom_site_fract_y
_atom_site_fract_z
Si Si1 0.051157 0.792555 0.431097
Si Si2 0.839995 0.772822 0.764301
Si Si3 0.250000 0.750000 0.000000
Si Si4 0.646543 0.750000 0.000000
Si Si5 0.052265 0.152954 0.121058
Si Si6 0.660365 0.228077 0.681991
O O1 0.085424 0.750000 0.500000
O O2 0.118614 0.735034 0.383359
O O3 0.978052 0.596998 0.421186
O O4 0.750000 0.750000 0.780919
O O5 0.884848 0.767533 0.828225
O O6 0.864754 0.539661 0.717539
O O7 0.864675 0.040120 0.728672
O O8 0.306630 0.515328 0.970657
O O9 0.593180 0.649802 0.945012
O O10 0.979900 0.351482 0.128196
O O11 0.750000 0.250000 0.666397
#
# Coordination Sequence:
#
# PCOD8205305 Si02
#       6
#     8   8   2   4   8   8
#     4  10  21  36  57  86 117 153 196 244 295 355
#     4  10  23  40  59  88 120 158 202 250 294 362
#     4  10  24  40  68  96 116 158 210 242 294 376
#     4  11  24  45  64  97 125 160 206 256 303 367
#     4  12  25  42  65  93 127 161 201 254 313 365
#     4  10  21  39  59  84 119 156 198 249 299 347
#
# _framework density 20.521867
#
# number of rings (size 3 to 8) (size 9 to 14) (size 15 to 20)
#    0.000    1.474    0.000    4.421    2.947    5.474 
#    3.789    0.000    0.000    7.579    0.000    0.000 
#    0.000    0.000    0.000    0.000    0.000    0.000 
#
# Total GULP energy -470815.377020 kJ/mol
# GULP energy per Si atom -12389.878343 kJ/mol
# Density = 2.047516 g / cm^3
# Si number density = 20.521867 Si / 1000 Ang^3
#
#
#
# Elastic Constant Matrix: (Units=GPa)
#
#
# Indices 1 2 3 4 5 6 
#
# 1 73.5084 8.4447 59.0837 0.0000 0.0000 0.0000
# 2 8.4447 157.7293 47.5237 0.0000 0.0000 0.0000
# 3 59.0837 47.5237 166.5683 0.0000 0.0000 0.0000
# 4 0.0000 0.0000 0.0000 40.9670 0.0000 0.0000
# 5 0.0000 0.0000 0.0000 0.0000 16.3064 0.0000
# 6 0.0000 0.0000 0.0000 0.0000 0.0000 42.3047
#
#
#
# Elastic Compliance Matrix: (Units=1/GPa)
#
#
# Indices 1 2 3 4 5 6 
#
# 1 0.019209 0.001121 -0.007133 0.000000 0.000000 0.000000
# 2 0.001121 0.007002 -0.002395 0.000000 0.000000 0.000000
# 3 -0.007133 -0.002395 0.009217 0.000000 0.000000 0.000000
# 4 0.000000 0.000000 0.000000 0.024410 0.000000 0.000000
# 5 0.000000 0.000000 0.000000 0.000000 0.061326 0.000000
# 6 0.000000 0.000000 0.000000 0.000000 0.000000 0.023638
#
#
# Mechanical properties :
#
#
# Convention : Reuss Voigt Hill
#
# Bulk Modulus (GPa) = 53.72847 69.76778 61.74812
# Shear Modulus (GPa) = 29.79376 38.76590 34.27983
#
# Velocity S-wave (km/s) = 3.81439 4.35098 4.09149
# Velocity P-wave (km/s) = 6.75554 7.70143 7.24394
#
# Compressibility (1/GPa) = 0.01861211
#
# Stress axis : x y z
#
# Youngs Moduli (GPa) = 52.05992 142.82359 108.49300
#
# Poissons Ratio (x) = -0.16008 0.77391
# Poissons Ratio (y) = -0.05835 0.25986
# Poissons Ratio (z) = 0.37136 0.34209
#
# Static dielectric constant tensor:
#      x y z
#    x 3.609120 0.000000 0.000000 
#    y 0.000000 4.127630 0.000000 
#    z 0.000000 0.000000 3.617000 
# 
# 
# High freq. dielectric constant tensor:
#      x y z
#    x 1.802030 0.000000 0.000000 
#    y 0.000000 1.827640 0.000000 
#    z 0.000000 0.000000 1.798190 
# 
# From -- ./inp_files/29625.got.cif
#   From: 2010.03.12/outbox.cif.g09.slc.cpg/sg50_15_cif.got.tgz:29625.got - 2010.04.16 13:23:21.
