data_PCOD8205674
_publ_section_title
;
Structure prediction by ZEFSAII (Michael W. Deem and Ramdas Pophale) SiO2 
 PCOD8205674
Probable space group: P B A N
;
_chemical_formula_sum "Si O2"
_cell_formula_units_Z 40
_cell_length_a 10.519577
_cell_length_b 8.732815
_cell_length_c 17.529132
_cell_angle_alpha 90.000000
_cell_angle_beta 90.000000
_cell_angle_gamma 90.000000
_cell_volume 1610.322823
_symmetry_space_group_name_H-M "P B A N"
_symmetry_group_IT_number 50
_space_group.IT_coordinate_system_code '2'
_symmetry_cell_setting 'orthorhombic'
loop_
_space_group_symop_operation_xyz
x,y,z
1/2-x,1/2-y,z
x,1/2-y,-z
1/2-x,y,-z
-x,-y,-z
1/2+x,1/2+y,-z
-x,1/2+y,z
1/2+x,-y,z
loop_
_atom_site_type_symbol
_atom_site_label
_atom_site_fract_x
_atom_site_fract_y
_atom_site_fract_z
Si Si1 0.657065 0.052397 0.698645
Si Si2 0.635472 0.353342 0.131720
Si Si3 0.002886 0.312829 0.373817
Si Si4 0.160950 0.447856 0.571371
Si Si5 0.886012 0.691523 0.914760
O O1 0.685101 0.094073 0.785361
O O2 0.604354 0.201593 0.656448
O O3 0.557477 0.911761 0.696907
O O4 0.781477 0.000680 0.653007
O O5 0.750000 0.250000 0.096256
O O6 0.613319 0.506817 0.082619
O O7 0.503500 0.257585 0.135254
O O8 0.954525 0.431372 0.438839
O O9 0.116761 0.227138 0.418382
O O10 0.250000 0.468873 0.500000
O O11 0.750000 0.750000 0.881550
O O12 0.906087 0.750000 0.000000
#
# Coordination Sequence:
#
# PCOD8205674 Si02
#       5
#     8   8   8   8   8
#     4  11  24  43  68 101 137 177 230 289 359 429
#     4  12  25  45  77 112 149 193 247 311 373 439
#     4  10  24  43  66  94 131 177 229 289 356 433
#     4  11  25  44  67  95 133 181 237 296 361 434
#     4  11  26  48  73 108 151 199 248 299 370 453
#
# _framework density 24.839739000000002
#
# number of rings (size 3 to 8) (size 9 to 14) (size 15 to 20)
#    0.000    1.000    0.000    5.400    0.000   16.400 
#    0.000    3.000    0.000    0.000    0.000    0.000 
#    0.000    0.000    0.000    0.000    0.000    0.000 
#
# Total GULP energy -496089.821203 kJ/mol
# GULP energy per Si atom -12402.245530 kJ/mol
# Density = 2.478320 g / cm^3
# Si number density = 24.839739 Si / 1000 Ang^3
#
#
#
# Elastic Constant Matrix: (Units=GPa)
#
#
# Indices 1 2 3 4 5 6 
#
# 1 137.6221 64.4776 20.8468 0.0000 0.0000 0.0000
# 2 64.4776 194.5630 40.9469 0.0000 0.0000 0.0000
# 3 20.8468 40.9469 106.7329 0.0000 0.0000 0.0000
# 4 0.0000 0.0000 0.0000 25.8576 0.0000 0.0000
# 5 0.0000 0.0000 0.0000 0.0000 32.0952 0.0000
# 6 0.0000 0.0000 0.0000 0.0000 0.0000 26.4659
#
#
#
# Elastic Compliance Matrix: (Units=1/GPa)
#
#
# Indices 1 2 3 4 5 6 
#
# 1 0.008642 -0.002729 -0.000641 0.000000 0.000000 0.000000
# 2 -0.002729 0.006453 -0.001943 0.000000 0.000000 0.000000
# 3 -0.000641 -0.001943 0.010240 0.000000 0.000000 0.000000
# 4 0.000000 0.000000 0.000000 0.038673 0.000000 0.000000
# 5 0.000000 0.000000 0.000000 0.000000 0.031157 0.000000
# 6 0.000000 0.000000 0.000000 0.000000 0.000000 0.037784
#
#
# Mechanical properties :
#
#
# Convention : Reuss Voigt Hill
#
# Bulk Modulus (GPa) = 67.98377 76.82894 72.40635
# Shear Modulus (GPa) = 33.67507 37.72687 35.70097
#
# Velocity S-wave (km/s) = 3.68597 3.90142 3.79522
# Velocity P-wave (km/s) = 6.74859 7.16183 6.95828
#
# Compressibility (1/GPa) = 0.01470939
#
# Stress axis : x y z
#
# Youngs Moduli (GPa) = 115.71462 154.96814 97.65988
#
# Poissons Ratio (x) = 0.42291 0.06260
# Poissons Ratio (y) = 0.31579 0.18971
# Poissons Ratio (z) = 0.07417 0.30104
#
# Static dielectric constant tensor:
#      x y z
#    x 4.771280 0.000000 0.000000 
#    y 0.000000 5.054040 0.000000 
#    z 0.000000 0.000000 4.085110 
# 
# 
# High freq. dielectric constant tensor:
#      x y z
#    x 2.006700 0.000000 0.000000 
#    y 0.000000 2.021420 0.000000 
#    z 0.000000 0.000000 1.966070 
# 
# From -- ./inp_files/29084.got.cif
#   From: 2010.03.12/outbox.cif.g09.slc.cpg/sg50_15_cif.got.tgz:29084.got - 2010.04.16 13:23:21.
