data_PCOD8205733
_publ_section_title
;
Structure prediction by ZEFSAII (Michael W. Deem and Ramdas Pophale) SiO2 
 PCOD8205733
Probable space group: P B A N
;
_chemical_formula_sum "Si O2"
_cell_formula_units_Z 48
_cell_length_a 17.808225
_cell_length_b 8.353966
_cell_length_c 16.238961
_cell_angle_alpha 90.000000
_cell_angle_beta 90.000000
_cell_angle_gamma 90.000000
_cell_volume 2415.858961
_symmetry_space_group_name_H-M "P B A N"
_symmetry_group_IT_number 50
_space_group.IT_coordinate_system_code '2'
_symmetry_cell_setting 'orthorhombic'
loop_
_space_group_symop_operation_xyz
x,y,z
1/2-x,1/2-y,z
x,1/2-y,-z
1/2-x,y,-z
-x,-y,-z
1/2+x,1/2+y,-z
-x,1/2+y,z
1/2+x,-y,z
loop_
_atom_site_type_symbol
_atom_site_label
_atom_site_fract_x
_atom_site_fract_y
_atom_site_fract_z
Si Si1 0.050429 0.839794 0.079018
Si Si2 0.327743 0.096649 0.955355
Si Si3 0.829045 0.734432 0.786257
Si Si4 0.537858 0.372197 0.559325
Si Si5 0.066466 0.542754 0.184725
Si Si6 0.956810 0.869929 0.674253
O O1 0.083979 0.714240 0.144726
O O2 0.988334 0.945144 0.124298
O O3 0.117064 0.946875 0.042078
O O4 0.014089 0.750000 0.000000
O O5 0.312049 0.149646 0.862559
O O6 0.365296 0.250000 0.000000
O O7 0.250000 0.049051 0.000000
O O8 0.750000 0.750000 0.736063
O O9 0.854625 0.553131 0.808123
O O10 0.897381 0.807245 0.737510
O O11 0.585796 0.250000 0.500000
O O12 0.500000 0.500000 0.500000
O O13 0.581565 0.476686 0.627528
O O14 0.476465 0.265663 0.607787
O O15 0.029843 0.569579 0.274891
#
# Coordination Sequence:
#
# PCOD8205733 Si02
#       6
#     8   8   8   8   8   8
#     4  12  24  38  62  87 121 164 232 286 338 375
#     4  11  23  44  61  82 128 178 228 283 330 391
#     4  12  24  42  65  92 134 179 219 277 343 385
#     4   9  19  35  67 107 130 158 202 267 323 391
#     4  12  23  41  63  97 125 170 223 288 326 390
#     4  11  19  39  66  99 132 159 219 261 318 409
#
# _framework density 19.868708999999999
#
# number of rings (size 3 to 8) (size 9 to 14) (size 15 to 20)
#    0.000    0.833    6.667    1.500    0.000    1.667 
#    0.000    0.000    0.000    4.500    4.333    0.000 
#    0.000    0.000    0.000    0.000    0.000    0.000 
#
# Total GULP energy -594647.717899 kJ/mol
# GULP energy per Si atom -12388.494123 kJ/mol
# Density = 1.982349 g / cm^3
# Si number density = 19.868709 Si / 1000 Ang^3
#
#
#
# Elastic Constant Matrix: (Units=GPa)
#
#
# Indices 1 2 3 4 5 6 
#
# 1 91.1099 41.8601 15.2471 0.0000 0.0000 0.0000
# 2 41.8601 127.5784 41.2839 0.0000 0.0000 0.0000
# 3 15.2471 41.2839 90.3735 0.0000 0.0000 0.0000
# 4 0.0000 0.0000 0.0000 46.4658 0.0000 0.0000
# 5 0.0000 0.0000 0.0000 0.0000 -27.4970 0.0000
# 6 0.0000 0.0000 0.0000 0.0000 0.0000 23.5574
#
#
#
# Elastic Compliance Matrix: (Units=1/GPa)
#
#
# Indices 1 2 3 4 5 6 
#
# 1 0.012930 -0.004150 -0.000286 0.000000 0.000000 0.000000
# 2 -0.004150 0.010530 -0.004110 0.000000 0.000000 0.000000
# 3 -0.000286 -0.004110 0.012991 0.000000 0.000000 0.000000
# 4 0.000000 0.000000 0.000000 0.021521 0.000000 0.000000
# 5 0.000000 0.000000 0.000000 0.000000 -0.036368 0.000000
# 6 0.000000 0.000000 0.000000 0.000000 0.000000 0.042449
#
#
# Mechanical properties :
#
#
# Convention : Reuss Voigt Hill
#
# Bulk Modulus (GPa) = 51.65425 56.20490 53.92958
# Shear Modulus (GPa) = 57.07807 22.54996 39.81401
#
# Velocity S-wave (km/s) = 5.36563 3.37255 4.48130
# Velocity P-wave (km/s) = 8.02751 6.59659 7.34697
#
# Compressibility (1/GPa) = 0.01935949
#
# Stress axis : x y z
#
# Youngs Moduli (GPa) = 77.33746 94.96629 76.97678
#
# Poissons Ratio (x) = 0.39413 0.02199
# Poissons Ratio (y) = 0.32096 0.31638
# Poissons Ratio (z) = 0.02209 0.39032
#
# Static dielectric constant tensor:
#      x y z
#    x 3.176820 0.000000 0.000000 
#    y 0.000000 4.296490 0.000000 
#    z 0.000000 0.000000 4.149270 
# 
# 
# High freq. dielectric constant tensor:
#      x y z
#    x 1.723600 0.000000 0.000000 
#    y 0.000000 1.802380 0.000000 
#    z 0.000000 0.000000 1.789200 
# 
# From -- ./inp_files/26843.got.cif
#   From: 2010.03.12/outbox.cif.g09.slc.cpg/sg50_14_cif.got.tgz:26843.got - 2010.04.16 13:23:21.
