data_PCOD8205319
_publ_section_title
;
Structure prediction by ZEFSAII (Michael W. Deem and Ramdas Pophale) SiO2 
 PCOD8205319
Probable space group: P B A N
;
_chemical_formula_sum "Si O2"
_cell_formula_units_Z 52
_cell_length_a 27.003529
_cell_length_b 12.354986
_cell_length_c 8.166754
_cell_angle_alpha 90.000000
_cell_angle_beta 90.000000
_cell_angle_gamma 90.000000
_cell_volume 2724.659623
_symmetry_space_group_name_H-M "P B A N"
_symmetry_group_IT_number 50
_space_group.IT_coordinate_system_code '2'
_symmetry_cell_setting 'orthorhombic'
loop_
_space_group_symop_operation_xyz
x,y,z
1/2-x,1/2-y,z
x,1/2-y,-z
1/2-x,y,-z
-x,-y,-z
1/2+x,1/2+y,-z
-x,1/2+y,z
1/2+x,-y,z
loop_
_atom_site_type_symbol
_atom_site_label
_atom_site_fract_x
_atom_site_fract_y
_atom_site_fract_z
Si Si1 0.194331 0.791418 0.328934
Si Si2 0.149805 0.485272 0.663887
Si Si3 0.885135 0.652042 0.619234
Si Si4 0.694983 0.769159 0.191126
Si Si5 0.363862 0.750000 0.000000
Si Si6 0.462630 0.358479 0.896398
Si Si7 0.569384 0.435075 0.902144
O O1 0.250000 0.750000 0.318516
O O2 0.169779 0.750000 0.500000
O O3 0.167735 0.747517 0.166394
O O4 0.191624 0.921856 0.337490
O O5 0.131951 0.452675 0.482695
O O6 0.174044 0.386974 0.764458
O O7 0.099640 0.530810 0.742747
O O8 0.897780 0.750000 0.500000
O O9 0.838816 0.676596 0.733910
O O10 0.934104 0.635520 0.725313
O O11 0.750000 0.750000 0.262396
O O12 0.694403 0.750000 0.000000
O O13 0.397123 0.642639 0.985913
O O14 0.520356 0.368861 0.851019
O O15 0.451553 0.250000 0.000000
O O16 0.444426 0.457795 0.002734
#
# Coordination Sequence:
#
# PCOD8205319 Si02
#       7
#     8   8   8   8   4   8   8
#     4  10  23  41  62  89 125 166 214 257 303 375
#     4  10  22  40  57  89 124 157 202 253 307 382
#     4  10  21  36  61  89 124 157 190 256 316 371
#     4  10  21  39  60  92 120 156 202 252 316 380
#     4  10  21  44  62  90 124 164 213 256 316 368
#     4  11  21  38  63  90 116 159 205 254 311 375
#     4  10  22  39  63  85 119 159 207 254 306 372
#
# _framework density 19.084952999999999
#
# number of rings (size 3 to 8) (size 9 to 14) (size 15 to 20)
#    0.000    1.846    0.769    3.462    2.154    5.846 
#   11.077    3.077    0.000    0.000    0.000    0.000 
#    0.000    0.000    0.000    0.000    0.000    0.000 
#
# Total GULP energy -644715.354246 kJ/mol
# GULP energy per Si atom -12398.372197 kJ/mol
# Density = 1.904151 g / cm^3
# Si number density = 19.084953 Si / 1000 Ang^3
#
#
#
# Elastic Constant Matrix: (Units=GPa)
#
#
# Indices 1 2 3 4 5 6 
#
# 1 134.0511 58.7912 68.3105 0.0000 0.0000 0.0000
# 2 58.7912 109.2473 47.2818 0.0000 0.0000 0.0000
# 3 68.3105 47.2818 116.0255 0.0000 0.0000 0.0000
# 4 0.0000 0.0000 0.0000 28.0450 0.0000 0.0000
# 5 0.0000 0.0000 0.0000 0.0000 24.0522 0.0000
# 6 0.0000 0.0000 0.0000 0.0000 0.0000 25.1284
#
#
#
# Elastic Compliance Matrix: (Units=1/GPa)
#
#
# Indices 1 2 3 4 5 6 
#
# 1 0.012021 -0.004135 -0.005392 0.000000 0.000000 0.000000
# 2 -0.004135 0.012536 -0.002674 0.000000 0.000000 0.000000
# 3 -0.005392 -0.002674 0.012883 0.000000 0.000000 0.000000
# 4 0.000000 0.000000 0.000000 0.035657 0.000000 0.000000
# 5 0.000000 0.000000 0.000000 0.000000 0.041576 0.000000
# 6 0.000000 0.000000 0.000000 0.000000 0.000000 0.039796
#
#
# Mechanical properties :
#
#
# Convention : Reuss Voigt Hill
#
# Bulk Modulus (GPa) = 76.70259 78.67678 77.68969
# Shear Modulus (GPa) = 27.28969 27.77446 27.53208
#
# Velocity S-wave (km/s) = 3.78551 3.81899 3.80229
# Velocity P-wave (km/s) = 7.70611 7.79488 7.75062
#
# Compressibility (1/GPa) = 0.01303737
#
# Stress axis : x y z
#
# Youngs Moduli (GPa) = 83.18457 79.76831 77.62015
#
# Poissons Ratio (x) = 0.32988 0.41856
# Poissons Ratio (y) = 0.34401 0.20755
# Poissons Ratio (z) = 0.44857 0.21329
#
# Static dielectric constant tensor:
#      x y z
#    x 3.747450 0.000000 0.000000 
#    y 0.000000 3.699860 0.000000 
#    z 0.000000 0.000000 3.188710 
# 
# 
# High freq. dielectric constant tensor:
#      x y z
#    x 1.750530 0.000000 0.000000 
#    y 0.000000 1.751240 0.000000 
#    z 0.000000 0.000000 1.746260 
# 
# From -- ./inp_files/16510.got.cif
#   From: 2010.03.12/outbox.cif.g09.slc.cpg/sg50_9_cif.got.tgz:16510.got - 2010.04.16 13:23:21.
