data_PCOD8205316
_publ_section_title
;
Structure prediction by ZEFSAII (Michael W. Deem and Ramdas Pophale) SiO2 
 PCOD8205316
Probable space group: P B A N
;
_chemical_formula_sum "Si O2"
_cell_formula_units_Z 64
_cell_length_a 32.423567
_cell_length_b 11.665146
_cell_length_c 9.063735
_cell_angle_alpha 90.000000
_cell_angle_beta 90.000000
_cell_angle_gamma 90.000000
_cell_volume 3428.136997
_symmetry_space_group_name_H-M "P B A N"
_symmetry_group_IT_number 50
_space_group.IT_coordinate_system_code '2'
_symmetry_cell_setting 'orthorhombic'
loop_
_space_group_symop_operation_xyz
x,y,z
1/2-x,1/2-y,z
x,1/2-y,-z
1/2-x,y,-z
-x,-y,-z
1/2+x,1/2+y,-z
-x,1/2+y,z
1/2+x,-y,z
loop_
_atom_site_type_symbol
_atom_site_label
_atom_site_fract_x
_atom_site_fract_y
_atom_site_fract_z
Si Si1 0.678785 0.436034 0.149748
Si Si2 0.755092 0.384365 0.329616
Si Si3 0.106367 0.102623 0.846263
Si Si4 0.446110 0.555581 0.648917
Si Si5 0.127375 0.732071 0.337300
Si Si6 0.660537 0.436392 0.809460
Si Si7 0.104376 0.357266 0.818358
Si Si8 0.535069 0.629825 0.589868
O O1 0.724770 0.453472 0.215788
O O2 0.650554 0.545565 0.180933
O O3 0.661487 0.330943 0.242052
O O4 0.676009 0.409200 0.975551
O O5 0.750000 0.250000 0.301050
O O6 0.750000 0.418931 0.500000
O O7 0.801161 0.422799 0.297005
O O8 0.114552 0.226506 0.776557
O O9 0.068715 0.029007 0.778786
O O10 0.092682 0.118326 0.013516
O O11 0.415056 0.663119 0.640597
O O12 0.490594 0.613429 0.666126
O O13 0.449201 0.477163 0.505245
O O14 0.146374 0.750000 0.500000
O O15 0.123293 0.851996 0.246814
O O16 0.643989 0.564723 0.783373
O O17 0.064053 0.383038 0.728112
O O18 0.537144 0.750000 0.500000
#
# Coordination Sequence:
#
# PCOD8205316 Si02
#       8
#     8   8   8   8   8   8   8   8
#     4  10  21  36  60  84 114 154 194 236 284 346
#     4  11  22  37  56  86 120 154 186 234 291 345
#     4   9  20  41  61  82 115 152 195 238 289 337
#     4  10  22  37  58  85 115 151 193 242 293 345
#     4  11  20  34  54  82 118 150 186 238 291 342
#     4  11  22  36  59  87 115 152 197 234 288 347
#     4  10  21  39  61  84 113 153 197 239 285 348
#     4  11  21  37  59  86 115 151 196 240 293 352
#
# _framework density 18.669032000000001
#
# number of rings (size 3 to 8) (size 9 to 14) (size 15 to 20)
#    0.000    1.625    2.500    2.625    0.000    3.000 
#    0.000    0.625    5.500    3.750    0.000    0.000 
#    0.000    0.000    0.000    0.000    0.000    0.000 
#
# Total GULP energy -793006.050564 kJ/mol
# GULP energy per Si atom -12390.719540 kJ/mol
# Density = 1.862654 g / cm^3
# Si number density = 18.669032 Si / 1000 Ang^3
#
#
#
# Elastic Constant Matrix: (Units=GPa)
#
#
# Indices 1 2 3 4 5 6 
#
# 1 121.3731 48.3431 60.0039 0.0000 0.0000 0.0000
# 2 48.3431 -71.8002 91.3363 0.0000 0.0000 0.0000
# 3 60.0039 91.3363 91.5316 0.0000 0.0000 0.0000
# 4 0.0000 0.0000 0.0000 27.2207 0.0000 0.0000
# 5 0.0000 0.0000 0.0000 0.0000 35.4509 0.0000
# 6 0.0000 0.0000 0.0000 0.0000 0.0000 20.4822
#
#
#
# Elastic Compliance Matrix: (Units=1/GPa)
#
#
# Indices 1 2 3 4 5 6 
#
# 1 0.012069 -0.000854 -0.007060 0.000000 0.000000 0.000000
# 2 -0.000854 -0.006077 0.006624 0.000000 0.000000 0.000000
# 3 -0.007060 0.006624 0.008944 0.000000 0.000000 0.000000
# 4 0.000000 0.000000 0.000000 0.036737 0.000000 0.000000
# 5 0.000000 0.000000 0.000000 0.000000 0.028208 0.000000
# 6 0.000000 0.000000 0.000000 0.000000 0.000000 0.048823
#
#
# Mechanical properties :
#
#
# Convention : Reuss Voigt Hill
#
# Bulk Modulus (GPa) = 80.93324 60.05235 70.49280
# Shear Modulus (GPa) = 36.92673 12.72551 24.82612
#
# Velocity S-wave (km/s) = 4.45226 2.61365 3.65060
# Velocity P-wave (km/s) = 8.35918 6.43000 7.45724
#
# Compressibility (1/GPa) = 0.01235586
#
# Stress axis : x y z
#
# Youngs Moduli (GPa) = 82.85359 -164.56274 111.81144
#
# Poissons Ratio (x) = -0.14058 0.78936
# Poissons Ratio (y) = 0.07078 -0.74061
# Poissons Ratio (z) = 0.58493 1.09002
#
# Static dielectric constant tensor:
#      x y z
#    x 3.427330 0.000000 0.000000 
#    y 0.000000 3.843540 0.000000 
#    z 0.000000 0.000000 3.598680 
# 
# 
# High freq. dielectric constant tensor:
#      x y z
#    x 1.721680 0.000000 0.000000 
#    y 0.000000 1.727370 0.000000 
#    z 0.000000 0.000000 1.733330 
# 
# From -- ./inp_files/17124.got.cif
#   From: 2010.03.12/outbox.cif.g09.slc.cpg/sg50_9_cif.got.tgz:17124.got - 2010.04.16 13:23:21.
