data_PCOD8205446
_publ_section_title
;
Structure prediction by ZEFSAII (Michael W. Deem and Ramdas Pophale) SiO2 
 PCOD8205446
Probable space group: P B A N
;
_chemical_formula_sum "Si O2"
_cell_formula_units_Z 64
_cell_length_a 9.563195
_cell_length_b 30.763583
_cell_length_c 11.178633
_cell_angle_alpha 90.000000
_cell_angle_beta 90.000000
_cell_angle_gamma 90.000000
_cell_volume 3288.733071
_symmetry_space_group_name_H-M "P B A N"
_symmetry_group_IT_number 50
_space_group.IT_coordinate_system_code '2'
_symmetry_cell_setting 'orthorhombic'
loop_
_space_group_symop_operation_xyz
x,y,z
1/2-x,1/2-y,z
x,1/2-y,-z
1/2-x,y,-z
-x,-y,-z
1/2+x,1/2+y,-z
-x,1/2+y,z
1/2+x,-y,z
loop_
_atom_site_type_symbol
_atom_site_label
_atom_site_fract_x
_atom_site_fract_y
_atom_site_fract_z
Si Si1 0.458298 0.135105 0.749411
Si Si2 0.239955 0.299455 0.141141
Si Si3 0.975083 0.025346 0.618142
Si Si4 0.411773 0.113944 0.481851
Si Si5 0.532696 0.862865 0.762031
Si Si6 0.710954 0.483908 0.231230
Si Si7 0.252574 0.073394 0.863888
Si Si8 0.764456 0.388225 0.860020
O O1 0.361639 0.175343 0.787571
O O2 0.477317 0.130559 0.605909
O O3 0.390849 0.090759 0.798259
O O4 0.610199 0.140999 0.807707
O O5 0.250000 0.250000 0.184899
O O6 0.089120 0.320575 0.168706
O O7 0.250000 0.303282 0.000000
O O8 0.814107 0.022770 0.657010
O O9 0.009990 0.074384 0.583405
O O10 0.000000 0.000000 0.500000
O O11 0.064142 0.002010 0.721446
O O12 0.250000 0.102054 0.500000
O O13 0.436204 0.149612 0.377651
O O14 0.616330 0.906854 0.798856
O O15 0.372152 0.872019 0.790779
O O16 0.763051 0.521312 0.140650
O O17 0.699634 0.438905 0.159928
O O18 0.250000 0.089620 0.000000
O O19 0.750000 0.379159 0.000000
#
# Coordination Sequence:
#
# PCOD8205446 Si02
#       8
#     8   8   8   8   8   8   8   8
#     4  11  23  38  63  90 121 164 201 249 315 362
#     4  10  21  42  71  99 121 150 202 251 295 366
#     4  12  23  34  53  76 117 159 214 262 299 345
#     4  12  20  40  61  85 119 161 209 260 298 357
#     4  11  22  40  61  88 123 163 199 250 312 358
#     4  12  22  37  50  84 113 162 216 257 303 346
#     4  11  20  36  57  79 114 161 216 260 298 347
#     4  12  24  39  57  87 130 165 206 253 308 371
#
# _framework density 19.460381999999999
#
# number of rings (size 3 to 8) (size 9 to 14) (size 15 to 20)
#    0.000    0.625    5.000    6.750    0.000    0.500 
#    0.000    5.625    0.000    2.250    0.000    1.750 
#    0.000    0.000    0.000    0.000    0.000    0.000 
#
# Total GULP energy -793434.215533 kJ/mol
# GULP energy per Si atom -12397.409618 kJ/mol
# Density = 1.941609 g / cm^3
# Si number density = 19.460382 Si / 1000 Ang^3
#
#
#
# Elastic Constant Matrix: (Units=GPa)
#
#
# Indices 1 2 3 4 5 6 
#
# 1 98.1178 26.0553 27.5014 0.0000 0.0000 0.0000
# 2 26.0553 104.1330 22.9766 0.0000 0.0000 0.0000
# 3 27.5014 22.9766 141.6998 0.0000 0.0000 0.0000
# 4 0.0000 0.0000 0.0000 23.1190 0.0000 0.0000
# 5 0.0000 0.0000 0.0000 0.0000 28.7698 0.0000
# 6 0.0000 0.0000 0.0000 0.0000 0.0000 10.4892
#
#
#
# Elastic Compliance Matrix: (Units=1/GPa)
#
#
# Indices 1 2 3 4 5 6 
#
# 1 0.011346 -0.002440 -0.001806 0.000000 0.000000 0.000000
# 2 -0.002440 0.010484 -0.001226 0.000000 0.000000 0.000000
# 3 -0.001806 -0.001226 0.007607 0.000000 0.000000 0.000000
# 4 0.000000 0.000000 0.000000 0.043254 0.000000 0.000000
# 5 0.000000 0.000000 0.000000 0.000000 0.034759 0.000000
# 6 0.000000 0.000000 0.000000 0.000000 0.000000 0.095336
#
#
# Mechanical properties :
#
#
# Convention : Reuss Voigt Hill
#
# Bulk Modulus (GPa) = 54.08093 55.22413 54.65253
# Shear Modulus (GPa) = 22.73799 30.30343 26.52071
#
# Velocity S-wave (km/s) = 3.42193 3.95040 3.69562
# Velocity P-wave (km/s) = 6.59268 7.01761 6.80846
#
# Compressibility (1/GPa) = 0.01849081
#
# Stress axis : x y z
#
# Youngs Moduli (GPa) = 88.13537 95.38064 131.46443
#
# Poissons Ratio (x) = 0.23276 0.23748
# Poissons Ratio (y) = 0.21508 0.16123
# Poissons Ratio (z) = 0.15921 0.11697
#
# Static dielectric constant tensor:
#      x y z
#    x 3.301850 0.000000 0.000000 
#    y 0.000000 3.362620 0.000000 
#    z 0.000000 0.000000 3.726350 
# 
# 
# High freq. dielectric constant tensor:
#      x y z
#    x 1.758400 0.000000 0.000000 
#    y 0.000000 1.724610 0.000000 
#    z 0.000000 0.000000 1.777020 
# 
# From -- ./inp_files/19540.got.cif
#   From: 2010.03.12/outbox.cif.g09.slc.cpg/sg50_10_cif.got.tgz:19540.got - 2010.04.16 13:23:21.
