data_PCOD8205077
_publ_section_title
;
Structure prediction by ZEFSAII (Michael W. Deem and Ramdas Pophale) SiO2 
 PCOD8205077
Probable space group: P B A N
;
_chemical_formula_sum "Si O2"
_cell_formula_units_Z 42
_cell_length_a 8.999497
_cell_length_b 11.788988
_cell_length_c 21.310369
_cell_angle_alpha 90.000000
_cell_angle_beta 90.000000
_cell_angle_gamma 90.000000
_cell_volume 2260.922792
_symmetry_space_group_name_H-M "P B A N"
_symmetry_group_IT_number 50
_space_group.IT_coordinate_system_code '2'
_symmetry_cell_setting 'orthorhombic'
loop_
_space_group_symop_operation_xyz
x,y,z
1/2-x,1/2-y,z
x,1/2-y,-z
1/2-x,y,-z
-x,-y,-z
1/2+x,1/2+y,-z
-x,1/2+y,z
1/2+x,-y,z
loop_
_atom_site_type_symbol
_atom_site_label
_atom_site_fract_x
_atom_site_fract_y
_atom_site_fract_z
Si Si1 0.069172 0.945484 0.438604
Si Si2 0.501833 0.501247 0.851549
Si Si3 0.750000 0.250000 0.500000
Si Si4 0.249727 0.117277 0.225833
Si Si5 0.218838 0.116827 0.631256
Si Si6 0.754300 0.383485 0.929609
O O1 0.153273 0.829328 0.454724
O O2 0.949507 0.911062 0.386797
O O3 0.175437 0.042317 0.412063
O O4 0.000000 0.000000 0.500000
O O5 0.392100 0.423238 0.812224
O O6 0.595569 0.575502 0.803110
O O7 0.610551 0.424532 0.892402
O O8 0.407986 0.581076 0.897382
O O9 0.250000 0.250000 0.222273
O O10 0.258296 0.076624 0.297488
O O11 0.250000 0.250000 0.620887
O O12 0.750000 0.250000 0.931445
O O13 0.750000 0.434153 0.000000
#
# Coordination Sequence:
#
# PCOD8205077 Si02
#       6
#     8   8   2   8   8   8
#     4  12  23  42  62  87 117 150 190 235 294 346
#     4  10  20  36  57  80 114 148 186 229 278 328
#     4  12  24  40  64  88 116 152 190 230 294 356
#     4  10  21  38  58  82 111 148 188 230 278 330
#     4  11  24  40  62  86 116 150 192 240 286 345
#     4  10  20  34  55  83 113 147 187 229 276 328
#
# _framework density 18.576485999999999
#
# number of rings (size 3 to 8) (size 9 to 14) (size 15 to 20)
#    0.000    1.333    1.905    4.000    0.000    0.762 
#    0.000    0.000    4.190    9.143    0.000    0.000 
#    0.000    0.000    0.000    0.000    0.000    0.000 
#
# Total GULP energy -520917.287625 kJ/mol
# GULP energy per Si atom -12402.792563 kJ/mol
# Density = 1.853421 g / cm^3
# Si number density = 18.576486 Si / 1000 Ang^3
#
#
#
# Elastic Constant Matrix: (Units=GPa)
#
#
# Indices 1 2 3 4 5 6 
#
# 1 129.6676 34.8256 66.6483 0.0000 0.0000 0.0000
# 2 34.8256 70.6872 51.3494 0.0000 0.0000 0.0000
# 3 66.6483 51.3494 146.8699 0.0000 0.0000 0.0000
# 4 0.0000 0.0000 0.0000 37.0991 0.0000 0.0000
# 5 0.0000 0.0000 0.0000 0.0000 25.6021 0.0000
# 6 0.0000 0.0000 0.0000 0.0000 0.0000 20.8040
#
#
#
# Elastic Compliance Matrix: (Units=1/GPa)
#
#
# Indices 1 2 3 4 5 6 
#
# 1 0.010319 -0.002255 -0.003894 0.000000 0.000000 0.000000
# 2 -0.002255 0.019456 -0.005779 0.000000 0.000000 0.000000
# 3 -0.003894 -0.005779 0.010596 0.000000 0.000000 0.000000
# 4 0.000000 0.000000 0.000000 0.026955 0.000000 0.000000
# 5 0.000000 0.000000 0.000000 0.000000 0.039059 0.000000
# 6 0.000000 0.000000 0.000000 0.000000 0.000000 0.048068
#
#
# Mechanical properties :
#
#
# Convention : Reuss Voigt Hill
#
# Bulk Modulus (GPa) = 60.55146 72.54128 66.54637
# Shear Modulus (GPa) = 27.20123 29.66114 28.43119
#
# Velocity S-wave (km/s) = 3.83075 4.00021 3.91640
# Velocity P-wave (km/s) = 7.22722 7.77627 7.50677
#
# Compressibility (1/GPa) = 0.01651488
#
# Stress axis : x y z
#
# Youngs Moduli (GPa) = 96.90497 51.39848 94.37107
#
# Poissons Ratio (x) = 0.11591 0.36752
# Poissons Ratio (y) = 0.21852 0.54536
# Poissons Ratio (z) = 0.37739 0.29703
#
# Static dielectric constant tensor:
#      x y z
#    x 3.453160 0.000000 0.000000 
#    y 0.000000 3.555160 0.000000 
#    z 0.000000 0.000000 2.979040 
# 
# 
# High freq. dielectric constant tensor:
#      x y z
#    x 1.738010 0.000000 0.000000 
#    y 0.000000 1.729430 0.000000 
#    z 0.000000 0.000000 1.737020 
# 
# From -- ./inp_files/30565.got.cif
#   From: 2010.03.12/outbox.cif.g09.slc.cpg/sg50_16_cif.got.tgz:30565.got - 2010.04.16 13:23:21.
