data_PCOD8205762
_publ_section_title
;
Structure prediction by ZEFSAII (Michael W. Deem and Ramdas Pophale) SiO2 
 PCOD8205762
Probable space group: P B A N
;
_chemical_formula_sum "Si O2"
_cell_formula_units_Z 40
_cell_length_a 12.690402
_cell_length_b 14.030396
_cell_length_c 9.402067
_cell_angle_alpha 90.000000
_cell_angle_beta 90.000000
_cell_angle_gamma 90.000000
_cell_volume 1674.050867
_symmetry_space_group_name_H-M "P B A N"
_symmetry_group_IT_number 50
_space_group.IT_coordinate_system_code '2'
_symmetry_cell_setting 'orthorhombic'
loop_
_space_group_symop_operation_xyz
x,y,z
1/2-x,1/2-y,z
x,1/2-y,-z
1/2-x,y,-z
-x,-y,-z
1/2+x,1/2+y,-z
-x,1/2+y,z
1/2+x,-y,z
loop_
_atom_site_type_symbol
_atom_site_label
_atom_site_fract_x
_atom_site_fract_y
_atom_site_fract_z
Si Si1 0.610606 0.497618 0.889128
Si Si2 0.637881 0.142230 0.543555
Si Si3 0.343546 0.532352 0.802729
Si Si4 0.628478 0.781472 0.155947
Si Si5 0.029504 0.119197 0.682800
O O1 0.728777 0.463359 0.864213
O O2 0.606770 0.606115 0.832303
O O3 0.545118 0.422788 0.802295
O O4 0.581013 0.482690 0.058033
O O5 0.649721 0.250000 0.500000
O O6 0.750000 0.091307 0.500000
O O7 0.625468 0.127580 0.714152
O O8 0.531627 0.105452 0.465920
O O9 0.364094 0.445302 0.690090
O O10 0.750000 0.750000 0.175898
O O11 0.559683 0.728499 0.278754
O O12 0.590378 0.750000 0.000000
#
# Coordination Sequence:
#
# PCOD8205762 Si02
#       5
#     8   8   8   8   8
#     4  11  23  42  73 108 144 185 245 309 365 447
#     4  11  26  47  66  94 145 197 244 295 361 450
#     4  11  22  45  70 102 144 185 240 299 371 433
#     4  11  21  41  68 107 153 190 239 314 381 430
#     4  12  24  41  74 103 138 197 236 306 365 441
#
# _framework density 23.894137000000001
#
# number of rings (size 3 to 8) (size 9 to 14) (size 15 to 20)
#    0.000    0.800    6.000    2.400    2.800    0.000 
#    0.000    0.000    0.000    0.000    0.000    1.400 
#    0.000    0.000    0.000    0.000    0.000    0.000 
#
# Total GULP energy -495608.247941 kJ/mol
# GULP energy per Si atom -12390.206199 kJ/mol
# Density = 2.383975 g / cm^3
# Si number density = 23.894137 Si / 1000 Ang^3
#
#
#
# Elastic Constant Matrix: (Units=GPa)
#
#
# Indices 1 2 3 4 5 6 
#
# 1 53.7520 16.8505 35.6945 0.0000 0.0000 0.0000
# 2 16.8505 124.7195 47.6348 0.0000 0.0000 0.0000
# 3 35.6945 47.6348 117.2384 0.0000 0.0000 0.0000
# 4 0.0000 0.0000 0.0000 9.6728 0.0000 0.0000
# 5 0.0000 0.0000 0.0000 0.0000 27.0203 0.0000
# 6 0.0000 0.0000 0.0000 0.0000 0.0000 50.3237
#
#
#
# Elastic Compliance Matrix: (Units=1/GPa)
#
#
# Indices 1 2 3 4 5 6 
#
# 1 0.023347 -0.000520 -0.006897 0.000000 0.000000 0.000000
# 2 -0.000520 0.009502 -0.003703 0.000000 0.000000 0.000000
# 3 -0.006897 -0.003703 0.012134 0.000000 0.000000 0.000000
# 4 0.000000 0.000000 0.000000 0.103383 0.000000 0.000000
# 5 0.000000 0.000000 0.000000 0.000000 0.037009 0.000000
# 6 0.000000 0.000000 0.000000 0.000000 0.000000 0.019871
#
#
# Mechanical properties :
#
#
# Convention : Reuss Voigt Hill
#
# Bulk Modulus (GPa) = 43.96760 55.11883 49.54321
# Shear Modulus (GPa) = 21.27054 30.43871 25.85462
#
# Velocity S-wave (km/s) = 2.98686 3.57304 3.29302
# Velocity P-wave (km/s) = 5.50782 6.33563 5.93617
#
# Compressibility (1/GPa) = 0.02274402
#
# Stress axis : x y z
#
# Youngs Moduli (GPa) = 42.83213 105.23660 82.41427
#
# Poissons Ratio (x) = 0.05474 0.56840
# Poissons Ratio (y) = 0.02228 0.30514
# Poissons Ratio (z) = 0.29541 0.38964
#
# Static dielectric constant tensor:
#      x y z
#    x 5.587300 0.000000 0.000000 
#    y 0.000000 4.298390 0.000000 
#    z 0.000000 0.000000 4.415670 
# 
# 
# High freq. dielectric constant tensor:
#      x y z
#    x 1.977710 0.000000 0.000000 
#    y 0.000000 1.934260 0.000000 
#    z 0.000000 0.000000 1.938820 
# 
# From -- ./inp_files/12556.got.cif
#   From: 2010.03.12/outbox.cif.g09.slc.cpg/sg50_7_cif.got.tgz:12556.got - 2010.04.16 13:23:21.
