data_PCOD8205032
_publ_section_title
;
Structure prediction by ZEFSAII (Michael W. Deem and Ramdas Pophale) SiO2 
 PCOD8205032
Probable space group: P B A N
;
_chemical_formula_sum "Si O2"
_cell_formula_units_Z 56
_cell_length_a 13.395872
_cell_length_b 13.798631
_cell_length_c 15.094132
_cell_angle_alpha 90.000000
_cell_angle_beta 90.000000
_cell_angle_gamma 90.000000
_cell_volume 2790.070221
_symmetry_space_group_name_H-M "P B A N"
_symmetry_group_IT_number 50
_space_group.IT_coordinate_system_code '2'
_symmetry_cell_setting 'orthorhombic'
loop_
_space_group_symop_operation_xyz
x,y,z
1/2-x,1/2-y,z
x,1/2-y,-z
1/2-x,y,-z
-x,-y,-z
1/2+x,1/2+y,-z
-x,1/2+y,z
1/2+x,-y,z
loop_
_atom_site_type_symbol
_atom_site_label
_atom_site_fract_x
_atom_site_fract_y
_atom_site_fract_z
Si Si1 0.915431 0.753207 0.768971
Si Si2 0.219069 0.646288 0.377678
Si Si3 0.752306 0.111059 0.826876
Si Si4 0.005146 0.322557 0.583787
Si Si5 0.241579 0.400881 0.229453
Si Si6 0.690650 0.953922 0.419348
Si Si7 0.905894 0.252246 0.898213
O O1 0.867213 0.647058 0.781838
O O2 0.831383 0.830477 0.793687
O O3 0.960897 0.762493 0.670432
O O4 0.997548 0.772583 0.841441
O O5 0.250000 0.750000 0.415696
O O6 0.232763 0.645491 0.272614
O O7 0.103290 0.629052 0.403076
O O8 0.297079 0.571171 0.423773
O O9 0.857601 0.151879 0.862672
O O10 0.667906 0.156627 0.888972
O O11 0.749879 0.994841 0.833342
O O12 0.011098 0.250000 0.500000
O O13 0.077399 0.416413 0.575238
O O14 0.249890 0.425828 0.332105
O O15 0.750000 0.904382 0.500000
O O16 0.937603 0.250000 0.000000
#
# Coordination Sequence:
#
# PCOD8205032 Si02
#       7
#     8   8   8   8   8   8   8
#     4  10  20  42  61  93 125 159 212 253 312 368
#     4  11  22  41  60  91 128 165 206 264 307 365
#     4  10  19  41  60  89 120 157 202 247 311 366
#     4  11  23  40  68  91 125 175 213 259 312 366
#     4   9  21  38  65  85 125 170 198 258 312 370
#     4  10  23  40  59  91 129 166 220 257 305 367
#     4  11  22  40  66  91 120 158 205 259 312 375
#
# _framework density 20.071180999999999
#
# number of rings (size 3 to 8) (size 9 to 14) (size 15 to 20)
#    0.000    1.714    2.857    1.714    2.000    3.143 
#   12.857    5.714    0.000    0.000    0.000    0.000 
#    0.000    0.000    0.000    0.000    0.000    0.000 
#
# Total GULP energy -694238.531397 kJ/mol
# GULP energy per Si atom -12397.116632 kJ/mol
# Density = 2.002550 g / cm^3
# Si number density = 20.071181 Si / 1000 Ang^3
#
#
#
# Elastic Constant Matrix: (Units=GPa)
#
#
# Indices 1 2 3 4 5 6 
#
# 1 100.8774 40.4294 30.6045 0.0000 0.0000 0.0000
# 2 40.4294 129.2274 21.0545 0.0000 0.0000 0.0000
# 3 30.6045 21.0545 98.1372 0.0000 0.0000 0.0000
# 4 0.0000 0.0000 0.0000 11.3799 0.0000 0.0000
# 5 0.0000 0.0000 0.0000 0.0000 627.9532 0.0000
# 6 0.0000 0.0000 0.0000 0.0000 0.0000 21.9234
#
#
#
# Elastic Compliance Matrix: (Units=1/GPa)
#
#
# Indices 1 2 3 4 5 6 
#
# 1 0.012175 -0.003306 -0.003087 0.000000 0.000000 0.000000
# 2 -0.003306 0.008916 -0.000882 0.000000 0.000000 0.000000
# 3 -0.003087 -0.000882 0.011342 0.000000 0.000000 0.000000
# 4 0.000000 0.000000 0.000000 0.087874 0.000000 0.000000
# 5 0.000000 0.000000 0.000000 0.000000 0.001592 0.000000
# 6 0.000000 0.000000 0.000000 0.000000 0.000000 0.045613
#
#
# Mechanical properties :
#
#
# Convention : Reuss Voigt Hill
#
# Bulk Modulus (GPa) = 55.92159 56.93540 56.42850
# Shear Modulus (GPa) = 26.59233 147.99489 87.29361
#
# Velocity S-wave (km/s) = 3.64387 8.59623 6.60200
# Velocity P-wave (km/s) = 6.75469 11.26744 9.28927
#
# Compressibility (1/GPa) = 0.01788218
#
# Stress axis : x y z
#
# Youngs Moduli (GPa) = 82.13815 112.15485 88.16892
#
# Poissons Ratio (x) = 0.37077 0.27222
# Poissons Ratio (y) = 0.27154 0.07776
# Poissons Ratio (z) = 0.25360 0.09892
#
# Static dielectric constant tensor:
#      x y z
#    x 3.755380 0.000000 0.000000 
#    y 0.000000 3.997820 0.000000 
#    z 0.000000 0.000000 3.587230 
# 
# 
# High freq. dielectric constant tensor:
#      x y z
#    x 1.785570 0.000000 0.000000 
#    y 0.000000 1.782800 0.000000 
#    z 0.000000 0.000000 1.780320 
# 
# From -- ./inp_files/25939.got.cif
#   From: 2010.03.12/outbox.cif.g09.slc.cpg/sg50_13_cif.got.tgz:25939.got - 2010.04.16 13:23:21.
