data_PCOD8205169
_publ_section_title
;
Structure prediction by ZEFSAII (Michael W. Deem and Ramdas Pophale) SiO2 
 PCOD8205169
Probable space group: P B A N
;
_chemical_formula_sum "Si O2"
_cell_formula_units_Z 58
_cell_length_a 12.247495
_cell_length_b 8.869533
_cell_length_c 25.951975
_cell_angle_alpha 90.000000
_cell_angle_beta 90.000000
_cell_angle_gamma 90.000000
_cell_volume 2819.151653
_symmetry_space_group_name_H-M "P B A N"
_symmetry_group_IT_number 50
_space_group.IT_coordinate_system_code '2'
_symmetry_cell_setting 'orthorhombic'
loop_
_space_group_symop_operation_xyz
x,y,z
1/2-x,1/2-y,z
x,1/2-y,-z
1/2-x,y,-z
-x,-y,-z
1/2+x,1/2+y,-z
-x,1/2+y,z
1/2+x,-y,z
loop_
_atom_site_type_symbol
_atom_site_label
_atom_site_fract_x
_atom_site_fract_y
_atom_site_fract_z
Si Si1 0.378420 0.742952 0.940844
Si Si2 0.081705 0.152773 0.288406
Si Si3 0.414278 0.883642 0.579599
Si Si4 0.626986 0.777088 0.401056
Si Si5 0.750000 0.250000 0.500000
Si Si6 0.503420 0.994287 0.878882
Si Si7 0.870631 0.753450 0.821983
Si Si8 0.367136 0.693418 0.307734
O O1 0.250000 0.750000 0.934382
O O2 0.418345 0.585798 0.917062
O O3 0.429115 0.885325 0.912456
O O4 0.415123 0.750000 0.000000
O O5 0.127878 0.238980 0.338928
O O6 0.136560 0.231456 0.239559
O O7 0.951797 0.184091 0.285507
O O8 0.105565 0.974408 0.287982
O O9 0.541664 0.836861 0.571390
O O10 0.331651 0.850805 0.533469
O O11 0.369010 0.801227 0.630344
O O12 0.418508 0.060970 0.584932
O O13 0.750000 0.750000 0.421852
O O14 0.429371 0.103667 0.845846
O O15 0.572303 0.902038 0.837160
O O16 0.750000 0.750000 0.845320
O O17 0.250000 0.750000 0.287623
#
# Coordination Sequence:
#
# PCOD8205169 Si02
#       8
#     8   8   8   8   2   8   8   8
#     4  10  20  37  60  84 112 156 205 249 299 351
#     4  10  22  37  62  91 118 162 207 243 296 367
#     4  10  24  41  67  91 124 162 200 249 310 365
#     4  10  23  43  66  93 126 160 207 254 303 360
#     4  12  24  44  68  92 128 160 202 250 312 380
#     4  10  22  37  56  85 121 154 195 251 299 355
#     4  11  22  38  57  84 122 158 195 240 304 357
#     4  10  21  40  62  88 121 156 199 252 298 349
#
# _framework density 20.573564999999999
#
# number of rings (size 3 to 8) (size 9 to 14) (size 15 to 20)
#    0.000    1.793    0.690    2.483    1.931    8.276 
#    0.000    3.448    0.000    6.621    0.000    0.000 
#    0.000    0.000    0.000    0.000    0.000    0.000 
#
# Total GULP energy -719284.031130 kJ/mol
# GULP energy per Si atom -12401.448813 kJ/mol
# Density = 2.052674 g / cm^3
# Si number density = 20.573565 Si / 1000 Ang^3
#
#
#
# Elastic Constant Matrix: (Units=GPa)
#
#
# Indices 1 2 3 4 5 6 
#
# 1 164.3678 65.9658 37.7706 0.0000 0.0000 0.0000
# 2 65.9658 120.2183 40.1561 0.0000 0.0000 0.0000
# 3 37.7706 40.1561 102.4832 0.0000 0.0000 0.0000
# 4 0.0000 0.0000 0.0000 25.0989 0.0000 0.0000
# 5 0.0000 0.0000 0.0000 0.0000 29.4312 0.0000
# 6 0.0000 0.0000 0.0000 0.0000 0.0000 -0.8454
#
#
#
# Elastic Compliance Matrix: (Units=1/GPa)
#
#
# Indices 1 2 3 4 5 6 
#
# 1 0.007975 -0.003905 -0.001409 0.000000 0.000000 0.000000
# 2 -0.003905 0.011483 -0.003060 0.000000 0.000000 0.000000
# 3 -0.001409 -0.003060 0.011476 0.000000 0.000000 0.000000
# 4 0.000000 0.000000 0.000000 0.039842 0.000000 0.000000
# 5 0.000000 0.000000 0.000000 0.000000 0.033978 0.000000
# 6 0.000000 0.000000 0.000000 0.000000 0.000000 -1.182929
#
#
# Mechanical properties :
#
#
# Convention : Reuss Voigt Hill
#
# Bulk Modulus (GPa) = 70.49538 74.98381 72.73960
# Shear Modulus (GPa) = -4.73172 26.94874 11.10851
#
# Velocity S-wave (km/s) = -1.51819 3.62314 2.32618
# Velocity P-wave (km/s) = 5.59162 7.35042 6.53050
#
# Compressibility (1/GPa) = 0.01418533
#
# Stress axis : x y z
#
# Youngs Moduli (GPa) = 125.39109 87.08266 87.13796
#
# Poissons Ratio (x) = 0.34009 0.12278
# Poissons Ratio (y) = 0.48970 0.26666
# Poissons Ratio (z) = 0.17667 0.26649
#
# Static dielectric constant tensor:
#      x y z
#    x 3.782460 0.000000 0.000000 
#    y 0.000000 3.629020 0.000000 
#    z 0.000000 0.000000 3.504320 
# 
# 
# High freq. dielectric constant tensor:
#      x y z
#    x 1.818030 0.000000 0.000000 
#    y 0.000000 1.809870 0.000000 
#    z 0.000000 0.000000 1.798300 
# 
# From -- ./inp_files/32183.got.cif
#   From: 2010.03.12/outbox.cif.g09.slc.cpg/sg50_17_cif.got.tgz:32183.got - 2010.04.16 13:23:21.
