data_PCOD8205295
_publ_section_title
;
Structure prediction by ZEFSAII (Michael W. Deem and Ramdas Pophale) SiO2 
 PCOD8205295
Probable space group: P B A N
;
_chemical_formula_sum "Si O2"
_cell_formula_units_Z 48
_cell_length_a 5.153737
_cell_length_b 17.646569
_cell_length_c 25.774659
_cell_angle_alpha 90.000000
_cell_angle_beta 90.000000
_cell_angle_gamma 90.000000
_cell_volume 2344.096353
_symmetry_space_group_name_H-M "P B A N"
_symmetry_group_IT_number 50
_space_group.IT_coordinate_system_code '2'
_symmetry_cell_setting 'orthorhombic'
loop_
_space_group_symop_operation_xyz
x,y,z
1/2-x,1/2-y,z
x,1/2-y,-z
1/2-x,y,-z
-x,-y,-z
1/2+x,1/2+y,-z
-x,1/2+y,z
1/2+x,-y,z
loop_
_atom_site_type_symbol
_atom_site_label
_atom_site_fract_x
_atom_site_fract_y
_atom_site_fract_z
Si Si1 0.749814 0.338355 0.713759
Si Si2 0.997982 0.284265 0.057390
Si Si3 0.585239 0.046378 0.081469
Si Si4 0.747819 0.661393 0.350281
Si Si5 0.765251 0.951671 0.440897
Si Si6 0.395086 0.954801 0.796809
O O1 0.750000 0.250000 0.726245
O O2 0.527360 0.362460 0.673446
O O3 0.688896 0.378535 0.768023
O O4 0.025403 0.362731 0.689667
O O5 0.750000 0.250000 0.087713
O O6 0.983835 0.374896 0.053666
O O7 0.250000 0.250000 0.086888
O O8 0.000242 0.250000 0.000000
O O9 0.599458 0.062604 0.142423
O O10 0.363930 0.986438 0.064279
O O11 0.750000 0.750000 0.362431
O O12 0.787407 0.619919 0.404647
O O13 0.750000 0.922681 0.500000
O O14 0.548701 0.014870 0.429451
O O15 0.682734 0.981719 0.781021
#
# Coordination Sequence:
#
# PCOD8205295 Si02
#       6
#     8   8   8   8   8   8
#     4  10  21  36  53  79 110 141 178 222 271 323
#     4  10  21  39  59  86 117 147 190 236 278 335
#     4  10  21  39  60  84 116 153 190 234 285 336
#     4  10  21  36  54  77 108 142 179 221 270 327
#     4  10  21  36  54  78 105 136 179 226 272 323
#     4  10  21  36  56  82 110 143 185 225 268 328
#
# _framework density 20.476974999999999
#
# number of rings (size 3 to 8) (size 9 to 14) (size 15 to 20)
#    0.000    2.000    0.000    3.000    0.000    5.000 
#    0.000   12.500    0.000    6.000    0.000    0.000 
#    0.000    0.000    0.000    0.000    0.000    0.000 
#
# Total GULP energy -595170.116457 kJ/mol
# GULP energy per Si atom -12399.377426 kJ/mol
# Density = 2.043037 g / cm^3
# Si number density = 20.476975 Si / 1000 Ang^3
#
#
#
# Elastic Constant Matrix: (Units=GPa)
#
#
# Indices 1 2 3 4 5 6 
#
# 1 146.3186 41.5665 24.3620 0.0000 0.0000 0.0000
# 2 41.5665 106.3190 50.4516 0.0000 0.0000 0.0000
# 3 24.3620 50.4516 53.2656 0.0000 0.0000 0.0000
# 4 0.0000 0.0000 0.0000 30.0482 0.0000 0.0000
# 5 0.0000 0.0000 0.0000 0.0000 17.6147 0.0000
# 6 0.0000 0.0000 0.0000 0.0000 0.0000 29.7714
#
#
#
# Elastic Compliance Matrix: (Units=1/GPa)
#
#
# Indices 1 2 3 4 5 6 
#
# 1 0.007732 -0.002443 -0.001223 0.000000 0.000000 0.000000
# 2 -0.002443 0.017856 -0.015796 0.000000 0.000000 0.000000
# 3 -0.001223 -0.015796 0.034294 0.000000 0.000000 0.000000
# 4 0.000000 0.000000 0.000000 0.033280 0.000000 0.000000
# 5 0.000000 0.000000 0.000000 0.000000 0.056771 0.000000
# 6 0.000000 0.000000 0.000000 0.000000 0.000000 0.033589
#
#
# Mechanical properties :
#
#
# Convention : Reuss Voigt Hill
#
# Bulk Modulus (GPa) = 47.70928 59.85150 53.78039
# Shear Modulus (GPa) = 21.79306 28.12173 24.95739
#
# Velocity S-wave (km/s) = 3.26586 3.70987 3.49492
# Velocity P-wave (km/s) = 6.12949 6.90239 6.52739
#
# Compressibility (1/GPa) = 0.02096028
#
# Stress axis : x y z
#
# Youngs Moduli (GPa) = 129.33438 56.00322 29.15947
#
# Poissons Ratio (x) = 0.13680 0.03565
# Poissons Ratio (y) = 0.31592 0.46059
# Poissons Ratio (z) = 0.15814 0.88460
#
# Static dielectric constant tensor:
#      x y z
#    x 2.152330 0.000000 0.000000 
#    y 0.000000 3.529240 0.000000 
#    z 0.000000 0.000000 3.485690 
# 
# 
# High freq. dielectric constant tensor:
#      x y z
#    x 1.830770 0.000000 0.000000 
#    y 0.000000 1.794180 0.000000 
#    z 0.000000 0.000000 1.781500 
# 
# From -- ./inp_files/32024.got.cif
#   From: 2010.03.12/outbox.cif.g09.slc.cpg/sg50_17_cif.got.tgz:32024.got - 2010.04.16 13:23:21.
