data_PCOD8205416
_publ_section_title
;
Structure prediction by ZEFSAII (Michael W. Deem and Ramdas Pophale) SiO2 
 PCOD8205416
Probable space group: P B A N
;
_chemical_formula_sum "Si O2"
_cell_formula_units_Z 56
_cell_length_a 19.613363
_cell_length_b 9.638860
_cell_length_c 14.713717
_cell_angle_alpha 90.000000
_cell_angle_beta 90.000000
_cell_angle_gamma 90.000000
_cell_volume 2781.634968
_symmetry_space_group_name_H-M "P B A N"
_symmetry_group_IT_number 50
_space_group.IT_coordinate_system_code '2'
_symmetry_cell_setting 'orthorhombic'
loop_
_space_group_symop_operation_xyz
x,y,z
1/2-x,1/2-y,z
x,1/2-y,-z
1/2-x,y,-z
-x,-y,-z
1/2+x,1/2+y,-z
-x,1/2+y,z
1/2+x,-y,z
loop_
_atom_site_type_symbol
_atom_site_label
_atom_site_fract_x
_atom_site_fract_y
_atom_site_fract_z
Si Si1 0.524586 0.619210 0.063049
Si Si2 0.920040 0.924732 0.358979
Si Si3 0.534466 0.277640 0.397524
Si Si4 0.770120 0.091784 0.761894
Si Si5 0.729797 0.907158 0.598106
Si Si6 0.087697 0.810322 0.207343
Si Si7 0.132489 0.991573 0.830393
O O1 0.477333 0.626886 0.154392
O O2 0.603371 0.583755 0.087418
O O3 0.522478 0.750000 0.000000
O O4 0.500000 0.500000 0.000000
O O5 0.850536 0.928308 0.413512
O O6 0.958586 0.783651 0.386557
O O7 0.967654 0.056972 0.382730
O O8 0.896662 0.925564 0.255255
O O9 0.562839 0.250000 0.500000
O O10 0.578085 0.204855 0.316703
O O11 0.750000 0.250000 0.740176
O O12 0.846066 0.089300 0.805205
O O13 0.714950 0.021002 0.830617
O O14 0.767148 0.007152 0.668951
O O15 0.750000 0.750000 0.622212
O O16 0.750000 0.957282 0.500000
O O17 0.101038 0.661616 0.162835
#
# Coordination Sequence:
#
# PCOD8205416 Si02
#       7
#     8   8   8   8   8   8   8
#     4  12  23  40  68  98 126 167 211 267 332 401
#     4  10  22  40  59  91 126 168 215 266 320 379
#     4  11  23  36  62  95 131 167 210 270 318 385
#     4   9  20  41  68  89 126 170 213 269 327 379
#     4  10  23  40  58  85 129 176 222 267 317 397
#     4  10  21  40  64  97 126 170 210 266 329 383
#     4   9  19  42  63  94 129 160 215 264 319 396
#
# _framework density 20.132044
#
# number of rings (size 3 to 8) (size 9 to 14) (size 15 to 20)
#    0.000    1.857    2.857    1.286    4.000    1.429 
#    5.143    0.714    0.000    0.857    0.000    0.000 
#    0.000    0.000    0.000    0.000    0.000    0.000 
#
# Total GULP energy -693888.916725 kJ/mol
# GULP energy per Si atom -12390.873513 kJ/mol
# Density = 2.008622 g / cm^3
# Si number density = 20.132044 Si / 1000 Ang^3
#
#
#
# Elastic Constant Matrix: (Units=GPa)
#
#
# Indices 1 2 3 4 5 6 
#
# 1 133.7548 57.6702 56.0730 0.0000 0.0000 0.0000
# 2 57.6702 89.3311 40.0121 0.0000 0.0000 0.0000
# 3 56.0730 40.0121 89.5757 0.0000 0.0000 0.0000
# 4 0.0000 0.0000 0.0000 24.1463 0.0000 0.0000
# 5 0.0000 0.0000 0.0000 0.0000 29.6760 0.0000
# 6 0.0000 0.0000 0.0000 0.0000 0.0000 33.4995
#
#
#
# Elastic Compliance Matrix: (Units=1/GPa)
#
#
# Indices 1 2 3 4 5 6 
#
# 1 0.011939 -0.005450 -0.005039 0.000000 0.000000 0.000000
# 2 -0.005450 0.016483 -0.003951 0.000000 0.000000 0.000000
# 3 -0.005039 -0.003951 0.016083 0.000000 0.000000 0.000000
# 4 0.000000 0.000000 0.000000 0.041414 0.000000 0.000000
# 5 0.000000 0.000000 0.000000 0.000000 0.033697 0.000000
# 6 0.000000 0.000000 0.000000 0.000000 0.000000 0.029851
#
#
# Mechanical properties :
#
#
# Convention : Reuss Voigt Hill
#
# Bulk Modulus (GPa) = 64.00350 68.90800 66.45575
# Shear Modulus (GPa) = 27.23985 28.05811 27.64898
#
# Velocity S-wave (km/s) = 3.68239 3.73728 3.70994
# Velocity P-wave (km/s) = 7.06688 7.27498 7.17169
#
# Compressibility (1/GPa) = 0.01562415
#
# Stress axis : x y z
#
# Youngs Moduli (GPa) = 83.76033 60.67037 62.17883
#
# Poissons Ratio (x) = 0.33068 0.31331
# Poissons Ratio (y) = 0.45654 0.24564
# Poissons Ratio (z) = 0.42206 0.23968
#
# Static dielectric constant tensor:
#      x y z
#    x 4.044420 0.000000 0.000000 
#    y 0.000000 3.681320 0.000000 
#    z 0.000000 0.000000 3.683090 
# 
# 
# High freq. dielectric constant tensor:
#      x y z
#    x 1.787510 0.000000 0.000000 
#    y 0.000000 1.783580 0.000000 
#    z 0.000000 0.000000 1.776970 
# 
# From -- ./inp_files/27259.got.cif
#   From: 2010.03.12/outbox.cif.g09.slc.cpg/sg50_14_cif.got.tgz:27259.got - 2010.04.16 13:23:21.
