data_PCOD8205280
_publ_section_title
;
Structure prediction by ZEFSAII (Michael W. Deem and Ramdas Pophale) SiO2 
 PCOD8205280
Probable space group: P B A N
;
_chemical_formula_sum "Si O2"
_cell_formula_units_Z 64
_cell_length_a 8.658220
_cell_length_b 25.373774
_cell_length_c 15.079325
_cell_angle_alpha 90.000000
_cell_angle_beta 90.000000
_cell_angle_gamma 90.000000
_cell_volume 3312.802808
_symmetry_space_group_name_H-M "P B A N"
_symmetry_group_IT_number 50
_space_group.IT_coordinate_system_code '2'
_symmetry_cell_setting 'orthorhombic'
loop_
_space_group_symop_operation_xyz
x,y,z
1/2-x,1/2-y,z
x,1/2-y,-z
1/2-x,y,-z
-x,-y,-z
1/2+x,1/2+y,-z
-x,1/2+y,z
1/2+x,-y,z
loop_
_atom_site_type_symbol
_atom_site_label
_atom_site_fract_x
_atom_site_fract_y
_atom_site_fract_z
Si Si1 0.951569 0.112181 0.177052
Si Si2 0.156888 0.035531 0.587125
Si Si3 0.399212 0.589678 0.192361
Si Si4 0.855468 0.798407 0.732902
Si Si5 0.568717 0.442250 0.996913
Si Si6 0.081411 0.140212 0.655718
Si Si7 0.427621 0.481518 0.294639
Si Si8 0.429164 0.739928 0.401981
O O1 0.766783 0.119542 0.189031
O O2 0.051702 0.165439 0.195502
O O3 0.991292 0.065184 0.243267
O O4 0.992142 0.094129 0.077193
O O5 0.250000 0.017151 0.500000
O O6 0.088632 0.094397 0.580956
O O7 0.263610 0.039448 0.673848
O O8 0.022425 0.994636 0.614198
O O9 0.474291 0.586661 0.094697
O O10 0.519974 0.622645 0.248695
O O11 0.390761 0.530964 0.232199
O O12 0.750000 0.750000 0.774541
O O13 0.747913 0.833918 0.670525
O O14 0.984911 0.775528 0.669099
O O15 0.750000 0.450218 0.000000
O O16 0.500000 0.500000 0.000000
O O17 0.955190 0.178878 0.616164
O O18 0.250000 0.750000 0.394308
O O19 0.494354 0.750000 0.500000
#
# Coordination Sequence:
#
# PCOD8205280 Si02
#       8
#     8   8   8   8   8   8   8   8
#     4  11  20  36  60  84 122 160 198 251 306 358
#     4  11  23  36  52  80 118 160 205 238 291 361
#     4  10  21  37  56  88 122 159 203 237 307 366
#     4  10  22  38  61  87 112 151 201 251 311 359
#     4  10  21  33  57  90 123 160 200 247 292 362
#     4  10  22  36  60  82 112 159 193 252 305 352
#     4  11  20  35  56  78 117 163 200 242 290 356
#     4  10  22  40  62  88 116 146 201 260 309 360
#
# _framework density 19.318988999999998
#
# number of rings (size 3 to 8) (size 9 to 14) (size 15 to 20)
#    0.000    1.625    3.750    1.125    1.750    2.750 
#    0.000    0.000    0.000    5.250    0.000   11.375 
#    0.000    0.000    0.000    0.000    0.000    0.000 
#
# Total GULP energy -793342.424810 kJ/mol
# GULP energy per Si atom -12395.975388 kJ/mol
# Density = 1.927502 g / cm^3
# Si number density = 19.318989 Si / 1000 Ang^3
#
#
#
# Elastic Constant Matrix: (Units=GPa)
#
#
# Indices 1 2 3 4 5 6 
#
# 1 65.6236 37.7135 24.4387 0.0000 0.0000 0.0000
# 2 37.7135 113.1783 49.5096 0.0000 0.0000 0.0000
# 3 24.4387 49.5096 99.0143 0.0000 0.0000 0.0000
# 4 0.0000 0.0000 0.0000 18.2474 0.0000 0.0000
# 5 0.0000 0.0000 0.0000 0.0000 23.4248 0.0000
# 6 0.0000 0.0000 0.0000 0.0000 0.0000 28.1307
#
#
#
# Elastic Compliance Matrix: (Units=1/GPa)
#
#
# Indices 1 2 3 4 5 6 
#
# 1 0.019142 -0.005519 -0.001965 0.000000 0.000000 0.000000
# 2 -0.005519 0.012901 -0.005088 0.000000 0.000000 0.000000
# 3 -0.001965 -0.005088 0.013129 0.000000 0.000000 0.000000
# 4 0.000000 0.000000 0.000000 0.054802 0.000000 0.000000
# 5 0.000000 0.000000 0.000000 0.000000 0.042690 0.000000
# 6 0.000000 0.000000 0.000000 0.000000 0.000000 0.035548
#
#
# Mechanical properties :
#
#
# Convention : Reuss Voigt Hill
#
# Bulk Modulus (GPa) = 49.93347 55.68223 52.80785
# Shear Modulus (GPa) = 23.80589 25.03754 24.42172
#
# Velocity S-wave (km/s) = 3.51416 3.60391 3.55932
# Velocity P-wave (km/s) = 6.50912 6.79726 6.65475
#
# Compressibility (1/GPa) = 0.02002665
#
# Stress axis : x y z
#
# Youngs Moduli (GPa) = 52.24147 77.51598 76.16791
#
# Poissons Ratio (x) = 0.42780 0.14967
# Poissons Ratio (y) = 0.28832 0.38757
# Poissons Ratio (z) = 0.10265 0.39443
#
# Static dielectric constant tensor:
#      x y z
#    x 3.675940 0.000000 0.000000 
#    y 0.000000 3.653240 0.000000 
#    z 0.000000 0.000000 3.604500 
# 
# 
# High freq. dielectric constant tensor:
#      x y z
#    x 1.765620 0.000000 0.000000 
#    y 0.000000 1.745700 0.000000 
#    z 0.000000 0.000000 1.744730 
# 
# From -- ./inp_files/25408.got.cif
#   From: 2010.03.12/outbox.cif.g09.slc.cpg/sg50_13_cif.got.tgz:25408.got - 2010.04.16 13:23:21.
