data_PCOD8205744
_publ_section_title
;
Structure prediction by ZEFSAII (Michael W. Deem and Ramdas Pophale) SiO2 
 PCOD8205744
Probable space group: P B A N
;
_chemical_formula_sum "Si O2"
_cell_formula_units_Z 64
_cell_length_a 8.576393
_cell_length_b 23.445588
_cell_length_c 18.197889
_cell_angle_alpha 90.000000
_cell_angle_beta 90.000000
_cell_angle_gamma 90.000000
_cell_volume 3659.205621
_symmetry_space_group_name_H-M "P B A N"
_symmetry_group_IT_number 50
_space_group.IT_coordinate_system_code '2'
_symmetry_cell_setting 'orthorhombic'
loop_
_space_group_symop_operation_xyz
x,y,z
1/2-x,1/2-y,z
x,1/2-y,-z
1/2-x,y,-z
-x,-y,-z
1/2+x,1/2+y,-z
-x,1/2+y,z
1/2+x,-y,z
loop_
_atom_site_type_symbol
_atom_site_label
_atom_site_fract_x
_atom_site_fract_y
_atom_site_fract_z
Si Si1 0.933258 0.938353 0.270206
Si Si2 0.067654 0.628574 0.866546
Si Si3 0.071585 0.562254 0.581513
Si Si4 0.066147 0.437492 0.995905
Si Si5 0.065589 0.749975 0.082494
Si Si6 0.433521 0.065869 0.725420
Si Si7 0.563915 0.062775 0.577363
Si Si8 0.436579 0.870847 0.139280
O O1 0.749147 0.938822 0.262928
O O2 0.001118 0.899189 0.206568
O O3 0.986146 0.909693 0.348106
O O4 0.993857 0.003047 0.263569
O O5 0.012697 0.694501 0.871438
O O6 0.252447 0.622601 0.867335
O O7 0.003691 0.598437 0.938279
O O8 0.040010 0.593844 0.502490
O O9 0.254629 0.559330 0.597960
O O10 0.005363 0.499708 0.571950
O O11 0.250000 0.439218 0.000000
O O12 0.000000 0.500000 0.000000
O O13 0.018165 0.411635 0.918584
O O14 0.250000 0.750000 0.075059
O O15 0.007954 0.694069 0.125757
O O16 0.993357 0.750000 0.000000
O O17 0.473365 0.092545 0.644834
O O18 0.507795 0.110802 0.780734
#
# Coordination Sequence:
#
# PCOD8205744 Si02
#       8
#     8   8   8   8   8   8   8   8
#     4  11  21  33  49  74 107 140 173 209 254 303
#     4  11  21  37  57  76 100 131 169 211 254 303
#     4   9  16  27  45  70 100 135 172 207 247 298
#     4  12  24  37  52  75 103 134 168 204 251 304
#     4   9  18  36  60  80  95 124 169 212 258 305
#     4  11  21  33  49  74 107 140 173 209 254 303
#     4   9  16  27  45  70 100 135 172 207 247 298
#     4  11  21  37  57  76 100 131 169 211 254 303
#
# _framework density 17.490134999999999
#
# number of rings (size 3 to 8) (size 9 to 14) (size 15 to 20)
#    0.000    1.625    1.250    7.125    0.000    1.500 
#    0.000    3.125    0.000    0.000    0.000    0.875 
#    0.000    7.000    0.000    0.000    0.000    0.000 
#
# Total GULP energy -793257.166556 kJ/mol
# GULP energy per Si atom -12394.643227 kJ/mol
# Density = 1.745033 g / cm^3
# Si number density = 17.490135 Si / 1000 Ang^3
#
#
#
# Elastic Constant Matrix: (Units=GPa)
#
#
# Indices 1 2 3 4 5 6 
#
# 1 99.0471 22.4922 19.1590 0.0000 0.0000 0.0000
# 2 22.4922 77.3140 31.9949 0.0000 0.0000 0.0000
# 3 19.1590 31.9949 118.9572 0.0000 0.0000 0.0000
# 4 0.0000 0.0000 0.0000 -6.9054 0.0000 0.0000
# 5 0.0000 0.0000 0.0000 0.0000 28.9166 0.0000
# 6 0.0000 0.0000 0.0000 0.0000 0.0000 -5.9273
#
#
#
# Elastic Compliance Matrix: (Units=1/GPa)
#
#
# Indices 1 2 3 4 5 6 
#
# 1 0.010919 -0.002755 -0.001017 0.000000 0.000000 0.000000
# 2 -0.002755 0.015250 -0.003658 0.000000 0.000000 0.000000
# 3 -0.001017 -0.003658 0.009554 0.000000 0.000000 0.000000
# 4 0.000000 0.000000 0.000000 -0.144815 0.000000 0.000000
# 5 0.000000 0.000000 0.000000 0.000000 0.034582 0.000000
# 6 0.000000 0.000000 0.000000 0.000000 0.000000 -0.168711
#
#
# Mechanical properties :
#
#
# Convention : Reuss Voigt Hill
#
# Bulk Modulus (GPa) = 47.93618 49.17897 48.55757
# Shear Modulus (GPa) = -22.58287 17.99493 -2.29397
#
# Velocity S-wave (km/s) = -3.59719 3.21107 -1.14649
# Velocity P-wave (km/s) = 3.19593 6.47511 5.10593
#
# Compressibility (1/GPa) = 0.02086107
#
# Stress axis : x y z
#
# Youngs Moduli (GPa) = 91.58564 65.57561 104.66763
#
# Poissons Ratio (x) = 0.18069 0.10649
# Poissons Ratio (y) = 0.25236 0.38285
# Poissons Ratio (z) = 0.09318 0.23986
#
# Static dielectric constant tensor:
#      x y z
#    x 3.384300 0.000000 0.000000 
#    y 0.000000 3.037550 0.000000 
#    z 0.000000 0.000000 2.532350 
# 
# 
# High freq. dielectric constant tensor:
#      x y z
#    x 1.687130 0.000000 0.000000 
#    y 0.000000 1.631140 0.000000 
#    z 0.000000 0.000000 1.696800 
# 
# From -- ./inp_files/29005.got.cif
#   From: 2010.03.12/outbox.cif.g09.slc.cpg/sg50_15_cif.got.tgz:29005.got - 2010.04.16 13:23:21.
