data_PCOD8205999
_publ_section_title
;
Structure prediction by ZEFSAII (Michael W. Deem and Ramdas Pophale) SiO2 
 PCOD8205999
Probable space group: P M M A
;
_chemical_formula_sum "Si O2"
_cell_formula_units_Z 64
_cell_length_a 15.338847
_cell_length_b 18.148004
_cell_length_c 11.569276
_cell_angle_alpha 90.000000
_cell_angle_beta 90.000000
_cell_angle_gamma 90.000000
_cell_volume 3220.533075
_symmetry_space_group_name_H-M "P M M A"
_symmetry_group_IT_number 51
_symmetry_cell_setting 'orthorhombic'
loop_
_space_group_symop_operation_xyz
x,y,z
1/2-x,-y,z
1/2+x,-y,-z
-x,y,-z
-x,-y,-z
1/2+x,y,-z
1/2-x,y,z
x,-y,z
loop_
_atom_site_type_symbol
_atom_site_label
_atom_site_fract_x
_atom_site_fract_y
_atom_site_fract_z
Si Si1 0.152827 0.335621 0.710157
Si Si2 0.100659 0.585826 0.488160
Si Si3 0.591412 0.196030 0.016022
Si Si4 0.017437 0.350198 0.884987
Si Si5 0.847824 0.168792 0.255517
Si Si6 0.347316 0.333769 0.262556
Si Si7 0.653611 0.827127 0.759162
Si Si8 0.997985 0.086768 0.632175
O O1 0.250000 0.340198 0.763530
O O2 0.154472 0.369667 0.583395
O O3 0.084844 0.382373 0.790223
O O4 0.121982 0.250576 0.704589
O O5 0.117773 0.500000 0.506810
O O6 0.135417 0.608406 0.363625
O O7 0.000000 0.606811 0.500000
O O8 0.564876 0.277076 0.063620
O O9 0.649235 0.159257 0.116361
O O10 0.500000 0.151736 0.000000
O O11 0.641776 0.193090 0.894814
O O12 0.922005 0.339320 0.832777
O O13 0.000000 0.400848 0.000000
O O14 0.750000 0.152518 0.298278
O O15 0.910562 0.109500 0.312784
O O16 0.250000 0.349592 0.210923
O O17 0.350694 0.250066 0.310571
O O18 0.750000 0.862849 0.744173
O O19 0.581704 0.880281 0.705694
O O20 0.000000 0.114669 0.500000
O O21 0.987258 0.000000 0.638418
#
# Coordination Sequence:
#
# PCOD8205999 Si02
#       8
#     8   8   8   8   8   8   8   8
#     4  10  21  36  61  91 120 157 201 250 306 359
#     4  11  24  41  63  89 123 165 206 256 316 372
#     4  10  16  34  61  90 124 157 188 249 312 352
#     4  10  18  34  56  86 126 158 192 245 297 360
#     4  10  21  37  62  93 119 153 204 256 304 365
#     4  11  22  35  59  93 123 159 200 249 310 364
#     4  11  22  38  64  96 123 155 208 258 303 367
#     4  11  26  44  61  83 121 171 205 247 312 365
#
# _framework density 19.872485999999999
#
# number of rings (size 3 to 8) (size 9 to 14) (size 15 to 20)
#    0.000    1.500    5.000    1.500    1.750    3.000 
#    0.000    2.500    0.000    3.000    0.000    1.750 
#    0.000    0.000    0.000    0.000    0.000    0.000 
#
# Total GULP energy -792989.806948 kJ/mol
# GULP energy per Si atom -12390.465734 kJ/mol
# Density = 1.982726 g / cm^3
# Si number density = 19.872486 Si / 1000 Ang^3
#
#
#
# Elastic Constant Matrix: (Units=GPa)
#
#
# Indices 1 2 3 4 5 6 
#
# 1 132.2113 28.0440 40.3855 0.0000 0.0000 0.0000
# 2 28.0440 43.3635 29.9290 0.0000 0.0000 0.0000
# 3 40.3855 29.9290 112.3002 0.0000 0.0000 0.0000
# 4 0.0000 0.0000 0.0000 0.2738 0.0000 0.0000
# 5 0.0000 0.0000 0.0000 0.0000 20.4861 0.0000
# 6 0.0000 0.0000 0.0000 0.0000 0.0000 16.6789
#
#
#
# Elastic Compliance Matrix: (Units=1/GPa)
#
#
# Indices 1 2 3 4 5 6 
#
# 1 0.009153 -0.004470 -0.002100 0.000000 0.000000 0.000000
# 2 -0.004470 0.030442 -0.006505 0.000000 0.000000 0.000000
# 3 -0.002100 -0.006505 0.011394 0.000000 0.000000 0.000000
# 4 0.000000 0.000000 0.000000 3.652303 0.000000 0.000000
# 5 0.000000 0.000000 0.000000 0.000000 0.048814 0.000000
# 6 0.000000 0.000000 0.000000 0.000000 0.000000 0.059956
#
#
# Mechanical properties :
#
#
# Convention : Reuss Voigt Hill
#
# Bulk Modulus (GPa) = 40.26232 53.84354 47.05293
# Shear Modulus (GPa) = 1.29989 20.12219 10.71104
#
# Velocity S-wave (km/s) = 0.80965 3.18554 2.32413
# Velocity P-wave (km/s) = 4.60200 6.37836 5.56156
#
# Compressibility (1/GPa) = 0.02483712
#
# Stress axis : x y z
#
# Youngs Moduli (GPa) = 109.24888 32.84966 87.76663
#
# Poissons Ratio (x) = 0.14684 0.18435
# Poissons Ratio (y) = 0.48834 0.57097
# Poissons Ratio (z) = 0.22947 0.21370
#
# Static dielectric constant tensor:
#      x y z
#    x 3.975570 0.000000 0.000000 
#    y 0.000000 3.207310 0.000000 
#    z 0.000000 0.000000 4.074350 
# 
# 
# High freq. dielectric constant tensor:
#      x y z
#    x 1.798380 0.000000 0.000000 
#    y 0.000000 1.723830 0.000000 
#    z 0.000000 0.000000 1.783750 
# 
# From -- ./inp_files/16885.got.cif
#   From: 2010.03.12/outbox.cif.g09.slc.cpg/sg51_9_cif.got.tgz:16885.got - 2010.04.16 13:43:02.
