data_PCOD8205112
_publ_section_title
;
Structure prediction by ZEFSAII (Michael W. Deem and Ramdas Pophale) SiO2 
 PCOD8205112
Probable space group: P B A N
;
_chemical_formula_sum "Si O2"
_cell_formula_units_Z 48
_cell_length_a 16.720865
_cell_length_b 9.352079
_cell_length_c 14.425301
_cell_angle_alpha 90.000000
_cell_angle_beta 90.000000
_cell_angle_gamma 90.000000
_cell_volume 2255.754286
_symmetry_space_group_name_H-M "P B A N"
_symmetry_group_IT_number 50
_space_group.IT_coordinate_system_code '2'
_symmetry_cell_setting 'orthorhombic'
loop_
_space_group_symop_operation_xyz
x,y,z
1/2-x,1/2-y,z
x,1/2-y,-z
1/2-x,y,-z
-x,-y,-z
1/2+x,1/2+y,-z
-x,1/2+y,z
1/2+x,-y,z
loop_
_atom_site_type_symbol
_atom_site_label
_atom_site_fract_x
_atom_site_fract_y
_atom_site_fract_z
Si Si1 0.083216 0.905738 0.829363
Si Si2 0.173134 0.852758 0.646458
Si Si3 0.337672 0.920078 0.988851
Si Si4 0.939471 0.121705 0.608601
Si Si5 0.064142 0.906547 0.186068
Si Si6 0.385785 0.100988 0.461508
O O1 0.154516 0.882905 0.754867
O O2 0.043020 0.752149 0.849758
O O3 0.112407 0.978886 0.924356
O O4 0.015815 0.008265 0.792286
O O5 0.250000 0.750000 0.635201
O O6 0.099354 0.778723 0.588427
O O7 0.180056 0.009900 0.597581
O O8 0.376212 0.973117 0.891358
O O9 0.332514 0.750000 0.000000
O O10 0.250000 0.987518 0.000000
O O11 0.899509 0.096890 0.710937
O O12 0.035570 0.136333 0.601439
O O13 0.909455 0.989689 0.550464
O O14 0.348958 0.250000 0.500000
#
# Coordination Sequence:
#
# PCOD8205112 Si02
#       6
#     8   8   8   8   8   8
#     4  10  21  36  62  91 124 163 209 261 317 381
#     4  11  24  40  63  94 128 170 214 271 329 394
#     4   9  19  34  59  92 126 163 208 259 315 382
#     4  10  21  37  61  93 128 168 211 263 321 392
#     4  10  20  35  59  92 124 162 210 261 311 381
#     4  11  22  39  65  91 125 168 215 267 325 395
#
# _framework density 21.278912999999999
#
# number of rings (size 3 to 8) (size 9 to 14) (size 15 to 20)
#    0.000    1.833    1.667    3.000    9.333    1.333 
#    0.000    1.667    0.000    2.000    0.000    0.000 
#    0.000    0.000    0.000    0.000    0.000    0.000 
#
# Total GULP energy -594693.650521 kJ/mol
# GULP energy per Si atom -12389.451053 kJ/mol
# Density = 2.123048 g / cm^3
# Si number density = 21.278913 Si / 1000 Ang^3
#
#
#
# Elastic Constant Matrix: (Units=GPa)
#
#
# Indices 1 2 3 4 5 6 
#
# 1 78.4541 37.6119 27.9339 0.0000 0.0000 0.0000
# 2 37.6119 95.3727 39.3454 0.0000 0.0000 0.0000
# 3 27.9339 39.3454 117.1309 0.0000 0.0000 0.0000
# 4 0.0000 0.0000 0.0000 18.4270 0.0000 0.0000
# 5 0.0000 0.0000 0.0000 0.0000 25.1095 0.0000
# 6 0.0000 0.0000 0.0000 0.0000 0.0000 29.0445
#
#
#
# Elastic Compliance Matrix: (Units=1/GPa)
#
#
# Indices 1 2 3 4 5 6 
#
# 1 0.016105 -0.005534 -0.001982 0.000000 0.000000 0.000000
# 2 -0.005534 0.014073 -0.003408 0.000000 0.000000 0.000000
# 3 -0.001982 -0.003408 0.010155 0.000000 0.000000 0.000000
# 4 0.000000 0.000000 0.000000 0.054268 0.000000 0.000000
# 5 0.000000 0.000000 0.000000 0.000000 0.039826 0.000000
# 6 0.000000 0.000000 0.000000 0.000000 0.000000 0.034430
#
#
# Mechanical properties :
#
#
# Convention : Reuss Voigt Hill
#
# Bulk Modulus (GPa) = 54.09366 55.63780 54.86573
# Shear Modulus (GPa) = 25.39810 26.92065 26.15938
#
# Velocity S-wave (km/s) = 3.45857 3.56073 3.51002
# Velocity P-wave (km/s) = 6.43626 6.56572 6.50131
#
# Compressibility (1/GPa) = 0.01848646
#
# Stress axis : x y z
#
# Youngs Moduli (GPa) = 62.09307 71.05679 98.47567
#
# Poissons Ratio (x) = 0.39320 0.19518
# Poissons Ratio (y) = 0.34360 0.33557
# Poissons Ratio (z) = 0.12307 0.24214
#
# Static dielectric constant tensor:
#      x y z
#    x 3.661510 0.000000 0.000000 
#    y 0.000000 3.775110 0.000000 
#    z 0.000000 0.000000 4.492370 
# 
# 
# High freq. dielectric constant tensor:
#      x y z
#    x 1.805170 0.000000 0.000000 
#    y 0.000000 1.813760 0.000000 
#    z 0.000000 0.000000 1.854240 
# 
# From -- ./inp_files/25018.got.cif
#   From: 2010.03.12/outbox.cif.g09.slc.cpg/sg50_13_cif.got.tgz:25018.got - 2010.04.16 13:23:21.
