data_PCOD8205252
_publ_section_title
;
Structure prediction by ZEFSAII (Michael W. Deem and Ramdas Pophale) SiO2 
 PCOD8205252
Probable space group: P B A N
;
_chemical_formula_sum "Si O2"
_cell_formula_units_Z 34
_cell_length_a 14.086895
_cell_length_b 12.508383
_cell_length_c 8.910082
_cell_angle_alpha 90.000000
_cell_angle_beta 90.000000
_cell_angle_gamma 90.000000
_cell_volume 1569.994565
_symmetry_space_group_name_H-M "P B A N"
_symmetry_group_IT_number 50
_space_group.IT_coordinate_system_code '2'
_symmetry_cell_setting 'orthorhombic'
loop_
_space_group_symop_operation_xyz
x,y,z
1/2-x,1/2-y,z
x,1/2-y,-z
1/2-x,y,-z
-x,-y,-z
1/2+x,1/2+y,-z
-x,1/2+y,z
1/2+x,-y,z
loop_
_atom_site_type_symbol
_atom_site_label
_atom_site_fract_x
_atom_site_fract_y
_atom_site_fract_z
Si Si1 0.488672 0.346478 0.390399
Si Si2 0.250000 0.750000 0.000000
Si Si3 0.431515 0.356392 0.060086
Si Si4 0.360424 0.975909 0.534940
Si Si5 0.109852 0.584789 0.863636
O O1 0.510300 0.250000 0.500000
O O2 0.481476 0.318927 0.215058
O O3 0.390299 0.400431 0.446744
O O4 0.578982 0.426409 0.398738
O O5 0.188998 0.828799 0.101036
O O6 0.365627 0.461736 0.082572
O O7 0.375353 0.250000 0.000000
O O8 0.510551 0.382558 0.935635
O O9 0.250000 0.965795 0.500000
O O10 0.394010 0.913466 0.684154
#
# Coordination Sequence:
#
# PCOD8205252 Si02
#       5
#     8   2   8   8   8
#     4  10  22  39  64  90 122 167 208 257 321 377
#     4  12  24  40  60  96 120 154 210 266 308 384
#     4  10  20  41  63  90 127 170 210 259 318 389
#     4  10  23  41  61  93 124 160 213 264 313 380
#     4  10  23  38  63  93 124 165 210 261 324 366
#
# _framework density 21.656127000000001
#
# number of rings (size 3 to 8) (size 9 to 14) (size 15 to 20)
#    0.000    1.882    1.176    1.412    3.294    2.824 
#    0.000    0.588    0.000    0.000    0.000    0.000 
#    0.000    0.000    0.000    0.000    0.000    0.000 
#
# Total GULP energy -421286.488134 kJ/mol
# GULP energy per Si atom -12390.779063 kJ/mol
# Density = 2.160684 g / cm^3
# Si number density = 21.656127 Si / 1000 Ang^3
#
#
#
# Elastic Constant Matrix: (Units=GPa)
#
#
# Indices 1 2 3 4 5 6 
#
# 1 81.5784 24.4445 33.7044 0.0000 0.0000 0.0000
# 2 24.4445 132.0687 29.8859 0.0000 0.0000 0.0000
# 3 33.7044 29.8859 90.0785 0.0000 0.0000 0.0000
# 4 0.0000 0.0000 0.0000 34.5973 0.0000 0.0000
# 5 0.0000 0.0000 0.0000 0.0000 8.0444 0.0000
# 6 0.0000 0.0000 0.0000 0.0000 0.0000 19.2367
#
#
#
# Elastic Compliance Matrix: (Units=1/GPa)
#
#
# Indices 1 2 3 4 5 6 
#
# 1 0.014809 -0.001608 -0.005008 0.000000 0.000000 0.000000
# 2 -0.001608 0.008361 -0.002172 0.000000 0.000000 0.000000
# 3 -0.005008 -0.002172 0.013696 0.000000 0.000000 0.000000
# 4 0.000000 0.000000 0.000000 0.028904 0.000000 0.000000
# 5 0.000000 0.000000 0.000000 0.000000 0.124310 0.000000
# 6 0.000000 0.000000 0.000000 0.000000 0.000000 0.051984
#
#
# Mechanical properties :
#
#
# Convention : Reuss Voigt Hill
#
# Bulk Modulus (GPa) = 51.83989 53.31060 52.57524
# Shear Modulus (GPa) = 18.79212 26.75507 22.77359
#
# Velocity S-wave (km/s) = 2.94896 3.51871 3.24636
# Velocity P-wave (km/s) = 5.96530 6.41707 6.19530
#
# Compressibility (1/GPa) = 0.01929017
#
# Stress axis : x y z
#
# Youngs Moduli (GPa) = 67.52749 119.60292 73.01496
#
# Poissons Ratio (x) = 0.19230 0.36562
# Poissons Ratio (y) = 0.10857 0.15862
# Poissons Ratio (z) = 0.33815 0.25983
#
# Static dielectric constant tensor:
#      x y z
#    x 3.539850 0.000000 0.000000 
#    y 0.000000 4.439390 0.000000 
#    z 0.000000 0.000000 3.977280 
# 
# 
# High freq. dielectric constant tensor:
#      x y z
#    x 1.806970 0.000000 0.000000 
#    y 0.000000 1.873640 0.000000 
#    z 0.000000 0.000000 1.863100 
# 
# From -- ./inp_files/10714.got.cif
#   From: 2010.03.12/outbox.cif.g09.slc.cpg/sg50_6_cif.got.tgz:10714.got - 2010.04.16 13:23:21.
