data_PCOD8205205
_publ_section_title
;
Structure prediction by ZEFSAII (Michael W. Deem and Ramdas Pophale) SiO2 
 PCOD8205205
Probable space group: P B A N
;
_chemical_formula_sum "Si O2"
_cell_formula_units_Z 64
_cell_length_a 17.217552
_cell_length_b 13.143403
_cell_length_c 13.793527
_cell_angle_alpha 90.000000
_cell_angle_beta 90.000000
_cell_angle_gamma 90.000000
_cell_volume 3121.436878
_symmetry_space_group_name_H-M "P B A N"
_symmetry_group_IT_number 50
_space_group.IT_coordinate_system_code '2'
_symmetry_cell_setting 'orthorhombic'
loop_
_space_group_symop_operation_xyz
x,y,z
1/2-x,1/2-y,z
x,1/2-y,-z
1/2-x,y,-z
-x,-y,-z
1/2+x,1/2+y,-z
-x,1/2+y,z
1/2+x,-y,z
loop_
_atom_site_type_symbol
_atom_site_label
_atom_site_fract_x
_atom_site_fract_y
_atom_site_fract_z
Si Si1 0.941098 0.214858 0.651804
Si Si2 0.438915 0.587484 0.532526
Si Si3 0.326834 0.976536 0.317942
Si Si4 0.140712 0.357687 0.052222
Si Si5 0.883188 0.984113 0.869183
Si Si6 0.536505 0.923135 0.787633
Si Si7 0.796491 0.161791 0.779907
Si Si8 0.240089 0.136627 0.216035
O O1 0.913614 0.148936 0.560878
O O2 0.966376 0.329285 0.615962
O O3 0.867533 0.215221 0.722929
O O4 0.012305 0.154936 0.702370
O O5 0.500000 0.500000 0.500000
O O6 0.360562 0.534994 0.573583
O O7 0.401631 0.992379 0.247407
O O8 0.276262 0.078219 0.307162
O O9 0.268844 0.884959 0.291795
O O10 0.070832 0.350279 0.129079
O O11 0.219456 0.384542 0.110791
O O12 0.150539 0.250000 0.000000
O O13 0.117852 0.448997 0.980139
O O14 0.826643 0.081257 0.857965
O O15 0.967656 0.009653 0.831037
O O16 0.849428 0.894305 0.800180
O O17 0.750000 0.250000 0.837210
O O18 0.250000 0.250000 0.249549
#
# Coordination Sequence:
#
# PCOD8205205 Si02
#       8
#     8   8   8   8   8   8   8   8
#     4  10  22  39  63  92 121 166 210 253 318 385
#     4  11  21  39  64  90 124 157 207 259 317 381
#     4  10  21  38  62  90 120 158 205 256 313 368
#     4  11  21  36  62  89 123 162 213 258 308 373
#     4  10  21  36  61  89 124 160 208 260 309 371
#     4  10  22  40  58  89 125 161 203 260 320 376
#     4  10  20  40  62  90 125 165 212 254 310 385
#     4  10  20  38  62  88 119 163 212 254 310 378
#
# _framework density 20.503378000000001
#
# number of rings (size 3 to 8) (size 9 to 14) (size 15 to 20)
#    0.000    1.750    3.750    0.750    0.000    1.500 
#    0.000    0.000    0.000    3.000    0.000    0.875 
#    0.000    0.000    0.000    0.000    0.000    0.000 
#
# Total GULP energy -792911.191464 kJ/mol
# GULP energy per Si atom -12389.237367 kJ/mol
# Density = 2.045671 g / cm^3
# Si number density = 20.503378 Si / 1000 Ang^3
#
#
#
# Elastic Constant Matrix: (Units=GPa)
#
#
# Indices 1 2 3 4 5 6 
#
# 1 82.7258 13.5004 9.7510 0.0000 0.0000 0.0000
# 2 13.5004 89.4231 23.4821 0.0000 0.0000 0.0000
# 3 9.7510 23.4821 79.7513 0.0000 0.0000 0.0000
# 4 0.0000 0.0000 0.0000 34.6094 0.0000 0.0000
# 5 0.0000 0.0000 0.0000 0.0000 41.6739 0.0000
# 6 0.0000 0.0000 0.0000 0.0000 0.0000 28.3591
#
#
#
# Elastic Compliance Matrix: (Units=1/GPa)
#
#
# Indices 1 2 3 4 5 6 
#
# 1 0.012474 -0.001607 -0.001052 0.000000 0.000000 0.000000
# 2 -0.001607 0.012327 -0.003433 0.000000 0.000000 0.000000
# 3 -0.001052 -0.003433 0.013678 0.000000 0.000000 0.000000
# 4 0.000000 0.000000 0.000000 0.028894 0.000000 0.000000
# 5 0.000000 0.000000 0.000000 0.000000 0.023996 0.000000
# 6 0.000000 0.000000 0.000000 0.000000 0.000000 0.035262
#
#
# Mechanical properties :
#
#
# Convention : Reuss Voigt Hill
#
# Bulk Modulus (GPa) = 38.02932 38.37412 38.20172
# Shear Modulus (GPa) = 33.87972 34.60627 34.24299
#
# Velocity S-wave (km/s) = 4.06938 4.11278 4.09114
# Velocity P-wave (km/s) = 6.37714 6.42728 6.40226
#
# Compressibility (1/GPa) = 0.02629550
#
# Stress axis : x y z
#
# Youngs Moduli (GPa) = 80.16422 81.12329 73.10768
#
# Poissons Ratio (x) = 0.13037 0.07691
# Poissons Ratio (y) = 0.12883 0.25098
# Poissons Ratio (z) = 0.08434 0.27850
#
# Static dielectric constant tensor:
#      x y z
#    x 3.926360 0.000000 0.000000 
#    y 0.000000 3.954630 0.000000 
#    z 0.000000 0.000000 3.718420 
# 
# 
# High freq. dielectric constant tensor:
#      x y z
#    x 1.805140 0.000000 0.000000 
#    y 0.000000 1.812650 0.000000 
#    z 0.000000 0.000000 1.781400 
# 
# From -- ./inp_files/27014.got.cif
#   From: 2010.03.12/outbox.cif.g09.slc.cpg/sg50_14_cif.got.tgz:27014.got - 2010.04.16 13:23:21.
