data_PCOD8205576
_publ_section_title
;
Structure prediction by ZEFSAII (Michael W. Deem and Ramdas Pophale) SiO2 
 PCOD8205576
Probable space group: P B A N
;
_chemical_formula_sum "Si O2"
_cell_formula_units_Z 60
_cell_length_a 11.003036
_cell_length_b 20.511460
_cell_length_c 12.256379
_cell_angle_alpha 90.000000
_cell_angle_beta 90.000000
_cell_angle_gamma 90.000000
_cell_volume 2766.121743
_symmetry_space_group_name_H-M "P B A N"
_symmetry_group_IT_number 50
_space_group.IT_coordinate_system_code '2'
_symmetry_cell_setting 'orthorhombic'
loop_
_space_group_symop_operation_xyz
x,y,z
1/2-x,1/2-y,z
x,1/2-y,-z
1/2-x,y,-z
-x,-y,-z
1/2+x,1/2+y,-z
-x,1/2+y,z
1/2+x,-y,z
loop_
_atom_site_type_symbol
_atom_site_label
_atom_site_fract_x
_atom_site_fract_y
_atom_site_fract_z
Si Si1 0.520438 0.615048 0.808989
Si Si2 0.007502 0.250000 0.500000
Si Si3 0.391272 0.626132 0.596127
Si Si4 0.748685 0.548078 0.752509
Si Si5 0.606129 0.748987 0.123583
Si Si6 0.421010 0.346121 0.688937
Si Si7 0.378338 0.522816 0.937009
Si Si8 0.353483 0.575410 0.370550
O O1 0.485523 0.599339 0.684291
O O2 0.642287 0.573650 0.832947
O O3 0.545648 0.690798 0.816284
O O4 0.413511 0.594494 0.892083
O O5 0.921844 0.199545 0.437968
O O6 0.084752 0.207238 0.589474
O O7 0.392697 0.573062 0.498084
O O8 0.255340 0.627751 0.644965
O O9 0.799932 0.608960 0.681354
O O10 0.856152 0.522420 0.830991
O O11 0.691946 0.494314 0.671969
O O12 0.750000 0.750000 0.124809
O O13 0.567350 0.686208 0.192048
O O14 0.557017 0.750000 0.000000
O O15 0.533355 0.395565 0.693381
O O16 0.250000 0.528035 0.000000
O O17 0.500000 0.500000 0.000000
#
# Coordination Sequence:
#
# PCOD8205576 Si02
#       8
#     8   4   8   8   8   8   8   8
#     4  12  24  45  71 103 144 186 245 300 365 442
#     4  10  22  47  71 102 134 192 239 297 366 446
#     4  10  22  45  68  97 139 182 237 291 362 442
#     4  12  25  44  70 107 141 187 237 303 366 453
#     4  11  25  45  71  99 138 187 241 298 365 439
#     4  11  24  44  73 104 141 182 243 298 368 443
#     4  12  27  45  74 107 148 198 250 308 373 437
#     4  10  24  43  68 103 138 185 234 294 373 438
#
# _framework density 21.691018
#
# number of rings (size 3 to 8) (size 9 to 14) (size 15 to 20)
#    0.000    0.933    5.333    0.800    1.867    4.800 
#    7.200    3.667    0.000    0.000    0.000    0.000 
#    0.000    0.000    0.000    0.000    0.000    0.000 
#
# Total GULP energy -743536.874006 kJ/mol
# GULP energy per Si atom -12392.281233 kJ/mol
# Density = 2.164165 g / cm^3
# Si number density = 21.691018 Si / 1000 Ang^3
#
#
#
# Elastic Constant Matrix: (Units=GPa)
#
#
# Indices 1 2 3 4 5 6 
#
# 1 120.6041 56.7268 59.0309 0.0000 0.0000 0.0000
# 2 56.7268 134.2438 66.9540 0.0000 0.0000 0.0000
# 3 59.0309 66.9540 124.2122 0.0000 0.0000 0.0000
# 4 0.0000 0.0000 0.0000 241.9224 0.0000 0.0000
# 5 0.0000 0.0000 0.0000 0.0000 357.2047 0.0000
# 6 0.0000 0.0000 0.0000 0.0000 0.0000 44.4172
#
#
#
# Elastic Compliance Matrix: (Units=1/GPa)
#
#
# Indices 1 2 3 4 5 6 
#
# 1 0.011597 -0.002943 -0.003925 0.000000 0.000000 0.000000
# 2 -0.002943 0.010935 -0.004496 0.000000 0.000000 0.000000
# 3 -0.003925 -0.004496 0.012339 0.000000 0.000000 0.000000
# 4 0.000000 0.000000 0.000000 0.004134 0.000000 0.000000
# 5 0.000000 0.000000 0.000000 0.000000 0.002800 0.000000
# 6 0.000000 0.000000 0.000000 0.000000 0.000000 0.022514
#
#
# Mechanical properties :
#
#
# Convention : Reuss Voigt Hill
#
# Bulk Modulus (GPa) = 82.34476 82.72038 82.53257
# Shear Modulus (GPa) = 54.88878 141.79873 98.34375
#
# Velocity S-wave (km/s) = 5.03585 8.09407 6.74069
# Velocity P-wave (km/s) = 8.47691 11.20583 9.93551
#
# Compressibility (1/GPa) = 0.01214406
#
# Stress axis : x y z
#
# Youngs Moduli (GPa) = 86.22965 91.45041 81.04117
#
# Poissons Ratio (x) = 0.26912 0.31809
# Poissons Ratio (y) = 0.25376 0.36433
# Poissons Ratio (z) = 0.33846 0.41113
#
# Static dielectric constant tensor:
#      x y z
#    x 4.051670 0.000000 0.000000 
#    y 0.000000 4.219050 0.000000 
#    z 0.000000 0.000000 4.141850 
# 
# 
# High freq. dielectric constant tensor:
#      x y z
#    x 1.857030 0.000000 0.000000 
#    y 0.000000 1.850470 0.000000 
#    z 0.000000 0.000000 1.855250 
# 
# From -- ./inp_files/20427.got.cif
#   From: 2010.03.12/outbox.cif.g09.slc.cpg/sg50_11_cif.got.tgz:20427.got - 2010.04.16 13:23:21.
