data_PCOD8205153
_publ_section_title
;
Structure prediction by ZEFSAII (Michael W. Deem and Ramdas Pophale) SiO2 
 PCOD8205153
Probable space group: P B A N
;
_chemical_formula_sum "Si O2"
_cell_formula_units_Z 38
_cell_length_a 27.037144
_cell_length_b 7.872660
_cell_length_c 7.741506
_cell_angle_alpha 90.000000
_cell_angle_beta 90.000000
_cell_angle_gamma 90.000000
_cell_volume 1647.812392
_symmetry_space_group_name_H-M "P B A N"
_symmetry_group_IT_number 50
_space_group.IT_coordinate_system_code '2'
_symmetry_cell_setting 'orthorhombic'
loop_
_space_group_symop_operation_xyz
x,y,z
1/2-x,1/2-y,z
x,1/2-y,-z
1/2-x,y,-z
-x,-y,-z
1/2+x,1/2+y,-z
-x,1/2+y,z
1/2+x,-y,z
loop_
_atom_site_type_symbol
_atom_site_label
_atom_site_fract_x
_atom_site_fract_y
_atom_site_fract_z
Si Si1 0.946468 0.558914 0.061577
Si Si2 0.750000 0.250000 0.500000
Si Si3 0.881333 0.250000 0.000000
Si Si4 0.305191 0.253969 0.798019
Si Si5 0.339355 0.602353 0.680316
Si Si6 0.388732 0.419239 0.392971
O O1 0.911451 0.422677 0.970740
O O2 0.936127 0.545366 0.268231
O O3 0.934447 0.750000 0.000000
O O4 0.000000 0.500000 0.000000
O O5 0.715943 0.366772 0.381993
O O6 0.851443 0.252657 0.181200
O O7 0.250000 0.250000 0.714632
O O8 0.337411 0.420177 0.766651
O O9 0.338129 0.101967 0.718927
O O10 0.299545 0.250000 0.000000
O O11 0.378112 0.582899 0.518206
O O12 0.401345 0.250000 0.500000
#
# Coordination Sequence:
#
# PCOD8205153 Si02
#       6
#     8   2   4   8   8   8
#     4  12  25  48  76 103 138 185 235 301 371 444
#     4  12  24  38  58  96 144 186 236 290 344 406
#     4  12  26  47  74 102 142 192 243 296 374 430
#     4  10  20  36  64 100 138 189 240 281 342 422
#     4  11  24  40  64  99 143 190 236 294 348 421
#     4  10  21  42  69  99 140 183 234 293 358 418
#
# _framework density 23.060877999999999
#
# number of rings (size 3 to 8) (size 9 to 14) (size 15 to 20)
#    0.000    1.053    1.053    6.947    0.000    6.737 
#    0.000    4.211    0.000    0.000    0.000    0.000 
#    0.000    0.000    0.000    0.000    0.000    0.000 
#
# Total GULP energy -470876.489596 kJ/mol
# GULP energy per Si atom -12391.486568 kJ/mol
# Density = 2.300839 g / cm^3
# Si number density = 23.060878 Si / 1000 Ang^3
#
#
#
# Elastic Constant Matrix: (Units=GPa)
#
#
# Indices 1 2 3 4 5 6 
#
# 1 131.7438 45.0530 72.5280 0.0000 0.0000 0.0000
# 2 45.0530 115.0573 41.5362 0.0000 0.0000 0.0000
# 3 72.5280 41.5362 163.6778 0.0000 0.0000 0.0000
# 4 0.0000 0.0000 0.0000 37.6743 0.0000 0.0000
# 5 0.0000 0.0000 0.0000 0.0000 57.3456 0.0000
# 6 0.0000 0.0000 0.0000 0.0000 0.0000 38.5675
#
#
#
# Elastic Compliance Matrix: (Units=1/GPa)
#
#
# Indices 1 2 3 4 5 6 
#
# 1 0.010775 -0.002747 -0.004077 0.000000 0.000000 0.000000
# 2 -0.002747 0.010268 -0.001388 0.000000 0.000000 0.000000
# 3 -0.004077 -0.001388 0.008269 0.000000 0.000000 0.000000
# 4 0.000000 0.000000 0.000000 0.026543 0.000000 0.000000
# 5 0.000000 0.000000 0.000000 0.000000 0.017438 0.000000
# 6 0.000000 0.000000 0.000000 0.000000 0.000000 0.025929
#
#
# Mechanical properties :
#
#
# Convention : Reuss Voigt Hill
#
# Bulk Modulus (GPa) = 77.60490 80.96815 79.28652
# Shear Modulus (GPa) = 41.68675 43.47493 42.58084
#
# Velocity S-wave (km/s) = 4.25630 4.34663 4.30170
# Velocity P-wave (km/s) = 7.60789 7.77031 7.68953
#
# Compressibility (1/GPa) = 0.01288578
#
# Stress axis : x y z
#
# Youngs Moduli (GPa) = 92.81149 97.38760 120.93949
#
# Poissons Ratio (x) = 0.26753 0.49310
# Poissons Ratio (y) = 0.25496 0.16792
# Poissons Ratio (z) = 0.37841 0.13522
#
# Static dielectric constant tensor:
#      x y z
#    x 4.048460 0.000000 0.000000 
#    y 0.000000 4.511650 0.000000 
#    z 0.000000 0.000000 4.498070 
# 
# 
# High freq. dielectric constant tensor:
#      x y z
#    x 1.886800 0.000000 0.000000 
#    y 0.000000 1.926380 0.000000 
#    z 0.000000 0.000000 1.924380 
# 
# From -- ./inp_files/15820.got.cif
#   From: 2010.03.12/outbox.cif.g09.slc.cpg/sg50_8_cif.got.tgz:15820.got - 2010.04.16 13:23:21.
