data_PCOD8205501
_publ_section_title
;
Structure prediction by ZEFSAII (Michael W. Deem and Ramdas Pophale) SiO2 
 PCOD8205501
Probable space group: P B A N
;
_chemical_formula_sum "Si O2"
_cell_formula_units_Z 32
_cell_length_a 34.010087
_cell_length_b 5.326411
_cell_length_c 8.031779
_cell_angle_alpha 90.000000
_cell_angle_beta 90.000000
_cell_angle_gamma 90.000000
_cell_volume 1454.970432
_symmetry_space_group_name_H-M "P B A N"
_symmetry_group_IT_number 50
_space_group.IT_coordinate_system_code '2'
_symmetry_cell_setting 'orthorhombic'
loop_
_space_group_symop_operation_xyz
x,y,z
1/2-x,1/2-y,z
x,1/2-y,-z
1/2-x,y,-z
-x,-y,-z
1/2+x,1/2+y,-z
-x,1/2+y,z
1/2+x,-y,z
loop_
_atom_site_type_symbol
_atom_site_label
_atom_site_fract_x
_atom_site_fract_y
_atom_site_fract_z
Si Si1 0.627208 0.251548 0.696887
Si Si2 0.250000 0.250000 0.500000
Si Si3 0.250000 0.250000 0.000000
Si Si4 0.415542 0.248858 0.192800
Si Si5 0.525612 0.750000 0.500000
Si Si6 0.287455 0.916388 0.252345
O O1 0.618583 0.250000 0.500000
O O2 0.611020 0.505438 0.778445
O O3 0.673275 0.246850 0.739628
O O4 0.608659 0.005518 0.779924
O O5 0.216108 0.397510 0.404973
O O6 0.217574 0.422212 0.087330
O O7 0.450272 0.253894 0.327825
O O8 0.430978 0.250000 0.000000
O O9 0.500000 0.500000 0.500000
O O10 0.250000 0.750000 0.270719
#
# Coordination Sequence:
#
# PCOD8205501 Si02
#       6
#     8   2   2   8   4   8
#     4  12  25  46  76 103 154 204 252 316 374 440
#     4  10  22  40  60  96 124 178 266 322 366 438
#     4  10  26  42  60  92 148 174 270 318 382 426
#     4  12  28  49  76 120 154 195 248 301 375 450
#     4  12  26  51  86 114 155 194 239 298 372 456
#     4  11  25  41  65  95 136 195 257 314 375 430
#
# _framework density 21.993572
#
# number of rings (size 3 to 8) (size 9 to 14) (size 15 to 20)
#    0.000    0.500    2.500    4.500   12.250    3.000 
#    0.000    0.000    0.000    0.000    0.000    0.000 
#    0.000    0.000    0.000    0.000    0.000    0.000 
#
# Total GULP energy -396497.474350 kJ/mol
# GULP energy per Si atom -12390.546073 kJ/mol
# Density = 2.194351 g / cm^3
# Si number density = 21.993572 Si / 1000 Ang^3
#
#
#
# Elastic Constant Matrix: (Units=GPa)
#
#
# Indices 1 2 3 4 5 6 
#
# 1 146.2952 72.0247 62.7260 0.0000 0.0000 0.0000
# 2 72.0247 168.4158 52.1881 0.0000 0.0000 0.0000
# 3 62.7260 52.1881 190.2451 0.0000 0.0000 0.0000
# 4 0.0000 0.0000 0.0000 34.6478 0.0000 0.0000
# 5 0.0000 0.0000 0.0000 0.0000 43.1467 0.0000
# 6 0.0000 0.0000 0.0000 0.0000 0.0000 47.1507
#
#
#
# Elastic Compliance Matrix: (Units=1/GPa)
#
#
# Indices 1 2 3 4 5 6 
#
# 1 0.009424 -0.003352 -0.002188 0.000000 0.000000 0.000000
# 2 -0.003352 0.007682 -0.001002 0.000000 0.000000 0.000000
# 3 -0.002188 -0.001002 0.006252 0.000000 0.000000 0.000000
# 4 0.000000 0.000000 0.000000 0.028862 0.000000 0.000000
# 5 0.000000 0.000000 0.000000 0.000000 0.023177 0.000000
# 6 0.000000 0.000000 0.000000 0.000000 0.000000 0.021209
#
#
# Mechanical properties :
#
#
# Convention : Reuss Voigt Hill
#
# Bulk Modulus (GPa) = 97.32854 97.64818 97.48836
# Shear Modulus (GPa) = 44.20320 46.19019 45.19669
#
# Velocity S-wave (km/s) = 4.48797 4.58773 4.53812
# Velocity P-wave (km/s) = 8.43831 8.51809 8.47830
#
# Compressibility (1/GPa) = 0.01027448
#
# Stress axis : x y z
#
# Youngs Moduli (GPa) = 106.11349 130.17721 159.93608
#
# Poissons Ratio (x) = 0.43640 0.34987
# Poissons Ratio (y) = 0.35573 0.16025
# Poissons Ratio (z) = 0.23213 0.13043
#
# Static dielectric constant tensor:
#      x y z
#    x 3.763220 0.000000 0.000000 
#    y 0.000000 3.796060 0.000000 
#    z 0.000000 0.000000 4.509860 
# 
# 
# High freq. dielectric constant tensor:
#      x y z
#    x 1.850740 0.000000 0.000000 
#    y 0.000000 1.898490 0.000000 
#    z 0.000000 0.000000 1.888880 
# 
# From -- ./inp_files/16747.got.cif
#   From: 2010.03.12/outbox.cif.g09.slc.cpg/sg50_9_cif.got.tgz:16747.got - 2010.04.16 13:23:21.
