data_PCOD8205613
_publ_section_title
;
Structure prediction by ZEFSAII (Michael W. Deem and Ramdas Pophale) SiO2 
 PCOD8205613
Probable space group: P B A N
;
_chemical_formula_sum "Si O2"
_cell_formula_units_Z 40
_cell_length_a 12.969686
_cell_length_b 26.142320
_cell_length_c 5.007402
_cell_angle_alpha 90.000000
_cell_angle_beta 90.000000
_cell_angle_gamma 90.000000
_cell_volume 1697.798114
_symmetry_space_group_name_H-M "P B A N"
_symmetry_group_IT_number 50
_space_group.IT_coordinate_system_code '2'
_symmetry_cell_setting 'orthorhombic'
loop_
_space_group_symop_operation_xyz
x,y,z
1/2-x,1/2-y,z
x,1/2-y,-z
1/2-x,y,-z
-x,-y,-z
1/2+x,1/2+y,-z
-x,1/2+y,z
1/2+x,-y,z
loop_
_atom_site_type_symbol
_atom_site_label
_atom_site_fract_x
_atom_site_fract_y
_atom_site_fract_z
Si Si1 0.142018 0.042528 0.869836
Si Si2 0.476799 0.785347 0.751379
Si Si3 0.681373 0.650075 0.261415
Si Si4 0.359561 0.882679 0.644129
Si Si5 0.440886 0.563545 0.834047
O O1 0.150249 0.091140 0.670548
O O2 0.103647 0.990758 0.726443
O O3 0.250000 0.029180 0.000000
O O4 0.060270 0.057969 0.097075
O O5 0.492117 0.750000 0.500000
O O6 0.580891 0.816864 0.798443
O O7 0.380155 0.823568 0.715570
O O8 0.450561 0.750000 0.000000
O O9 0.750000 0.673311 0.500000
O O10 0.750000 0.650658 0.000000
O O11 0.250000 0.890644 0.500000
O O12 0.441683 0.898533 0.417662
O O13 0.372974 0.916183 0.913278
#
# Coordination Sequence:
#
# PCOD8205613 Si02
#       5
#     8   8   8   8   8
#     4  10  23  41  71 107 147 188 230 280 342 427
#     4  12  27  47  73 100 137 177 240 302 353 413
#     4  11  25  43  71 104 143 184 225 281 353 424
#     4  12  26  48  72 100 139 183 237 294 355 418
#     4  11  25  44  70 105 146 188 230 281 349 419
#
# _framework density 23.559930000000001
#
# number of rings (size 3 to 8) (size 9 to 14) (size 15 to 20)
#    0.000    0.800    2.000    4.200    5.600   10.000 
#    0.000    1.000    0.000    0.000    0.000    0.000 
#    0.000    0.000    0.000    0.000    0.000    0.000 
#
# Total GULP energy -496020.496254 kJ/mol
# GULP energy per Si atom -12400.512406 kJ/mol
# Density = 2.350631 g / cm^3
# Si number density = 23.559930 Si / 1000 Ang^3
#
#
#
# Elastic Constant Matrix: (Units=GPa)
#
#
# Indices 1 2 3 4 5 6 
#
# 1 79.4915 22.9367 8.8130 0.0000 0.0000 0.0000
# 2 22.9367 125.2677 45.6663 0.0000 0.0000 0.0000
# 3 8.8130 45.6663 129.6522 0.0000 0.0000 0.0000
# 4 0.0000 0.0000 0.0000 27.8106 0.0000 0.0000
# 5 0.0000 0.0000 0.0000 0.0000 26.4251 0.0000
# 6 0.0000 0.0000 0.0000 0.0000 0.0000 37.3433
#
#
#
# Elastic Compliance Matrix: (Units=1/GPa)
#
#
# Indices 1 2 3 4 5 6 
#
# 1 0.013282 -0.002413 -0.000053 0.000000 0.000000 0.000000
# 2 -0.002413 0.009597 -0.003216 0.000000 0.000000 0.000000
# 3 -0.000053 -0.003216 0.008849 0.000000 0.000000 0.000000
# 4 0.000000 0.000000 0.000000 0.035957 0.000000 0.000000
# 5 0.000000 0.000000 0.000000 0.000000 0.037843 0.000000
# 6 0.000000 0.000000 0.000000 0.000000 0.000000 0.026779
#
#
# Mechanical properties :
#
#
# Convention : Reuss Voigt Hill
#
# Bulk Modulus (GPa) = 49.10492 54.36038 51.73265
# Shear Modulus (GPa) = 33.23151 35.44883 34.34017
#
# Velocity S-wave (km/s) = 3.75975 3.88316 3.82195
# Velocity P-wave (km/s) = 6.30360 6.57484 6.44065
#
# Compressibility (1/GPa) = 0.02036456
#
# Stress axis : x y z
#
# Youngs Moduli (GPa) = 75.28995 104.19741 113.00189
#
# Poissons Ratio (x) = 0.25139 0.00600
# Poissons Ratio (y) = 0.18164 0.36345
# Poissons Ratio (z) = 0.00400 0.33513
#
# Static dielectric constant tensor:
#      x y z
#    x 4.877080 0.000000 0.000000 
#    y 0.000000 4.578110 0.000000 
#    z 0.000000 0.000000 3.919430 
# 
# 
# High freq. dielectric constant tensor:
#      x y z
#    x 1.945590 0.000000 0.000000 
#    y 0.000000 1.942180 0.000000 
#    z 0.000000 0.000000 1.927960 
# 
# From -- ./inp_files/2391.got.cif
#   From: 2010.03.12/outbox.cif.g09.slc.cpg/sg50_2_cif.got.tgz:2391.got - 2010.04.16 13:23:21.
