data_PCOD8205234
_publ_section_title
;
Structure prediction by ZEFSAII (Michael W. Deem and Ramdas Pophale) SiO2 
 PCOD8205234
Probable space group: P B A N
;
_chemical_formula_sum "Si O2"
_cell_formula_units_Z 46
_cell_length_a 16.442122
_cell_length_b 8.148974
_cell_length_c 17.062550
_cell_angle_alpha 90.000000
_cell_angle_beta 90.000000
_cell_angle_gamma 90.000000
_cell_volume 2286.150070
_symmetry_space_group_name_H-M "P B A N"
_symmetry_group_IT_number 50
_space_group.IT_coordinate_system_code '2'
_symmetry_cell_setting 'orthorhombic'
loop_
_space_group_symop_operation_xyz
x,y,z
1/2-x,1/2-y,z
x,1/2-y,-z
1/2-x,y,-z
-x,-y,-z
1/2+x,1/2+y,-z
-x,1/2+y,z
1/2+x,-y,z
loop_
_atom_site_type_symbol
_atom_site_label
_atom_site_fract_x
_atom_site_fract_y
_atom_site_fract_z
Si Si1 0.895086 0.940122 0.919449
Si Si2 0.599260 0.250000 0.500000
Si Si3 0.250000 0.250000 0.000000
Si Si4 0.990497 0.325006 0.350629
Si Si5 0.136706 0.086306 0.551399
Si Si6 0.598889 0.911391 0.262012
Si Si7 0.750000 0.750000 0.660194
Si Si8 0.032644 0.750000 0.000000
O O1 0.894262 0.966799 0.827178
O O2 0.972638 0.823732 0.934492
O O3 0.809000 0.862824 0.946724
O O4 0.908274 0.113415 0.962960
O O5 0.545990 0.276947 0.422559
O O6 0.648626 0.423149 0.502681
O O7 0.917170 0.429328 0.314349
O O8 0.062083 0.435035 0.387918
O O9 0.024805 0.212559 0.280161
O O10 0.122297 0.250000 0.500000
O O11 0.217206 0.106333 0.603539
O O12 0.683029 0.828121 0.284482
#
# Coordination Sequence:
#
# PCOD8205234 Si02
#       8
#     8   4   2   8   8   8   4   4
#     4  10  20  39  64  96 124 163 198 256 307 384
#     4  12  20  38  65  85 116 164 224 272 302 383
#     4  10  22  38  68  92 124 174 208 218 318 394
#     4  11  21  36  61  91 113 159 215 263 312 368
#     4  11  22  39  61  84 120 161 219 275 319 365
#     4  11  22  39  63  87 128 156 204 258 324 364
#     4  10  24  40  54  86 128 164 202 264 325 381
#     4   9  20  38  66  97 124 148 212 249 306 376
#
# _framework density 20.121162999999999
#
# number of rings (size 3 to 8) (size 9 to 14) (size 15 to 20)
#    0.000    1.391    2.609    4.435    0.000    0.348 
#    0.000    6.957    3.826    0.000    0.000    0.000 
#    0.000    0.000    0.000    0.000    0.000    0.000 
#
# Total GULP energy -570088.107598 kJ/mol
# GULP energy per Si atom -12393.219730 kJ/mol
# Density = 2.007537 g / cm^3
# Si number density = 20.121163 Si / 1000 Ang^3
#
#
#
# Elastic Constant Matrix: (Units=GPa)
#
#
# Indices 1 2 3 4 5 6 
#
# 1 105.1242 49.1624 51.7588 0.0000 0.0000 0.0000
# 2 49.1624 127.5225 45.9696 0.0000 0.0000 0.0000
# 3 51.7588 45.9696 122.6187 0.0000 0.0000 0.0000
# 4 0.0000 0.0000 0.0000 24.4218 0.0000 0.0000
# 5 0.0000 0.0000 0.0000 0.0000 45.9348 0.0000
# 6 0.0000 0.0000 0.0000 0.0000 0.0000 23.9062
#
#
#
# Elastic Compliance Matrix: (Units=1/GPa)
#
#
# Indices 1 2 3 4 5 6 
#
# 1 0.013290 -0.003586 -0.004265 0.000000 0.000000 0.000000
# 2 -0.003586 0.010035 -0.002248 0.000000 0.000000 0.000000
# 3 -0.004265 -0.002248 0.010799 0.000000 0.000000 0.000000
# 4 0.000000 0.000000 0.000000 0.040947 0.000000 0.000000
# 5 0.000000 0.000000 0.000000 0.000000 0.021770 0.000000
# 6 0.000000 0.000000 0.000000 0.000000 0.000000 0.041830
#
#
# Mechanical properties :
#
#
# Convention : Reuss Voigt Hill
#
# Bulk Modulus (GPa) = 71.81906 72.11632 71.96769
# Shear Modulus (GPa) = 30.57906 32.74420 31.66163
#
# Velocity S-wave (km/s) = 3.90262 4.03842 3.97110
# Velocity P-wave (km/s) = 7.48853 7.59368 7.54129
#
# Compressibility (1/GPa) = 0.01392388
#
# Stress axis : x y z
#
# Youngs Moduli (GPa) = 75.24687 99.65481 92.60337
#
# Poissons Ratio (x) = 0.35734 0.39499
# Poissons Ratio (y) = 0.26982 0.20821
# Poissons Ratio (z) = 0.32096 0.22406
#
# Static dielectric constant tensor:
#      x y z
#    x 3.690780 0.000000 0.000000 
#    y 0.000000 3.780560 0.000000 
#    z 0.000000 0.000000 3.504050 
# 
# 
# High freq. dielectric constant tensor:
#      x y z
#    x 1.782120 0.000000 0.000000 
#    y 0.000000 1.789520 0.000000 
#    z 0.000000 0.000000 1.780000 
# 
# From -- ./inp_files/29666.got.cif
#   From: 2010.03.12/outbox.cif.g09.slc.cpg/sg50_15_cif.got.tgz:29666.got - 2010.04.16 13:23:21.
