data_PCOD8205537
_publ_section_title
;
Structure prediction by ZEFSAII (Michael W. Deem and Ramdas Pophale) SiO2 
 PCOD8205537
Probable space group: P B A N
;
_chemical_formula_sum "Si O2"
_cell_formula_units_Z 64
_cell_length_a 9.466385
_cell_length_b 32.093160
_cell_length_c 10.398392
_cell_angle_alpha 90.000000
_cell_angle_beta 90.000000
_cell_angle_gamma 90.000000
_cell_volume 3159.096047
_symmetry_space_group_name_H-M "P B A N"
_symmetry_group_IT_number 50
_space_group.IT_coordinate_system_code '2'
_symmetry_cell_setting 'orthorhombic'
loop_
_space_group_symop_operation_xyz
x,y,z
1/2-x,1/2-y,z
x,1/2-y,-z
1/2-x,y,-z
-x,-y,-z
1/2+x,1/2+y,-z
-x,1/2+y,z
1/2+x,-y,z
loop_
_atom_site_type_symbol
_atom_site_label
_atom_site_fract_x
_atom_site_fract_y
_atom_site_fract_z
Si Si1 0.598919 0.243143 0.147262
Si Si2 0.502397 0.826518 0.242753
Si Si3 0.851004 0.466426 0.625119
Si Si4 0.778191 0.612278 0.144441
Si Si5 0.183596 0.456909 0.637684
Si Si6 0.091263 0.205119 0.499445
Si Si7 0.010612 0.158956 0.752447
Si Si8 0.242421 0.877934 0.654718
O O1 0.750000 0.250000 0.218518
O O2 0.491769 0.278558 0.196843
O O3 0.542660 0.196468 0.159235
O O4 0.623564 0.250000 0.000000
O O5 0.590118 0.855578 0.144573
O O6 0.571954 0.826481 0.382166
O O7 0.344590 0.843127 0.267094
O O8 0.750000 0.465911 0.500000
O O9 0.782688 0.506161 0.698339
O O10 0.826158 0.422222 0.693101
O O11 0.021220 0.471521 0.607671
O O12 0.812840 0.577689 0.251645
O O13 0.638539 0.636959 0.178939
O O14 0.750000 0.594162 0.000000
O O15 0.250000 0.441574 0.500000
O O16 0.006286 0.250000 0.500000
O O17 0.250000 0.218757 0.500000
O O18 0.050946 0.178561 0.619439
O O19 0.895498 0.123643 0.720024
O O20 0.250000 0.869976 0.500000
#
# Coordination Sequence:
#
# PCOD8205537 Si02
#       8
#     8   8   8   8   8   8   8   8
#     4  11  24  41  60  84 125 181 226 266 324 394
#     4  12  22  42  64  90 136 163 220 276 326 384
#     4  10  22  41  69 108 139 164 213 266 335 400
#     4  12  29  46  65  95 136 177 225 271 326 395
#     4  11  24  43  75 103 134 172 215 273 330 396
#     4  11  22  36  58  95 124 162 209 275 330 379
#     4  12  24  40  65  93 129 174 219 271 335 385
#     4  11  23  36  66 103 134 161 211 275 337 396
#
# _framework density 20.258959000000001
#
# number of rings (size 3 to 8) (size 9 to 14) (size 15 to 20)
#    0.000    0.750    6.250    2.250    7.000    0.500 
#    0.000    3.750    0.000    0.000    0.000    0.000 
#    0.000    0.000    0.000    0.000    0.000    0.000 
#
# Total GULP energy -792851.089915 kJ/mol
# GULP energy per Si atom -12388.298280 kJ/mol
# Density = 2.021285 g / cm^3
# Si number density = 20.258959 Si / 1000 Ang^3
#
#
#
# Elastic Constant Matrix: (Units=GPa)
#
#
# Indices 1 2 3 4 5 6 
#
# 1 132.3042 41.2184 28.8138 0.0000 0.0000 0.0000
# 2 41.2184 90.5626 27.0622 0.0000 0.0000 0.0000
# 3 28.8138 27.0622 86.9353 0.0000 0.0000 0.0000
# 4 0.0000 0.0000 0.0000 15.6735 0.0000 0.0000
# 5 0.0000 0.0000 0.0000 0.0000 25.5507 0.0000
# 6 0.0000 0.0000 0.0000 0.0000 0.0000 38.5021
#
#
#
# Elastic Compliance Matrix: (Units=1/GPa)
#
#
# Indices 1 2 3 4 5 6 
#
# 1 0.009083 -0.003566 -0.001900 0.000000 0.000000 0.000000
# 2 -0.003566 0.013575 -0.003044 0.000000 0.000000 0.000000
# 3 -0.001900 -0.003044 0.013080 0.000000 0.000000 0.000000
# 4 0.000000 0.000000 0.000000 0.063802 0.000000 0.000000
# 5 0.000000 0.000000 0.000000 0.000000 0.039138 0.000000
# 6 0.000000 0.000000 0.000000 0.000000 0.000000 0.025973
#
#
# Mechanical properties :
#
#
# Convention : Reuss Voigt Hill
#
# Bulk Modulus (GPa) = 53.42613 55.99901 54.71257
# Shear Modulus (GPa) = 26.60841 30.12577 28.36709
#
# Velocity S-wave (km/s) = 3.62804 3.86039 3.74602
# Velocity P-wave (km/s) = 6.63167 6.89723 6.76575
#
# Compressibility (1/GPa) = 0.01871743
#
# Stress axis : x y z
#
# Youngs Moduli (GPa) = 110.09263 73.66624 76.45164
#
# Poissons Ratio (x) = 0.26271 0.14529
# Poissons Ratio (y) = 0.39262 0.23270
# Poissons Ratio (z) = 0.20922 0.22422
#
# Static dielectric constant tensor:
#      x y z
#    x 4.382220 0.000000 0.000000 
#    y 0.000000 4.068990 0.000000 
#    z 0.000000 0.000000 3.526310 
# 
# 
# High freq. dielectric constant tensor:
#      x y z
#    x 1.804160 0.000000 0.000000 
#    y 0.000000 1.800980 0.000000 
#    z 0.000000 0.000000 1.766000 
# 
# From -- ./inp_files/19545.got.cif
#   From: 2010.03.12/outbox.cif.g09.slc.cpg/sg50_10_cif.got.tgz:19545.got - 2010.04.16 13:23:21.
