data_PCOD8205891
_publ_section_title
;
Structure prediction by ZEFSAII (Michael W. Deem and Ramdas Pophale) SiO2 
 PCOD8205891
Probable space group: P B A N
;
_chemical_formula_sum "Si O2"
_cell_formula_units_Z 38
_cell_length_a 19.523052
_cell_length_b 8.750593
_cell_length_c 9.459845
_cell_angle_alpha 90.000000
_cell_angle_beta 90.000000
_cell_angle_gamma 90.000000
_cell_volume 1616.103669
_symmetry_space_group_name_H-M "P B A N"
_symmetry_group_IT_number 50
_space_group.IT_coordinate_system_code '2'
_symmetry_cell_setting 'orthorhombic'
loop_
_space_group_symop_operation_xyz
x,y,z
1/2-x,1/2-y,z
x,1/2-y,-z
1/2-x,y,-z
-x,-y,-z
1/2+x,1/2+y,-z
-x,1/2+y,z
1/2+x,-y,z
loop_
_atom_site_type_symbol
_atom_site_label
_atom_site_fract_x
_atom_site_fract_y
_atom_site_fract_z
Si Si1 0.146886 0.474621 0.140341
Si Si2 0.250000 0.250000 0.000000
Si Si3 0.827848 0.078473 0.457394
Si Si4 0.053071 0.080676 0.400327
Si Si5 0.406069 0.750000 0.000000
Si Si6 0.992019 0.844875 0.223100
O O1 0.161684 0.554383 0.290884
O O2 0.143591 0.603871 0.017846
O O3 0.074781 0.386926 0.134446
O O4 0.205499 0.354382 0.103993
O O5 0.852545 0.250000 0.500000
O O6 0.750000 0.053418 0.500000
O O7 0.870311 0.950666 0.544336
O O8 0.036709 0.259666 0.367706
O O9 0.000000 0.000000 0.500000
O O10 0.038283 0.994102 0.252841
O O11 0.455809 0.759870 0.135941
#
# Coordination Sequence:
#
# PCOD8205891 Si02
#       6
#     8   2   8   8   4   8
#     4  12  28  50  73 110 150 200 252 314 379 456
#     4  12  34  50  74 112 154 202 256 312 388 460
#     4  11  26  48  75 109 147 201 256 306 379 458
#     4  12  23  43  72 108 146 188 247 312 381 439
#     4  12  25  49  76 103 147 198 258 306 378 455
#     4  12  25  43  73 112 146 190 250 319 377 443
#
# _framework density 23.513342999999999
#
# number of rings (size 3 to 8) (size 9 to 14) (size 15 to 20)
#    0.000    0.211    4.211    4.421    5.895    3.789 
#    0.000    0.000    0.000    0.000    0.000    0.000 
#    0.000    0.000    0.000    0.000    0.000    0.000 
#
# Total GULP energy -471187.753456 kJ/mol
# GULP energy per Si atom -12399.677723 kJ/mol
# Density = 2.345983 g / cm^3
# Si number density = 23.513343 Si / 1000 Ang^3
#
#
#
# Elastic Constant Matrix: (Units=GPa)
#
#
# Indices 1 2 3 4 5 6 
#
# 1 127.7046 57.3810 38.1668 0.0000 0.0000 0.0000
# 2 57.3810 144.7169 42.0156 0.0000 0.0000 0.0000
# 3 38.1668 42.0156 90.7484 0.0000 0.0000 0.0000
# 4 0.0000 0.0000 0.0000 44.1712 0.0000 0.0000
# 5 0.0000 0.0000 0.0000 0.0000 37.1381 0.0000
# 6 0.0000 0.0000 0.0000 0.0000 0.0000 45.3795
#
#
#
# Elastic Compliance Matrix: (Units=1/GPa)
#
#
# Indices 1 2 3 4 5 6 
#
# 1 0.010094 -0.003200 -0.002764 0.000000 0.000000 0.000000
# 2 -0.003200 0.008998 -0.002820 0.000000 0.000000 0.000000
# 3 -0.002764 -0.002820 0.013488 0.000000 0.000000 0.000000
# 4 0.000000 0.000000 0.000000 0.022639 0.000000 0.000000
# 5 0.000000 0.000000 0.000000 0.000000 0.026927 0.000000
# 6 0.000000 0.000000 0.000000 0.000000 0.000000 0.022036
#
#
# Mechanical properties :
#
#
# Convention : Reuss Voigt Hill
#
# Bulk Modulus (GPa) = 66.61435 70.92188 68.76812
# Shear Modulus (GPa) = 39.44665 40.37819 39.91242
#
# Velocity S-wave (km/s) = 4.10033 4.14846 4.12447
# Velocity P-wave (km/s) = 7.12804 7.29206 7.21052
#
# Compressibility (1/GPa) = 0.01501178
#
# Stress axis : x y z
#
# Youngs Moduli (GPa) = 99.06387 111.14088 74.14267
#
# Poissons Ratio (x) = 0.35566 0.20492
# Poissons Ratio (y) = 0.31701 0.20908
# Poissons Ratio (z) = 0.27381 0.31341
#
# Static dielectric constant tensor:
#      x y z
#    x 4.009560 0.000000 0.000000 
#    y 0.000000 4.606330 0.000000 
#    z 0.000000 0.000000 4.030700 
# 
# 
# High freq. dielectric constant tensor:
#      x y z
#    x 1.927810 0.000000 0.000000 
#    y 0.000000 1.948860 0.000000 
#    z 0.000000 0.000000 1.937870 
# 
# From -- ./inp_files/15833.got.cif
#   From: 2010.03.12/outbox.cif.g09.slc.cpg/sg50_8_cif.got.tgz:15833.got - 2010.04.16 13:23:21.
