data_PCOD8205974
_publ_section_title
;
Structure prediction by ZEFSAII (Michael W. Deem and Ramdas Pophale) SiO2 
 PCOD8205974
Probable space group: P M M A
;
_chemical_formula_sum "Si O2"
_cell_formula_units_Z 36
_cell_length_a 8.523032
_cell_length_b 23.101831
_cell_length_c 9.391763
_cell_angle_alpha 90.000000
_cell_angle_beta 90.000000
_cell_angle_gamma 90.000000
_cell_volume 1849.216016
_symmetry_space_group_name_H-M "P M M A"
_symmetry_group_IT_number 51
_symmetry_cell_setting 'orthorhombic'
loop_
_space_group_symop_operation_xyz
x,y,z
1/2-x,-y,z
1/2+x,-y,-z
-x,y,-z
-x,-y,-z
1/2+x,y,-z
1/2-x,y,z
x,-y,z
loop_
_atom_site_type_symbol
_atom_site_label
_atom_site_fract_x
_atom_site_fract_y
_atom_site_fract_z
Si Si1 0.565448 0.837081 0.157545
Si Si2 0.565011 0.500000 0.659688
Si Si3 0.935167 0.383596 0.340919
Si Si4 0.565477 0.734364 0.657196
Si Si5 0.932646 0.067459 0.652238
O O1 0.750000 0.825734 0.158112
O O2 0.477905 0.787880 0.245265
O O3 0.526793 0.899091 0.225968
O O4 0.500000 0.836491 0.000000
O O5 0.750000 0.500000 0.658704
O O6 0.500000 0.500000 0.500000
O O7 0.502635 0.558607 0.737157
O O8 0.750000 0.386612 0.339635
O O9 0.000000 0.382083 0.500000
O O10 0.994020 0.323890 0.269527
O O11 0.500000 0.745637 0.500000
O O12 0.750000 0.727005 0.646436
O O13 0.750000 0.083769 0.658100
O O14 0.000000 0.086539 0.500000
O O15 0.961670 0.000000 0.679899
#
# Coordination Sequence:
#
# PCOD8205974 Si02
#       5
#     8   4   8   8   8
#     4  12  25  41  59  82 112 147 186 229 277 328
#     4  10  16  24  38  62  97 136 173 216 271 328
#     4  10  17  27  43  68 100 136 176 221 272 326
#     4  11  21  36  56  80 109 144 185 229 276 329
#     4  10  21  39  63  90 118 149 185 225 270 322
#
# _framework density 19.46771
#
# number of rings (size 3 to 8) (size 9 to 14) (size 15 to 20)
#    0.000    1.333    0.000   11.000    0.000    1.778 
#    0.000    0.000    0.000    0.000    0.000    0.778 
#    0.000    0.000    0.000    0.000    0.000    0.000 
#
# Total GULP energy -446401.452941 kJ/mol
# GULP energy per Si atom -12400.040359 kJ/mol
# Density = 1.942340 g / cm^3
# Si number density = 19.467710 Si / 1000 Ang^3
#
#
#
# Elastic Constant Matrix: (Units=GPa)
#
#
# Indices 1 2 3 4 5 6 
#
# 1 167.3164 42.4054 29.3250 0.0000 0.0000 0.0000
# 2 42.4054 123.3928 48.5535 0.0000 0.0000 0.0000
# 3 29.3250 48.5535 81.0928 0.0000 0.0000 0.0000
# 4 0.0000 0.0000 0.0000 -1.0339 0.0000 0.0000
# 5 0.0000 0.0000 0.0000 0.0000 25.8319 0.0000
# 6 0.0000 0.0000 0.0000 0.0000 0.0000 39.6986
#
#
#
# Elastic Compliance Matrix: (Units=1/GPa)
#
#
# Indices 1 2 3 4 5 6 
#
# 1 0.006659 -0.001754 -0.001358 0.000000 0.000000 0.000000
# 2 -0.001754 0.011064 -0.005990 0.000000 0.000000 0.000000
# 3 -0.001358 -0.005990 0.016409 0.000000 0.000000 0.000000
# 4 0.000000 0.000000 0.000000 -0.967211 0.000000 0.000000
# 5 0.000000 0.000000 0.000000 0.000000 0.038712 0.000000
# 6 0.000000 0.000000 0.000000 0.000000 0.000000 0.025190
#
#
# Mechanical properties :
#
#
# Convention : Reuss Voigt Hill
#
# Bulk Modulus (GPa) = 62.78219 68.04108 65.41164
# Shear Modulus (GPa) = -5.91252 29.66721 11.87735
#
# Velocity S-wave (km/s) = -1.74462 3.90798 2.47271
# Velocity P-wave (km/s) = 5.31612 7.44242 6.46726
#
# Compressibility (1/GPa) = 0.01592808
#
# Stress axis : x y z
#
# Youngs Moduli (GPa) = 150.16626 90.38228 60.94174
#
# Poissons Ratio (x) = 0.15855 0.08275
# Poissons Ratio (y) = 0.26343 0.36505
# Poissons Ratio (z) = 0.20390 0.54140
#
# Static dielectric constant tensor:
#      x y z
#    x 3.757770 0.000000 0.000000 
#    y 0.000000 4.731140 0.000000 
#    z 0.000000 0.000000 3.166930 
# 
# 
# High freq. dielectric constant tensor:
#      x y z
#    x 1.783900 0.000000 0.000000 
#    y 0.000000 1.789420 0.000000 
#    z 0.000000 0.000000 1.700380 
# 
# From -- ./inp_files/5236.got.cif
#   From: 2010.03.12/outbox.cif.g09.slc.cpg/sg51_3_cif.got.tgz:5236.got - 2010.04.16 13:43:02.
