data_PCOD8205253
_publ_section_title
;
Structure prediction by ZEFSAII (Michael W. Deem and Ramdas Pophale) SiO2 
 PCOD8205253
Probable space group: P B A N
;
_chemical_formula_sum "Si O2"
_cell_formula_units_Z 48
_cell_length_a 12.450176
_cell_length_b 21.778492
_cell_length_c 8.550706
_cell_angle_alpha 90.000000
_cell_angle_beta 90.000000
_cell_angle_gamma 90.000000
_cell_volume 2318.490229
_symmetry_space_group_name_H-M "P B A N"
_symmetry_group_IT_number 50
_space_group.IT_coordinate_system_code '2'
_symmetry_cell_setting 'orthorhombic'
loop_
_space_group_symop_operation_xyz
x,y,z
1/2-x,1/2-y,z
x,1/2-y,-z
1/2-x,y,-z
-x,-y,-z
1/2+x,1/2+y,-z
-x,1/2+y,z
1/2+x,-y,z
loop_
_atom_site_type_symbol
_atom_site_label
_atom_site_fract_x
_atom_site_fract_y
_atom_site_fract_z
Si Si1 0.429909 0.200219 0.118078
Si Si2 0.136525 0.840892 0.928636
Si Si3 0.062118 0.972964 0.852237
Si Si4 0.963332 0.217382 0.348921
Si Si5 0.412609 0.092144 0.612206
Si Si6 0.826390 0.914061 0.273214
O O1 0.452773 0.233422 0.281055
O O2 0.357952 0.141248 0.156040
O O3 0.374153 0.250000 0.000000
O O4 0.541320 0.178317 0.043042
O O5 0.127974 0.912718 0.896484
O O6 0.130876 0.800705 0.770375
O O7 0.250000 0.824025 0.000000
O O8 0.982529 0.958925 0.705172
O O9 0.154181 0.021616 0.811250
O O10 0.000000 0.000000 0.000000
O O11 0.911045 0.250000 0.500000
O O12 0.031063 0.157226 0.383361
O O13 0.298000 0.095802 0.695234
O O14 0.398207 0.078816 0.429227
#
# Coordination Sequence:
#
# PCOD8205253 Si02
#       6
#     8   8   8   8   8   8
#     4  10  21  39  61  91 130 167 204 269 319 379
#     4  10  23  42  63  93 126 169 215 266 327 377
#     4  11  23  40  64  90 129 169 214 273 318 377
#     4  10  20  41  68  90 129 166 212 262 322 385
#     4  10  24  41  63  98 125 171 214 264 326 388
#     4  11  22  41  65  91 132 168 217 262 323 396
#
# _framework density 20.703129000000001
#
# number of rings (size 3 to 8) (size 9 to 14) (size 15 to 20)
#    0.000    1.667    3.333    0.500    2.333    3.667 
#    0.000    5.833    0.000    0.000    0.000    0.000 
#    0.000    0.000    0.000    0.000    0.000    0.000 
#
# Total GULP energy -595012.537120 kJ/mol
# GULP energy per Si atom -12396.094523 kJ/mol
# Density = 2.065601 g / cm^3
# Si number density = 20.703129 Si / 1000 Ang^3
#
#
#
# Elastic Constant Matrix: (Units=GPa)
#
#
# Indices 1 2 3 4 5 6 
#
# 1 80.8688 25.7816 23.6309 0.0000 0.0000 0.0000
# 2 25.7816 116.4800 24.2407 0.0000 0.0000 0.0000
# 3 23.6309 24.2407 85.6967 0.0000 0.0000 0.0000
# 4 0.0000 0.0000 0.0000 42.4548 0.0000 0.0000
# 5 0.0000 0.0000 0.0000 0.0000 25.2462 0.0000
# 6 0.0000 0.0000 0.0000 0.0000 0.0000 2.1333
#
#
#
# Elastic Compliance Matrix: (Units=1/GPa)
#
#
# Indices 1 2 3 4 5 6 
#
# 1 0.014079 -0.002453 -0.003189 0.000000 0.000000 0.000000
# 2 -0.002453 0.009549 -0.002025 0.000000 0.000000 0.000000
# 3 -0.003189 -0.002025 0.013121 0.000000 0.000000 0.000000
# 4 0.000000 0.000000 0.000000 0.023554 0.000000 0.000000
# 5 0.000000 0.000000 0.000000 0.000000 0.039610 0.000000
# 6 0.000000 0.000000 0.000000 0.000000 0.000000 0.468761
#
#
# Mechanical properties :
#
#
# Convention : Reuss Voigt Hill
#
# Bulk Modulus (GPa) = 46.69077 47.81688 47.25383
# Shear Modulus (GPa) = 8.45813 27.92634 18.19224
#
# Velocity S-wave (km/s) = 2.02344 3.67671 2.96754
# Velocity P-wave (km/s) = 5.29722 6.41646 5.88351
#
# Compressibility (1/GPa) = 0.02141751
#
# Stress axis : x y z
#
# Youngs Moduli (GPa) = 71.02568 104.71803 76.21322
#
# Poissons Ratio (x) = 0.25685 0.24301
# Poissons Ratio (y) = 0.17421 0.15432
# Poissons Ratio (z) = 0.22647 0.21204
#
# Static dielectric constant tensor:
#      x y z
#    x 3.371850 0.000000 0.000000 
#    y 0.000000 4.074700 0.000000 
#    z 0.000000 0.000000 4.436780 
# 
# 
# High freq. dielectric constant tensor:
#      x y z
#    x 1.787990 0.000000 0.000000 
#    y 0.000000 1.832340 0.000000 
#    z 0.000000 0.000000 1.824520 
# 
# From -- ./inp_files/11562.got.cif
#   From: 2010.03.12/outbox.cif.g09.slc.cpg/sg50_6_cif.got.tgz:11562.got - 2010.04.16 13:23:21.
