data_PCOD8205114
_publ_section_title
;
Structure prediction by ZEFSAII (Michael W. Deem and Ramdas Pophale) SiO2 
 PCOD8205114
Probable space group: P B A N
;
_chemical_formula_sum "Si O2"
_cell_formula_units_Z 50
_cell_length_a 8.490169
_cell_length_b 14.511491
_cell_length_c 20.279591
_cell_angle_alpha 90.000000
_cell_angle_beta 90.000000
_cell_angle_gamma 90.000000
_cell_volume 2498.547233
_symmetry_space_group_name_H-M "P B A N"
_symmetry_group_IT_number 50
_space_group.IT_coordinate_system_code '2'
_symmetry_cell_setting 'orthorhombic'
loop_
_space_group_symop_operation_xyz
x,y,z
1/2-x,1/2-y,z
x,1/2-y,-z
1/2-x,y,-z
-x,-y,-z
1/2+x,1/2+y,-z
-x,1/2+y,z
1/2+x,-y,z
loop_
_atom_site_type_symbol
_atom_site_label
_atom_site_fract_x
_atom_site_fract_y
_atom_site_fract_z
Si Si1 0.750000 0.049334 0.500000
Si Si2 0.250000 0.503307 0.000000
Si Si3 0.066968 0.233170 0.822636
Si Si4 0.999906 0.073101 0.910393
Si Si5 0.630417 0.915407 0.723191
Si Si6 0.961746 0.568082 0.208111
Si Si7 0.948323 0.601131 0.571318
Si Si8 0.250000 0.250000 0.500000
O O1 0.633726 0.106842 0.450680
O O2 0.632518 0.990661 0.544461
O O3 0.382217 0.570290 0.028671
O O4 0.175320 0.444302 0.060277
O O5 0.250000 0.250000 0.836871
O O6 0.039315 0.167681 0.759357
O O7 0.976446 0.330944 0.814697
O O8 0.994525 0.176931 0.883623
O O9 0.944962 0.997526 0.855806
O O10 0.810540 0.911015 0.746194
O O11 0.583842 0.900013 0.648397
O O12 0.582213 0.018799 0.743074
O O13 0.862888 0.691197 0.545692
#
# Coordination Sequence:
#
# PCOD8205114 Si02
#       8
#     4   4   8   8   8   8   8   2
#     4   9  20  38  58  79 120 160 200 239 310 364
#     4  10  20  36  60  82 114 168 198 248 298 378
#     4   9  19  35  57  84 111 150 188 249 299 354
#     4  10  20  38  57  83 120 153 206 246 309 361
#     4  10  20  35  61  85 113 149 199 240 304 365
#     4  10  20  37  59  85 113 152 190 260 305 359
#     4  10  20  38  58  88 116 162 201 251 303 383
#     4  10  24  34  60  86 128 160 200 260 308 358
#
# _framework density 20.011628999999999
#
# number of rings (size 3 to 8) (size 9 to 14) (size 15 to 20)
#    0.000    2.240    0.000    3.840    3.360    0.320 
#    0.000   15.600    3.520    0.000    0.000    0.000 
#    0.000    0.000    0.000    0.000    0.000    0.000 
#
# Total GULP energy -619457.031928 kJ/mol
# GULP energy per Si atom -12389.140639 kJ/mol
# Density = 1.996608 g / cm^3
# Si number density = 20.011629 Si / 1000 Ang^3
#
#
#
# Elastic Constant Matrix: (Units=GPa)
#
#
# Indices 1 2 3 4 5 6 
#
# 1 83.7474 33.7023 40.0486 0.0000 0.0000 0.0000
# 2 33.7023 153.8191 46.1433 0.0000 0.0000 0.0000
# 3 40.0486 46.1433 120.9004 0.0000 0.0000 0.0000
# 4 0.0000 0.0000 0.0000 29.2802 0.0000 0.0000
# 5 0.0000 0.0000 0.0000 0.0000 25.1680 0.0000
# 6 0.0000 0.0000 0.0000 0.0000 0.0000 68.9050
#
#
#
# Elastic Compliance Matrix: (Units=1/GPa)
#
#
# Indices 1 2 3 4 5 6 
#
# 1 0.014708 -0.001989 -0.004113 0.000000 0.000000 0.000000
# 2 -0.001989 0.007611 -0.002246 0.000000 0.000000 0.000000
# 3 -0.004113 -0.002246 0.010491 0.000000 0.000000 0.000000
# 4 0.000000 0.000000 0.000000 0.034153 0.000000 0.000000
# 5 0.000000 0.000000 0.000000 0.000000 0.039733 0.000000
# 6 0.000000 0.000000 0.000000 0.000000 0.000000 0.014513
#
#
# Mechanical properties :
#
#
# Convention : Reuss Voigt Hill
#
# Bulk Modulus (GPa) = 62.05748 66.47282 64.26515
# Shear Modulus (GPa) = 34.89804 40.57549 37.73676
#
# Velocity S-wave (km/s) = 4.18052 4.50777 4.34722
# Velocity P-wave (km/s) = 7.37430 7.77062 7.57505
#
# Compressibility (1/GPa) = 0.01611409
#
# Stress axis : x y z
#
# Youngs Moduli (GPa) = 67.99089 131.39534 95.32068
#
# Poissons Ratio (x) = 0.26131 0.39205
# Poissons Ratio (y) = 0.13521 0.21408
# Poissons Ratio (z) = 0.27965 0.29510
#
# Static dielectric constant tensor:
#      x y z
#    x 3.673150 0.000000 0.000000 
#    y 0.000000 4.041910 0.000000 
#    z 0.000000 0.000000 3.741160 
# 
# 
# High freq. dielectric constant tensor:
#      x y z
#    x 1.771870 0.000000 0.000000 
#    y 0.000000 1.776280 0.000000 
#    z 0.000000 0.000000 1.787020 
# 
# From -- ./inp_files/28796.got.cif
#   From: 2010.03.12/outbox.cif.g09.slc.cpg/sg50_15_cif.got.tgz:28796.got - 2010.04.16 13:23:21.
