data_PCOD8205673
_publ_section_title
;
Structure prediction by ZEFSAII (Michael W. Deem and Ramdas Pophale) SiO2 
 PCOD8205673
Probable space group: P B A N
;
_chemical_formula_sum "Si O2"
_cell_formula_units_Z 44
_cell_length_a 9.193083
_cell_length_b 30.753421
_cell_length_c 7.561382
_cell_angle_alpha 90.000000
_cell_angle_beta 90.000000
_cell_angle_gamma 90.000000
_cell_volume 2137.744481
_symmetry_space_group_name_H-M "P B A N"
_symmetry_group_IT_number 50
_space_group.IT_coordinate_system_code '2'
_symmetry_cell_setting 'orthorhombic'
loop_
_space_group_symop_operation_xyz
x,y,z
1/2-x,1/2-y,z
x,1/2-y,-z
1/2-x,y,-z
-x,-y,-z
1/2+x,1/2+y,-z
-x,1/2+y,z
1/2+x,-y,z
loop_
_atom_site_type_symbol
_atom_site_label
_atom_site_fract_x
_atom_site_fract_y
_atom_site_fract_z
Si Si1 0.911608 0.114786 0.277850
Si Si2 0.250000 0.999065 0.000000
Si Si3 0.495683 0.560464 0.059439
Si Si4 0.917095 0.375298 0.328515
Si Si5 0.913222 0.801256 0.803129
Si Si6 0.918633 0.795851 0.218524
O O1 0.742364 0.123514 0.239585
O O2 0.925245 0.100126 0.482930
O O3 0.991425 0.160776 0.277122
O O4 0.978972 0.078744 0.143130
O O5 0.135366 0.030214 0.902581
O O6 0.351687 0.967068 0.881804
O O7 0.521734 0.599903 0.191890
O O8 0.974681 0.325901 0.335073
O O9 0.961360 0.753683 0.733422
O O10 0.747982 0.807444 0.737973
O O11 0.936928 0.803754 0.011498
#
# Coordination Sequence:
#
# PCOD8205673 Si02
#       6
#     8   4   8   8   8   8
#     4  11  23  38  60  89 123 160 197 241 292 349
#     4  10  24  42  74  86 114 156 194 230 318 360
#     4  11  22  46  63  92 118 153 189 249 293 363
#     4  11  23  38  60  89 123 160 197 241 292 349
#     4   9  19  36  59  88 121 160 204 246 288 341
#     4   9  19  36  59  88 121 160 204 246 288 341
#
# _framework density 20.582439000000001
#
# number of rings (size 3 to 8) (size 9 to 14) (size 15 to 20)
#    0.000    1.818    3.636    1.091    2.545    2.182 
#    0.000   10.909    0.000    0.000    0.000    0.000 
#    0.000    0.000    0.000    0.000    0.000    0.000 
#
# Total GULP energy -545138.834153 kJ/mol
# GULP energy per Si atom -12389.518958 kJ/mol
# Density = 2.053559 g / cm^3
# Si number density = 20.582439 Si / 1000 Ang^3
#
#
#
# Elastic Constant Matrix: (Units=GPa)
#
#
# Indices 1 2 3 4 5 6 
#
# 1 84.9783 48.7208 21.6193 0.0000 0.0000 0.0000
# 2 48.7208 118.3143 34.0257 0.0000 0.0000 0.0000
# 3 21.6193 34.0257 76.7420 0.0000 0.0000 0.0000
# 4 0.0000 0.0000 0.0000 7.8845 0.0000 0.0000
# 5 0.0000 0.0000 0.0000 0.0000 18.0773 0.0000
# 6 0.0000 0.0000 0.0000 0.0000 0.0000 45.7522
#
#
#
# Elastic Compliance Matrix: (Units=1/GPa)
#
#
# Indices 1 2 3 4 5 6 
#
# 1 0.015613 -0.005919 -0.001774 0.000000 0.000000 0.000000
# 2 -0.005919 0.011931 -0.003623 0.000000 0.000000 0.000000
# 3 -0.001774 -0.003623 0.015137 0.000000 0.000000 0.000000
# 4 0.000000 0.000000 0.000000 0.126830 0.000000 0.000000
# 5 0.000000 0.000000 0.000000 0.000000 0.055318 0.000000
# 6 0.000000 0.000000 0.000000 0.000000 0.000000 0.021857
#
#
# Mechanical properties :
#
#
# Convention : Reuss Voigt Hill
#
# Bulk Modulus (GPa) = 49.87677 54.30736 52.09206
# Shear Modulus (GPa) = 18.11596 26.05406 22.08501
#
# Velocity S-wave (km/s) = 2.96998 3.56172 3.27923
# Velocity P-wave (km/s) = 6.00386 6.58461 6.30093
#
# Compressibility (1/GPa) = 0.02004942
#
# Stress axis : x y z
#
# Youngs Moduli (GPa) = 64.05107 83.81355 66.06503
#
# Poissons Ratio (x) = 0.49609 0.11720
# Poissons Ratio (y) = 0.37912 0.23933
# Poissons Ratio (z) = 0.11362 0.30362
#
# Static dielectric constant tensor:
#      x y z
#    x 3.782080 0.000000 0.000000 
#    y 0.000000 3.978070 0.000000 
#    z 0.000000 0.000000 3.496900 
# 
# 
# High freq. dielectric constant tensor:
#      x y z
#    x 1.803380 0.000000 0.000000 
#    y 0.000000 1.814250 0.000000 
#    z 0.000000 0.000000 1.782590 
# 
# From -- ./inp_files/9972.got.cif
#   From: 2010.03.12/outbox.cif.g09.slc.cpg/sg50_5_cif.got.tgz:9972.got - 2010.04.16 13:23:21.
