data_PCOD8205963
_publ_section_title
;
Structure prediction by ZEFSAII (Michael W. Deem and Ramdas Pophale) SiO2 
 PCOD8205963
Probable space group: P M M A
;
_chemical_formula_sum "Si O2"
_cell_formula_units_Z 40
_cell_length_a 8.667012
_cell_length_b 20.826963
_cell_length_c 14.255105
_cell_angle_alpha 90.000000
_cell_angle_beta 90.000000
_cell_angle_gamma 90.000000
_cell_volume 2573.153911
_symmetry_space_group_name_H-M "P M M A"
_symmetry_group_IT_number 51
_symmetry_cell_setting 'orthorhombic'
loop_
_space_group_symop_operation_xyz
x,y,z
1/2-x,-y,z
1/2+x,-y,-z
-x,y,-z
-x,-y,-z
1/2+x,y,-z
1/2-x,y,z
x,-y,z
loop_
_atom_site_type_symbol
_atom_site_label
_atom_site_fract_x
_atom_site_fract_y
_atom_site_fract_z
Si Si1 0.430561 0.000000 0.397783
Si Si2 0.930310 0.757099 0.398407
Si Si3 0.430462 0.074721 0.098878
Si Si4 0.432903 0.628038 0.395821
Si Si5 0.066952 0.500000 0.604714
Si Si6 0.570796 0.884365 0.285181
O O1 0.500000 0.000000 0.500000
O O2 0.478123 0.063210 0.342871
O O3 0.250000 0.000000 0.408548
O O4 0.750000 0.743635 0.411487
O O5 0.964081 0.815220 0.328609
O O6 0.000000 0.773770 0.500000
O O7 0.010036 0.694686 0.349580
O O8 0.250000 0.089080 0.099647
O O9 0.513539 0.116643 0.178244
O O10 0.465754 0.000000 0.118004
O O11 0.500000 0.096653 0.000000
O O12 0.500000 0.630777 0.500000
O O13 0.250000 0.623090 0.395683
O O14 0.503609 0.564719 0.344331
O O15 0.250000 0.500000 0.603397
O O16 0.000000 0.500000 0.500000
O O17 0.750000 0.901996 0.289616
#
# Coordination Sequence:
#
# PCOD8205963 Si02
#       6
#     4   8   8   8   4   8
#     4  12  24  36  49  66  89 118 154 192 230 268
#     4  10  20  32  45  63  87 120 155 188 226 267
#     4  10  20  34  53  74  93 115 142 182 230 280
#     4  10  17  26  40  58  81 111 147 186 223 262
#     4  10  16  24  38  56  80 108 143 186 223 260
#     4  11  22  35  51  69  91 118 150 189 230 275
#
# _framework density 15.545123999999999
#
# number of rings (size 3 to 8) (size 9 to 14) (size 15 to 20)
#    0.000    1.600    1.000    8.400    0.000    5.600 
#    0.000    0.000    0.000    0.000    0.000    0.000 
#    0.000    0.000    0.000    0.900    0.000   12.100 
#
# Total GULP energy -495968.615701 kJ/mol
# GULP energy per Si atom -12399.215393 kJ/mol
# Density = 1.550974 g / cm^3
# Si number density = 15.545124 Si / 1000 Ang^3
#
#
#
# Elastic Constant Matrix: (Units=GPa)
#
#
# Indices 1 2 3 4 5 6 
#
# 1 139.0642 69.0877 40.2164 0.0000 0.0000 0.0000
# 2 69.0877 117.3675 45.0543 0.0000 0.0000 0.0000
# 3 40.2164 45.0543 81.3937 0.0000 0.0000 0.0000
# 4 0.0000 0.0000 0.0000 -8.7113 0.0000 0.0000
# 5 0.0000 0.0000 0.0000 0.0000 22.4847 0.0000
# 6 0.0000 0.0000 0.0000 0.0000 0.0000 26.5516
#
#
#
# Elastic Compliance Matrix: (Units=1/GPa)
#
#
# Indices 1 2 3 4 5 6 
#
# 1 0.010475 -0.005307 -0.002238 0.000000 0.000000 0.000000
# 2 -0.005307 0.013508 -0.004855 0.000000 0.000000 0.000000
# 3 -0.002238 -0.004855 0.016079 0.000000 0.000000 0.000000
# 4 0.000000 0.000000 0.000000 -0.114794 0.000000 0.000000
# 5 0.000000 0.000000 0.000000 0.000000 0.044475 0.000000
# 6 0.000000 0.000000 0.000000 0.000000 0.000000 0.037663
#
#
# Mechanical properties :
#
#
# Convention : Reuss Voigt Hill
#
# Bulk Modulus (GPa) = 65.52188 71.83802 68.67995
# Shear Modulus (GPa) = 134.07894 20.29612 77.18753
#
# Velocity S-wave (km/s) = 9.29724 3.61726 7.05419
# Velocity P-wave (km/s) = 12.54960 7.98493 10.51788
#
# Compressibility (1/GPa) = 0.01526208
#
# Stress axis : x y z
#
# Youngs Moduli (GPa) = 95.46994 74.03199 62.19224
#
# Poissons Ratio (x) = 0.39286 0.13919
# Poissons Ratio (y) = 0.50662 0.30194
# Poissons Ratio (z) = 0.21366 0.35942
#
# Static dielectric constant tensor:
#      x y z
#    x 3.162470 0.000000 0.000000 
#    y 0.000000 3.720940 0.000000 
#    z 0.000000 0.000000 2.692850 
# 
# 
# High freq. dielectric constant tensor:
#      x y z
#    x 1.623010 0.000000 0.000000 
#    y 0.000000 1.601860 0.000000 
#    z 0.000000 0.000000 1.543390 
# 
# From -- ./inp_files/21327.got.cif
#   From: 2010.03.12/outbox.cif.g09.slc.cpg/sg51_11_cif.got.tgz:21327.got - 2010.04.16 13:43:02.
