data_PCOD8205810
_publ_section_title
;
Structure prediction by ZEFSAII (Michael W. Deem and Ramdas Pophale) SiO2 
 PCOD8205810
Probable space group: P B A N
;
_chemical_formula_sum "Si O2"
_cell_formula_units_Z 40
_cell_length_a 9.656715
_cell_length_b 26.269935
_cell_length_c 7.509666
_cell_angle_alpha 90.000000
_cell_angle_beta 90.000000
_cell_angle_gamma 90.000000
_cell_volume 1905.061648
_symmetry_space_group_name_H-M "P B A N"
_symmetry_group_IT_number 50
_space_group.IT_coordinate_system_code '2'
_symmetry_cell_setting 'orthorhombic'
loop_
_space_group_symop_operation_xyz
x,y,z
1/2-x,1/2-y,z
x,1/2-y,-z
1/2-x,y,-z
-x,-y,-z
1/2+x,1/2+y,-z
-x,1/2+y,z
1/2+x,-y,z
loop_
_atom_site_type_symbol
_atom_site_label
_atom_site_fract_x
_atom_site_fract_y
_atom_site_fract_z
Si Si1 0.028479 0.871069 0.211975
Si Si2 0.515060 0.628154 0.807246
Si Si3 0.231242 0.307635 0.290937
Si Si4 0.919070 0.447473 0.507089
Si Si5 0.225050 0.803993 0.792186
O O1 0.921170 0.825563 0.241936
O O2 0.013597 0.919754 0.336402
O O3 0.173628 0.847647 0.277368
O O4 0.023263 0.889253 0.007262
O O5 0.671484 0.648573 0.794982
O O6 0.473277 0.580948 0.683802
O O7 0.429257 0.678062 0.748336
O O8 0.250000 0.250000 0.214265
O O9 0.250000 0.307453 0.500000
O O10 0.750000 0.453211 0.500000
O O11 0.000000 0.500000 0.500000
O O12 0.250000 0.750000 0.694910
O O13 0.250000 0.797209 0.000000
#
# Coordination Sequence:
#
# PCOD8205810 Si02
#       5
#     8   8   8   8   8
#     4  11  23  43  68  96 134 174 218 269 326 393
#     4  11  23  43  68  96 134 174 218 269 326 393
#     4  11  23  39  65 103 145 185 221 260 319 391
#     4  12  28  48  71  96 128 166 221 288 345 396
#     4   9  18  35  63  96 128 167 210 253 311 384
#
# _framework density 20.996696
#
# number of rings (size 3 to 8) (size 9 to 14) (size 15 to 20)
#    0.000    1.200    4.000    1.800    2.800    4.000 
#    0.000    1.000    0.000    0.000    0.000    0.000 
#    0.000    0.000    0.000    0.000    0.000    0.000 
#
# Total GULP energy -495796.072868 kJ/mol
# GULP energy per Si atom -12394.901822 kJ/mol
# Density = 2.094891 g / cm^3
# Si number density = 20.996696 Si / 1000 Ang^3
#
#
#
# Elastic Constant Matrix: (Units=GPa)
#
#
# Indices 1 2 3 4 5 6 
#
# 1 77.7249 27.0037 17.8732 0.0000 0.0000 0.0000
# 2 27.0037 144.7450 54.7036 0.0000 0.0000 0.0000
# 3 17.8732 54.7036 113.9435 0.0000 0.0000 0.0000
# 4 0.0000 0.0000 0.0000 1.4717 0.0000 0.0000
# 5 0.0000 0.0000 0.0000 0.0000 23.2923 0.0000
# 6 0.0000 0.0000 0.0000 0.0000 0.0000 48.1359
#
#
#
# Elastic Compliance Matrix: (Units=1/GPa)
#
#
# Indices 1 2 3 4 5 6 
#
# 1 0.013878 -0.002158 -0.001141 0.000000 0.000000 0.000000
# 2 -0.002158 0.008776 -0.003875 0.000000 0.000000 0.000000
# 3 -0.001141 -0.003875 0.010815 0.000000 0.000000 0.000000
# 4 0.000000 0.000000 0.000000 0.679463 0.000000 0.000000
# 5 0.000000 0.000000 0.000000 0.000000 0.042933 0.000000
# 6 0.000000 0.000000 0.000000 0.000000 0.000000 0.020774
#
#
# Mechanical properties :
#
#
# Convention : Reuss Voigt Hill
#
# Bulk Modulus (GPa) = 52.29543 59.50828 55.90185
# Shear Modulus (GPa) = 6.27069 30.36886 18.31978
#
# Velocity S-wave (km/s) = 1.73003 3.80724 2.95703
# Velocity P-wave (km/s) = 5.38064 6.90869 6.19198
#
# Compressibility (1/GPa) = 0.01912213
#
# Stress axis : x y z
#
# Youngs Moduli (GPa) = 72.05673 113.95196 92.46046
#
# Poissons Ratio (x) = 0.24590 0.10549
# Poissons Ratio (y) = 0.15549 0.35825
# Poissons Ratio (z) = 0.08221 0.44152
#
# Static dielectric constant tensor:
#      x y z
#    x 3.957490 0.000000 0.000000 
#    y 0.000000 3.815570 0.000000 
#    z 0.000000 0.000000 3.755150 
# 
# 
# High freq. dielectric constant tensor:
#      x y z
#    x 1.835700 0.000000 0.000000 
#    y 0.000000 1.813410 0.000000 
#    z 0.000000 0.000000 1.826790 
# 
# From -- ./inp_files/9750.got.cif
#   From: 2010.03.12/outbox.cif.g09.slc.cpg/sg50_5_cif.got.tgz:9750.got - 2010.04.16 13:23:21.
