data_PCOD8205155
_publ_section_title
;
Structure prediction by ZEFSAII (Michael W. Deem and Ramdas Pophale) SiO2 
 PCOD8205155
Probable space group: P B A N
;
_chemical_formula_sum "Si O2"
_cell_formula_units_Z 44
_cell_length_a 8.152311
_cell_length_b 14.615491
_cell_length_c 17.849204
_cell_angle_alpha 90.000000
_cell_angle_beta 90.000000
_cell_angle_gamma 90.000000
_cell_volume 2126.733157
_symmetry_space_group_name_H-M "P B A N"
_symmetry_group_IT_number 50
_space_group.IT_coordinate_system_code '2'
_symmetry_cell_setting 'orthorhombic'
loop_
_space_group_symop_operation_xyz
x,y,z
1/2-x,1/2-y,z
x,1/2-y,-z
1/2-x,y,-z
-x,-y,-z
1/2+x,1/2+y,-z
-x,1/2+y,z
1/2+x,-y,z
loop_
_atom_site_type_symbol
_atom_site_label
_atom_site_fract_x
_atom_site_fract_y
_atom_site_fract_z
Si Si1 0.750000 0.250000 0.000000
Si Si2 0.750000 0.250000 0.500000
Si Si3 0.950756 0.395519 0.915540
Si Si4 0.402219 0.684371 0.760962
Si Si5 0.750000 0.750000 0.304245
Si Si6 0.250000 0.044533 0.000000
Si Si7 0.246032 0.097216 0.415821
Si Si8 0.881975 0.399299 0.609152
O O1 0.865448 0.193326 0.053263
O O2 0.858838 0.316851 0.550518
O O3 0.940566 0.389334 0.825854
O O4 0.860475 0.486419 0.943096
O O5 0.136984 0.394172 0.946046
O O6 0.250000 0.750000 0.786044
O O7 0.584143 0.728214 0.743746
O O8 0.320380 0.631111 0.690835
O O9 0.674571 0.669498 0.357960
O O10 0.250000 0.137373 0.500000
O O11 0.070567 0.083807 0.381294
O O12 0.316826 0.995596 0.418841
#
# Coordination Sequence:
#
# PCOD8205155 Si02
#       8
#     2   2   8   8   4   4   8   8
#     4  10  20  36  64  98 124 162 228 246 332 408
#     4  12  24  42  62  94 132 178 238 288 340 402
#     4  10  21  42  65  99 129 178 211 280 330 408
#     4  11  24  44  66  95 140 176 216 285 341 404
#     4  10  27  42  62 101 132 178 230 268 350 411
#     4   9  22  42  68  97 134 166 234 263 336 406
#     4  11  24  41  65  92 127 173 228 291 335 402
#     4  11  26  39  67  95 129 177 231 280 348 404
#
# _framework density 20.689008000000001
#
# number of rings (size 3 to 8) (size 9 to 14) (size 15 to 20)
#    0.000    1.455    2.727    0.818    7.636    4.727 
#    3.273    0.000    0.000    0.000    0.000    0.000 
#    0.000    0.000    0.000    0.000    0.000    0.000 
#
# Total GULP energy -545083.942861 kJ/mol
# GULP energy per Si atom -12388.271429 kJ/mol
# Density = 2.064192 g / cm^3
# Si number density = 20.689008 Si / 1000 Ang^3
#
#
#
# Elastic Constant Matrix: (Units=GPa)
#
#
# Indices 1 2 3 4 5 6 
#
# 1 93.6541 21.3155 35.5389 0.0000 0.0000 0.0000
# 2 21.3155 91.0515 41.0731 0.0000 0.0000 0.0000
# 3 35.5389 41.0731 144.5680 0.0000 0.0000 0.0000
# 4 0.0000 0.0000 0.0000 60.1624 0.0000 0.0000
# 5 0.0000 0.0000 0.0000 0.0000 -680.4442 0.0000
# 6 0.0000 0.0000 0.0000 0.0000 0.0000 39.8828
#
#
#
# Elastic Compliance Matrix: (Units=1/GPa)
#
#
# Indices 1 2 3 4 5 6 
#
# 1 0.012000 -0.001696 -0.002468 0.000000 0.000000 0.000000
# 2 -0.001696 0.012837 -0.003230 0.000000 0.000000 0.000000
# 3 -0.002468 -0.003230 0.008442 0.000000 0.000000 0.000000
# 4 0.000000 0.000000 0.000000 0.016622 0.000000 0.000000
# 5 0.000000 0.000000 0.000000 0.000000 -0.001470 0.000000
# 6 0.000000 0.000000 0.000000 0.000000 0.000000 0.025073
#
#
# Mechanical properties :
#
#
# Convention : Reuss Voigt Hill
#
# Bulk Modulus (GPa) = 54.08260 58.34762 56.21511
# Shear Modulus (GPa) = 52.93458 -100.65674 -23.86108
#
# Velocity S-wave (km/s) = 5.06373 -6.98269 -3.39974
# Velocity P-wave (km/s) = 7.77084 6.06194 3.43795
#
# Compressibility (1/GPa) = 0.01849023
#
# Stress axis : x y z
#
# Youngs Moduli (GPa) = 83.33214 77.90012 118.46045
#
# Poissons Ratio (x) = 0.13211 0.29238
# Poissons Ratio (y) = 0.14132 0.38265
# Poissons Ratio (z) = 0.20568 0.25163
#
# Static dielectric constant tensor:
#      x y z
#    x 4.040310 0.000000 0.000000 
#    y 0.000000 3.111870 0.000000 
#    z 0.000000 0.000000 3.831190 
# 
# 
# High freq. dielectric constant tensor:
#      x y z
#    x 1.817200 0.000000 0.000000 
#    y 0.000000 1.806860 0.000000 
#    z 0.000000 0.000000 1.817450 
# 
# From -- ./inp_files/28670.got.cif
#   From: 2010.03.12/outbox.cif.g09.slc.cpg/sg50_15_cif.got.tgz:28670.got - 2010.04.16 13:23:21.
