data_PCOD8205566
_publ_section_title
;
Structure prediction by ZEFSAII (Michael W. Deem and Ramdas Pophale) SiO2 
 PCOD8205566
Probable space group: P B A N
;
_chemical_formula_sum "Si O2"
_cell_formula_units_Z 40
_cell_length_a 8.990113
_cell_length_b 14.354651
_cell_length_c 14.932849
_cell_angle_alpha 90.000000
_cell_angle_beta 90.000000
_cell_angle_gamma 90.000000
_cell_volume 1927.083186
_symmetry_space_group_name_H-M "P B A N"
_symmetry_group_IT_number 50
_space_group.IT_coordinate_system_code '2'
_symmetry_cell_setting 'orthorhombic'
loop_
_space_group_symop_operation_xyz
x,y,z
1/2-x,1/2-y,z
x,1/2-y,-z
1/2-x,y,-z
-x,-y,-z
1/2+x,1/2+y,-z
-x,1/2+y,z
1/2+x,-y,z
loop_
_atom_site_type_symbol
_atom_site_label
_atom_site_fract_x
_atom_site_fract_y
_atom_site_fract_z
Si Si1 0.175638 0.650737 0.089071
Si Si2 0.779247 0.494319 0.230666
Si Si3 0.972724 0.996771 0.357778
Si Si4 0.177874 0.349119 0.909566
Si Si5 0.073762 0.356935 0.508026
O O1 0.250000 0.750000 0.105107
O O2 0.213203 0.590465 0.175194
O O3 0.998953 0.659383 0.077089
O O4 0.250000 0.605446 0.000000
O O5 0.698030 0.503762 0.326860
O O6 0.775291 0.587762 0.173162
O O7 0.946566 0.475188 0.263108
O O8 0.018164 0.097651 0.398703
O O9 0.003605 0.914695 0.428332
O O10 0.250000 0.250000 0.889043
O O11 0.250000 0.391245 0.000000
O O12 0.020513 0.250000 0.500000
O O13 0.250000 0.364581 0.500000
#
# Coordination Sequence:
#
# PCOD8205566 Si02
#       5
#     8   8   8   8   8
#     4  11  25  42  64  94 132 173 215 265 317 374
#     4  12  25  41  66  94 132 167 213 266 319 370
#     4  11  24  42  63  99 128 160 211 268 312 382
#     4  11  25  42  65  93 129 176 218 261 317 378
#     4  10  22  43  69  91 125 169 206 255 324 387
#
# _framework density 20.756757
#
# number of rings (size 3 to 8) (size 9 to 14) (size 15 to 20)
#    0.000    1.000    4.000    3.000    5.600    4.800 
#    0.000    1.000    0.000    0.000    0.000    0.000 
#    0.000    0.000    0.000    0.000    0.000    0.000 
#
# Total GULP energy -496032.664850 kJ/mol
# GULP energy per Si atom -12400.816621 kJ/mol
# Density = 2.070951 g / cm^3
# Si number density = 20.756757 Si / 1000 Ang^3
#
#
#
# Elastic Constant Matrix: (Units=GPa)
#
#
# Indices 1 2 3 4 5 6 
#
# 1 94.4465 52.7284 41.9480 0.0000 0.0000 0.0000
# 2 52.7284 119.1128 57.0176 0.0000 0.0000 0.0000
# 3 41.9480 57.0176 114.0048 0.0000 0.0000 0.0000
# 4 0.0000 0.0000 0.0000 -30.3569 0.0000 0.0000
# 5 0.0000 0.0000 0.0000 0.0000 51.5934 0.0000
# 6 0.0000 0.0000 0.0000 0.0000 0.0000 27.3121
#
#
#
# Elastic Compliance Matrix: (Units=1/GPa)
#
#
# Indices 1 2 3 4 5 6 
#
# 1 0.014731 -0.005162 -0.002838 0.000000 0.000000 0.000000
# 2 -0.005162 0.012847 -0.004526 0.000000 0.000000 0.000000
# 3 -0.002838 -0.004526 0.012079 0.000000 0.000000 0.000000
# 4 0.000000 0.000000 0.000000 -0.032941 0.000000 0.000000
# 5 0.000000 0.000000 0.000000 0.000000 0.019382 0.000000
# 6 0.000000 0.000000 0.000000 0.000000 0.000000 0.036614
#
#
# Mechanical properties :
#
#
# Convention : Reuss Voigt Hill
#
# Bulk Modulus (GPa) = 68.47254 70.10581 69.28917
# Shear Modulus (GPa) = 53.97663 21.43439 37.70551
#
# Velocity S-wave (km/s) = 5.10498 3.21697 4.26671
# Velocity P-wave (km/s) = 8.23453 6.90266 7.59784
#
# Compressibility (1/GPa) = 0.01460439
#
# Stress axis : x y z
#
# Youngs Moduli (GPa) = 67.88557 77.83895 82.78548
#
# Poissons Ratio (x) = 0.40182 0.23497
# Poissons Ratio (y) = 0.35044 0.37467
# Poissons Ratio (z) = 0.19268 0.35228
#
# Static dielectric constant tensor:
#      x y z
#    x 3.591920 0.000000 0.000000 
#    y 0.000000 3.716250 0.000000 
#    z 0.000000 0.000000 3.897180 
# 
# 
# High freq. dielectric constant tensor:
#      x y z
#    x 1.826080 0.000000 0.000000 
#    y 0.000000 1.808360 0.000000 
#    z 0.000000 0.000000 1.823380 
# 
# From -- ./inp_files/24631.got.cif
#   From: 2010.03.12/outbox.cif.g09.slc.cpg/sg50_13_cif.got.tgz:24631.got - 2010.04.16 13:23:21.
