data_PCOD8205666
_publ_section_title
;
Structure prediction by ZEFSAII (Michael W. Deem and Ramdas Pophale) SiO2 
 PCOD8205666
Probable space group: P B A N
;
_chemical_formula_sum "Si O2"
_cell_formula_units_Z 28
_cell_length_a 11.451740
_cell_length_b 4.884854
_cell_length_c 20.870827
_cell_angle_alpha 90.000000
_cell_angle_beta 90.000000
_cell_angle_gamma 90.000000
_cell_volume 1167.515689
_symmetry_space_group_name_H-M "P B A N"
_symmetry_group_IT_number 50
_space_group.IT_coordinate_system_code '2'
_symmetry_cell_setting 'orthorhombic'
loop_
_space_group_symop_operation_xyz
x,y,z
1/2-x,1/2-y,z
x,1/2-y,-z
1/2-x,y,-z
-x,-y,-z
1/2+x,1/2+y,-z
-x,1/2+y,z
1/2+x,-y,z
loop_
_atom_site_type_symbol
_atom_site_label
_atom_site_fract_x
_atom_site_fract_y
_atom_site_fract_z
Si Si1 0.750000 0.750000 0.000000
Si Si2 0.250000 0.250000 0.786347
Si Si3 0.585396 0.476780 0.597763
Si Si4 0.750000 0.250000 0.295995
Si Si5 0.250000 0.250000 0.500000
Si Si6 0.580043 0.628922 0.895219
O O1 0.668231 0.565329 0.953951
O O2 0.305715 0.501953 0.745619
O O3 0.350814 0.106329 0.828473
O O4 0.496227 0.235043 0.590982
O O5 0.653392 0.415237 0.663476
O O6 0.679160 0.530057 0.542297
O O7 0.468833 0.435358 0.899718
#
# Coordination Sequence:
#
# PCOD8205666 Si02
#       6
#     2   4   8   4   2   8
#     4  10  24  42  66 100 136 176 228 284 344 410
#     4  11  25  43  68  97 135 179 230 284 342 409
#     4  12  27  46  73 103 137 182 226 281 349 413
#     4  12  26  47  68 101 140 178 232 288 338 416
#     4  12  26  50  74 108 146 178 232 292 348 428
#     4  11  24  42  67  98 134 179 227 283 345 408
#
# _framework density 23.982548999999999
#
# number of rings (size 3 to 8) (size 9 to 14) (size 15 to 20)
#    0.000    0.571    0.000    7.714    0.000   15.429 
#    0.000    0.000    0.000    0.000    0.000    0.000 
#    0.000    0.000    0.000    0.000    0.000    0.000 
#
# Total GULP energy -346981.928583 kJ/mol
# GULP energy per Si atom -12392.211735 kJ/mol
# Density = 2.392796 g / cm^3
# Si number density = 23.982549 Si / 1000 Ang^3
#
#
#
# Elastic Constant Matrix: (Units=GPa)
#
#
# Indices 1 2 3 4 5 6 
#
# 1 137.8578 58.6373 69.8407 0.0000 0.0000 0.0000
# 2 58.6373 161.9628 69.0131 0.0000 0.0000 0.0000
# 3 69.8407 69.0131 159.0273 0.0000 0.0000 0.0000
# 4 0.0000 0.0000 0.0000 48.3380 0.0000 0.0000
# 5 0.0000 0.0000 0.0000 0.0000 -0.6042 0.0000
# 6 0.0000 0.0000 0.0000 0.0000 0.0000 37.1688
#
#
#
# Elastic Compliance Matrix: (Units=1/GPa)
#
#
# Indices 1 2 3 4 5 6 
#
# 1 0.009891 -0.002122 -0.003423 0.000000 0.000000 0.000000
# 2 -0.002122 0.008030 -0.002553 0.000000 0.000000 0.000000
# 3 -0.003423 -0.002553 0.008899 0.000000 0.000000 0.000000
# 4 0.000000 0.000000 0.000000 0.020688 0.000000 0.000000
# 5 0.000000 0.000000 0.000000 0.000000 -1.654944 0.000000
# 6 0.000000 0.000000 0.000000 0.000000 0.000000 0.026904
#
#
# Mechanical properties :
#
#
# Convention : Reuss Voigt Hill
#
# Bulk Modulus (GPa) = 94.12257 94.87003 94.49630
# Shear Modulus (GPa) = -3.20350 34.40429 15.60040
#
# Velocity S-wave (km/s) = -1.15701 3.79166 2.55324
# Velocity P-wave (km/s) = 6.12753 7.66895 6.94116
#
# Compressibility (1/GPa) = 0.01062444
#
# Stress axis : x y z
#
# Youngs Moduli (GPa) = 101.10654 124.52613 112.36938
#
# Poissons Ratio (x) = 0.26429 0.38460
# Poissons Ratio (y) = 0.21459 0.28686
# Poissons Ratio (z) = 0.34605 0.31790
#
# Static dielectric constant tensor:
#      x y z
#    x 5.526310 0.000000 0.000000 
#    y 0.000000 3.111460 0.000000 
#    z 0.000000 0.000000 4.632180 
# 
# 
# High freq. dielectric constant tensor:
#      x y z
#    x 1.959920 0.000000 0.000000 
#    y 0.000000 1.959240 0.000000 
#    z 0.000000 0.000000 1.965100 
# 
# From -- ./inp_files/30788.got.cif
#   From: 2010.03.12/outbox.cif.g09.slc.cpg/sg50_16_cif.got.tgz:30788.got - 2010.04.16 13:23:21.
