data_PCOD8205581
_publ_section_title
;
Structure prediction by ZEFSAII (Michael W. Deem and Ramdas Pophale) SiO2 
 PCOD8205581
Probable space group: P B A N
;
_chemical_formula_sum "Si O2"
_cell_formula_units_Z 34
_cell_length_a 13.343067
_cell_length_b 12.232555
_cell_length_c 8.544923
_cell_angle_alpha 90.000000
_cell_angle_beta 90.000000
_cell_angle_gamma 90.000000
_cell_volume 1394.700631
_symmetry_space_group_name_H-M "P B A N"
_symmetry_group_IT_number 50
_space_group.IT_coordinate_system_code '2'
_symmetry_cell_setting 'orthorhombic'
loop_
_space_group_symop_operation_xyz
x,y,z
1/2-x,1/2-y,z
x,1/2-y,-z
1/2-x,y,-z
-x,-y,-z
1/2+x,1/2+y,-z
-x,1/2+y,z
1/2+x,-y,z
loop_
_atom_site_type_symbol
_atom_site_label
_atom_site_fract_x
_atom_site_fract_y
_atom_site_fract_z
Si Si1 0.389871 0.077177 0.635526
Si Si2 0.888810 0.129894 0.442393
Si Si3 0.566849 0.871618 0.019948
Si Si4 0.851257 0.423894 0.904916
Si Si5 0.250000 0.250000 0.500000
O O1 0.492160 0.116462 0.555765
O O2 0.403998 0.065604 0.820527
O O3 0.312887 0.174475 0.614494
O O4 0.348489 0.963238 0.562402
O O5 0.857580 0.250000 0.500000
O O6 0.839575 0.117634 0.271684
O O7 0.445744 0.867978 0.005383
O O8 0.609357 0.750000 0.000000
O O9 0.621990 0.946143 0.889854
O O10 0.750000 0.397801 0.000000
#
# Coordination Sequence:
#
# PCOD8205581 Si02
#       5
#     8   8   8   8   2
#     4  10  24  40  72 106 143 193 246 301 374 424
#     4  10  22  46  72 100 150 198 241 302 373 437
#     4  10  24  44  69 103 144 189 239 302 367 434
#     4  10  24  43  71 102 142 191 246 294 366 438
#     4  12  24  40  72 112 140 182 250 314 336 460
#
# _framework density 24.377991999999999
#
# number of rings (size 3 to 8) (size 9 to 14) (size 15 to 20)
#    0.000    1.882    1.176    0.000    6.588   10.353 
#    0.000    0.588    0.000    2.824    0.000    0.000 
#    0.000    0.000    0.000    0.000    0.000    0.000 
#
# Total GULP energy -421529.537544 kJ/mol
# GULP energy per Si atom -12397.927575 kJ/mol
# Density = 2.432251 g / cm^3
# Si number density = 24.377992 Si / 1000 Ang^3
#
#
#
# Elastic Constant Matrix: (Units=GPa)
#
#
# Indices 1 2 3 4 5 6 
#
# 1 108.5201 29.8464 55.0041 0.0000 0.0000 0.0000
# 2 29.8464 210.4929 83.4473 0.0000 0.0000 0.0000
# 3 55.0041 83.4473 126.3951 0.0000 0.0000 0.0000
# 4 0.0000 0.0000 0.0000 40.6374 0.0000 0.0000
# 5 0.0000 0.0000 0.0000 0.0000 34.1555 0.0000
# 6 0.0000 0.0000 0.0000 0.0000 0.0000 -5.4748
#
#
#
# Elastic Compliance Matrix: (Units=1/GPa)
#
#
# Indices 1 2 3 4 5 6 
#
# 1 0.011860 0.000494 -0.005487 0.000000 0.000000 0.000000
# 2 0.000494 0.006456 -0.004477 0.000000 0.000000 0.000000
# 3 -0.005487 -0.004477 0.013255 0.000000 0.000000 0.000000
# 4 0.000000 0.000000 0.000000 0.024608 0.000000 0.000000
# 5 0.000000 0.000000 0.000000 0.000000 0.029278 0.000000
# 6 0.000000 0.000000 0.000000 0.000000 0.000000 -0.182656
#
#
# Mechanical properties :
#
#
# Convention : Reuss Voigt Hill
#
# Bulk Modulus (GPa) = 79.17478 86.88931 83.03204
# Shear Modulus (GPa) = -67.52332 32.33765 -17.59284
#
# Velocity S-wave (km/s) = -5.26864 3.64608 -2.68930
# Velocity P-wave (km/s) = 2.11258 7.31061 4.94884
#
# Compressibility (1/GPa) = 0.01263028
#
# Stress axis : x y z
#
# Youngs Moduli (GPa) = 84.31438 154.90556 75.44171
#
# Poissons Ratio (x) = -0.07647 0.41397
# Poissons Ratio (y) = -0.04162 0.33774
# Poissons Ratio (z) = 0.46265 0.69349
#
# Static dielectric constant tensor:
#      x y z
#    x 4.480840 0.000000 0.000000 
#    y 0.000000 4.405300 0.000000 
#    z 0.000000 0.000000 4.136310 
# 
# 
# High freq. dielectric constant tensor:
#      x y z
#    x 1.975970 0.000000 0.000000 
#    y 0.000000 1.976700 0.000000 
#    z 0.000000 0.000000 1.957720 
# 
# From -- ./inp_files/12229.got.cif
#   From: 2010.03.12/outbox.cif.g09.slc.cpg/sg50_7_cif.got.tgz:12229.got - 2010.04.16 13:23:21.
