data_PCOD8205057
_publ_section_title
;
Structure prediction by ZEFSAII (Michael W. Deem and Ramdas Pophale) SiO2 
 PCOD8205057
Probable space group: P B A N
;
_chemical_formula_sum "Si O2"
_cell_formula_units_Z 64
_cell_length_a 8.775526
_cell_length_b 33.490822
_cell_length_c 11.893216
_cell_angle_alpha 90.000000
_cell_angle_beta 90.000000
_cell_angle_gamma 90.000000
_cell_volume 3495.411178
_symmetry_space_group_name_H-M "P B A N"
_symmetry_group_IT_number 50
_space_group.IT_coordinate_system_code '2'
_symmetry_cell_setting 'orthorhombic'
loop_
_space_group_symop_operation_xyz
x,y,z
1/2-x,1/2-y,z
x,1/2-y,-z
1/2-x,y,-z
-x,-y,-z
1/2+x,1/2+y,-z
-x,1/2+y,z
1/2+x,-y,z
loop_
_atom_site_type_symbol
_atom_site_label
_atom_site_fract_x
_atom_site_fract_y
_atom_site_fract_z
Si Si1 0.438249 0.667601 0.869497
Si Si2 0.623610 0.543364 0.575257
Si Si3 0.079990 0.669205 0.868296
Si Si4 0.536235 0.910364 0.784843
Si Si5 0.578153 0.750014 0.133343
Si Si6 0.570152 0.543203 0.995976
Si Si7 0.133249 0.543080 0.590368
Si Si8 0.399256 0.408764 0.219057
O O1 0.259241 0.664619 0.847095
O O2 0.492920 0.710441 0.824348
O O3 0.539012 0.635907 0.799028
O O4 0.468945 0.662538 0.002165
O O5 0.750000 0.566427 0.500000
O O6 0.509913 0.530995 0.480075
O O7 0.689447 0.501563 0.632061
O O8 0.540024 0.572217 0.665276
O O9 0.997871 0.636363 0.792941
O O10 0.018720 0.711903 0.824947
O O11 0.420535 0.928545 0.692477
O O12 0.716967 0.913588 0.763783
O O13 0.497909 0.931925 0.902038
O O14 0.750000 0.750000 0.182193
O O15 0.582941 0.750000 0.000000
O O16 0.527664 0.565529 0.881203
O O17 0.750000 0.540111 0.000000
O O18 0.500000 0.500000 0.000000
O O19 0.250000 0.563535 0.500000
#
# Coordination Sequence:
#
# PCOD8205057 Si02
#       8
#     8   8   8   8   8   8   8   8
#     4  10  20  33  51  80 112 148 178 221 269 325
#     4  10  20  39  56  76 104 140 189 238 279 321
#     4  10  20  33  51  79 115 144 180 223 265 327
#     4  11  21  36  53  78 110 143 183 228 275 332
#     4   9  17  31  53  77 108 148 181 213 265 326
#     4  10  22  36  51  74 107 146 183 220 275 334
#     4  10  22  37  58  78 103 140 188 241 283 322
#     4  11  21  35  55  77 109 146 182 226 275 332
#
# _framework density 18.309721
#
# number of rings (size 3 to 8) (size 9 to 14) (size 15 to 20)
#    0.000    1.875    2.500    1.875    1.750    3.500 
#    0.000    0.000    0.000    0.000    0.000    0.875 
#    0.000    0.000    0.000    0.000    0.000    0.000 
#
# Total GULP energy -792841.829507 kJ/mol
# GULP energy per Si atom -12388.153586 kJ/mol
# Density = 1.826805 g / cm^3
# Si number density = 18.309721 Si / 1000 Ang^3
#
#
#
# Elastic Constant Matrix: (Units=GPa)
#
#
# Indices 1 2 3 4 5 6 
#
# 1 52.2829 20.8199 25.3008 0.0000 0.0000 0.0000
# 2 20.8199 137.5077 50.9326 0.0000 0.0000 0.0000
# 3 25.3008 50.9326 87.3407 0.0000 0.0000 0.0000
# 4 0.0000 0.0000 0.0000 22.9398 0.0000 0.0000
# 5 0.0000 0.0000 0.0000 0.0000 27.0487 0.0000
# 6 0.0000 0.0000 0.0000 0.0000 0.0000 34.9869
#
#
#
# Elastic Compliance Matrix: (Units=1/GPa)
#
#
# Indices 1 2 3 4 5 6 
#
# 1 0.022415 -0.001261 -0.005758 0.000000 0.000000 0.000000
# 2 -0.001261 0.009347 -0.005085 0.000000 0.000000 0.000000
# 3 -0.005758 -0.005085 0.016083 0.000000 0.000000 0.000000
# 4 0.000000 0.000000 0.000000 0.043592 0.000000 0.000000
# 5 0.000000 0.000000 0.000000 0.000000 0.036970 0.000000
# 6 0.000000 0.000000 0.000000 0.000000 0.000000 0.028582
#
#
# Mechanical properties :
#
#
# Convention : Reuss Voigt Hill
#
# Bulk Modulus (GPa) = 42.30755 52.35974 47.33365
# Shear Modulus (GPa) = 26.44425 29.00028 27.72226
#
# Velocity S-wave (km/s) = 3.80448 3.98411 3.89533
# Velocity P-wave (km/s) = 6.51579 7.05854 6.79259
#
# Compressibility (1/GPa) = 0.02363644
#
# Stress axis : x y z
#
# Youngs Moduli (GPa) = 44.61245 106.98803 62.17831
#
# Poissons Ratio (x) = 0.13493 0.35801
# Poissons Ratio (y) = 0.05627 0.31619
# Poissons Ratio (z) = 0.25687 0.54406
#
# Static dielectric constant tensor:
#      x y z
#    x 3.001360 0.000000 0.000000 
#    y 0.000000 3.406270 0.000000 
#    z 0.000000 0.000000 3.089870 
# 
# 
# High freq. dielectric constant tensor:
#      x y z
#    x 1.720350 0.000000 0.000000 
#    y 0.000000 1.709690 0.000000 
#    z 0.000000 0.000000 1.672000 
# 
# From -- ./inp_files/19525.got.cif
#   From: 2010.03.12/outbox.cif.g09.slc.cpg/sg50_10_cif.got.tgz:19525.got - 2010.04.16 13:23:21.
