data_PCOD8205940
_publ_section_title
;
Structure prediction by ZEFSAII (Michael W. Deem and Ramdas Pophale) SiO2 
 PCOD8205940
Probable space group: P M M A
;
_chemical_formula_sum "Si O2"
_cell_formula_units_Z 48
_cell_length_a 8.834060
_cell_length_b 30.746526
_cell_length_c 9.522629
_cell_angle_alpha 90.000000
_cell_angle_beta 90.000000
_cell_angle_gamma 90.000000
_cell_volume 2586.504640
_symmetry_space_group_name_H-M "P M M A"
_symmetry_group_IT_number 51
_symmetry_cell_setting 'orthorhombic'
loop_
_space_group_symop_operation_xyz
x,y,z
1/2-x,-y,z
1/2+x,-y,-z
-x,y,-z
-x,-y,-z
1/2+x,y,-z
1/2-x,y,z
x,-y,z
loop_
_atom_site_type_symbol
_atom_site_label
_atom_site_fract_x
_atom_site_fract_y
_atom_site_fract_z
Si Si1 0.071248 0.000000 0.349053
Si Si2 0.925858 0.320291 0.150656
Si Si3 0.570910 0.173794 0.852252
Si Si4 0.069785 0.242743 0.652687
Si Si5 0.073085 0.415902 0.848282
Si Si6 0.072985 0.925745 0.144084
Si Si7 0.570482 0.500000 0.843824
O O1 0.014422 0.956820 0.268289
O O2 0.000000 0.000000 0.500000
O O3 0.250000 0.000000 0.364568
O O4 0.750000 0.313957 0.123120
O O5 0.986044 0.284869 0.260453
O O6 0.957226 0.368269 0.218824
O O7 0.000000 0.313104 0.000000
O O8 0.750000 0.181757 0.856784
O O9 0.495522 0.200044 0.726298
O O10 0.528117 0.123799 0.821489
O O11 0.500000 0.189187 0.000000
O O12 0.250000 0.239606 0.642955
O O13 0.000000 0.246809 0.500000
O O14 0.250000 0.426503 0.859463
O O15 0.990709 0.456003 0.766094
O O16 0.000000 0.413108 0.000000
O O17 0.250000 0.930758 0.123828
O O18 0.000000 0.941767 0.000000
O O19 0.750000 0.500000 0.846902
O O20 0.500000 0.500000 0.000000
#
# Coordination Sequence:
#
# PCOD8205940 Si02
#       7
#     4   8   8   8   8   8   4
#     4  10  21  36  52  76 108 142 177 216 258 304
#     4   9  19  33  51  73  98 128 167 208 250 299
#     4  10  20  36  57  82 108 137 172 214 259 310
#     4  11  23  38  54  76 104 137 173 213 260 311
#     4   9  15  25  40  61  89 122 156 195 241 291
#     4   9  19  35  56  80 106 135 173 214 256 304
#     4  10  16  22  34  58  91 124 155 192 238 290
#
# _framework density 18.557863000000001
#
# number of rings (size 3 to 8) (size 9 to 14) (size 15 to 20)
#    0.000    2.333    0.000    4.000    0.000    5.333 
#    0.000    1.667    0.000    0.000    0.000    0.583 
#    0.000    0.000    0.000    0.000    0.000    0.000 
#
# Total GULP energy -594994.595269 kJ/mol
# GULP energy per Si atom -12395.720735 kJ/mol
# Density = 1.851562 g / cm^3
# Si number density = 18.557863 Si / 1000 Ang^3
#
#
#
# Elastic Constant Matrix: (Units=GPa)
#
#
# Indices 1 2 3 4 5 6 
#
# 1 81.6383 53.2013 43.3929 0.0000 0.0000 0.0000
# 2 53.2013 145.6287 80.5168 0.0000 0.0000 0.0000
# 3 43.3929 80.5168 121.2753 0.0000 0.0000 0.0000
# 4 0.0000 0.0000 0.0000 8.9234 0.0000 0.0000
# 5 0.0000 0.0000 0.0000 0.0000 28.2245 0.0000
# 6 0.0000 0.0000 0.0000 0.0000 0.0000 27.6639
#
#
#
# Elastic Compliance Matrix: (Units=1/GPa)
#
#
# Indices 1 2 3 4 5 6 
#
# 1 0.016762 -0.004436 -0.003053 0.000000 0.000000 0.000000
# 2 -0.004436 0.012023 -0.006395 0.000000 0.000000 0.000000
# 3 -0.003053 -0.006395 0.013584 0.000000 0.000000 0.000000
# 4 0.000000 0.000000 0.000000 0.112065 0.000000 0.000000
# 5 0.000000 0.000000 0.000000 0.000000 0.035430 0.000000
# 6 0.000000 0.000000 0.000000 0.000000 0.000000 0.036148
#
#
# Mechanical properties :
#
#
# Convention : Reuss Voigt Hill
#
# Bulk Modulus (GPa) = 68.48378 78.08491 73.28434
# Shear Modulus (GPa) = 19.33132 24.39112 21.86122
#
# Velocity S-wave (km/s) = 3.23101 3.62930 3.43593
# Velocity P-wave (km/s) = 7.13457 7.72853 7.43748
#
# Compressibility (1/GPa) = 0.01460200
#
# Stress axis : x y z
#
# Youngs Moduli (GPa) = 59.65714 83.17277 73.61706
#
# Poissons Ratio (x) = 0.36895 0.22472
# Poissons Ratio (y) = 0.26464 0.47079
# Poissons Ratio (z) = 0.18211 0.53191
#
# Static dielectric constant tensor:
#      x y z
#    x 3.417740 0.000000 0.000000 
#    y 0.000000 4.469780 0.000000 
#    z 0.000000 0.000000 2.523110 
# 
# 
# High freq. dielectric constant tensor:
#      x y z
#    x 1.727220 0.000000 0.000000 
#    y 0.000000 1.747860 0.000000 
#    z 0.000000 0.000000 1.675560 
# 
# From -- ./inp_files/6180.got.cif
#   From: 2010.03.12/outbox.cif.g09.slc.cpg/sg51_4_cif.got.tgz:6180.got - 2010.04.16 13:43:02.
