data_PCOD8205825
_publ_section_title
;
Structure prediction by ZEFSAII (Michael W. Deem and Ramdas Pophale) SiO2 
 PCOD8205825
Probable space group: P B A N
;
_chemical_formula_sum "Si O2"
_cell_formula_units_Z 40
_cell_length_a 16.964487
_cell_length_b 9.475053
_cell_length_c 11.352728
_cell_angle_alpha 90.000000
_cell_angle_beta 90.000000
_cell_angle_gamma 90.000000
_cell_volume 1824.830840
_symmetry_space_group_name_H-M "P B A N"
_symmetry_group_IT_number 50
_space_group.IT_coordinate_system_code '2'
_symmetry_cell_setting 'orthorhombic'
loop_
_space_group_symop_operation_xyz
x,y,z
1/2-x,1/2-y,z
x,1/2-y,-z
1/2-x,y,-z
-x,-y,-z
1/2+x,1/2+y,-z
-x,1/2+y,z
1/2+x,-y,z
loop_
_atom_site_type_symbol
_atom_site_label
_atom_site_fract_x
_atom_site_fract_y
_atom_site_fract_z
Si Si1 0.159424 0.031709 0.759675
Si Si2 0.417554 0.079913 0.997530
Si Si3 0.088629 0.779276 0.634168
Si Si4 0.594752 0.718574 0.630243
Si Si5 0.158252 0.527693 0.759243
O O1 0.132302 0.020664 0.893879
O O2 0.147981 0.192859 0.720588
O O3 0.248808 0.985071 0.748820
O O4 0.105784 0.940170 0.670249
O O5 0.428713 0.250000 0.000000
O O6 0.369922 0.030409 0.883962
O O7 0.500000 0.000000 0.000000
O O8 0.116903 0.750000 0.500000
O O9 0.135433 0.688887 0.732379
O O10 0.996686 0.745589 0.647625
O O11 0.623833 0.750000 0.500000
O O12 0.612815 0.555978 0.656151
#
# Coordination Sequence:
#
# PCOD8205825 Si02
#       5
#     8   8   8   8   8
#     4  12  26  43  69 102 139 178 223 285 347 400
#     4  12  27  47  74 102 136 180 230 282 338 412
#     4  11  25  46  69 100 141 185 231 279 332 405
#     4  11  23  42  69  98 133 181 235 279 332 405
#     4  12  26  43  69 102 139 178 223 285 347 400
#
# _framework density 21.919839
#
# number of rings (size 3 to 8) (size 9 to 14) (size 15 to 20)
#    0.000    0.400    2.000    6.600    2.800    8.800 
#    0.000    2.000    0.000    0.000    0.000    0.000 
#    0.000    0.000    0.000    0.000    0.000    0.000 
#
# Total GULP energy -496235.828998 kJ/mol
# GULP energy per Si atom -12405.895725 kJ/mol
# Density = 2.186995 g / cm^3
# Si number density = 21.919839 Si / 1000 Ang^3
#
#
#
# Elastic Constant Matrix: (Units=GPa)
#
#
# Indices 1 2 3 4 5 6 
#
# 1 98.5050 17.6881 30.9463 0.0000 0.0000 0.0000
# 2 17.6881 77.6919 22.8189 0.0000 0.0000 0.0000
# 3 30.9463 22.8189 132.5195 0.0000 0.0000 0.0000
# 4 0.0000 0.0000 0.0000 44.5865 0.0000 0.0000
# 5 0.0000 0.0000 0.0000 0.0000 18.2867 0.0000
# 6 0.0000 0.0000 0.0000 0.0000 0.0000 32.1583
#
#
#
# Elastic Compliance Matrix: (Units=1/GPa)
#
#
# Indices 1 2 3 4 5 6 
#
# 1 0.011210 -0.001878 -0.002294 0.000000 0.000000 0.000000
# 2 -0.001878 0.013872 -0.001950 0.000000 0.000000 0.000000
# 3 -0.002294 -0.001950 0.008418 0.000000 0.000000 0.000000
# 4 0.000000 0.000000 0.000000 0.022428 0.000000 0.000000
# 5 0.000000 0.000000 0.000000 0.000000 0.054685 0.000000
# 6 0.000000 0.000000 0.000000 0.000000 0.000000 0.031096
#
#
# Mechanical properties :
#
#
# Convention : Reuss Voigt Hill
#
# Bulk Modulus (GPa) = 47.05004 50.18035 48.61519
# Shear Modulus (GPa) = 31.04854 34.82383 32.93618
#
# Velocity S-wave (km/s) = 3.76767 3.99016 3.88051
# Velocity P-wave (km/s) = 6.35911 6.64612 6.50420
#
# Compressibility (1/GPa) = 0.02125397
#
# Stress axis : x y z
#
# Youngs Moduli (GPa) = 89.20745 72.08913 118.79854
#
# Poissons Ratio (x) = 0.13540 0.27256
# Poissons Ratio (y) = 0.16756 0.23166
# Poissons Ratio (z) = 0.20467 0.14057
#
# Static dielectric constant tensor:
#      x y z
#    x 3.811390 0.000000 0.000000 
#    y 0.000000 4.047210 0.000000 
#    z 0.000000 0.000000 3.963360 
# 
# 
# High freq. dielectric constant tensor:
#      x y z
#    x 1.867580 0.000000 0.000000 
#    y 0.000000 1.875750 0.000000 
#    z 0.000000 0.000000 1.876370 
# 
# From -- ./inp_files/18717.got.cif
#   From: 2010.03.12/outbox.cif.g09.slc.cpg/sg50_10_cif.got.tgz:18717.got - 2010.04.16 13:23:21.
