data_PCOD8205282
_publ_section_title
;
Structure prediction by ZEFSAII (Michael W. Deem and Ramdas Pophale) SiO2 
 PCOD8205282
Probable space group: P B A N
;
_chemical_formula_sum "Si O2"
_cell_formula_units_Z 48
_cell_length_a 17.068558
_cell_length_b 28.645590
_cell_length_c 4.985257
_cell_angle_alpha 90.000000
_cell_angle_beta 90.000000
_cell_angle_gamma 90.000000
_cell_volume 2437.486145
_symmetry_space_group_name_H-M "P B A N"
_symmetry_group_IT_number 50
_space_group.IT_coordinate_system_code '2'
_symmetry_cell_setting 'orthorhombic'
loop_
_space_group_symop_operation_xyz
x,y,z
1/2-x,1/2-y,z
x,1/2-y,-z
1/2-x,y,-z
-x,-y,-z
1/2+x,1/2+y,-z
-x,1/2+y,z
1/2+x,-y,z
loop_
_atom_site_type_symbol
_atom_site_label
_atom_site_fract_x
_atom_site_fract_y
_atom_site_fract_z
Si Si1 0.067472 0.197185 0.041559
Si Si2 0.029376 0.101950 0.885576
Si Si3 0.527613 0.050787 0.606227
Si Si4 0.301101 0.969670 0.239733
Si Si5 0.167004 0.197134 0.544185
Si Si6 0.199580 0.423243 0.236068
O O1 0.006358 0.155586 0.964697
O O2 0.142254 0.191099 0.850558
O O3 0.031785 0.250000 0.000000
O O4 0.096220 0.184562 0.341087
O O5 0.116268 0.102814 0.750075
O O6 0.971824 0.084359 0.652956
O O7 0.028014 0.068700 0.150703
O O8 0.614798 0.054126 0.724542
O O9 0.500000 0.000000 0.500000
O O10 0.250000 0.963069 0.500000
O O11 0.319638 0.023130 0.172240
O O12 0.250000 0.946839 0.000000
O O13 0.187935 0.250000 0.500000
O O14 0.250000 0.168938 0.500000
O O15 0.250000 0.417864 0.500000
O O16 0.250000 0.400564 0.000000
#
# Coordination Sequence:
#
# PCOD8205282 Si02
#       6
#     8   8   8   8   8   8
#     4  10  21  36  52  74 108 146 190 244 286 328
#     4  12  24  37  57  84 114 155 201 237 287 341
#     4  12  24  39  61  85 117 151 189 239 286 344
#     4  10  21  37  58  80 111 150 186 227 283 337
#     4   9  17  31  51  71  97 142 195 242 286 320
#     4  10  21  34  51  77 114 150 194 236 276 324
#
# _framework density 19.692419000000001
#
# number of rings (size 3 to 8) (size 9 to 14) (size 15 to 20)
#    0.000    1.500    1.667    4.000    4.667    4.000 
#    0.000    0.000    0.000    0.000    0.000    0.000 
#    0.000   10.000    0.000    0.000    0.000    0.000 
#
# Total GULP energy -594789.016616 kJ/mol
# GULP energy per Si atom -12391.437846 kJ/mol
# Density = 1.964760 g / cm^3
# Si number density = 19.692419 Si / 1000 Ang^3
#
#
#
# Elastic Constant Matrix: (Units=GPa)
#
#
# Indices 1 2 3 4 5 6 
#
# 1 75.9549 33.9973 25.0465 0.0000 0.0000 0.0000
# 2 33.9973 106.2577 29.5503 0.0000 0.0000 0.0000
# 3 25.0465 29.5503 107.4026 0.0000 0.0000 0.0000
# 4 0.0000 0.0000 0.0000 -0.7655 0.0000 0.0000
# 5 0.0000 0.0000 0.0000 0.0000 40.2374 0.0000
# 6 0.0000 0.0000 0.0000 0.0000 0.0000 86.6906
#
#
#
# Elastic Compliance Matrix: (Units=1/GPa)
#
#
# Indices 1 2 3 4 5 6 
#
# 1 0.015968 -0.004411 -0.002510 0.000000 0.000000 0.000000
# 2 -0.004411 0.011409 -0.002110 0.000000 0.000000 0.000000
# 3 -0.002510 -0.002110 0.010477 0.000000 0.000000 0.000000
# 4 0.000000 0.000000 0.000000 -1.306314 0.000000 0.000000
# 5 0.000000 0.000000 0.000000 0.000000 0.024852 0.000000
# 6 0.000000 0.000000 0.000000 0.000000 0.000000 0.011535
#
#
# Mechanical properties :
#
#
# Convention : Reuss Voigt Hill
#
# Bulk Modulus (GPa) = 50.52828 51.86705 51.19766
# Shear Modulus (GPa) = -4.14108 38.63390 17.24641
#
# Velocity S-wave (km/s) = -1.45171 4.43410 2.96258
# Velocity P-wave (km/s) = 4.78587 7.25333 6.14473
#
# Compressibility (1/GPa) = 0.01979090
#
# Stress axis : x y z
#
# Youngs Moduli (GPa) = 62.62642 87.64816 95.44904
#
# Poissons Ratio (x) = 0.38660 0.23959
# Poissons Ratio (y) = 0.27623 0.20144
# Poissons Ratio (z) = 0.15720 0.18498
#
# Static dielectric constant tensor:
#      x y z
#    x 3.290300 0.000000 0.000000 
#    y 0.000000 3.852780 0.000000 
#    z 0.000000 0.000000 3.770340 
# 
# 
# High freq. dielectric constant tensor:
#      x y z
#    x 1.718130 0.000000 0.000000 
#    y 0.000000 1.760640 0.000000 
#    z 0.000000 0.000000 1.795030 
# 
# From -- ./inp_files/3714.got.cif
#   From: 2010.03.12/outbox.cif.g09.slc.cpg/sg50_2_cif.got.tgz:3714.got - 2010.04.16 13:23:21.
