data_PCOD8205600
_publ_section_title
;
Structure prediction by ZEFSAII (Michael W. Deem and Ramdas Pophale) SiO2 
 PCOD8205600
Probable space group: P B A N
;
_chemical_formula_sum "Si O2"
_cell_formula_units_Z 24
_cell_length_a 25.495266
_cell_length_b 5.150666
_cell_length_c 7.840323
_cell_angle_alpha 90.000000
_cell_angle_beta 90.000000
_cell_angle_gamma 90.000000
_cell_volume 1029.572398
_symmetry_space_group_name_H-M "P B A N"
_symmetry_group_IT_number 50
_space_group.IT_coordinate_system_code '2'
_symmetry_cell_setting 'orthorhombic'
loop_
_space_group_symop_operation_xyz
x,y,z
1/2-x,1/2-y,z
x,1/2-y,-z
1/2-x,y,-z
-x,-y,-z
1/2+x,1/2+y,-z
-x,1/2+y,z
1/2+x,-y,z
loop_
_atom_site_type_symbol
_atom_site_label
_atom_site_fract_x
_atom_site_fract_y
_atom_site_fract_z
Si Si1 0.021844 0.438794 0.310815
Si Si2 0.811153 0.204825 0.694570
Si Si3 0.632085 0.691645 0.190590
O O1 0.081452 0.337782 0.312018
O O2 0.000000 0.500000 0.500000
O O3 0.014064 0.717040 0.217584
O O4 0.750000 0.250000 0.722451
O O5 0.827687 0.250000 0.500000
O O6 0.838617 0.416604 0.813778
O O7 0.828722 0.913972 0.742167
O O8 0.612826 0.750000 0.000000
#
# Coordination Sequence:
#
# PCOD8205600 Si02
#       3
#     8   8   8
#     4  10  23  40  65  98 131 185 229 280 336 410
#     4  11  26  46  72 102 137 185 234 280 340 425
#     4  12  26  43  71 106 141 179 229 292 353 409
#
# _framework density 23.310648
#
# number of rings (size 3 to 8) (size 9 to 14) (size 15 to 20)
#    0.000    1.000    0.000    5.000   14.000    8.000 
#    0.000    0.000    0.000    0.000    0.000    0.000 
#    0.000    0.000    0.000    0.000    0.000    0.000 
#
# Total GULP energy -297466.884749 kJ/mol
# GULP energy per Si atom -12394.453531 kJ/mol
# Density = 2.325759 g / cm^3
# Si number density = 23.310648 Si / 1000 Ang^3
#
#
#
# Elastic Constant Matrix: (Units=GPa)
#
#
# Indices 1 2 3 4 5 6 
#
# 1 145.1638 65.6609 41.5475 0.0000 0.0000 0.0000
# 2 65.6609 200.4750 12.2191 0.0000 0.0000 0.0000
# 3 41.5475 12.2191 81.9944 0.0000 0.0000 0.0000
# 4 0.0000 0.0000 0.0000 27.2672 0.0000 0.0000
# 5 0.0000 0.0000 0.0000 0.0000 10.6623 0.0000
# 6 0.0000 0.0000 0.0000 0.0000 0.0000 47.5711
#
#
#
# Elastic Compliance Matrix: (Units=1/GPa)
#
#
# Indices 1 2 3 4 5 6 
#
# 1 0.009407 -0.002816 -0.004347 0.000000 0.000000 0.000000
# 2 -0.002816 0.005877 0.000551 0.000000 0.000000 0.000000
# 3 -0.004347 0.000551 0.014316 0.000000 0.000000 0.000000
# 4 0.000000 0.000000 0.000000 0.036674 0.000000 0.000000
# 5 0.000000 0.000000 0.000000 0.000000 0.093788 0.000000
# 6 0.000000 0.000000 0.000000 0.000000 0.000000 0.021021
#
#
# Mechanical properties :
#
#
# Convention : Reuss Voigt Hill
#
# Bulk Modulus (GPa) = 61.06296 74.05423 67.55860
# Shear Modulus (GPa) = 25.02935 37.64717 31.33826
#
# Velocity S-wave (km/s) = 3.28034 4.02309 3.67055
# Velocity P-wave (km/s) = 6.37179 7.30874 6.85629
#
# Compressibility (1/GPa) = 0.01637654
#
# Stress axis : x y z
#
# Youngs Moduli (GPa) = 106.30833 170.15860 69.84997
#
# Poissons Ratio (x) = 0.47916 0.30362
# Poissons Ratio (y) = 0.29936 -0.03849
# Poissons Ratio (z) = 0.46210 -0.09377
#
# Static dielectric constant tensor:
#      x y z
#    x 4.188390 0.000000 0.000000 
#    y 0.000000 1.312110 0.000000 
#    z 0.000000 0.000000 3.829890 
# 
# 
# High freq. dielectric constant tensor:
#      x y z
#    x 1.924570 0.000000 0.000000 
#    y 0.000000 1.961440 0.000000 
#    z 0.000000 0.000000 1.900220 
# 
# From -- ./inp_files/7637.got.cif
#   From: 2010.03.12/outbox.cif.g09.slc.cpg/sg50_4_cif.got.tgz:7637.got - 2010.04.16 13:23:21.
