data_PCOD8205502
_publ_section_title
;
Structure prediction by ZEFSAII (Michael W. Deem and Ramdas Pophale) SiO2 
 PCOD8205502
Probable space group: P B A N
;
_chemical_formula_sum "Si O2"
_cell_formula_units_Z 36
_cell_length_a 4.907349
_cell_length_b 11.823296
_cell_length_c 26.278229
_cell_angle_alpha 90.000000
_cell_angle_beta 90.000000
_cell_angle_gamma 90.000000
_cell_volume 1524.690171
_symmetry_space_group_name_H-M "P B A N"
_symmetry_group_IT_number 50
_space_group.IT_coordinate_system_code '2'
_symmetry_cell_setting 'orthorhombic'
loop_
_space_group_symop_operation_xyz
x,y,z
1/2-x,1/2-y,z
x,1/2-y,-z
1/2-x,y,-z
-x,-y,-z
1/2+x,1/2+y,-z
-x,1/2+y,z
1/2+x,-y,z
loop_
_atom_site_type_symbol
_atom_site_label
_atom_site_fract_x
_atom_site_fract_y
_atom_site_fract_z
Si Si1 0.250000 0.750000 0.500000
Si Si2 0.035041 0.072894 0.809900
Si Si3 0.750000 0.750000 0.000000
Si Si4 0.250000 0.750000 0.664525
Si Si5 0.559593 0.079286 0.418838
Si Si6 0.396279 0.076727 0.077324
Si Si7 0.250000 0.250000 0.269124
O O1 0.431618 0.832617 0.534612
O O2 0.077454 0.128181 0.865681
O O3 0.112873 0.155400 0.765091
O O4 0.218228 0.959775 0.804707
O O5 0.554580 0.824695 0.963656
O O6 0.376584 0.853165 0.632601
O O7 0.502188 0.699961 0.697155
O O8 0.256992 0.029121 0.421676
O O9 0.594777 0.971501 0.068629
#
# Coordination Sequence:
#
# PCOD8205502 Si02
#       7
#     2   8   2   4   8   8   4
#     4  10  24  42  68 100 120 158 216 252 284 358
#     4  10  22  40  61  85 117 154 196 246 297 350
#     4  12  22  38  64  84 116 158 186 238 304 350
#     4  11  26  39  60  94 126 155 206 247 288 362
#     4  11  24  43  65  91 128 166 198 247 305 349
#     4  10  23  40  58  87 118 149 195 242 291 359
#     4  12  23  40  62  90 118 158 205 248 292 352
#
# _framework density 23.611353000000001
#
# number of rings (size 3 to 8) (size 9 to 14) (size 15 to 20)
#    0.000    1.333    0.000    4.667    0.000   10.667 
#    0.000    6.667    0.000    0.000    0.000    0.000 
#    0.000    0.000    0.000    0.000    0.000    0.000 
#
# Total GULP energy -446481.731245 kJ/mol
# GULP energy per Si atom -12402.270312 kJ/mol
# Density = 2.355761 g / cm^3
# Si number density = 23.611353 Si / 1000 Ang^3
#
#
#
# Elastic Constant Matrix: (Units=GPa)
#
#
# Indices 1 2 3 4 5 6 
#
# 1 72.5304 -3.4220 20.3962 0.0000 0.0000 0.0000
# 2 -3.4220 76.4203 48.3653 0.0000 0.0000 0.0000
# 3 20.3962 48.3653 142.1683 0.0000 0.0000 0.0000
# 4 0.0000 0.0000 0.0000 25.4188 0.0000 0.0000
# 5 0.0000 0.0000 0.0000 0.0000 11.0322 0.0000
# 6 0.0000 0.0000 0.0000 0.0000 0.0000 18.5138
#
#
#
# Elastic Compliance Matrix: (Units=1/GPa)
#
#
# Indices 1 2 3 4 5 6 
#
# 1 0.014746 0.002548 -0.002982 0.000000 0.000000 0.000000
# 2 0.002548 0.017116 -0.006188 0.000000 0.000000 0.000000
# 3 -0.002982 -0.006188 0.009567 0.000000 0.000000 0.000000
# 4 0.000000 0.000000 0.000000 0.039341 0.000000 0.000000
# 5 0.000000 0.000000 0.000000 0.000000 0.090644 0.000000
# 6 0.000000 0.000000 0.000000 0.000000 0.000000 0.054014
#
#
# Mechanical properties :
#
#
# Convention : Reuss Voigt Hill
#
# Bulk Modulus (GPa) = 35.48174 46.86646 41.17410
# Shear Modulus (GPa) = 20.15573 26.04491 23.10032
#
# Velocity S-wave (km/s) = 2.92489 3.32485 3.13126
# Velocity P-wave (km/s) = 5.14458 5.88487 5.52713
#
# Compressibility (1/GPa) = 0.02818351
#
# Stress axis : x y z
#
# Youngs Moduli (GPa) = 67.81424 58.42430 104.52541
#
# Poissons Ratio (x) = -0.14885 0.31173
# Poissons Ratio (y) = -0.17277 0.64684
# Poissons Ratio (z) = 0.20224 0.36155
#
# Static dielectric constant tensor:
#      x y z
#    x 4.186850 0.000000 0.000000 
#    y 0.000000 3.960170 0.000000 
#    z 0.000000 0.000000 4.631410 
# 
# 
# High freq. dielectric constant tensor:
#      x y z
#    x 1.937500 0.000000 0.000000 
#    y 0.000000 1.921050 0.000000 
#    z 0.000000 0.000000 1.957420 
# 
# From -- ./inp_files/31378.got.cif
#   From: 2010.03.12/outbox.cif.g09.slc.cpg/sg50_16_cif.got.tgz:31378.got - 2010.04.16 13:23:21.
