data_PCOD8205312
_publ_section_title
;
Structure prediction by ZEFSAII (Michael W. Deem and Ramdas Pophale) SiO2 
 PCOD8205312
Probable space group: P B A N
;
_chemical_formula_sum "Si O2"
_cell_formula_units_Z 48
_cell_length_a 17.175152
_cell_length_b 27.079466
_cell_length_c 5.045112
_cell_angle_alpha 90.000000
_cell_angle_beta 90.000000
_cell_angle_gamma 90.000000
_cell_volume 2346.451041
_symmetry_space_group_name_H-M "P B A N"
_symmetry_group_IT_number 50
_space_group.IT_coordinate_system_code '2'
_symmetry_cell_setting 'orthorhombic'
loop_
_space_group_symop_operation_xyz
x,y,z
1/2-x,1/2-y,z
x,1/2-y,-z
1/2-x,y,-z
-x,-y,-z
1/2+x,1/2+y,-z
-x,1/2+y,z
1/2+x,-y,z
loop_
_atom_site_type_symbol
_atom_site_label
_atom_site_fract_x
_atom_site_fract_y
_atom_site_fract_z
Si Si1 0.298137 0.415050 0.750952
Si Si2 0.665167 0.307936 0.527779
Si Si3 0.027566 0.947382 0.612942
Si Si4 0.431567 0.807453 0.025445
Si Si5 0.200936 0.968106 0.746901
Si Si6 0.531040 0.894814 0.883024
O O1 0.250000 0.395623 0.500000
O O2 0.309304 0.473431 0.743558
O O3 0.382775 0.390944 0.764630
O O4 0.250000 0.396763 0.000000
O O5 0.676136 0.250000 0.500000
O O6 0.750000 0.333629 0.500000
O O7 0.602986 0.324560 0.307058
O O8 0.634721 0.321612 0.816348
O O9 0.114616 0.945556 0.731893
O O10 0.024287 0.911327 0.359852
O O11 0.000000 0.000000 0.500000
O O12 0.972567 0.931536 0.860939
O O13 0.455316 0.750000 0.000000
O O14 0.508012 0.839940 0.975553
O O15 0.250000 0.948931 0.500000
O O16 0.250000 0.950074 0.000000
#
# Coordination Sequence:
#
# PCOD8205312 Si02
#       6
#     8   8   8   8   8   8
#     4  10  21  36  59  86 114 148 200 244 286 356
#     4   9  17  33  58  84 112 153 202 244 286 342
#     4  12  24  39  61  89 122 158 196 249 293 356
#     4  10  21  38  59  88 119 155 201 249 296 346
#     4  10  21  37  57  81 118 160 195 234 293 347
#     4  12  24  39  62  91 120 158 203 244 302 359
#
# _framework density 20.456424999999999
#
# number of rings (size 3 to 8) (size 9 to 14) (size 15 to 20)
#    0.000    1.500    1.667    4.000    4.667    2.000 
#    0.000    8.333    0.000    0.500    0.000    1.167 
#    0.000    0.000    0.000    0.000    0.000    0.000 
#
# Total GULP energy -595190.563652 kJ/mol
# GULP energy per Si atom -12399.803409 kJ/mol
# Density = 2.040987 g / cm^3
# Si number density = 20.456425 Si / 1000 Ang^3
#
#
#
# Elastic Constant Matrix: (Units=GPa)
#
#
# Indices 1 2 3 4 5 6 
#
# 1 142.1489 47.1190 55.0051 0.0000 0.0000 0.0000
# 2 47.1190 64.4132 36.1097 0.0000 0.0000 0.0000
# 3 55.0051 36.1097 151.4264 0.0000 0.0000 0.0000
# 4 0.0000 0.0000 0.0000 22.0362 0.0000 0.0000
# 5 0.0000 0.0000 0.0000 0.0000 45.6576 0.0000
# 6 0.0000 0.0000 0.0000 0.0000 0.0000 8.9902
#
#
#
# Elastic Compliance Matrix: (Units=1/GPa)
#
#
# Indices 1 2 3 4 5 6 
#
# 1 0.009857 -0.006006 -0.002148 0.000000 0.000000 0.000000
# 2 -0.006006 0.021580 -0.002964 0.000000 0.000000 0.000000
# 3 -0.002148 -0.002964 0.008091 0.000000 0.000000 0.000000
# 4 0.000000 0.000000 0.000000 0.045380 0.000000 0.000000
# 5 0.000000 0.000000 0.000000 0.000000 0.021902 0.000000
# 6 0.000000 0.000000 0.000000 0.000000 0.000000 0.111232
#
#
# Mechanical properties :
#
#
# Convention : Reuss Voigt Hill
#
# Bulk Modulus (GPa) = 57.83475 70.49513 64.16494
# Shear Modulus (GPa) = 20.32158 29.98712 25.15435
#
# Velocity S-wave (km/s) = 3.15526 3.83286 3.51045
# Velocity P-wave (km/s) = 6.45041 7.35688 6.91851
#
# Compressibility (1/GPa) = 0.01729064
#
# Stress axis : x y z
#
# Youngs Moduli (GPa) = 101.44968 46.33877 123.59244
#
# Poissons Ratio (x) = 0.27832 0.26551
# Poissons Ratio (y) = 0.60933 0.36637
# Poissons Ratio (z) = 0.21794 0.13736
#
# Static dielectric constant tensor:
#      x y z
#    x 3.678790 0.000000 0.000000 
#    y 0.000000 3.420660 0.000000 
#    z 0.000000 0.000000 4.404350 
# 
# 
# High freq. dielectric constant tensor:
#      x y z
#    x 1.795350 0.000000 0.000000 
#    y 0.000000 1.766090 0.000000 
#    z 0.000000 0.000000 1.824540 
# 
# From -- ./inp_files/3547.got.cif
#   From: 2010.03.12/outbox.cif.g09.slc.cpg/sg50_2_cif.got.tgz:3547.got - 2010.04.16 13:23:21.
