data_PCOD8205485
_publ_section_title
;
Structure prediction by ZEFSAII (Michael W. Deem and Ramdas Pophale) SiO2 
 PCOD8205485
Probable space group: P B A N
;
_chemical_formula_sum "Si O2"
_cell_formula_units_Z 48
_cell_length_a 8.949594
_cell_length_b 29.557206
_cell_length_c 8.712335
_cell_angle_alpha 90.000000
_cell_angle_beta 90.000000
_cell_angle_gamma 90.000000
_cell_volume 2304.630359
_symmetry_space_group_name_H-M "P B A N"
_symmetry_group_IT_number 50
_space_group.IT_coordinate_system_code '2'
_symmetry_cell_setting 'orthorhombic'
loop_
_space_group_symop_operation_xyz
x,y,z
1/2-x,1/2-y,z
x,1/2-y,-z
1/2-x,y,-z
-x,-y,-z
1/2+x,1/2+y,-z
-x,1/2+y,z
1/2+x,-y,z
loop_
_atom_site_type_symbol
_atom_site_label
_atom_site_fract_x
_atom_site_fract_y
_atom_site_fract_z
Si Si1 0.955712 0.055365 0.183792
Si Si2 0.572416 0.246393 0.671702
Si Si3 0.563319 0.333920 0.841537
Si Si4 0.392916 0.844257 0.195795
Si Si5 0.242376 0.010982 0.317339
Si Si6 0.391920 0.079853 0.109420
O O1 0.074926 0.024161 0.271686
O O2 0.968292 0.107743 0.237271
O O3 0.981310 0.055680 0.998359
O O4 0.793048 0.035436 0.230428
O O5 0.750000 0.250000 0.689360
O O6 0.514464 0.250000 0.500000
O O7 0.500170 0.286367 0.775026
O O8 0.520402 0.196095 0.718852
O O9 0.718342 0.346794 0.756201
O O10 0.443241 0.373360 0.814055
O O11 0.593706 0.330191 0.020214
O O12 0.250000 0.005584 0.500000
O O13 0.355818 0.049032 0.255356
O O14 0.250000 0.088247 0.000000
#
# Coordination Sequence:
#
# PCOD8205485 Si02
#       6
#     8   8   8   8   8   8
#     4  10  22  39  58  82 113 152 190 240 277 343
#     4   9  17  30  49  82 117 144 173 221 280 334
#     4   9  17  32  57  82 108 144 186 227 274 338
#     4   9  18  33  54  82 111 143 187 229 279 326
#     4  11  23  39  56  82 115 151 192 236 291 339
#     4   9  20  38  59  82 110 145 192 237 284 335
#
# _framework density 20.827634
#
# number of rings (size 3 to 8) (size 9 to 14) (size 15 to 20)
#    0.000    2.500    0.000    1.500    2.333    3.333 
#   12.000    0.000    0.000   17.000    0.000   11.667 
#    0.000    0.000    0.000    0.000    0.000    0.000 
#
# Total GULP energy -594894.973982 kJ/mol
# GULP energy per Si atom -12393.645291 kJ/mol
# Density = 2.078023 g / cm^3
# Si number density = 20.827634 Si / 1000 Ang^3
#
#
#
# Elastic Constant Matrix: (Units=GPa)
#
#
# Indices 1 2 3 4 5 6 
#
# 1 38.7796 47.7735 32.5234 0.0000 0.0000 0.0000
# 2 47.7735 163.4378 55.9968 0.0000 0.0000 0.0000
# 3 32.5234 55.9968 74.8370 0.0000 0.0000 0.0000
# 4 0.0000 0.0000 0.0000 21.1669 0.0000 0.0000
# 5 0.0000 0.0000 0.0000 0.0000 20.9846 0.0000
# 6 0.0000 0.0000 0.0000 0.0000 0.0000 30.7940
#
#
#
# Elastic Compliance Matrix: (Units=1/GPa)
#
#
# Indices 1 2 3 4 5 6 
#
# 1 0.049688 -0.009582 -0.014424 0.000000 0.000000 0.000000
# 2 -0.009582 0.010076 -0.003375 0.000000 0.000000 0.000000
# 3 -0.014424 -0.003375 0.022156 0.000000 0.000000 0.000000
# 4 0.000000 0.000000 0.000000 0.047244 0.000000 0.000000
# 5 0.000000 0.000000 0.000000 0.000000 0.047654 0.000000
# 6 0.000000 0.000000 0.000000 0.000000 0.000000 0.032474
#
#
# Mechanical properties :
#
#
# Convention : Reuss Voigt Hill
#
# Bulk Modulus (GPa) = 36.82172 61.07133 48.94652
# Shear Modulus (GPa) = 18.30786 23.97317 21.14051
#
# Velocity S-wave (km/s) = 2.96804 3.39636 3.18940
# Velocity P-wave (km/s) = 5.42801 6.69076 6.09219
#
# Compressibility (1/GPa) = 0.02715789
#
# Stress axis : x y z
#
# Youngs Moduli (GPa) = 20.12542 99.24860 45.13390
#
# Poissons Ratio (x) = 0.95101 0.65103
# Poissons Ratio (y) = 0.19284 0.15232
# Poissons Ratio (z) = 0.29030 0.33495
#
# Static dielectric constant tensor:
#      x y z
#    x 3.623510 0.000000 0.000000 
#    y 0.000000 3.987310 0.000000 
#    z 0.000000 0.000000 3.573160 
# 
# 
# High freq. dielectric constant tensor:
#      x y z
#    x 1.783150 0.000000 0.000000 
#    y 0.000000 1.830320 0.000000 
#    z 0.000000 0.000000 1.797550 
# 
# From -- ./inp_files/10059.got.cif
#   From: 2010.03.12/outbox.cif.g09.slc.cpg/sg50_6_cif.got.tgz:10059.got - 2010.04.16 13:23:21.
