data_PCOD8205499
_publ_section_title
;
Structure prediction by ZEFSAII (Michael W. Deem and Ramdas Pophale) SiO2 
 PCOD8205499
Probable space group: P B A N
;
_chemical_formula_sum "Si O2"
_cell_formula_units_Z 54
_cell_length_a 14.044461
_cell_length_b 11.969152
_cell_length_c 14.645026
_cell_angle_alpha 90.000000
_cell_angle_beta 90.000000
_cell_angle_gamma 90.000000
_cell_volume 2461.833095
_symmetry_space_group_name_H-M "P B A N"
_symmetry_group_IT_number 50
_space_group.IT_coordinate_system_code '2'
_symmetry_cell_setting 'orthorhombic'
loop_
_space_group_symop_operation_xyz
x,y,z
1/2-x,1/2-y,z
x,1/2-y,-z
1/2-x,y,-z
-x,-y,-z
1/2+x,1/2+y,-z
-x,1/2+y,z
1/2+x,-y,z
loop_
_atom_site_type_symbol
_atom_site_label
_atom_site_fract_x
_atom_site_fract_y
_atom_site_fract_z
Si Si1 0.882101 0.456779 0.079709
Si Si2 0.750000 0.250000 0.500000
Si Si3 0.337295 0.993347 0.114065
Si Si4 0.076843 0.077457 0.256915
Si Si5 0.380660 0.838511 0.261317
Si Si6 0.853790 0.735774 0.854576
Si Si7 0.683198 0.382321 0.662596
Si Si8 0.007852 0.750000 0.000000
O O1 0.773421 0.458281 0.114374
O O2 0.943687 0.508464 0.162212
O O3 0.882209 0.526468 0.984438
O O4 0.922128 0.338299 0.047812
O O5 0.680483 0.327416 0.561753
O O6 0.362042 0.104714 0.172321
O O7 0.385566 0.882218 0.156579
O O8 0.141341 0.186821 0.236048
O O9 0.980089 0.120777 0.304835
O O10 0.129287 0.999651 0.331706
O O11 0.367007 0.704509 0.265995
O O12 0.293803 0.900395 0.312222
O O13 0.750000 0.750000 0.901547
O O14 0.936273 0.787858 0.918822
#
# Coordination Sequence:
#
# PCOD8205499 Si02
#       8
#     8   2   8   8   8   8   8   4
#     4  11  25  39  55  89 123 181 236 289 319 381
#     4   8  20  48  84  96 136 174 192 268 360 418
#     4  11  23  41  57  82 132 178 227 272 338 361
#     4  12  24  40  64  98 127 175 223 275 327 396
#     4  10  22  39  67  94 132 170 216 280 318 388
#     4  12  24  40  56  82 125 178 223 278 331 395
#     4  10  23  46  70 105 130 162 215 265 338 414
#     4  12  27  37  60  82 120 176 250 289 331 366
#
# _framework density 21.934875999999999
#
# number of rings (size 3 to 8) (size 9 to 14) (size 15 to 20)
#    0.000    1.185    2.963    2.889    8.296    2.963 
#    0.000    2.963    0.000    0.000    0.000    4.148 
#    0.000    0.000    0.000    0.000    0.000    0.000 
#
# Total GULP energy -669004.211307 kJ/mol
# GULP energy per Si atom -12388.966876 kJ/mol
# Density = 2.188495 g / cm^3
# Si number density = 21.934876 Si / 1000 Ang^3
#
#
#
# Elastic Constant Matrix: (Units=GPa)
#
#
# Indices 1 2 3 4 5 6 
#
# 1 125.3815 66.6796 30.6650 0.0000 0.0000 0.0000
# 2 66.6796 144.2421 40.4930 0.0000 0.0000 0.0000
# 3 30.6650 40.4930 67.6161 0.0000 0.0000 0.0000
# 4 0.0000 0.0000 0.0000 34.1418 0.0000 0.0000
# 5 0.0000 0.0000 0.0000 0.0000 12.3767 0.0000
# 6 0.0000 0.0000 0.0000 0.0000 0.0000 38.8916
#
#
#
# Elastic Compliance Matrix: (Units=1/GPa)
#
#
# Indices 1 2 3 4 5 6 
#
# 1 0.010867 -0.004376 -0.002308 0.000000 0.000000 0.000000
# 2 -0.004376 0.010096 -0.004062 0.000000 0.000000 0.000000
# 3 -0.002308 -0.004062 0.018268 0.000000 0.000000 0.000000
# 4 0.000000 0.000000 0.000000 0.029290 0.000000 0.000000
# 5 0.000000 0.000000 0.000000 0.000000 0.080797 0.000000
# 6 0.000000 0.000000 0.000000 0.000000 0.000000 0.025713
#
#
# Mechanical properties :
#
#
# Convention : Reuss Voigt Hill
#
# Bulk Modulus (GPa) = 56.36701 68.10165 62.23433
# Shear Modulus (GPa) = 24.69931 30.37548 27.53739
#
# Velocity S-wave (km/s) = 3.35928 3.72533 3.54703
# Velocity P-wave (km/s) = 6.38745 7.04406 6.72377
#
# Compressibility (1/GPa) = 0.01774087
#
# Stress axis : x y z
#
# Youngs Moduli (GPa) = 92.02002 99.05128 54.73925
#
# Poissons Ratio (x) = 0.43342 0.12634
# Poissons Ratio (y) = 0.40265 0.22233
# Poissons Ratio (z) = 0.21238 0.40230
#
# Static dielectric constant tensor:
#      x y z
#    x 4.175050 0.000000 0.000000 
#    y 0.000000 4.031050 0.000000 
#    z 0.000000 0.000000 3.576500 
# 
# 
# High freq. dielectric constant tensor:
#      x y z
#    x 1.880540 0.000000 0.000000 
#    y 0.000000 1.873440 0.000000 
#    z 0.000000 0.000000 1.792210 
# 
# From -- ./inp_files/26540.got.cif
#   From: 2010.03.12/outbox.cif.g09.slc.cpg/sg50_14_cif.got.tgz:26540.got - 2010.04.16 13:23:21.
