data_PCOD8205076
_publ_section_title
;
Structure prediction by ZEFSAII (Michael W. Deem and Ramdas Pophale) SiO2 
 PCOD8205076
Probable space group: P B A N
;
_chemical_formula_sum "Si O2"
_cell_formula_units_Z 64
_cell_length_a 27.174773
_cell_length_b 9.056138
_cell_length_c 14.660870
_cell_angle_alpha 90.000000
_cell_angle_beta 90.000000
_cell_angle_gamma 90.000000
_cell_volume 3608.018034
_symmetry_space_group_name_H-M "P B A N"
_symmetry_group_IT_number 50
_space_group.IT_coordinate_system_code '2'
_symmetry_cell_setting 'orthorhombic'
loop_
_space_group_symop_operation_xyz
x,y,z
1/2-x,1/2-y,z
x,1/2-y,-z
1/2-x,y,-z
-x,-y,-z
1/2+x,1/2+y,-z
-x,1/2+y,z
1/2+x,-y,z
loop_
_atom_site_type_symbol
_atom_site_label
_atom_site_fract_x
_atom_site_fract_y
_atom_site_fract_z
Si Si1 0.455218 0.167522 0.414450
Si Si2 0.405229 0.123855 0.937720
Si Si3 0.441860 0.823837 0.415694
Si Si4 0.031807 0.833347 0.092010
Si Si5 0.304453 0.508055 0.011594
Si Si6 0.803130 0.244820 0.148425
Si Si7 0.567421 0.829659 0.791037
Si Si8 0.601156 0.347359 0.220818
O O1 0.427867 0.250000 0.500000
O O2 0.510563 0.221725 0.410733
O O3 0.432876 0.208378 0.316183
O O4 0.454366 0.993761 0.433813
O O5 0.402500 0.194041 0.836125
O O6 0.443240 0.988106 0.936815
O O7 0.351574 0.099283 0.984444
O O8 0.430628 0.250000 0.000000
O O9 0.410830 0.750000 0.500000
O O10 0.415530 0.804780 0.320623
O O11 0.073440 0.740103 0.142121
O O12 0.986473 0.851753 0.162694
O O13 0.015700 0.750000 0.000000
O O14 0.310697 0.593440 0.106742
O O15 0.250000 0.429897 0.000000
O O16 0.307722 0.622964 0.929973
O O17 0.750000 0.250000 0.196339
O O18 0.842677 0.205581 0.224277
O O19 0.597125 0.980857 0.803920
#
# Coordination Sequence:
#
# PCOD8205076 Si02
#       8
#     8   8   8   8   8   8   8   8
#     4  10  20  35  54  76 108 144 181 222 266 314
#     4  12  24  35  51  75 110 143 188 225 265 316
#     4  10  20  34  55  78 108 140 181 225 270 320
#     4  12  23  36  53  71 111 152 191 216 261 315
#     4   9  18  34  55  76 102 140 180 228 274 312
#     4   9  17  33  56  78 100 138 185 226 270 314
#     4  11  24  36  51  80 112 151 179 221 263 322
#     4  11  21  36  55  78 106 144 187 221 269 325
#
# _framework density 17.73827
#
# number of rings (size 3 to 8) (size 9 to 14) (size 15 to 20)
#    0.000    1.500    2.500    5.625    1.750    2.750 
#    0.000    0.000    0.000    0.375    0.000    0.000 
#    0.000    0.000    0.000    0.000    0.000    0.000 
#
# Total GULP energy -792900.543087 kJ/mol
# GULP energy per Si atom -12389.070986 kJ/mol
# Density = 1.769790 g / cm^3
# Si number density = 17.738270 Si / 1000 Ang^3
#
#
#
# Elastic Constant Matrix: (Units=GPa)
#
#
# Indices 1 2 3 4 5 6 
#
# 1 92.2791 34.6384 34.1889 0.0000 0.0000 0.0000
# 2 34.6384 87.6147 60.1081 0.0000 0.0000 0.0000
# 3 34.1889 60.1081 102.3583 0.0000 0.0000 0.0000
# 4 0.0000 0.0000 0.0000 27.5762 0.0000 0.0000
# 5 0.0000 0.0000 0.0000 0.0000 5.5479 0.0000
# 6 0.0000 0.0000 0.0000 0.0000 0.0000 11.5846
#
#
#
# Elastic Compliance Matrix: (Units=1/GPa)
#
#
# Indices 1 2 3 4 5 6 
#
# 1 0.013020 -0.003624 -0.002221 0.000000 0.000000 0.000000
# 2 -0.003624 0.020123 -0.010606 0.000000 0.000000 0.000000
# 3 -0.002221 -0.010606 0.016740 0.000000 0.000000 0.000000
# 4 0.000000 0.000000 0.000000 0.036263 0.000000 0.000000
# 5 0.000000 0.000000 0.000000 0.000000 0.180247 0.000000
# 6 0.000000 0.000000 0.000000 0.000000 0.000000 0.086321
#
#
# Mechanical properties :
#
#
# Convention : Reuss Voigt Hill
#
# Bulk Modulus (GPa) = 58.89121 60.01368 59.45244
# Shear Modulus (GPa) = 12.77872 19.16286 15.97079
#
# Velocity S-wave (km/s) = 2.68695 3.29038 3.00385
# Velocity P-wave (km/s) = 6.54969 6.95282 6.75426
#
# Compressibility (1/GPa) = 0.01698046
#
# Stress axis : x y z
#
# Youngs Moduli (GPa) = 76.80665 49.69496 59.73809
#
# Poissons Ratio (x) = 0.18008 0.13266
# Poissons Ratio (y) = 0.27833 0.63360
# Poissons Ratio (z) = 0.17057 0.52708
#
# Static dielectric constant tensor:
#      x y z
#    x 3.277680 0.000000 0.000000 
#    y 0.000000 3.472300 0.000000 
#    z 0.000000 0.000000 1.939180 
# 
# 
# High freq. dielectric constant tensor:
#      x y z
#    x 1.661580 0.000000 0.000000 
#    y 0.000000 1.697480 0.000000 
#    z 0.000000 0.000000 1.681440 
# 
# From -- ./inp_files/27795.got.cif
#   From: 2010.03.12/outbox.cif.g09.slc.cpg/sg50_14_cif.got.tgz:27795.got - 2010.04.16 13:23:21.
