data_PCOD8205715
_publ_section_title
;
Structure prediction by ZEFSAII (Michael W. Deem and Ramdas Pophale) SiO2 
 PCOD8205715
Probable space group: P B A N
;
_chemical_formula_sum "Si O2"
_cell_formula_units_Z 32
_cell_length_a 8.756830
_cell_length_b 10.844930
_cell_length_c 13.985330
_cell_angle_alpha 90.000000
_cell_angle_beta 90.000000
_cell_angle_gamma 90.000000
_cell_volume 1328.147748
_symmetry_space_group_name_H-M "P B A N"
_symmetry_group_IT_number 50
_space_group.IT_coordinate_system_code '2'
_symmetry_cell_setting 'orthorhombic'
loop_
_space_group_symop_operation_xyz
x,y,z
1/2-x,1/2-y,z
x,1/2-y,-z
1/2-x,y,-z
-x,-y,-z
1/2+x,1/2+y,-z
-x,1/2+y,z
1/2+x,-y,z
loop_
_atom_site_type_symbol
_atom_site_label
_atom_site_fract_x
_atom_site_fract_y
_atom_site_fract_z
Si Si1 0.036137 0.161392 0.913747
Si Si2 0.078338 0.124217 0.462620
Si Si3 0.753847 0.045712 0.140881
Si Si4 0.036523 0.355729 0.760969
O O1 0.081295 0.226336 0.812397
O O2 0.854215 0.135465 0.922007
O O3 0.136022 0.037364 0.926032
O O4 0.082273 0.250000 0.000000
O O5 0.997900 0.250000 0.500000
O O6 0.250000 0.118457 0.500000
O O7 0.068710 0.143930 0.350133
O O8 0.000000 0.000000 0.500000
O O9 0.858156 0.122331 0.214733
O O10 0.634347 0.967692 0.200584
#
# Coordination Sequence:
#
# PCOD8205715 Si02
#       4
#     8   8   8   8
#     4  11  26  46  72 108 145 196 248 303 376 452
#     4  11  27  47  75 110 150 197 255 320 385 459
#     4  10  25  44  73 100 148 185 244 303 367 443
#     4  11  24  44  73 102 144 191 243 307 375 446
#
# _framework density 24.093706000000001
#
# number of rings (size 3 to 8) (size 9 to 14) (size 15 to 20)
#    0.000    1.250    0.000    3.000   14.000   10.500 
#    4.500    3.750    0.000    0.000    0.000    0.000 
#    0.000    0.000    0.000    0.000    0.000    0.000 
#
# Total GULP energy -396720.018693 kJ/mol
# GULP energy per Si atom -12397.500584 kJ/mol
# Density = 2.403887 g / cm^3
# Si number density = 24.093706 Si / 1000 Ang^3
#
#
#
# Elastic Constant Matrix: (Units=GPa)
#
#
# Indices 1 2 3 4 5 6 
#
# 1 93.7739 14.7612 40.4381 0.0000 0.0000 0.0000
# 2 14.7612 108.8149 40.4481 0.0000 0.0000 0.0000
# 3 40.4381 40.4481 153.5526 0.0000 0.0000 0.0000
# 4 0.0000 0.0000 0.0000 36.3076 0.0000 0.0000
# 5 0.0000 0.0000 0.0000 0.0000 24.7979 0.0000
# 6 0.0000 0.0000 0.0000 0.0000 0.0000 53.9833
#
#
#
# Elastic Compliance Matrix: (Units=1/GPa)
#
#
# Indices 1 2 3 4 5 6 
#
# 1 0.012055 -0.000505 -0.003042 0.000000 0.000000 0.000000
# 2 -0.000505 0.010209 -0.002556 0.000000 0.000000 0.000000
# 3 -0.003042 -0.002556 0.007987 0.000000 0.000000 0.000000
# 4 0.000000 0.000000 0.000000 0.027542 0.000000 0.000000
# 5 0.000000 0.000000 0.000000 0.000000 0.040326 0.000000
# 6 0.000000 0.000000 0.000000 0.000000 0.000000 0.018524
#
#
# Mechanical properties :
#
#
# Convention : Reuss Voigt Hill
#
# Bulk Modulus (GPa) = 55.41634 60.82625 58.12129
# Shear Modulus (GPa) = 37.07454 40.38403 38.72928
#
# Velocity S-wave (km/s) = 3.92696 4.09849 4.01364
# Velocity P-wave (km/s) = 6.60391 6.90633 6.75681
#
# Compressibility (1/GPa) = 0.01804522
#
# Stress axis : x y z
#
# Youngs Moduli (GPa) = 82.95255 97.95712 125.20630
#
# Poissons Ratio (x) = 0.04943 0.38085
# Poissons Ratio (y) = 0.04186 0.32005
# Poissons Ratio (z) = 0.25232 0.25040
#
# Static dielectric constant tensor:
#      x y z
#    x 4.658450 0.000000 0.000000 
#    y 0.000000 4.975200 0.000000 
#    z 0.000000 0.000000 4.226450 
# 
# 
# High freq. dielectric constant tensor:
#      x y z
#    x 1.973250 0.000000 0.000000 
#    y 0.000000 1.978170 0.000000 
#    z 0.000000 0.000000 1.946160 
# 
# From -- ./inp_files/24339.got.cif
#   From: 2010.03.12/outbox.cif.g09.slc.cpg/sg50_13_cif.got.tgz:24339.got - 2010.04.16 13:23:21.
