data_PCOD8205094
_publ_section_title
;
Structure prediction by ZEFSAII (Michael W. Deem and Ramdas Pophale) SiO2 
 PCOD8205094
Probable space group: P B A N
;
_chemical_formula_sum "Si O2"
_cell_formula_units_Z 58
_cell_length_a 13.556596
_cell_length_b 25.178364
_cell_length_c 8.742867
_cell_angle_alpha 90.000000
_cell_angle_beta 90.000000
_cell_angle_gamma 90.000000
_cell_volume 2984.228223
_symmetry_space_group_name_H-M "P B A N"
_symmetry_group_IT_number 50
_space_group.IT_coordinate_system_code '2'
_symmetry_cell_setting 'orthorhombic'
loop_
_space_group_symop_operation_xyz
x,y,z
1/2-x,1/2-y,z
x,1/2-y,-z
1/2-x,y,-z
-x,-y,-z
1/2+x,1/2+y,-z
-x,1/2+y,z
1/2+x,-y,z
loop_
_atom_site_type_symbol
_atom_site_label
_atom_site_fract_x
_atom_site_fract_y
_atom_site_fract_z
Si Si1 0.631197 0.167883 0.300877
Si Si2 0.798438 0.085769 0.274151
Si Si3 0.477875 0.598284 0.502203
Si Si4 0.750000 0.250000 0.500000
Si Si5 0.004973 0.032882 0.780315
Si Si6 0.225730 0.025231 0.836643
Si Si7 0.074354 0.881834 0.007519
Si Si8 0.919163 0.916630 0.790339
O O1 0.707771 0.120580 0.326740
O O2 0.533889 0.151132 0.397648
O O3 0.679290 0.219573 0.379086
O O4 0.599719 0.169651 0.118547
O O5 0.881089 0.089221 0.400002
O O6 0.762792 0.024494 0.276660
O O7 0.837630 0.108438 0.111811
O O8 0.497007 0.546600 0.398347
O O9 0.568238 0.607027 0.619793
O O10 0.115109 0.047910 0.835814
O O11 0.928404 0.067601 0.878589
O O12 0.983030 0.971036 0.806865
O O13 0.302664 0.073416 0.806710
O O14 0.250000 0.000809 0.000000
O O15 0.968885 0.876845 0.916559
#
# Coordination Sequence:
#
# PCOD8205094 Si02
#       8
#     8   8   8   2   8   8   8   8
#     4  11  22  39  58  77 108 140 174 227 296 352
#     4  11  20  34  55  76 108 157 196 226 280 324
#     4  10  21  36  49  71 110 156 181 230 291 329
#     4  12  24  40  62  92 100 130 186 232 288 380
#     4  11  20  33  48  75 113 154 204 241 265 304
#     4  12  21  30  51  79 111 157 210 238 254 302
#     4  10  20  35  53  71 110 155 186 221 282 332
#     4  11  21  32  50  74 109 153 207 235 256 319
#
# _framework density 19.435510000000001
#
# number of rings (size 3 to 8) (size 9 to 14) (size 15 to 20)
#    0.000    1.103    5.517    4.552    0.000    0.552 
#    0.000    1.379    0.000    0.000    0.000    0.000 
#    0.000    8.828   12.138    0.000    0.000    0.000 
#
# Total GULP energy -718621.737393 kJ/mol
# GULP energy per Si atom -12390.029955 kJ/mol
# Density = 1.939127 g / cm^3
# Si number density = 19.435510 Si / 1000 Ang^3
#
#
#
# Elastic Constant Matrix: (Units=GPa)
#
#
# Indices 1 2 3 4 5 6 
#
# 1 75.9371 12.2000 18.9329 0.0000 0.0000 0.0000
# 2 12.2000 46.4526 22.3488 0.0000 0.0000 0.0000
# 3 18.9329 22.3488 118.4362 0.0000 0.0000 0.0000
# 4 0.0000 0.0000 0.0000 19.0787 0.0000 0.0000
# 5 0.0000 0.0000 0.0000 0.0000 27.5023 0.0000
# 6 0.0000 0.0000 0.0000 0.0000 0.0000 13.3469
#
#
#
# Elastic Compliance Matrix: (Units=1/GPa)
#
#
# Indices 1 2 3 4 5 6 
#
# 1 0.014055 -0.002871 -0.001705 0.000000 0.000000 0.000000
# 2 -0.002871 0.024263 -0.004120 0.000000 0.000000 0.000000
# 3 -0.001705 -0.004120 0.009493 0.000000 0.000000 0.000000
# 4 0.000000 0.000000 0.000000 0.052414 0.000000 0.000000
# 5 0.000000 0.000000 0.000000 0.000000 0.036361 0.000000
# 6 0.000000 0.000000 0.000000 0.000000 0.000000 0.074924
#
#
# Mechanical properties :
#
#
# Convention : Reuss Voigt Hill
#
# Bulk Modulus (GPa) = 32.87253 38.64326 35.75790
# Shear Modulus (GPa) = 20.91681 24.47518 22.69600
#
# Velocity S-wave (km/s) = 3.28413 3.55251 3.42096
# Velocity P-wave (km/s) = 5.59742 6.06244 5.83456
#
# Compressibility (1/GPa) = 0.03042053
#
# Stress axis : x y z
#
# Youngs Moduli (GPa) = 71.14821 41.21455 105.33769
#
# Poissons Ratio (x) = 0.11833 0.17961
# Poissons Ratio (y) = 0.20427 0.43394
# Poissons Ratio (z) = 0.12131 0.16978
#
# Static dielectric constant tensor:
#      x y z
#    x 3.923260 0.000000 0.000000 
#    y 0.000000 3.022690 0.000000 
#    z 0.000000 0.000000 4.259510 
# 
# 
# High freq. dielectric constant tensor:
#      x y z
#    x 1.754710 0.000000 0.000000 
#    y 0.000000 1.672560 0.000000 
#    z 0.000000 0.000000 1.790830 
# 
# From -- ./inp_files/13530.got.cif
#   From: 2010.03.12/outbox.cif.g09.slc.cpg/sg50_7_cif.got.tgz:13530.got - 2010.04.16 13:23:21.
