data_PCOD8205177
_publ_section_title
;
Structure prediction by ZEFSAII (Michael W. Deem and Ramdas Pophale) SiO2 
 PCOD8205177
Probable space group: P B A N
;
_chemical_formula_sum "Si O2"
_cell_formula_units_Z 56
_cell_length_a 21.269781
_cell_length_b 8.018595
_cell_length_c 17.175797
_cell_angle_alpha 90.000000
_cell_angle_beta 90.000000
_cell_angle_gamma 90.000000
_cell_volume 2929.396752
_symmetry_space_group_name_H-M "P B A N"
_symmetry_group_IT_number 50
_space_group.IT_coordinate_system_code '2'
_symmetry_cell_setting 'orthorhombic'
loop_
_space_group_symop_operation_xyz
x,y,z
1/2-x,1/2-y,z
x,1/2-y,-z
1/2-x,y,-z
-x,-y,-z
1/2+x,1/2+y,-z
-x,1/2+y,z
1/2+x,-y,z
loop_
_atom_site_type_symbol
_atom_site_label
_atom_site_fract_x
_atom_site_fract_y
_atom_site_fract_z
Si Si1 0.678813 0.236922 0.831054
Si Si2 0.821430 0.448497 0.585038
Si Si3 0.130710 0.073849 0.736498
Si Si4 0.626568 0.557796 0.745463
Si Si5 0.000698 0.045594 0.812206
Si Si6 0.324363 0.939841 0.589459
Si Si7 0.441014 0.807765 0.084854
O O1 0.750000 0.250000 0.860814
O O2 0.664771 0.411701 0.788256
O O3 0.634493 0.209107 0.906795
O O4 0.670246 0.076017 0.775548
O O5 0.861447 0.561252 0.643723
O O6 0.840070 0.503419 0.497612
O O7 0.748523 0.479317 0.604727
O O8 0.837725 0.255591 0.596866
O O9 0.153975 0.257145 0.765687
O O10 0.056443 0.058943 0.750716
O O11 0.553982 0.563808 0.772370
O O12 0.632012 0.532432 0.652415
O O13 0.029740 0.987738 0.896714
O O14 0.969151 0.217312 0.838334
O O15 0.462577 0.750000 0.000000
#
# Coordination Sequence:
#
# PCOD8205177 Si02
#       7
#     8   8   8   8   8   8   8
#     4  10  22  37  55  86 120 148 185 232 285 336
#     4   9  18  33  53  79 112 149 190 236 281 325
#     4  11  21  35  58  83 114 152 193 235 281 332
#     4  11  21  35  58  83 114 152 193 235 281 332
#     4  10  21  38  55  86 114 140 190 242 277 330
#     4   9  18  33  53  79 112 149 190 236 281 325
#     4  10  20  37  62  83 108 147 185 232 283 336
#
# _framework density 19.116564
#
# number of rings (size 3 to 8) (size 9 to 14) (size 15 to 20)
#    0.000    2.000    2.857    2.143    0.000    3.143 
#    0.000    2.143    0.000    0.000    0.000    4.000 
#    0.000    0.000    0.000    0.000    0.000    0.000 
#
# Total GULP energy -693893.085551 kJ/mol
# GULP energy per Si atom -12390.947956 kJ/mol
# Density = 1.907305 g / cm^3
# Si number density = 19.116564 Si / 1000 Ang^3
#
#
#
# Elastic Constant Matrix: (Units=GPa)
#
#
# Indices 1 2 3 4 5 6 
#
# 1 97.9786 20.8099 33.4057 0.0000 0.0000 0.0000
# 2 20.8099 93.1386 19.2855 0.0000 0.0000 0.0000
# 3 33.4057 19.2855 90.3854 0.0000 0.0000 0.0000
# 4 0.0000 0.0000 0.0000 20.5761 0.0000 0.0000
# 5 0.0000 0.0000 0.0000 0.0000 23.4824 0.0000
# 6 0.0000 0.0000 0.0000 0.0000 0.0000 19.2313
#
#
#
# Elastic Compliance Matrix: (Units=1/GPa)
#
#
# Indices 1 2 3 4 5 6 
#
# 1 0.011972 -0.001840 -0.004032 0.000000 0.000000 0.000000
# 2 -0.001840 0.011516 -0.001777 0.000000 0.000000 0.000000
# 3 -0.004032 -0.001777 0.012933 0.000000 0.000000 0.000000
# 4 0.000000 0.000000 0.000000 0.048600 0.000000 0.000000
# 5 0.000000 0.000000 0.000000 0.000000 0.042585 0.000000
# 6 0.000000 0.000000 0.000000 0.000000 0.000000 0.051999
#
#
# Mechanical properties :
#
#
# Convention : Reuss Voigt Hill
#
# Bulk Modulus (GPa) = 47.34298 47.61164 47.47731
# Shear Modulus (GPa) = 24.75938 26.52472 25.64205
#
# Velocity S-wave (km/s) = 3.60276 3.72899 3.66642
# Velocity P-wave (km/s) = 6.49043 6.59549 6.54317
#
# Compressibility (1/GPa) = 0.02112245
#
# Stress axis : x y z
#
# Youngs Moduli (GPa) = 83.52931 86.83757 77.32076
#
# Poissons Ratio (x) = 0.15978 0.31176
# Poissons Ratio (y) = 0.15369 0.13741
# Poissons Ratio (z) = 0.33680 0.15432
#
# Static dielectric constant tensor:
#      x y z
#    x 3.444350 0.000000 0.000000 
#    y 0.000000 3.568100 0.000000 
#    z 0.000000 0.000000 3.329160 
# 
# 
# High freq. dielectric constant tensor:
#      x y z
#    x 1.728240 0.000000 0.000000 
#    y 0.000000 1.750330 0.000000 
#    z 0.000000 0.000000 1.730780 
# 
# From -- ./inp_files/29841.got.cif
#   From: 2010.03.12/outbox.cif.g09.slc.cpg/sg50_15_cif.got.tgz:29841.got - 2010.04.16 13:23:21.
