data_PCOD8205209
_publ_section_title
;
Structure prediction by ZEFSAII (Michael W. Deem and Ramdas Pophale) SiO2 
 PCOD8205209
Probable space group: P B A N
;
_chemical_formula_sum "Si O2"
_cell_formula_units_Z 52
_cell_length_a 13.034287
_cell_length_b 16.857493
_cell_length_c 12.346793
_cell_angle_alpha 90.000000
_cell_angle_beta 90.000000
_cell_angle_gamma 90.000000
_cell_volume 2712.904054
_symmetry_space_group_name_H-M "P B A N"
_symmetry_group_IT_number 50
_space_group.IT_coordinate_system_code '2'
_symmetry_cell_setting 'orthorhombic'
loop_
_space_group_symop_operation_xyz
x,y,z
1/2-x,1/2-y,z
x,1/2-y,-z
1/2-x,y,-z
-x,-y,-z
1/2+x,1/2+y,-z
-x,1/2+y,z
1/2+x,-y,z
loop_
_atom_site_type_symbol
_atom_site_label
_atom_site_fract_x
_atom_site_fract_y
_atom_site_fract_z
Si Si1 0.651441 0.481350 0.052275
Si Si2 0.980956 0.074303 0.859032
Si Si3 0.821422 0.131144 0.253921
Si Si4 0.627293 0.591661 0.497273
Si Si5 0.020367 0.984040 0.658009
Si Si6 0.893072 0.299108 0.285829
Si Si7 0.987166 0.750000 0.500000
O O1 0.593821 0.560076 0.092530
O O2 0.683510 0.420690 0.146221
O O3 0.750000 0.520513 0.000000
O O4 0.595650 0.430424 0.959343
O O5 0.971953 0.157158 0.795220
O O6 0.969234 0.000869 0.774643
O O7 0.898035 0.088857 0.340002
O O8 0.865141 0.217739 0.225634
O O9 0.706629 0.143591 0.302723
O O10 0.750000 0.587356 0.500000
O O11 0.577825 0.531185 0.583081
O O12 0.583193 0.562643 0.381004
O O13 0.589235 0.678830 0.530448
O O14 0.940950 0.278869 0.402069
#
# Coordination Sequence:
#
# PCOD8205209 Si02
#       7
#     8   8   8   8   8   8   4
#     4  10  20  38  63  93 122 155 208 256 315 379
#     4  10  21  37  62  88 122 161 196 259 308 367
#     4  10  22  37  61  92 124 160 201 256 321 371
#     4  11  24  38  62  83 120 166 209 256 305 373
#     4  10  22  40  58  92 118 157 211 256 307 369
#     4  11  22  39  61  91 127 163 202 258 317 376
#     4  12  23  43  58  90 126 166 208 250 312 374
#
# _framework density 19.167650999999999
#
# number of rings (size 3 to 8) (size 9 to 14) (size 15 to 20)
#    0.000    1.538    4.615    0.231    2.154    1.846 
#    0.000    0.000    0.000    0.000    0.000    1.077 
#    0.000    0.000    0.000    0.000    0.000    0.000 
#
# Total GULP energy -644410.690481 kJ/mol
# GULP energy per Si atom -12392.513278 kJ/mol
# Density = 1.912402 g / cm^3
# Si number density = 19.167651 Si / 1000 Ang^3
#
#
#
# Elastic Constant Matrix: (Units=GPa)
#
#
# Indices 1 2 3 4 5 6 
#
# 1 145.2094 57.8958 61.2259 0.0000 0.0000 0.0000
# 2 57.8958 91.7061 27.9418 0.0000 0.0000 0.0000
# 3 61.2259 27.9418 96.7684 0.0000 0.0000 0.0000
# 4 0.0000 0.0000 0.0000 31.6417 0.0000 0.0000
# 5 0.0000 0.0000 0.0000 0.0000 27.8948 0.0000
# 6 0.0000 0.0000 0.0000 0.0000 0.0000 27.3025
#
#
#
# Elastic Compliance Matrix: (Units=1/GPa)
#
#
# Indices 1 2 3 4 5 6 
#
# 1 0.011477 -0.005518 -0.005668 0.000000 0.000000 0.000000
# 2 -0.005518 0.014610 -0.000727 0.000000 0.000000 0.000000
# 3 -0.005668 -0.000727 0.014130 0.000000 0.000000 0.000000
# 4 0.000000 0.000000 0.000000 0.031604 0.000000 0.000000
# 5 0.000000 0.000000 0.000000 0.000000 0.035849 0.000000
# 6 0.000000 0.000000 0.000000 0.000000 0.000000 0.036627
#
#
# Mechanical properties :
#
#
# Convention : Reuss Voigt Hill
#
# Bulk Modulus (GPa) = 61.01389 69.75679 65.38534
# Shear Modulus (GPa) = 28.80415 29.80914 29.30665
#
# Velocity S-wave (km/s) = 3.88074 3.94785 3.91444
# Velocity P-wave (km/s) = 7.20978 7.56655 7.39032
#
# Compressibility (1/GPa) = 0.01638971
#
# Stress axis : x y z
#
# Youngs Moduli (GPa) = 87.13338 68.44699 70.77158
#
# Poissons Ratio (x) = 0.37772 0.40112
# Poissons Ratio (y) = 0.48085 0.05145
# Poissons Ratio (z) = 0.49386 0.04976
#
# Static dielectric constant tensor:
#      x y z
#    x 3.672600 0.000000 0.000000 
#    y 0.000000 3.524170 0.000000 
#    z 0.000000 0.000000 3.602600 
# 
# 
# High freq. dielectric constant tensor:
#      x y z
#    x 1.749700 0.000000 0.000000 
#    y 0.000000 1.736840 0.000000 
#    z 0.000000 0.000000 1.748500 
# 
# From -- ./inp_files/21274.got.cif
#   From: 2010.03.12/outbox.cif.g09.slc.cpg/sg50_11_cif.got.tgz:21274.got - 2010.04.16 13:23:21.
