data_PCOD8205743
_publ_section_title
;
Structure prediction by ZEFSAII (Michael W. Deem and Ramdas Pophale) SiO2 
 PCOD8205743
Probable space group: P B A N
;
_chemical_formula_sum "Si O2"
_cell_formula_units_Z 58
_cell_length_a 9.487744
_cell_length_b 22.124530
_cell_length_c 12.815299
_cell_angle_alpha 90.000000
_cell_angle_beta 90.000000
_cell_angle_gamma 90.000000
_cell_volume 2690.083464
_symmetry_space_group_name_H-M "P B A N"
_symmetry_group_IT_number 50
_space_group.IT_coordinate_system_code '2'
_symmetry_cell_setting 'orthorhombic'
loop_
_space_group_symop_operation_xyz
x,y,z
1/2-x,1/2-y,z
x,1/2-y,-z
1/2-x,y,-z
-x,-y,-z
1/2+x,1/2+y,-z
-x,1/2+y,z
1/2+x,-y,z
loop_
_atom_site_type_symbol
_atom_site_label
_atom_site_fract_x
_atom_site_fract_y
_atom_site_fract_z
Si Si1 0.877172 0.346753 0.062156
Si Si2 0.053862 0.446591 0.747331
Si Si3 0.768505 0.434453 0.228868
Si Si4 0.750000 0.750000 0.000000
Si Si5 0.932320 0.839441 0.874724
Si Si6 0.133458 0.849617 0.410053
Si Si7 0.418866 0.436994 0.483080
Si Si8 0.410734 0.740568 0.236848
O O1 0.817284 0.405774 0.120069
O O2 0.961869 0.304166 0.143570
O O3 0.750000 0.313066 0.000000
O O4 0.981884 0.366562 0.971420
O O5 0.892262 0.455942 0.782382
O O6 0.133107 0.509440 0.745789
O O7 0.134762 0.399000 0.822400
O O8 0.057891 0.416562 0.634289
O O9 0.782574 0.386993 0.322822
O O10 0.825933 0.791697 0.917916
O O11 0.017237 0.805723 0.780184
O O12 0.250000 0.835021 0.500000
O O13 0.073215 0.788241 0.353618
O O14 0.994116 0.885615 0.447053
O O15 0.250000 0.443430 0.500000
O O16 0.500000 0.500000 0.500000
O O17 0.250000 0.750000 0.212416
#
# Coordination Sequence:
#
# PCOD8205743 Si02
#       8
#     8   8   8   2   8   8   8   8
#     4  11  20  41  70  92 127 173 223 272 336 397
#     4  12  25  43  68 101 137 176 230 286 347 410
#     4  11  24  40  67 103 133 176 225 286 343 408
#     4  12  28  44  66  96 134 196 224 282 342 420
#     4  12  25  45  66  97 140 177 232 280 343 417
#     4  11  23  42  68 103 135 165 228 281 337 413
#     4  12  24  43  69  93 132 179 218 274 346 410
#     4  11  22  39  72 100 124 174 226 277 328 399
#
# _framework density 21.560669999999998
#
# number of rings (size 3 to 8) (size 9 to 14) (size 15 to 20)
#    0.000    0.552    6.897    2.069    0.000    3.034 
#    1.241    0.000    0.000    0.828    0.000    0.000 
#    0.000    0.000    0.000    0.000    0.000    0.000 
#
# Total GULP energy -718704.656438 kJ/mol
# GULP energy per Si atom -12391.459594 kJ/mol
# Density = 2.151160 g / cm^3
# Si number density = 21.560670 Si / 1000 Ang^3
#
#
#
# Elastic Constant Matrix: (Units=GPa)
#
#
# Indices 1 2 3 4 5 6 
#
# 1 90.6332 16.2915 29.8665 0.0000 0.0000 0.0000
# 2 16.2915 46.8199 49.5261 0.0000 0.0000 0.0000
# 3 29.8665 49.5261 139.5955 0.0000 0.0000 0.0000
# 4 0.0000 0.0000 0.0000 30.3642 0.0000 0.0000
# 5 0.0000 0.0000 0.0000 0.0000 -130.0459 0.0000
# 6 0.0000 0.0000 0.0000 0.0000 0.0000 40.4630
#
#
#
# Elastic Compliance Matrix: (Units=1/GPa)
#
#
# Indices 1 2 3 4 5 6 
#
# 1 0.012029 -0.002342 -0.001743 0.000000 0.000000 0.000000
# 2 -0.002342 0.034645 -0.011790 0.000000 0.000000 0.000000
# 3 -0.001743 -0.011790 0.011719 0.000000 0.000000 0.000000
# 4 0.000000 0.000000 0.000000 0.032934 0.000000 0.000000
# 5 0.000000 0.000000 0.000000 0.000000 -0.007690 0.000000
# 6 0.000000 0.000000 0.000000 0.000000 0.000000 0.024714
#
#
# Mechanical properties :
#
#
# Convention : Reuss Voigt Hill
#
# Bulk Modulus (GPa) = 37.53329 52.04630 44.78979
# Shear Modulus (GPa) = 33.56089 0.24724 16.90407
#
# Velocity S-wave (km/s) = 3.94963 0.33900 2.80308
# Velocity P-wave (km/s) = 6.18429 4.93407 5.59422
#
# Compressibility (1/GPa) = 0.02664301
#
# Stress axis : x y z
#
# Youngs Moduli (GPa) = 83.13425 28.86387 85.32837
#
# Poissons Ratio (x) = 0.06761 0.14869
# Poissons Ratio (y) = 0.19472 1.00606
# Poissons Ratio (z) = 0.14487 0.34032
#
# Static dielectric constant tensor:
#      x y z
#    x 4.158030 0.000000 0.000000 
#    y 0.000000 4.072600 0.000000 
#    z 0.000000 0.000000 4.349780 
# 
# 
# High freq. dielectric constant tensor:
#      x y z
#    x 1.830930 0.000000 0.000000 
#    y 0.000000 1.843050 0.000000 
#    z 0.000000 0.000000 1.866250 
# 
# From -- ./inp_files/19428.got.cif
#   From: 2010.03.12/outbox.cif.g09.slc.cpg/sg50_10_cif.got.tgz:19428.got - 2010.04.16 13:23:21.
