data_PCOD8205462
_publ_section_title
;
Structure prediction by ZEFSAII (Michael W. Deem and Ramdas Pophale) SiO2 
 PCOD8205462
Probable space group: P B A N
;
_chemical_formula_sum "Si O2"
_cell_formula_units_Z 34
_cell_length_a 8.697677
_cell_length_b 10.523183
_cell_length_c 18.802699
_cell_angle_alpha 90.000000
_cell_angle_beta 90.000000
_cell_angle_gamma 90.000000
_cell_volume 1720.959271
_symmetry_space_group_name_H-M "P B A N"
_symmetry_group_IT_number 50
_space_group.IT_coordinate_system_code '2'
_symmetry_cell_setting 'orthorhombic'
loop_
_space_group_symop_operation_xyz
x,y,z
1/2-x,1/2-y,z
x,1/2-y,-z
1/2-x,y,-z
-x,-y,-z
1/2+x,1/2+y,-z
-x,1/2+y,z
1/2+x,-y,z
loop_
_atom_site_type_symbol
_atom_site_label
_atom_site_fract_x
_atom_site_fract_y
_atom_site_fract_z
Si Si1 0.180943 0.121955 0.682772
Si Si2 0.949810 0.655196 0.059970
Si Si3 0.250000 0.750000 0.500000
Si Si4 0.250000 0.250000 0.818605
Si Si5 0.659934 0.131214 0.364133
Si Si6 0.250000 0.941125 0.000000
O O1 0.250000 0.250000 0.646141
O O2 0.213595 0.128304 0.767985
O O3 0.000619 0.117688 0.673336
O O4 0.249313 0.998685 0.646268
O O5 0.901772 0.717150 0.135108
O O6 0.135624 0.640430 0.051311
O O7 0.887844 0.750000 0.000000
O O8 0.861161 0.521598 0.051610
O O9 0.355365 0.839751 0.550870
O O10 0.750000 0.250000 0.327857
#
# Coordination Sequence:
#
# PCOD8205462 Si02
#       6
#     8   8   2   4   8   4
#     4  10  23  41  66  96 141 182 218 280 336 414
#     4  11  20  43  59  93 128 159 228 285 320 405
#     4   8  24  40  76  96 136 176 222 284 336 384
#     4  10  23  40  64  91 136 182 214 274 356 389
#     4  10  21  46  65 100 135 173 228 274 334 398
#     4  10  22  34  68  86 120 166 202 302 328 378
#
# _framework density 19.756423000000002
#
# number of rings (size 3 to 8) (size 9 to 14) (size 15 to 20)
#    1.412    0.471    2.353    1.765    0.000    2.824 
#    0.000    0.000    0.000    0.000    0.000    0.000 
#    0.000    0.000    0.000    0.000    0.000    0.000 
#
# Total GULP energy -421242.791536 kJ/mol
# GULP energy per Si atom -12389.493869 kJ/mol
# Density = 1.971146 g / cm^3
# Si number density = 19.756423 Si / 1000 Ang^3
#
#
#
# Elastic Constant Matrix: (Units=GPa)
#
#
# Indices 1 2 3 4 5 6 
#
# 1 153.7600 54.5759 45.1295 0.0000 0.0000 0.0000
# 2 54.5759 132.2497 43.6164 0.0000 0.0000 0.0000
# 3 45.1295 43.6164 125.1062 0.0000 0.0000 0.0000
# 4 0.0000 0.0000 0.0000 14.9203 0.0000 0.0000
# 5 0.0000 0.0000 0.0000 0.0000 133.8019 0.0000
# 6 0.0000 0.0000 0.0000 0.0000 0.0000 40.8895
#
#
#
# Elastic Compliance Matrix: (Units=1/GPa)
#
#
# Indices 1 2 3 4 5 6 
#
# 1 0.008026 -0.002664 -0.001967 0.000000 0.000000 0.000000
# 2 -0.002664 0.009428 -0.002326 0.000000 0.000000 0.000000
# 3 -0.001967 -0.002326 0.009514 0.000000 0.000000 0.000000
# 4 0.000000 0.000000 0.000000 0.067023 0.000000 0.000000
# 5 0.000000 0.000000 0.000000 0.000000 0.007474 0.000000
# 6 0.000000 0.000000 0.000000 0.000000 0.000000 0.024456
#
#
# Mechanical properties :
#
#
# Convention : Reuss Voigt Hill
#
# Bulk Modulus (GPa) = 76.59882 77.52881 77.06382
# Shear Modulus (GPa) = 34.67775 55.77527 45.22651
#
# Velocity S-wave (km/s) = 4.19413 5.31909 4.78975
# Velocity P-wave (km/s) = 7.89368 8.77788 8.34749
#
# Compressibility (1/GPa) = 0.01305503
#
# Stress axis : x y z
#
# Youngs Moduli (GPa) = 124.59022 106.06949 105.11288
#
# Poissons Ratio (x) = 0.28253 0.20672
# Poissons Ratio (y) = 0.33186 0.24449
# Poissons Ratio (z) = 0.24503 0.24672
#
# Static dielectric constant tensor:
#      x y z
#    x 3.011670 0.000000 0.000000 
#    y 0.000000 3.566240 0.000000 
#    z 0.000000 0.000000 3.331430 
# 
# 
# High freq. dielectric constant tensor:
#      x y z
#    x 1.775750 0.000000 0.000000 
#    y 0.000000 1.775640 0.000000 
#    z 0.000000 0.000000 1.741660 
# 
# From -- ./inp_files/28472.got.cif
#   From: 2010.03.12/outbox.cif.g09.slc.cpg/sg50_15_cif.got.tgz:28472.got - 2010.04.16 13:23:21.
