data_PCOD8205797
_publ_section_title
;
Structure prediction by ZEFSAII (Michael W. Deem and Ramdas Pophale) SiO2 
 PCOD8205797
Probable space group: P B A N
;
_chemical_formula_sum "Si O2"
_cell_formula_units_Z 34
_cell_length_a 8.778589
_cell_length_b 12.722148
_cell_length_c 13.909558
_cell_angle_alpha 90.000000
_cell_angle_beta 90.000000
_cell_angle_gamma 90.000000
_cell_volume 1553.454329
_symmetry_space_group_name_H-M "P B A N"
_symmetry_group_IT_number 50
_space_group.IT_coordinate_system_code '2'
_symmetry_cell_setting 'orthorhombic'
loop_
_space_group_symop_operation_xyz
x,y,z
1/2-x,1/2-y,z
x,1/2-y,-z
1/2-x,y,-z
-x,-y,-z
1/2+x,1/2+y,-z
-x,1/2+y,z
1/2+x,-y,z
loop_
_atom_site_type_symbol
_atom_site_label
_atom_site_fract_x
_atom_site_fract_y
_atom_site_fract_z
Si Si1 0.388042 0.376240 0.834689
Si Si2 0.750000 0.750000 0.000000
Si Si3 0.071342 0.744933 0.311306
Si Si4 0.602205 0.079607 0.440273
Si Si5 0.083480 0.454238 0.743503
O O1 0.361187 0.328463 0.940449
O O2 0.479619 0.287396 0.779353
O O3 0.221147 0.392662 0.791137
O O4 0.485347 0.484876 0.826510
O O5 0.250000 0.750000 0.291622
O O6 0.024260 0.808955 0.409399
O O7 0.022922 0.623666 0.319323
O O8 0.750000 0.108841 0.500000
O O9 0.500000 0.000000 0.500000
O O10 0.649824 0.033541 0.336149
#
# Coordination Sequence:
#
# PCOD8205797 Si02
#       5
#     8   2   8   8   8
#     4  11  24  44  71 102 135 180 226 294 352 425
#     4  12  24  48  74 104 140 168 246 288 360 448
#     4  11  22  42  67  95 139 186 229 286 352 405
#     4  11  23  38  61  99 135 180 239 281 327 410
#     4  11  22  43  67  95 141 182 223 282 361 403
#
# _framework density 21.886706
#
# number of rings (size 3 to 8) (size 9 to 14) (size 15 to 20)
#    0.000    0.941    2.353    7.059    0.000    4.235 
#    0.000    1.765    0.000    0.000    0.000    0.000 
#    0.000    0.000    0.000    0.000    0.000    0.000 
#
# Total GULP energy -421332.892118 kJ/mol
# GULP energy per Si atom -12392.143886 kJ/mol
# Density = 2.183689 g / cm^3
# Si number density = 21.886706 Si / 1000 Ang^3
#
#
#
# Elastic Constant Matrix: (Units=GPa)
#
#
# Indices 1 2 3 4 5 6 
#
# 1 104.0669 40.5599 43.1460 0.0000 0.0000 0.0000
# 2 40.5599 118.2085 54.8072 0.0000 0.0000 0.0000
# 3 43.1460 54.8072 133.5730 0.0000 0.0000 0.0000
# 4 0.0000 0.0000 0.0000 51.1837 0.0000 0.0000
# 5 0.0000 0.0000 0.0000 0.0000 42.8817 0.0000
# 6 0.0000 0.0000 0.0000 0.0000 0.0000 40.7008
#
#
#
# Elastic Compliance Matrix: (Units=1/GPa)
#
#
# Indices 1 2 3 4 5 6 
#
# 1 0.011810 -0.002820 -0.002658 0.000000 0.000000 0.000000
# 2 -0.002820 0.011121 -0.003652 0.000000 0.000000 0.000000
# 3 -0.002658 -0.003652 0.009844 0.000000 0.000000 0.000000
# 4 0.000000 0.000000 0.000000 0.019537 0.000000 0.000000
# 5 0.000000 0.000000 0.000000 0.000000 0.023320 0.000000
# 6 0.000000 0.000000 0.000000 0.000000 0.000000 0.024570
#
#
# Mechanical properties :
#
#
# Convention : Reuss Voigt Hill
#
# Bulk Modulus (GPa) = 68.89624 70.31939 69.60781
# Shear Modulus (GPa) = 40.55183 41.44228 40.99705
#
# Velocity S-wave (km/s) = 4.30909 4.35615 4.33268
# Velocity P-wave (km/s) = 7.50364 7.58287 7.54336
#
# Compressibility (1/GPa) = 0.01451458
#
# Stress axis : x y z
#
# Youngs Moduli (GPa) = 84.67244 89.92401 101.58984
#
# Poissons Ratio (x) = 0.25359 0.27000
# Poissons Ratio (y) = 0.23878 0.37101
# Poissons Ratio (z) = 0.22504 0.32840
#
# Static dielectric constant tensor:
#      x y z
#    x 4.540780 0.000000 0.000000 
#    y 0.000000 4.550120 0.000000 
#    z 0.000000 0.000000 4.199600 
# 
# 
# High freq. dielectric constant tensor:
#      x y z
#    x 1.857550 0.000000 0.000000 
#    y 0.000000 1.891590 0.000000 
#    z 0.000000 0.000000 1.841260 
# 
# From -- ./inp_files/24535.got.cif
#   From: 2010.03.12/outbox.cif.g09.slc.cpg/sg50_13_cif.got.tgz:24535.got - 2010.04.16 13:23:21.
