data_PCOD8205101
_publ_section_title
;
Structure prediction by ZEFSAII (Michael W. Deem and Ramdas Pophale) SiO2 
 PCOD8205101
Probable space group: P B A N
;
_chemical_formula_sum "Si O2"
_cell_formula_units_Z 58
_cell_length_a 12.005586
_cell_length_b 28.683631
_cell_length_c 8.259573
_cell_angle_alpha 90.000000
_cell_angle_beta 90.000000
_cell_angle_gamma 90.000000
_cell_volume 2844.297934
_symmetry_space_group_name_H-M "P B A N"
_symmetry_group_IT_number 50
_space_group.IT_coordinate_system_code '2'
_symmetry_cell_setting 'orthorhombic'
loop_
_space_group_symop_operation_xyz
x,y,z
1/2-x,1/2-y,z
x,1/2-y,-z
1/2-x,y,-z
-x,-y,-z
1/2+x,1/2+y,-z
-x,1/2+y,z
1/2+x,-y,z
loop_
_atom_site_type_symbol
_atom_site_label
_atom_site_fract_x
_atom_site_fract_y
_atom_site_fract_z
Si Si1 0.876270 0.555821 0.959937
Si Si2 0.056168 0.723701 0.846734
Si Si3 0.995297 0.486692 0.749606
Si Si4 0.872144 0.053313 0.543358
Si Si5 0.250000 0.250000 0.500000
Si Si6 0.622324 0.661056 0.990628
Si Si7 0.367482 0.840097 0.582790
Si Si8 0.947900 0.696250 0.341582
O O1 0.892792 0.610646 0.925869
O O2 0.961196 0.543846 0.103099
O O3 0.750000 0.544360 0.000000
O O4 0.902544 0.524394 0.803842
O O5 0.135010 0.686166 0.757049
O O6 0.023498 0.760742 0.711987
O O7 0.115284 0.750000 0.000000
O O8 0.944193 0.699066 0.907812
O O9 0.948940 0.451054 0.615846
O O10 0.095685 0.516979 0.680692
O O11 0.750000 0.037777 0.500000
O O12 0.874728 0.105059 0.616410
O O13 0.171657 0.284808 0.601347
O O14 0.577131 0.660468 0.805446
O O15 0.750000 0.676785 0.000000
O O16 0.250000 0.826905 0.500000
O O17 0.478521 0.828058 0.480629
#
# Coordination Sequence:
#
# PCOD8205101 Si02
#       8
#     8   8   8   8   2   8   8   8
#     4  10  20  35  56  82 115 152 190 237 291 349
#     4  10  21  39  59  84 116 153 198 244 296 358
#     4  10  20  36  58  83 115 149 192 242 289 351
#     4  10  21  37  60  85 115 154 194 241 292 349
#     4  12  20  36  60  84 116 152 194 250 300 368
#     4  10  21  36  57  86 121 154 193 245 299 358
#     4  11  23  41  61  85 120 158 202 249 295 356
#     4  11  22  37  59  85 116 156 197 240 304 356
#
# _framework density 20.391674999999999
#
# number of rings (size 3 to 8) (size 9 to 14) (size 15 to 20)
#    0.000    1.655    1.379    3.310    0.000    3.034 
#    0.000    4.828    3.034   11.586    0.000    0.000 
#    0.000    0.000    0.000    0.000    0.000    0.000 
#
# Total GULP energy -719127.018454 kJ/mol
# GULP energy per Si atom -12398.741697 kJ/mol
# Density = 2.034526 g / cm^3
# Si number density = 20.391675 Si / 1000 Ang^3
#
#
#
# Elastic Constant Matrix: (Units=GPa)
#
#
# Indices 1 2 3 4 5 6 
#
# 1 86.0524 28.6935 14.4662 0.0000 0.0000 0.0000
# 2 28.6935 83.1734 25.3496 0.0000 0.0000 0.0000
# 3 14.4662 25.3496 66.5868 0.0000 0.0000 0.0000
# 4 0.0000 0.0000 0.0000 21.9806 0.0000 0.0000
# 5 0.0000 0.0000 0.0000 0.0000 18.5508 0.0000
# 6 0.0000 0.0000 0.0000 0.0000 0.0000 -11.1983
#
#
#
# Elastic Compliance Matrix: (Units=1/GPa)
#
#
# Indices 1 2 3 4 5 6 
#
# 1 0.013228 -0.004172 -0.001286 0.000000 0.000000 0.000000
# 2 -0.004172 0.014917 -0.004773 0.000000 0.000000 0.000000
# 3 -0.001286 -0.004773 0.017114 0.000000 0.000000 0.000000
# 4 0.000000 0.000000 0.000000 0.045495 0.000000 0.000000
# 5 0.000000 0.000000 0.000000 0.000000 0.053906 0.000000
# 6 0.000000 0.000000 0.000000 0.000000 0.000000 -0.089299
#
#
# Mechanical properties :
#
#
# Convention : Reuss Voigt Hill
#
# Bulk Modulus (GPa) = 40.32369 41.42571 40.87470
# Shear Modulus (GPa) = 59.46286 17.02019 38.24153
#
# Velocity S-wave (km/s) = 5.40589 2.89219 4.33523
# Velocity P-wave (km/s) = 7.66697 5.61357 6.71917
#
# Compressibility (1/GPa) = 0.02479932
#
# Stress axis : x y z
#
# Youngs Moduli (GPa) = 75.59755 67.03863 58.43099
#
# Poissons Ratio (x) = 0.27966 0.07512
# Poissons Ratio (y) = 0.31536 0.27886
# Poissons Ratio (z) = 0.09720 0.31994
#
# Static dielectric constant tensor:
#      x y z
#    x 3.626110 0.000000 0.000000 
#    y 0.000000 3.739060 0.000000 
#    z 0.000000 0.000000 3.787390 
# 
# 
# High freq. dielectric constant tensor:
#      x y z
#    x 1.795250 0.000000 0.000000 
#    y 0.000000 1.805310 0.000000 
#    z 0.000000 0.000000 1.796580 
# 
# From -- ./inp_files/11780.got.cif
#   From: 2010.03.12/outbox.cif.g09.slc.cpg/sg50_6_cif.got.tgz:11780.got - 2010.04.16 13:23:21.
