data_PCOD8205598
_publ_section_title
;
Structure prediction by ZEFSAII (Michael W. Deem and Ramdas Pophale) SiO2 
 PCOD8205598
Probable space group: P B A N
;
_chemical_formula_sum "Si O2"
_cell_formula_units_Z 32
_cell_length_a 8.360295
_cell_length_b 15.554568
_cell_length_c 11.281539
_cell_angle_alpha 90.000000
_cell_angle_beta 90.000000
_cell_angle_gamma 90.000000
_cell_volume 1467.060098
_symmetry_space_group_name_H-M "P B A N"
_symmetry_group_IT_number 50
_space_group.IT_coordinate_system_code '2'
_symmetry_cell_setting 'orthorhombic'
loop_
_space_group_symop_operation_xyz
x,y,z
1/2-x,1/2-y,z
x,1/2-y,-z
1/2-x,y,-z
-x,-y,-z
1/2+x,1/2+y,-z
-x,1/2+y,z
1/2+x,-y,z
loop_
_atom_site_type_symbol
_atom_site_label
_atom_site_fract_x
_atom_site_fract_y
_atom_site_fract_z
Si Si1 0.161262 0.918313 0.891871
Si Si2 0.246477 0.390558 0.366856
Si Si3 0.938418 0.464724 0.261340
Si Si4 0.502794 0.250000 0.000000
Si Si5 0.750000 0.750000 0.187824
O O1 0.299196 0.904223 0.792680
O O2 0.250000 0.968318 0.000000
O O3 0.019782 0.977606 0.842041
O O4 0.105531 0.826485 0.943303
O O5 0.250000 0.353932 0.500000
O O6 0.354547 0.475234 0.359664
O O7 0.321048 0.323603 0.273179
O O8 0.063096 0.405843 0.330123
O O9 0.391529 0.287977 0.894577
#
# Coordination Sequence:
#
# PCOD8205598 Si02
#       5
#     8   8   8   4   4
#     4  11  21  38  62  92 130 165 204 262 318 379
#     4  11  22  42  66  93 127 171 213 265 311 371
#     4  10  23  40  64  96 126 159 225 257 316 373
#     4  11  23  40  62  92 130 166 204 264 326 388
#     4  11  23  40  62  96 125 167 212 258 324 387
#
# _framework density 21.812329999999999
#
# number of rings (size 3 to 8) (size 9 to 14) (size 15 to 20)
#    0.000    1.250    2.500    3.750    0.000    2.000 
#    0.000    0.000    0.000    0.000    0.000    0.000 
#    0.000    0.000    0.000    0.000    0.000    0.000 
#
# Total GULP energy -396695.139703 kJ/mol
# GULP energy per Si atom -12396.723116 kJ/mol
# Density = 2.176268 g / cm^3
# Si number density = 21.812330 Si / 1000 Ang^3
#
#
#
# Elastic Constant Matrix: (Units=GPa)
#
#
# Indices 1 2 3 4 5 6 
#
# 1 109.4707 37.7560 46.7638 0.0000 0.0000 0.0000
# 2 37.7560 80.3283 46.5413 0.0000 0.0000 0.0000
# 3 46.7638 46.5413 145.8824 0.0000 0.0000 0.0000
# 4 0.0000 0.0000 0.0000 26.7585 0.0000 0.0000
# 5 0.0000 0.0000 0.0000 0.0000 21.2127 0.0000
# 6 0.0000 0.0000 0.0000 0.0000 0.0000 21.3789
#
#
#
# Elastic Compliance Matrix: (Units=1/GPa)
#
#
# Indices 1 2 3 4 5 6 
#
# 1 0.011559 -0.004031 -0.002419 0.000000 0.000000 0.000000
# 2 -0.004031 0.016678 -0.004029 0.000000 0.000000 0.000000
# 3 -0.002419 -0.004029 0.008916 0.000000 0.000000 0.000000
# 4 0.000000 0.000000 0.000000 0.037371 0.000000 0.000000
# 5 0.000000 0.000000 0.000000 0.000000 0.047142 0.000000
# 6 0.000000 0.000000 0.000000 0.000000 0.000000 0.046775
#
#
# Mechanical properties :
#
#
# Convention : Reuss Voigt Hill
#
# Bulk Modulus (GPa) = 61.75038 66.42262 64.08650
# Shear Modulus (GPa) = 25.66792 27.51136 26.58964
#
# Velocity S-wave (km/s) = 3.43412 3.55530 3.49523
# Velocity P-wave (km/s) = 6.64045 6.88269 6.76266
#
# Compressibility (1/GPa) = 0.01619423
#
# Stress axis : x y z
#
# Youngs Moduli (GPa) = 86.51556 59.96015 112.16368
#
# Poissons Ratio (x) = 0.24171 0.27134
# Poissons Ratio (y) = 0.34876 0.45185
# Poissons Ratio (z) = 0.20929 0.24155
#
# Static dielectric constant tensor:
#      x y z
#    x 4.150140 0.000000 0.000000 
#    y 0.000000 3.571200 0.000000 
#    z 0.000000 0.000000 3.965740 
# 
# 
# High freq. dielectric constant tensor:
#      x y z
#    x 1.872300 0.000000 0.000000 
#    y 0.000000 1.832340 0.000000 
#    z 0.000000 0.000000 1.858760 
# 
# From -- ./inp_files/18405.got.cif
#   From: 2010.03.12/outbox.cif.g09.slc.cpg/sg50_10_cif.got.tgz:18405.got - 2010.04.16 13:23:21.
