data_PCOD8205701
_publ_section_title
;
Structure prediction by ZEFSAII (Michael W. Deem and Ramdas Pophale) SiO2 
 PCOD8205701
Probable space group: P B A N
;
_chemical_formula_sum "Si O2"
_cell_formula_units_Z 30
_cell_length_a 10.698965
_cell_length_b 9.675690
_cell_length_c 13.403829
_cell_angle_alpha 90.000000
_cell_angle_beta 90.000000
_cell_angle_gamma 90.000000
_cell_volume 1387.562618
_symmetry_space_group_name_H-M "P B A N"
_symmetry_group_IT_number 50
_space_group.IT_coordinate_system_code '2'
_symmetry_cell_setting 'orthorhombic'
loop_
_space_group_symop_operation_xyz
x,y,z
1/2-x,1/2-y,z
x,1/2-y,-z
1/2-x,y,-z
-x,-y,-z
1/2+x,1/2+y,-z
-x,1/2+y,z
1/2+x,-y,z
loop_
_atom_site_type_symbol
_atom_site_label
_atom_site_fract_x
_atom_site_fract_y
_atom_site_fract_z
Si Si1 0.250000 0.250000 0.664308
Si Si2 0.896203 0.895958 0.169481
Si Si3 0.992707 0.866205 0.568359
Si Si4 0.111140 0.692530 0.226273
Si Si5 0.250000 0.250000 0.000000
O O1 0.191649 0.132567 0.735303
O O2 0.150220 0.328212 0.595310
O O3 0.027413 0.820315 0.190191
O O4 0.910038 0.061073 0.153814
O O5 0.837872 0.844969 0.066888
O O6 0.053972 0.750000 0.500000
O O7 0.075082 0.873216 0.667197
O O8 0.000000 0.000000 0.500000
O O9 0.250000 0.750000 0.226853
#
# Coordination Sequence:
#
# PCOD8205701 Si02
#       5
#     4   8   8   8   2
#     4   9  21  41  67  90 142 182 221 291 345 395
#     4  10  24  46  72  99 137 179 227 282 361 411
#     4  11  23  40  64  98 134 186 242 280 329 394
#     4  11  26  45  69 101 145 185 227 287 357 408
#     4  10  24  48  82 100 134 176 232 286 344 438
#
# _framework density 21.620647999999999
#
# number of rings (size 3 to 8) (size 9 to 14) (size 15 to 20)
#    0.000    1.600    0.000    3.600   14.933    1.600 
#    0.000    0.000    0.000    0.000    0.000    0.000 
#    0.000    0.000    0.000    0.000    0.000    0.000 
#
# Total GULP energy -371947.432996 kJ/mol
# GULP energy per Si atom -12398.247767 kJ/mol
# Density = 2.157144 g / cm^3
# Si number density = 21.620648 Si / 1000 Ang^3
#
#
#
# Elastic Constant Matrix: (Units=GPa)
#
#
# Indices 1 2 3 4 5 6 
#
# 1 144.2840 72.8172 57.9347 0.0000 0.0000 0.0000
# 2 72.8172 176.2796 53.1419 0.0000 0.0000 0.0000
# 3 57.9347 53.1419 119.1086 0.0000 0.0000 0.0000
# 4 0.0000 0.0000 0.0000 12.9537 0.0000 0.0000
# 5 0.0000 0.0000 0.0000 0.0000 -2.8096 0.0000
# 6 0.0000 0.0000 0.0000 0.0000 0.0000 20.1876
#
#
#
# Elastic Compliance Matrix: (Units=1/GPa)
#
#
# Indices 1 2 3 4 5 6 
#
# 1 0.009838 -0.003029 -0.003434 0.000000 0.000000 0.000000
# 2 -0.003029 0.007487 -0.001867 0.000000 0.000000 0.000000
# 3 -0.003434 -0.001867 0.010899 0.000000 0.000000 0.000000
# 4 0.000000 0.000000 0.000000 0.077198 0.000000 0.000000
# 5 0.000000 0.000000 0.000000 0.000000 -0.355920 0.000000
# 6 0.000000 0.000000 0.000000 0.000000 0.000000 0.049535
#
#
# Mechanical properties :
#
#
# Convention : Reuss Voigt Hill
#
# Bulk Modulus (GPa) = 86.47325 89.71776 88.09550
# Shear Modulus (GPa) = -27.70888 23.11822 -2.29533
#
# Velocity S-wave (km/s) = -3.58382 3.27351 -1.03148
# Velocity P-wave (km/s) = 4.79140 7.47491 6.27821
#
# Compressibility (1/GPa) = 0.01156427
#
# Stress axis : x y z
#
# Youngs Moduli (GPa) = 101.64496 133.56882 91.75095
#
# Poissons Ratio (x) = 0.40454 0.31507
# Poissons Ratio (y) = 0.30785 0.17131
# Poissons Ratio (z) = 0.34905 0.24939
#
# Static dielectric constant tensor:
#      x y z
#    x 4.015590 0.000000 0.000000 
#    y 0.000000 3.938810 0.000000 
#    z 0.000000 0.000000 3.960030 
# 
# 
# High freq. dielectric constant tensor:
#      x y z
#    x 1.851740 0.000000 0.000000 
#    y 0.000000 1.859630 0.000000 
#    z 0.000000 0.000000 1.852500 
# 
# From -- ./inp_files/24358.got.cif
#   From: 2010.03.12/outbox.cif.g09.slc.cpg/sg50_13_cif.got.tgz:24358.got - 2010.04.16 13:23:21.
