data_PCOD8205960
_publ_section_title
;
Structure prediction by ZEFSAII (Michael W. Deem and Ramdas Pophale) SiO2 
 PCOD8205960
Probable space group: P M M A
;
_chemical_formula_sum "Si O2"
_cell_formula_units_Z 52
_cell_length_a 8.625628
_cell_length_b 26.765394
_cell_length_c 13.698051
_cell_angle_alpha 90.000000
_cell_angle_beta 90.000000
_cell_angle_gamma 90.000000
_cell_volume 3162.446185
_symmetry_space_group_name_H-M "P M M A"
_symmetry_group_IT_number 51
_symmetry_cell_setting 'orthorhombic'
loop_
_space_group_symop_operation_xyz
x,y,z
1/2-x,-y,z
1/2+x,-y,-z
-x,y,-z
-x,-y,-z
1/2+x,y,-z
1/2-x,y,z
x,-y,z
loop_
_atom_site_type_symbol
_atom_site_label
_atom_site_fract_x
_atom_site_fract_y
_atom_site_fract_z
Si Si1 0.433917 0.000000 0.609169
Si Si2 0.429908 0.444459 0.781903
Si Si3 0.931127 0.605975 0.604258
Si Si4 0.933069 0.798342 0.392591
Si Si5 0.566672 0.347297 0.105894
Si Si6 0.934069 0.100002 0.608636
Si Si7 0.433479 0.704929 0.287078
O O1 0.500000 0.000000 0.500000
O O2 0.497856 0.949677 0.662323
O O3 0.250000 0.000000 0.608396
O O4 0.250000 0.438520 0.757729
O O5 0.469317 0.500000 0.821701
O O6 0.519416 0.436293 0.680794
O O7 0.480404 0.403774 0.862625
O O8 0.750000 0.605470 0.593780
O O9 0.987720 0.660121 0.641844
O O10 0.000000 0.593095 0.500000
O O11 0.750000 0.804122 0.401424
O O12 0.000000 0.787496 0.500000
O O13 0.004905 0.848625 0.343450
O O14 0.976866 0.753949 0.320505
O O15 0.750000 0.339324 0.107306
O O16 0.486136 0.307660 0.177525
O O17 0.500000 0.336733 0.000000
O O18 0.750000 0.097984 0.609333
O O19 0.000000 0.100878 0.500000
O O20 0.250000 0.713700 0.290778
#
# Coordination Sequence:
#
# PCOD8205960 Si02
#       7
#     4   8   8   8   8   8   8
#     4  10  16  24  36  52  76 110 153 198 237 272
#     4   9  19  35  52  70  93 119 148 182 219 261
#     4  10  20  32  48  68  91 120 152 184 220 263
#     4  11  20  30  44  65  92 123 157 193 232 273
#     4  10  20  35  54  74  94 117 145 179 222 272
#     4  10  17  26  38  55  80 114 155 196 234 271
#     4  10  20  34  50  69  91 117 150 188 228 271
#
# _framework density 16.442968
#
# number of rings (size 3 to 8) (size 9 to 14) (size 15 to 20)
#    0.000    2.000    0.000    7.154    0.000    4.615 
#    0.000    0.000    0.000    0.000    0.000    0.000 
#    0.000    0.000    0.000    0.692    0.000    9.769 
#
# Total GULP energy -644728.137338 kJ/mol
# GULP energy per Si atom -12398.618026 kJ/mol
# Density = 1.640554 g / cm^3
# Si number density = 16.442968 Si / 1000 Ang^3
#
#
#
# Elastic Constant Matrix: (Units=GPa)
#
#
# Indices 1 2 3 4 5 6 
#
# 1 100.4122 39.9331 18.7017 0.0000 0.0000 0.0000
# 2 39.9331 120.4955 26.3375 0.0000 0.0000 0.0000
# 3 18.7017 26.3375 67.8110 0.0000 0.0000 0.0000
# 4 0.0000 0.0000 0.0000 9.2245 0.0000 0.0000
# 5 0.0000 0.0000 0.0000 0.0000 21.2179 0.0000
# 6 0.0000 0.0000 0.0000 0.0000 0.0000 27.5565
#
#
#
# Elastic Compliance Matrix: (Units=1/GPa)
#
#
# Indices 1 2 3 4 5 6 
#
# 1 0.011686 -0.003462 -0.001878 0.000000 0.000000 0.000000
# 2 -0.003462 0.010095 -0.002966 0.000000 0.000000 0.000000
# 3 -0.001878 -0.002966 0.016417 0.000000 0.000000 0.000000
# 4 0.000000 0.000000 0.000000 0.108407 0.000000 0.000000
# 5 0.000000 0.000000 0.000000 0.000000 0.047130 0.000000
# 6 0.000000 0.000000 0.000000 0.000000 0.000000 0.036289
#
#
# Mechanical properties :
#
#
# Convention : Reuss Voigt Hill
#
# Bulk Modulus (GPa) = 46.32902 50.96259 48.64581
# Shear Modulus (GPa) = 19.69821 25.18287 22.44054
#
# Velocity S-wave (km/s) = 3.46493 3.91772 3.69826
# Velocity P-wave (km/s) = 6.65164 7.17813 6.91990
#
# Compressibility (1/GPa) = 0.02158474
#
# Stress axis : x y z
#
# Youngs Moduli (GPa) = 85.57518 99.06147 60.91326
#
# Poissons Ratio (x) = 0.34297 0.11440
# Poissons Ratio (y) = 0.29628 0.18066
# Poissons Ratio (z) = 0.16072 0.29381
#
# Static dielectric constant tensor:
#      x y z
#    x 3.195230 0.000000 0.000000 
#    y 0.000000 3.882820 0.000000 
#    z 0.000000 0.000000 2.818230 
# 
# 
# High freq. dielectric constant tensor:
#      x y z
#    x 1.652920 0.000000 0.000000 
#    y 0.000000 1.642300 0.000000 
#    z 0.000000 0.000000 1.579630 
# 
# From -- ./inp_files/14646.got.cif
#   From: 2010.03.12/outbox.cif.g09.slc.cpg/sg51_8_cif.got.tgz:14646.got - 2010.04.16 13:43:02.
