data_PCOD8205337
_publ_section_title
;
Structure prediction by ZEFSAII (Michael W. Deem and Ramdas Pophale) SiO2 
 PCOD8205337
Probable space group: P B A N
;
_chemical_formula_sum "Si O2"
_cell_formula_units_Z 58
_cell_length_a 23.604831
_cell_length_b 14.712647
_cell_length_c 7.724059
_cell_angle_alpha 90.000000
_cell_angle_beta 90.000000
_cell_angle_gamma 90.000000
_cell_volume 2682.484943
_symmetry_space_group_name_H-M "P B A N"
_symmetry_group_IT_number 50
_space_group.IT_coordinate_system_code '2'
_symmetry_cell_setting 'orthorhombic'
loop_
_space_group_symop_operation_xyz
x,y,z
1/2-x,1/2-y,z
x,1/2-y,-z
1/2-x,y,-z
-x,-y,-z
1/2+x,1/2+y,-z
-x,1/2+y,z
1/2+x,-y,z
loop_
_atom_site_type_symbol
_atom_site_label
_atom_site_fract_x
_atom_site_fract_y
_atom_site_fract_z
Si Si1 0.038387 0.150577 0.206273
Si Si2 0.414093 0.846272 0.302385
Si Si3 0.409955 0.856008 0.696609
Si Si4 0.135985 0.023951 0.799890
Si Si5 0.533990 0.641943 0.197854
Si Si6 0.740394 0.881162 0.691889
Si Si7 0.142994 0.034618 0.192298
Si Si8 0.250000 0.250000 0.000000
O O1 0.052635 0.255667 0.243012
O O2 0.090806 0.090831 0.277796
O O3 0.980231 0.125675 0.302233
O O4 0.027797 0.128648 0.006366
O O5 0.392838 0.850623 0.497666
O O6 0.404609 0.745519 0.221191
O O7 0.376292 0.916407 0.193906
O O8 0.474677 0.888016 0.718941
O O9 0.367004 0.926919 0.784289
O O10 0.081636 0.076361 0.721828
O O11 0.190047 0.045054 0.678868
O O12 0.147487 0.059310 0.991859
O O13 0.750000 0.835592 0.500000
O O14 0.798220 0.933324 0.729433
O O15 0.719863 0.814167 0.852529
#
# Coordination Sequence:
#
# PCOD8205337 Si02
#       8
#     8   8   8   8   8   8   8   2
#     4   9  19  34  57  86 120 161 202 250 317 382
#     4  10  21  37  57  86 123 161 208 265 317 376
#     4  10  21  37  57  86 123 161 208 265 317 376
#     4  11  22  39  63  88 125 163 210 265 312 376
#     4   9  19  34  57  86 120 161 202 250 317 382
#     4  12  27  45  70  97 128 169 211 258 314 368
#     4  11  22  39  63  88 125 163 210 265 312 376
#     4  12  26  52  68  94 134 168 214 264 296 376
#
# _framework density 21.621744
#
# number of rings (size 3 to 8) (size 9 to 14) (size 15 to 20)
#    0.000    1.655    1.379    2.690    1.931    7.172 
#    0.000    0.690    0.000    4.138    0.000    0.000 
#    0.000    0.000    0.000    0.000    0.000    0.000 
#
# Total GULP energy -718733.729857 kJ/mol
# GULP energy per Si atom -12391.960860 kJ/mol
# Density = 2.157253 g / cm^3
# Si number density = 21.621744 Si / 1000 Ang^3
#
#
#
# Elastic Constant Matrix: (Units=GPa)
#
#
# Indices 1 2 3 4 5 6 
#
# 1 92.2736 67.6680 20.1265 0.0000 0.0000 0.0000
# 2 67.6680 120.0740 22.6646 0.0000 0.0000 0.0000
# 3 20.1265 22.6646 80.1294 0.0000 0.0000 0.0000
# 4 0.0000 0.0000 0.0000 23.0651 0.0000 0.0000
# 5 0.0000 0.0000 0.0000 0.0000 21.7107 0.0000
# 6 0.0000 0.0000 0.0000 0.0000 0.0000 12.5358
#
#
#
# Elastic Compliance Matrix: (Units=1/GPa)
#
#
# Indices 1 2 3 4 5 6 
#
# 1 0.018717 -0.010206 -0.001815 0.000000 0.000000 0.000000
# 2 -0.010206 0.014363 -0.001499 0.000000 0.000000 0.000000
# 3 -0.001815 -0.001499 0.013360 0.000000 0.000000 0.000000
# 4 0.000000 0.000000 0.000000 0.043356 0.000000 0.000000
# 5 0.000000 0.000000 0.000000 0.000000 0.046060 0.000000
# 6 0.000000 0.000000 0.000000 0.000000 0.000000 0.079771
#
#
# Mechanical properties :
#
#
# Convention : Reuss Voigt Hill
#
# Bulk Modulus (GPa) = 51.54426 57.04389 54.29408
# Shear Modulus (GPa) = 20.06964 23.59685 21.83325
#
# Velocity S-wave (km/s) = 3.04997 3.30714 3.18115
# Velocity P-wave (km/s) = 6.02444 6.40491 6.21759
#
# Compressibility (1/GPa) = 0.01940080
#
# Stress axis : x y z
#
# Youngs Moduli (GPa) = 53.42625 69.62527 74.85245
#
# Poissons Ratio (x) = 0.71057 0.13583
# Poissons Ratio (y) = 0.54525 0.11221
# Poissons Ratio (z) = 0.09695 0.10437
#
# Static dielectric constant tensor:
#      x y z
#    x 3.688390 0.000000 0.000000 
#    y 0.000000 4.070580 0.000000 
#    z 0.000000 0.000000 3.837790 
# 
# 
# High freq. dielectric constant tensor:
#      x y z
#    x 1.824850 0.000000 0.000000 
#    y 0.000000 1.853600 0.000000 
#    z 0.000000 0.000000 1.845380 
# 
# From -- ./inp_files/16113.got.cif
#   From: 2010.03.12/outbox.cif.g09.slc.cpg/sg50_9_cif.got.tgz:16113.got - 2010.04.16 13:23:21.
