data_PCOD8205314
_publ_section_title
;
Structure prediction by ZEFSAII (Michael W. Deem and Ramdas Pophale) SiO2 
 PCOD8205314
Probable space group: P B A N
;
_chemical_formula_sum "Si O2"
_cell_formula_units_Z 64
_cell_length_a 10.792055
_cell_length_b 30.338387
_cell_length_c 9.843035
_cell_angle_alpha 90.000000
_cell_angle_beta 90.000000
_cell_angle_gamma 90.000000
_cell_volume 3222.742945
_symmetry_space_group_name_H-M "P B A N"
_symmetry_group_IT_number 50
_space_group.IT_coordinate_system_code '2'
_symmetry_cell_setting 'orthorhombic'
loop_
_space_group_symop_operation_xyz
x,y,z
1/2-x,1/2-y,z
x,1/2-y,-z
1/2-x,y,-z
-x,-y,-z
1/2+x,1/2+y,-z
-x,1/2+y,z
1/2+x,-y,z
loop_
_atom_site_type_symbol
_atom_site_label
_atom_site_fract_x
_atom_site_fract_y
_atom_site_fract_z
Si Si1 0.152469 0.067087 0.675922
Si Si2 0.834374 0.030044 0.364707
Si Si3 0.988914 0.145757 0.749383
Si Si4 0.249386 0.596009 0.845763
Si Si5 0.888964 0.801805 0.017539
Si Si6 0.912101 0.917007 0.621231
Si Si7 0.473654 0.844073 0.228096
Si Si8 0.104299 0.699709 0.490824
O O1 0.133656 0.088940 0.530244
O O2 0.299943 0.060982 0.707758
O O3 0.076306 0.102044 0.766095
O O4 0.106975 0.016508 0.684636
O O5 0.750000 0.024218 0.500000
O O6 0.746348 0.053365 0.253155
O O7 0.956767 0.058500 0.388179
O O8 0.859380 0.130347 0.812813
O O9 0.964218 0.166777 0.598777
O O10 0.052836 0.184039 0.838089
O O11 0.376422 0.621030 0.825819
O O12 0.250000 0.578652 0.000000
O O13 0.888258 0.750000 0.000000
O O14 0.750000 0.820587 0.000000
O O15 0.975140 0.819392 0.900244
O O16 0.920207 0.869582 0.690320
O O17 0.418892 0.810099 0.334112
O O18 0.058993 0.750000 0.500000
O O19 0.250000 0.693864 0.500000
#
# Coordination Sequence:
#
# PCOD8205314 Si02
#       8
#     8   8   8   8   8   8   8   8
#     4  11  22  37  62  95 124 163 212 267 315 391
#     4  11  23  38  67  94 125 168 215 272 326 379
#     4  12  23  42  69  95 130 179 216 268 333 398
#     4  11  24  42  63  93 129 170 215 265 324 395
#     4  11  25  45  67  93 130 178 227 268 324 400
#     4  10  21  36  59  91 128 157 209 261 318 377
#     4  11  21  42  64  90 131 168 208 271 326 383
#     4  11  23  38  62 101 135 162 212 276 339 396
#
# _framework density 19.858858999999999
#
# number of rings (size 3 to 8) (size 9 to 14) (size 15 to 20)
#    0.000    1.000    5.000    2.625    3.500    0.000 
#    0.000    3.125    0.000    3.000    0.000    0.000 
#    0.000    0.000    0.000    0.000    0.000    0.000 
#
# Total GULP energy -792932.506750 kJ/mol
# GULP energy per Si atom -12389.570418 kJ/mol
# Density = 1.981366 g / cm^3
# Si number density = 19.858859 Si / 1000 Ang^3
#
#
#
# Elastic Constant Matrix: (Units=GPa)
#
#
# Indices 1 2 3 4 5 6 
#
# 1 73.7868 19.7420 20.7649 0.0000 0.0000 0.0000
# 2 19.7420 94.5854 37.8124 0.0000 0.0000 0.0000
# 3 20.7649 37.8124 98.7971 0.0000 0.0000 0.0000
# 4 0.0000 0.0000 0.0000 28.1986 0.0000 0.0000
# 5 0.0000 0.0000 0.0000 0.0000 26.4451 0.0000
# 6 0.0000 0.0000 0.0000 0.0000 0.0000 18.3745
#
#
#
# Elastic Compliance Matrix: (Units=1/GPa)
#
#
# Indices 1 2 3 4 5 6 
#
# 1 0.014774 -0.002175 -0.002273 0.000000 0.000000 0.000000
# 2 -0.002175 0.012803 -0.004443 0.000000 0.000000 0.000000
# 3 -0.002273 -0.004443 0.012300 0.000000 0.000000 0.000000
# 4 0.000000 0.000000 0.000000 0.035463 0.000000 0.000000
# 5 0.000000 0.000000 0.000000 0.000000 0.037814 0.000000
# 6 0.000000 0.000000 0.000000 0.000000 0.000000 0.054423
#
#
# Mechanical properties :
#
#
# Convention : Reuss Voigt Hill
#
# Bulk Modulus (GPa) = 45.25845 47.08976 46.17410
# Shear Modulus (GPa) = 25.94403 27.19365 26.56884
#
# Velocity S-wave (km/s) = 3.61837 3.70448 3.66168
# Velocity P-wave (km/s) = 6.34794 6.48547 6.41707
#
# Compressibility (1/GPa) = 0.02209532
#
# Stress axis : x y z
#
# Youngs Moduli (GPa) = 67.68606 78.10964 81.30228
#
# Poissons Ratio (x) = 0.16990 0.18478
# Poissons Ratio (y) = 0.14723 0.36120
# Poissons Ratio (z) = 0.15383 0.34702
#
# Static dielectric constant tensor:
#      x y z
#    x 4.000750 0.000000 0.000000 
#    y 0.000000 3.881980 0.000000 
#    z 0.000000 0.000000 3.669380 
# 
# 
# High freq. dielectric constant tensor:
#      x y z
#    x 1.788060 0.000000 0.000000 
#    y 0.000000 1.778310 0.000000 
#    z 0.000000 0.000000 1.765120 
# 
# From -- ./inp_files/11843.got.cif
#   From: 2010.03.12/outbox.cif.g09.slc.cpg/sg50_6_cif.got.tgz:11843.got - 2010.04.16 13:23:21.
