data_PCOD8205928
_publ_section_title
;
Structure prediction by ZEFSAII (Michael W. Deem and Ramdas Pophale) SiO2 
 PCOD8205928
Probable space group: P M M A
;
_chemical_formula_sum "Si O2"
_cell_formula_units_Z 40
_cell_length_a 8.651935
_cell_length_b 26.283410
_cell_length_c 9.942503
_cell_angle_alpha 90.000000
_cell_angle_beta 90.000000
_cell_angle_gamma 90.000000
_cell_volume 2260.948596
_symmetry_space_group_name_H-M "P M M A"
_symmetry_group_IT_number 51
_symmetry_cell_setting 'orthorhombic'
loop_
_space_group_symop_operation_xyz
x,y,z
1/2-x,-y,z
1/2+x,-y,-z
-x,y,-z
-x,-y,-z
1/2+x,y,-z
1/2-x,y,z
x,-y,z
loop_
_atom_site_type_symbol
_atom_site_label
_atom_site_fract_x
_atom_site_fract_y
_atom_site_fract_z
Si Si1 0.066565 0.743535 0.149587
Si Si2 0.932351 0.442748 0.359731
Si Si3 0.566608 0.640185 0.147734
Si Si4 0.432535 0.155060 0.849919
Si Si5 0.569784 0.055141 0.852757
O O1 0.250000 0.743316 0.149564
O O2 0.001751 0.691742 0.215933
O O3 0.003427 0.794725 0.223495
O O4 0.000000 0.744187 0.000000
O O5 0.750000 0.441395 0.371482
O O6 0.991978 0.500000 0.329527
O O7 0.989284 0.406522 0.239789
O O8 0.000000 0.422499 0.500000
O O9 0.750000 0.644810 0.139030
O O10 0.500000 0.630502 0.000000
O O11 0.250000 0.159599 0.851491
O O12 0.486295 0.102519 0.775701
O O13 0.500000 0.152444 0.000000
O O14 0.750000 0.067694 0.863794
O O15 0.542840 0.000000 0.779893
O O16 0.500000 0.050657 0.000000
#
# Coordination Sequence:
#
# PCOD8205928 Si02
#       5
#     8   8   8   8   8
#     4  10  17  26  39  55  77 104 136 173 216 263
#     4   9  19  35  53  72  95 123 154 187 223 267
#     4  10  19  31  47  69  95 120 150 188 228 269
#     4  10  16  22  32  45  64  91 125 165 210 257
#     4   9  15  21  28  39  57  83 119 163 207 250
#
# _framework density 17.691689
#
# number of rings (size 3 to 8) (size 9 to 14) (size 15 to 20)
#    0.000    2.400    0.000    8.400    0.000    3.200 
#    0.000    0.000    0.000    0.000    0.000    0.000 
#    0.000    0.000    0.000    0.000    0.000    1.000 
#
# Total GULP energy -495579.220533 kJ/mol
# GULP energy per Si atom -12389.480513 kJ/mol
# Density = 1.765142 g / cm^3
# Si number density = 17.691689 Si / 1000 Ang^3
#
#
#
# Elastic Constant Matrix: (Units=GPa)
#
#
# Indices 1 2 3 4 5 6 
#
# 1 122.4636 65.2158 22.2104 0.0000 0.0000 0.0000
# 2 65.2158 185.2982 51.1677 0.0000 0.0000 0.0000
# 3 22.2104 51.1677 38.9655 0.0000 0.0000 0.0000
# 4 0.0000 0.0000 0.0000 0.8352 0.0000 0.0000
# 5 0.0000 0.0000 0.0000 0.0000 12.8993 0.0000
# 6 0.0000 0.0000 0.0000 0.0000 0.0000 29.8920
#
#
#
# Elastic Compliance Matrix: (Units=1/GPa)
#
#
# Indices 1 2 3 4 5 6 
#
# 1 0.010121 -0.003089 -0.001712 0.000000 0.000000 0.000000
# 2 -0.003089 0.009410 -0.010596 0.000000 0.000000 0.000000
# 3 -0.001712 -0.010596 0.040554 0.000000 0.000000 0.000000
# 4 0.000000 0.000000 0.000000 1.197346 0.000000 0.000000
# 5 0.000000 0.000000 0.000000 0.000000 0.077523 0.000000
# 6 0.000000 0.000000 0.000000 0.000000 0.000000 0.033454
#
#
# Mechanical properties :
#
#
# Convention : Reuss Voigt Hill
#
# Bulk Modulus (GPa) = 34.14133 69.32389 51.73261
# Shear Modulus (GPa) = 3.54870 22.60087 13.07478
#
# Velocity S-wave (km/s) = 1.41782 3.57807 2.72147
# Velocity P-wave (km/s) = 4.69256 7.50597 6.25938
#
# Compressibility (1/GPa) = 0.02929001
#
# Stress axis : x y z
#
# Youngs Moduli (GPa) = 98.80004 106.27131 24.65873
#
# Poissons Ratio (x) = 0.32831 0.04223
# Poissons Ratio (y) = 0.30523 0.26128
# Poissons Ratio (z) = 0.16918 1.12602
#
# Static dielectric constant tensor:
#      x y z
#    x 3.352890 0.000000 0.000000 
#    y 0.000000 5.148530 0.000000 
#    z 0.000000 0.000000 2.612230 
# 
# 
# High freq. dielectric constant tensor:
#      x y z
#    x 1.701110 0.000000 0.000000 
#    y 0.000000 1.723750 0.000000 
#    z 0.000000 0.000000 1.583110 
# 
# From -- ./inp_files/14520.got.cif
#   From: 2010.03.12/outbox.cif.g09.slc.cpg/sg51_8_cif.got.tgz:14520.got - 2010.04.16 13:43:02.
