data_PCOD8205308
_publ_section_title
;
Structure prediction by ZEFSAII (Michael W. Deem and Ramdas Pophale) SiO2 
 PCOD8205308
Probable space group: P B A N
;
_chemical_formula_sum "Si O2"
_cell_formula_units_Z 56
_cell_length_a 15.585176
_cell_length_b 18.025010
_cell_length_c 10.086201
_cell_angle_alpha 90.000000
_cell_angle_beta 90.000000
_cell_angle_gamma 90.000000
_cell_volume 2833.445372
_symmetry_space_group_name_H-M "P B A N"
_symmetry_group_IT_number 50
_space_group.IT_coordinate_system_code '2'
_symmetry_cell_setting 'orthorhombic'
loop_
_space_group_symop_operation_xyz
x,y,z
1/2-x,1/2-y,z
x,1/2-y,-z
1/2-x,y,-z
-x,-y,-z
1/2+x,1/2+y,-z
-x,1/2+y,z
1/2+x,-y,z
loop_
_atom_site_type_symbol
_atom_site_label
_atom_site_fract_x
_atom_site_fract_y
_atom_site_fract_z
Si Si1 0.792092 0.477763 0.853830
Si Si2 0.986835 0.055664 0.150708
Si Si3 0.963136 0.101898 0.872135
Si Si4 0.280159 0.827674 0.850682
Si Si5 0.938786 0.657568 0.361317
Si Si6 0.076147 0.326041 0.341674
Si Si7 0.252264 0.396620 0.350653
O O1 0.894143 0.482772 0.860874
O O2 0.768422 0.398096 0.787834
O O3 0.757530 0.539438 0.756107
O O4 0.750000 0.486003 0.000000
O O5 0.996655 0.104483 0.282052
O O6 0.997415 0.110032 0.023392
O O7 0.054981 0.986784 0.150558
O O8 0.881751 0.154959 0.844787
O O9 0.037952 0.124417 0.773502
O O10 0.250000 0.750000 0.779426
O O11 0.250000 0.820946 0.000000
O O12 0.956560 0.643445 0.516349
O O13 0.955329 0.742396 0.322436
O O14 0.841724 0.641912 0.319490
O O15 0.179146 0.333609 0.336479
O O16 0.250000 0.430081 0.500000
#
# Coordination Sequence:
#
# PCOD8205308 Si02
#       7
#     8   8   8   8   8   8   8
#     4  11  21  41  60  87 123 157 206 254 299 364
#     4  11  23  39  60  94 121 159 203 258 308 355
#     4  11  22  39  61  90 122 155 209 252 301 360
#     4  10  21  36  58  82 114 161 200 240 294 360
#     4  10  23  39  64  88 124 159 198 252 306 367
#     4  10  22  41  61  93 121 158 199 252 307 366
#     4  10  21  41  64  89 119 160 201 243 308 374
#
# _framework density 19.763923999999999
#
# number of rings (size 3 to 8) (size 9 to 14) (size 15 to 20)
#    0.000    1.571    4.286    1.286    4.000    2.857 
#    2.571    0.000    0.000    3.000    0.000    0.000 
#    0.000    0.000    0.000    0.000    0.000    0.000 
#
# Total GULP energy -694100.284128 kJ/mol
# GULP energy per Si atom -12394.647931 kJ/mol
# Density = 1.971894 g / cm^3
# Si number density = 19.763924 Si / 1000 Ang^3
#
#
#
# Elastic Constant Matrix: (Units=GPa)
#
#
# Indices 1 2 3 4 5 6 
#
# 1 86.4893 30.0372 42.5563 0.0000 0.0000 0.0000
# 2 30.0372 83.8111 41.1013 0.0000 0.0000 0.0000
# 3 42.5563 41.1013 99.6155 0.0000 0.0000 0.0000
# 4 0.0000 0.0000 0.0000 32.5184 0.0000 0.0000
# 5 0.0000 0.0000 0.0000 0.0000 27.2553 0.0000
# 6 0.0000 0.0000 0.0000 0.0000 0.0000 32.4904
#
#
#
# Elastic Compliance Matrix: (Units=1/GPa)
#
#
# Indices 1 2 3 4 5 6 
#
# 1 0.015156 -0.002829 -0.005308 0.000000 0.000000 0.000000
# 2 -0.002829 0.015486 -0.005181 0.000000 0.000000 0.000000
# 3 -0.005308 -0.005181 0.014444 0.000000 0.000000 0.000000
# 4 0.000000 0.000000 0.000000 0.030752 0.000000 0.000000
# 5 0.000000 0.000000 0.000000 0.000000 0.036690 0.000000
# 6 0.000000 0.000000 0.000000 0.000000 0.000000 0.030778
#
#
# Mechanical properties :
#
#
# Convention : Reuss Voigt Hill
#
# Bulk Modulus (GPa) = 54.19779 55.25615 54.72697
# Shear Modulus (GPa) = 28.39427 28.86757 28.63092
#
# Velocity S-wave (km/s) = 3.79446 3.82595 3.81024
# Velocity P-wave (km/s) = 6.83223 6.89463 6.86350
#
# Compressibility (1/GPa) = 0.01845094
#
# Stress axis : x y z
#
# Youngs Moduli (GPa) = 65.97980 64.57325 69.23429
#
# Poissons Ratio (x) = 0.18268 0.36746
# Poissons Ratio (y) = 0.18666 0.35871
# Poissons Ratio (z) = 0.35019 0.33456
#
# Static dielectric constant tensor:
#      x y z
#    x 3.573460 0.000000 0.000000 
#    y 0.000000 4.127270 0.000000 
#    z 0.000000 0.000000 3.544540 
# 
# 
# High freq. dielectric constant tensor:
#      x y z
#    x 1.770760 0.000000 0.000000 
#    y 0.000000 1.774600 0.000000 
#    z 0.000000 0.000000 1.755340 
# 
# From -- ./inp_files/13295.got.cif
#   From: 2010.03.12/outbox.cif.g09.slc.cpg/sg50_7_cif.got.tgz:13295.got - 2010.04.16 13:23:21.
