data_PCOD8205148
_publ_section_title
;
Structure prediction by ZEFSAII (Michael W. Deem and Ramdas Pophale) SiO2 
 PCOD8205148
Probable space group: P B A N
;
_chemical_formula_sum "Si O2"
_cell_formula_units_Z 64
_cell_length_a 30.800175
_cell_length_b 8.809114
_cell_length_c 11.890527
_cell_angle_alpha 90.000000
_cell_angle_beta 90.000000
_cell_angle_gamma 90.000000
_cell_volume 3226.164573
_symmetry_space_group_name_H-M "P B A N"
_symmetry_group_IT_number 50
_space_group.IT_coordinate_system_code '2'
_symmetry_cell_setting 'orthorhombic'
loop_
_space_group_symop_operation_xyz
x,y,z
1/2-x,1/2-y,z
x,1/2-y,-z
1/2-x,y,-z
-x,-y,-z
1/2+x,1/2+y,-z
-x,1/2+y,z
1/2+x,-y,z
loop_
_atom_site_type_symbol
_atom_site_label
_atom_site_fract_x
_atom_site_fract_y
_atom_site_fract_z
Si Si1 0.376517 0.573866 0.868718
Si Si2 0.425495 0.430169 0.500000
Si Si3 0.799250 0.573150 0.740570
Si Si4 0.455692 0.070619 0.260158
Si Si5 0.455693 0.070621 0.739843
Si Si6 0.876517 0.073865 0.868719
Si Si7 0.828430 0.929813 0.500000
Si Si8 0.299251 0.073152 0.740570
O O1 0.330282 0.522170 0.820906
O O2 0.415196 0.479943 0.813614
O O3 0.383617 0.750001 0.842373
O O4 0.376709 0.538982 0.999999
O O5 0.422779 0.250000 0.500000
O O6 0.449848 0.488242 0.611580
O O7 0.449848 0.488243 0.388419
O O8 0.376949 0.498047 0.500000
O O9 0.803864 0.514515 0.612014
O O10 0.750000 0.545768 0.780348
O O11 0.812122 0.749999 0.749027
O O12 0.459035 0.249999 0.254095
O O13 0.500000 0.999998 0.211292
O O14 0.415197 0.020059 0.813617
O O15 0.830283 0.022167 0.820906
O O16 0.829818 0.750000 0.500000
O O17 0.803864 0.985482 0.612014
#
# Coordination Sequence:
#
# PCOD8205148 Si02
#       8
#     8   8   8   8   8   8   8   8
#     4  11  25  43  60  81 114 157 202 247 294 341
#     4   9  17  32  59  90 121 154 186 229 287 347
#     4  10  20  36  62  92 120 153 193 238 290 349
#     4  11  22  39  63  91 121 153 191 236 289 349
#     4  11  22  39  63  91 121 153 191 236 289 349
#     4  11  25  43  60  81 114 157 202 247 294 341
#     4   9  15  31  58  90 122 152 186 230 289 349
#     4  10  20  36  62  92 120 153 193 238 290 349
#
# _framework density 19.837796999999998
#
# number of rings (size 3 to 8) (size 9 to 14) (size 15 to 20)
#    0.000    1.750    2.500    2.250    0.000    5.000 
#    0.000    6.250    0.000    1.500    0.000    0.000 
#    0.000    0.000    0.000    0.000    0.000    0.000 
#
# Total GULP energy -793722.431036 kJ/mol
# GULP energy per Si atom -12401.912985 kJ/mol
# Density = 1.979264 g / cm^3
# Si number density = 19.837797 Si / 1000 Ang^3
#
#
#
# Elastic Constant Matrix: (Units=GPa)
#
#
# Indices 1 2 3 4 5 6 
#
# 1 134.6514 40.1417 51.3100 0.0000 0.0000 0.0000
# 2 40.1417 66.7193 51.4847 0.0000 0.0000 0.0000
# 3 51.3100 51.4847 114.3584 0.0000 0.0000 0.0000
# 4 0.0000 0.0000 0.0000 24.0303 0.0000 0.0000
# 5 0.0000 0.0000 0.0000 0.0000 0.9664 0.0000
# 6 0.0000 0.0000 0.0000 0.0000 0.0000 32.6112
#
#
#
# Elastic Compliance Matrix: (Units=1/GPa)
#
#
# Indices 1 2 3 4 5 6 
#
# 1 0.009527 -0.003729 -0.002596 0.000000 0.000000 0.000000
# 2 -0.003729 0.024427 -0.009324 0.000000 0.000000 0.000000
# 3 -0.002596 -0.009324 0.014107 0.000000 0.000000 0.000000
# 4 0.000000 0.000000 0.000000 0.041614 0.000000 0.000000
# 5 0.000000 0.000000 0.000000 0.000000 1.034788 0.000000
# 6 0.000000 0.000000 0.000000 0.000000 0.000000 0.030664
#
#
# Mechanical properties :
#
#
# Convention : Reuss Voigt Hill
#
# Bulk Modulus (GPa) = 59.65422 66.84467 63.24944
# Shear Modulus (GPa) = 4.19459 23.04108 13.61784
#
# Velocity S-wave (km/s) = 1.45569 3.41174 2.62288
# Velocity P-wave (km/s) = 5.74122 7.02059 6.41289
#
# Compressibility (1/GPa) = 0.01676327
#
# Stress axis : x y z
#
# Youngs Moduli (GPa) = 104.95974 40.93897 70.88767
#
# Poissons Ratio (x) = 0.15266 0.18402
# Poissons Ratio (y) = 0.39140 0.66095
# Poissons Ratio (z) = 0.27247 0.38171
#
# Static dielectric constant tensor:
#      x y z
#    x 3.668240 0.000000 0.000000 
#    y 0.000000 3.349810 0.000000 
#    z 0.000000 0.000000 3.723050 
# 
# 
# High freq. dielectric constant tensor:
#      x y z
#    x 1.788620 0.000000 0.000000 
#    y 0.000000 1.748700 0.000000 
#    z 0.000000 0.000000 1.774230 
# 
# From -- ./inp_files/23428.got.cif
#   From: 2010.03.12/outbox.cif.g09.slc.cpg/sg50_12_cif.got.tgz:23428.got - 2010.04.16 13:23:21.
