data_PCOD8205180
_publ_section_title
;
Structure prediction by ZEFSAII (Michael W. Deem and Ramdas Pophale) SiO2 
 PCOD8205180
Probable space group: P B A N
;
_chemical_formula_sum "Si O2"
_cell_formula_units_Z 42
_cell_length_a 10.234123
_cell_length_b 25.161042
_cell_length_c 7.499114
_cell_angle_alpha 90.000000
_cell_angle_beta 90.000000
_cell_angle_gamma 90.000000
_cell_volume 1931.030844
_symmetry_space_group_name_H-M "P B A N"
_symmetry_group_IT_number 50
_space_group.IT_coordinate_system_code '2'
_symmetry_cell_setting 'orthorhombic'
loop_
_space_group_symop_operation_xyz
x,y,z
1/2-x,1/2-y,z
x,1/2-y,-z
1/2-x,y,-z
-x,-y,-z
1/2+x,1/2+y,-z
-x,1/2+y,z
1/2+x,-y,z
loop_
_atom_site_type_symbol
_atom_site_label
_atom_site_fract_x
_atom_site_fract_y
_atom_site_fract_z
Si Si1 0.584019 0.655684 0.682351
Si Si2 0.750000 0.250000 0.500000
Si Si3 0.872031 0.838602 0.273222
Si Si4 0.104428 0.455905 0.198494
Si Si5 0.602841 0.961013 0.221191
Si Si6 0.068162 0.754147 0.193882
O O1 0.611978 0.671922 0.481205
O O2 0.720764 0.662965 0.788684
O O3 0.541281 0.594439 0.708742
O O4 0.471006 0.694243 0.752631
O O5 0.842024 0.219539 0.646566
O O6 0.936682 0.895064 0.227917
O O7 0.943872 0.792022 0.165912
O O8 0.246875 0.467363 0.289519
O O9 0.994458 0.492885 0.292229
O O10 0.108593 0.465770 0.989954
O O11 0.138510 0.750000 0.000000
#
# Coordination Sequence:
#
# PCOD8205180 Si02
#       6
#     8   2   8   8   8   8
#     4  10  20  37  62  90 121 153 200 261 312 363
#     4  12  26  48  58  86 132 164 202 254 284 380
#     4  10  20  37  62  90 121 153 200 261 312 363
#     4   9  18  34  54  81 116 155 204 257 307 365
#     4   9  18  34  54  81 116 155 204 257 307 365
#     4  12  24  42  66  89 121 164 202 248 311 363
#
# _framework density 21.750039999999998
#
# number of rings (size 3 to 8) (size 9 to 14) (size 15 to 20)
#    0.000    1.905    1.905    2.000    0.000    5.333 
#    3.429    0.000    0.000    0.000    0.000    0.000 
#    0.000    0.000    0.000    0.000    0.000    0.000 
#
# Total GULP energy -520390.187050 kJ/mol
# GULP energy per Si atom -12390.242549 kJ/mol
# Density = 2.170054 g / cm^3
# Si number density = 21.750040 Si / 1000 Ang^3
#
#
#
# Elastic Constant Matrix: (Units=GPa)
#
#
# Indices 1 2 3 4 5 6 
#
# 1 84.8422 50.2356 14.4898 0.0000 0.0000 0.0000
# 2 50.2356 119.2533 -0.3909 0.0000 0.0000 0.0000
# 3 14.4898 -0.3909 79.5279 0.0000 0.0000 0.0000
# 4 0.0000 0.0000 0.0000 18.7905 0.0000 0.0000
# 5 0.0000 0.0000 0.0000 0.0000 12.4391 0.0000
# 6 0.0000 0.0000 0.0000 0.0000 0.0000 23.4545
#
#
#
# Elastic Compliance Matrix: (Units=1/GPa)
#
#
# Indices 1 2 3 4 5 6 
#
# 1 0.016399 -0.006918 -0.003022 0.000000 0.000000 0.000000
# 2 -0.006918 0.011304 0.001316 0.000000 0.000000 0.000000
# 3 -0.003022 0.001316 0.013131 0.000000 0.000000 0.000000
# 4 0.000000 0.000000 0.000000 0.053218 0.000000 0.000000
# 5 0.000000 0.000000 0.000000 0.000000 0.080392 0.000000
# 6 0.000000 0.000000 0.000000 0.000000 0.000000 0.042636
#
#
# Mechanical properties :
#
#
# Convention : Reuss Voigt Hill
#
# Bulk Modulus (GPa) = 42.39707 45.81029 44.10368
# Shear Modulus (GPa) = 20.64497 25.55607 23.10052
#
# Velocity S-wave (km/s) = 3.08424 3.43153 3.26251
# Velocity P-wave (km/s) = 5.67614 6.06699 5.87482
#
# Compressibility (1/GPa) = 0.02358653
#
# Stress axis : x y z
#
# Youngs Moduli (GPa) = 60.97997 88.46414 76.15423
#
# Poissons Ratio (x) = 0.61199 0.23013
# Poissons Ratio (y) = 0.42186 -0.10022
# Poissons Ratio (z) = 0.18427 -0.11642
#
# Static dielectric constant tensor:
#      x y z
#    x 4.356270 0.000000 0.000000 
#    y 0.000000 3.798390 0.000000 
#    z 0.000000 0.000000 3.908940 
# 
# 
# High freq. dielectric constant tensor:
#      x y z
#    x 1.846450 0.000000 0.000000 
#    y 0.000000 1.837360 0.000000 
#    z 0.000000 0.000000 1.858760 
# 
# From -- ./inp_files/11486.got.cif
#   From: 2010.03.12/outbox.cif.g09.slc.cpg/sg50_6_cif.got.tgz:11486.got - 2010.04.16 13:23:21.
