data_PCOD8205587
_publ_section_title
;
Structure prediction by ZEFSAII (Michael W. Deem and Ramdas Pophale) SiO2 
 PCOD8205587
Probable space group: P B A N
;
_chemical_formula_sum "Si O2"
_cell_formula_units_Z 34
_cell_length_a 28.570407
_cell_length_b 9.114072
_cell_length_c 5.420008
_cell_angle_alpha 90.000000
_cell_angle_beta 90.000000
_cell_angle_gamma 90.000000
_cell_volume 1411.330769
_symmetry_space_group_name_H-M "P B A N"
_symmetry_group_IT_number 50
_space_group.IT_coordinate_system_code '2'
_symmetry_cell_setting 'orthorhombic'
loop_
_space_group_symop_operation_xyz
x,y,z
1/2-x,1/2-y,z
x,1/2-y,-z
1/2-x,y,-z
-x,-y,-z
1/2+x,1/2+y,-z
-x,1/2+y,z
1/2+x,-y,z
loop_
_atom_site_type_symbol
_atom_site_label
_atom_site_fract_x
_atom_site_fract_y
_atom_site_fract_z
Si Si1 0.250000 0.750000 0.500000
Si Si2 0.776444 0.976210 0.744308
Si Si3 0.423556 0.750000 0.500000
Si Si4 0.561658 0.750000 0.500000
Si Si5 0.883164 0.522772 0.210467
Si Si6 0.542681 0.488762 0.181669
O O1 0.280481 0.650011 0.314324
O O2 0.750000 0.903960 0.500000
O O3 0.829281 0.928341 0.792873
O O4 0.750000 0.939594 0.000000
O O5 0.391625 0.878288 0.620553
O O6 0.458481 0.671418 0.692693
O O7 0.593010 0.670971 0.701405
O O8 0.532158 0.620401 0.371798
O O9 0.905493 0.496276 0.940754
O O10 0.500000 0.500000 0.000000
#
# Coordination Sequence:
#
# PCOD8205587 Si02
#       6
#     2   8   4   4   8   8
#     4   8  20  36  60  98 138 180 244 306 372 432
#     4  10  23  39  67 101 143 190 249 310 374 444
#     4  10  25  43  73 106 146 182 249 302 366 448
#     4  10  26  47  72 100 148 188 240 308 369 448
#     4  11  24  44  73 103 145 190 244 306 377 443
#     4  11  26  47  73 107 145 194 246 304 377 451
#
# _framework density 24.09074
#
# number of rings (size 3 to 8) (size 9 to 14) (size 15 to 20)
#    0.706    0.941    0.000    2.471    6.588   11.294 
#    0.000    4.118    0.000    0.000    0.000    0.000 
#    0.000    0.000    0.000    0.000    0.000    0.000 
#
# Total GULP energy -421201.511147 kJ/mol
# GULP energy per Si atom -12388.279740 kJ/mol
# Density = 2.403591 g / cm^3
# Si number density = 24.090740 Si / 1000 Ang^3
#
#
#
# Elastic Constant Matrix: (Units=GPa)
#
#
# Indices 1 2 3 4 5 6 
#
# 1 143.7445 18.7990 55.5214 0.0000 0.0000 0.0000
# 2 18.7990 105.9978 24.0294 0.0000 0.0000 0.0000
# 3 55.5214 24.0294 145.2534 0.0000 0.0000 0.0000
# 4 0.0000 0.0000 0.0000 28.7219 0.0000 0.0000
# 5 0.0000 0.0000 0.0000 0.0000 36.5226 0.0000
# 6 0.0000 0.0000 0.0000 0.0000 0.0000 -20.3255
#
#
#
# Elastic Compliance Matrix: (Units=1/GPa)
#
#
# Indices 1 2 3 4 5 6 
#
# 1 0.008223 -0.000775 -0.003015 0.000000 0.000000 0.000000
# 2 -0.000775 0.009875 -0.001337 0.000000 0.000000 0.000000
# 3 -0.003015 -0.001337 0.008258 0.000000 0.000000 0.000000
# 4 0.000000 0.000000 0.000000 0.034817 0.000000 0.000000
# 5 0.000000 0.000000 0.000000 0.000000 0.027380 0.000000
# 6 0.000000 0.000000 0.000000 0.000000 0.000000 -0.049199
#
#
# Mechanical properties :
#
#
# Convention : Reuss Voigt Hill
#
# Bulk Modulus (GPa) = 62.10651 65.74390 63.92521
# Shear Modulus (GPa) = 90.95137 28.76019 59.85578
#
# Velocity S-wave (km/s) = 6.15107 3.45893 4.98998
# Velocity P-wave (km/s) = 8.73405 6.58040 7.73257
#
# Compressibility (1/GPa) = 0.01610137
#
# Stress axis : x y z
#
# Youngs Moduli (GPa) = 121.61616 101.26818 121.09258
#
# Poissons Ratio (x) = 0.07847 0.36507
# Poissons Ratio (y) = 0.09423 0.16195
# Poissons Ratio (z) = 0.36665 0.13544
#
# Static dielectric constant tensor:
#      x y z
#    x 4.034550 0.000000 0.000000 
#    y 0.000000 4.229830 0.000000 
#    z 0.000000 0.000000 4.832200 
# 
# 
# High freq. dielectric constant tensor:
#      x y z
#    x 1.943450 0.000000 0.000000 
#    y 0.000000 1.964890 0.000000 
#    z 0.000000 0.000000 1.965700 
# 
# From -- ./inp_files/7028.got.cif
#   From: 2010.03.12/outbox.cif.g09.slc.cpg/sg50_4_cif.got.tgz:7028.got - 2010.04.16 13:23:21.
