data_PCOD8205970
_publ_section_title
;
Structure prediction by ZEFSAII (Michael W. Deem and Ramdas Pophale) SiO2 
 PCOD8205970
Probable space group: P M M A
;
_chemical_formula_sum "Si O2"
_cell_formula_units_Z 28
_cell_length_a 8.577110
_cell_length_b 17.894000
_cell_length_c 9.899957
_cell_angle_alpha 90.000000
_cell_angle_beta 90.000000
_cell_angle_gamma 90.000000
_cell_volume 1519.433583
_symmetry_space_group_name_H-M "P M M A"
_symmetry_group_IT_number 51
_symmetry_cell_setting 'orthorhombic'
loop_
_space_group_symop_operation_xyz
x,y,z
1/2-x,-y,z
1/2+x,-y,-z
-x,y,-z
-x,-y,-z
1/2+x,y,-z
1/2-x,y,z
x,-y,z
loop_
_atom_site_type_symbol
_atom_site_label
_atom_site_fract_x
_atom_site_fract_y
_atom_site_fract_z
Si Si1 0.566668 0.801613 0.648437
Si Si2 0.934446 0.649897 0.349347
Si Si3 0.934333 0.500000 0.651230
Si Si4 0.069449 0.087555 0.857233
O O1 0.500000 0.816394 0.500000
O O2 0.750000 0.791140 0.637390
O O3 0.493375 0.726920 0.718424
O O4 0.524905 0.872134 0.739449
O O5 0.750000 0.645827 0.348481
O O6 0.000000 0.652071 0.500000
O O7 0.002693 0.575496 0.275321
O O8 0.750000 0.500000 0.650090
O O9 0.000000 0.500000 0.500000
O O10 0.250000 0.110007 0.851020
O O11 0.044118 0.000000 0.835083
O O12 0.000000 0.113397 0.000000
#
# Coordination Sequence:
#
# PCOD8205970 Si02
#       4
#     8   8   4   8
#     4  11  21  34  52  76 106 138 172 213 260 307
#     4  10  17  27  42  64  95 130 167 207 252 300
#     4  10  16  24  38  60  91 128 167 204 247 298
#     4  10  21  38  58  79 103 133 170 211 255 306
#
# _framework density 18.427918999999999
#
# number of rings (size 3 to 8) (size 9 to 14) (size 15 to 20)
#    0.000    1.714    0.000   10.714    0.000    2.286 
#    0.000    0.000    0.000    0.000    0.000    1.000 
#    0.000    0.000    0.000    0.000    0.000    0.000 
#
# Total GULP energy -347128.057957 kJ/mol
# GULP energy per Si atom -12397.430641 kJ/mol
# Density = 1.838598 g / cm^3
# Si number density = 18.427919 Si / 1000 Ang^3
#
#
#
# Elastic Constant Matrix: (Units=GPa)
#
#
# Indices 1 2 3 4 5 6 
#
# 1 184.0367 52.9409 33.0737 0.0000 0.0000 0.0000
# 2 52.9409 99.3499 45.6301 0.0000 0.0000 0.0000
# 3 33.0737 45.6301 58.8651 0.0000 0.0000 0.0000
# 4 0.0000 0.0000 0.0000 6.5270 0.0000 0.0000
# 5 0.0000 0.0000 0.0000 0.0000 23.0225 0.0000
# 6 0.0000 0.0000 0.0000 0.0000 0.0000 38.0338
#
#
#
# Elastic Compliance Matrix: (Units=1/GPa)
#
#
# Indices 1 2 3 4 5 6 
#
# 1 0.006502 -0.002775 -0.001502 0.000000 0.000000 0.000000
# 2 -0.002775 0.016814 -0.011475 0.000000 0.000000 0.000000
# 3 -0.001502 -0.011475 0.026727 0.000000 0.000000 0.000000
# 4 0.000000 0.000000 0.000000 0.153209 0.000000 0.000000
# 5 0.000000 0.000000 0.000000 0.000000 0.043436 0.000000
# 6 0.000000 0.000000 0.000000 0.000000 0.000000 0.026292
#
#
# Mechanical properties :
#
#
# Convention : Reuss Voigt Hill
#
# Bulk Modulus (GPa) = 53.93898 67.28235 60.61067
# Shear Modulus (GPa) = 16.09458 27.55713 21.82586
#
# Velocity S-wave (km/s) = 2.95851 3.87124 3.44523
# Velocity P-wave (km/s) = 6.40345 7.52146 6.98486
#
# Compressibility (1/GPa) = 0.01853947
#
# Stress axis : x y z
#
# Youngs Moduli (GPa) = 153.80222 59.47341 37.41545
#
# Poissons Ratio (x) = 0.16502 0.05621
# Poissons Ratio (y) = 0.42676 0.42934
# Poissons Ratio (z) = 0.23105 0.68245
#
# Static dielectric constant tensor:
#      x y z
#    x 3.544770 0.000000 0.000000 
#    y 0.000000 4.593660 0.000000 
#    z 0.000000 0.000000 2.855960 
# 
# 
# High freq. dielectric constant tensor:
#      x y z
#    x 1.741190 0.000000 0.000000 
#    y 0.000000 1.741520 0.000000 
#    z 0.000000 0.000000 1.645670 
# 
# From -- ./inp_files/4657.got.cif
#   From: 2010.03.12/outbox.cif.g09.slc.cpg/sg51_3_cif.got.tgz:4657.got - 2010.04.16 13:43:02.
