data_PCOD8205805
_publ_section_title
;
Structure prediction by ZEFSAII (Michael W. Deem and Ramdas Pophale) SiO2 
 PCOD8205805
Probable space group: P B A N
;
_chemical_formula_sum "Si O2"
_cell_formula_units_Z 64
_cell_length_a 17.276029
_cell_length_b 20.038768
_cell_length_c 9.210821
_cell_angle_alpha 90.000000
_cell_angle_beta 90.000000
_cell_angle_gamma 90.000000
_cell_volume 3188.697227
_symmetry_space_group_name_H-M "P B A N"
_symmetry_group_IT_number 50
_space_group.IT_coordinate_system_code '2'
_symmetry_cell_setting 'orthorhombic'
loop_
_space_group_symop_operation_xyz
x,y,z
1/2-x,1/2-y,z
x,1/2-y,-z
1/2-x,y,-z
-x,-y,-z
1/2+x,1/2+y,-z
-x,1/2+y,z
1/2+x,-y,z
loop_
_atom_site_type_symbol
_atom_site_label
_atom_site_fract_x
_atom_site_fract_y
_atom_site_fract_z
Si Si1 0.784669 0.684589 0.163638
Si Si2 0.448869 0.305619 0.301021
Si Si3 0.325670 0.078268 0.233184
Si Si4 0.332872 0.961284 0.457672
Si Si5 0.339642 0.972993 0.004286
Si Si6 0.060335 0.914112 0.761041
Si Si7 0.062313 0.968685 0.285068
Si Si8 0.961533 0.655652 0.630129
O O1 0.750000 0.750000 0.243816
O O2 0.875882 0.688561 0.192914
O O3 0.756314 0.615893 0.234553
O O4 0.750000 0.685436 0.000000
O O5 0.512631 0.347384 0.214479
O O6 0.480152 0.230467 0.316600
O O7 0.438786 0.341267 0.458950
O O8 0.388895 0.132029 0.276861
O O9 0.315402 0.019158 0.344549
O O10 0.345779 0.047453 0.074252
O O11 0.250000 0.929597 0.500000
O O12 0.385023 0.904902 0.380245
O O13 0.382031 0.994028 0.586996
O O14 0.386215 0.919959 0.099229
O O15 0.250000 0.950978 0.000000
O O16 0.380638 0.969590 0.850480
O O17 0.009153 0.981432 0.738450
O O18 0.031629 0.894794 0.330432
#
# Coordination Sequence:
#
# PCOD8205805 Si02
#       8
#     8   8   8   8   8   8   8   8
#     4  11  25  42  61  93 144 189 221 258 320 416
#     4  11  25  43  66  98 140 176 223 277 331 405
#     4  11  23  40  60  98 134 177 222 260 339 404
#     4  11  23  38  65  94 130 169 222 280 338 391
#     4  11  25  42  64  96 136 172 224 285 345 392
#     4  11  23  40  65  98 127 176 223 276 336 398
#     4  12  22  42  68  96 131 173 225 286 331 408
#     4  11  23  42  68  96 133 176 222 280 338 397
#
# _framework density 20.070893999999999
#
# number of rings (size 3 to 8) (size 9 to 14) (size 15 to 20)
#    0.000    0.875    5.000    3.375    7.000    0.000 
#    0.000    0.000    0.000    4.500    0.000    0.000 
#    0.000    0.000    0.000    0.000    0.000    0.000 
#
# Total GULP energy -793170.718860 kJ/mol
# GULP energy per Si atom -12393.292482 kJ/mol
# Density = 2.002521 g / cm^3
# Si number density = 20.070894 Si / 1000 Ang^3
#
#
#
# Elastic Constant Matrix: (Units=GPa)
#
#
# Indices 1 2 3 4 5 6 
#
# 1 120.3706 41.6453 29.4368 0.0000 0.0000 0.0000
# 2 41.6453 104.6364 16.4012 0.0000 0.0000 0.0000
# 3 29.4368 16.4012 81.6404 0.0000 0.0000 0.0000
# 4 0.0000 0.0000 0.0000 15.8951 0.0000 0.0000
# 5 0.0000 0.0000 0.0000 0.0000 42.9271 0.0000
# 6 0.0000 0.0000 0.0000 0.0000 0.0000 37.3412
#
#
#
# Elastic Compliance Matrix: (Units=1/GPa)
#
#
# Indices 1 2 3 4 5 6 
#
# 1 0.010292 -0.003629 -0.002982 0.000000 0.000000 0.000000
# 2 -0.003629 0.011147 -0.000931 0.000000 0.000000 0.000000
# 3 -0.002982 -0.000931 0.013511 0.000000 0.000000 0.000000
# 4 0.000000 0.000000 0.000000 0.062913 0.000000 0.000000
# 5 0.000000 0.000000 0.000000 0.000000 0.023295 0.000000
# 6 0.000000 0.000000 0.000000 0.000000 0.000000 0.026780
#
#
# Mechanical properties :
#
#
# Convention : Reuss Voigt Hill
#
# Bulk Modulus (GPa) = 50.33531 53.51265 51.92398
# Shear Modulus (GPa) = 29.47331 33.84361 31.65846
#
# Velocity S-wave (km/s) = 3.83621 4.11080 3.97587
# Velocity P-wave (km/s) = 6.68993 7.01792 6.85589
#
# Compressibility (1/GPa) = 0.01986677
#
# Stress axis : x y z
#
# Youngs Moduli (GPa) = 97.15823 89.70894 74.01322
#
# Poissons Ratio (x) = 0.32555 0.22071
# Poissons Ratio (y) = 0.35259 0.06890
# Poissons Ratio (z) = 0.28973 0.08351
#
# Static dielectric constant tensor:
#      x y z
#    x 3.886910 0.000000 0.000000 
#    y 0.000000 3.714510 0.000000 
#    z 0.000000 0.000000 3.944190 
# 
# 
# High freq. dielectric constant tensor:
#      x y z
#    x 1.789340 0.000000 0.000000 
#    y 0.000000 1.766330 0.000000 
#    z 0.000000 0.000000 1.793140 
# 
# From -- ./inp_files/14604.got.cif
#   From: 2010.03.12/outbox.cif.g09.slc.cpg/sg50_8_cif.got.tgz:14604.got - 2010.04.16 13:23:21.
