data_PCOD8205428
_publ_section_title
;
Structure prediction by ZEFSAII (Michael W. Deem and Ramdas Pophale) SiO2 
 PCOD8205428
Probable space group: P B A N
;
_chemical_formula_sum "Si O2"
_cell_formula_units_Z 64
_cell_length_a 25.027496
_cell_length_b 8.721464
_cell_length_c 14.814244
_cell_angle_alpha 90.000000
_cell_angle_beta 90.000000
_cell_angle_gamma 90.000000
_cell_volume 3233.599929
_symmetry_space_group_name_H-M "P B A N"
_symmetry_group_IT_number 50
_space_group.IT_coordinate_system_code '2'
_symmetry_cell_setting 'orthorhombic'
loop_
_space_group_symop_operation_xyz
x,y,z
1/2-x,1/2-y,z
x,1/2-y,-z
1/2-x,y,-z
-x,-y,-z
1/2+x,1/2+y,-z
-x,1/2+y,z
1/2+x,-y,z
loop_
_atom_site_type_symbol
_atom_site_label
_atom_site_fract_x
_atom_site_fract_y
_atom_site_fract_z
Si Si1 0.806376 0.665742 0.293032
Si Si2 0.104294 0.411410 0.829038
Si Si3 0.747233 0.071012 0.600155
Si Si4 0.030263 0.938768 0.304142
Si Si5 0.542243 0.143351 0.587988
Si Si6 0.570375 0.919910 0.821291
Si Si7 0.637447 0.952848 0.652473
Si Si8 0.058551 0.929526 0.000925
O O1 0.750000 0.750000 0.274798
O O2 0.833823 0.626318 0.196119
O O3 0.795396 0.506854 0.344932
O O4 0.846130 0.771557 0.356192
O O5 0.083154 0.485384 0.735670
O O6 0.072350 0.256849 0.850458
O O7 0.096326 0.520050 0.915509
O O8 0.750000 0.250000 0.596392
O O9 0.750000 0.999135 0.500000
O O10 0.690700 0.048034 0.646367
O O11 0.044712 0.763851 0.329205
O O12 0.987418 0.946577 0.223087
O O13 0.009271 0.034052 0.392683
O O14 0.536734 0.250000 0.500000
O O15 0.593399 0.026666 0.583666
O O16 0.615697 0.971723 0.752683
O O17 0.584954 0.020439 0.907655
O O18 0.052970 0.750000 0.000000
O O19 0.000000 0.000000 0.000000
#
# Coordination Sequence:
#
# PCOD8205428 Si02
#       8
#     8   8   8   8   8   8   8   8
#     4   9  21  43  63  90 120 163 213 263 322 379
#     4  11  22  38  65  90 121 169 208 253 322 373
#     4  10  22  38  63  94 124 153 211 272 322 365
#     4  11  22  37  58  84 122 172 207 250 311 375
#     4  11  24  39  58  85 129 169 214 261 308 386
#     4  10  21  41  58  86 128 159 207 244 311 374
#     4   9  22  38  62  84 117 168 200 258 320 368
#     4  12  25  35  59  96 128 163 202 254 302 382
#
# _framework density 19.792182
#
# number of rings (size 3 to 8) (size 9 to 14) (size 15 to 20)
#    0.000    1.625    2.500    1.500    7.000    2.250 
#    0.000    1.250    0.000   12.750    0.000    8.750 
#    0.000    0.000    0.000    0.000    0.000    0.000 
#
# Total GULP energy -793085.398639 kJ/mol
# GULP energy per Si atom -12391.959354 kJ/mol
# Density = 1.974713 g / cm^3
# Si number density = 19.792182 Si / 1000 Ang^3
#
#
#
# Elastic Constant Matrix: (Units=GPa)
#
#
# Indices 1 2 3 4 5 6 
#
# 1 79.9022 32.3546 36.5425 0.0000 0.0000 0.0000
# 2 32.3546 114.6819 38.1191 0.0000 0.0000 0.0000
# 3 36.5425 38.1191 84.1730 0.0000 0.0000 0.0000
# 4 0.0000 0.0000 0.0000 33.7858 0.0000 0.0000
# 5 0.0000 0.0000 0.0000 0.0000 19.6553 0.0000
# 6 0.0000 0.0000 0.0000 0.0000 0.0000 26.9810
#
#
#
# Elastic Compliance Matrix: (Units=1/GPa)
#
#
# Indices 1 2 3 4 5 6 
#
# 1 0.016267 -0.002639 -0.005867 0.000000 0.000000 0.000000
# 2 -0.002639 0.010693 -0.003697 0.000000 0.000000 0.000000
# 3 -0.005867 -0.003697 0.016101 0.000000 0.000000 0.000000
# 4 0.000000 0.000000 0.000000 0.029598 0.000000 0.000000
# 5 0.000000 0.000000 0.000000 0.000000 0.050877 0.000000
# 6 0.000000 0.000000 0.000000 0.000000 0.000000 0.037063
#
#
# Mechanical properties :
#
#
# Convention : Reuss Voigt Hill
#
# Bulk Modulus (GPa) = 53.60238 54.75438 54.17838
# Shear Modulus (GPa) = 26.14728 27.53383 26.84055
#
# Velocity S-wave (km/s) = 3.63862 3.73385 3.68655
# Velocity P-wave (km/s) = 6.69285 6.80541 6.74936
#
# Compressibility (1/GPa) = 0.01865589
#
# Stress axis : x y z
#
# Youngs Moduli (GPa) = 61.47341 93.51792 62.10615
#
# Poissons Ratio (x) = 0.24682 0.36437
# Poissons Ratio (y) = 0.16225 0.22959
# Poissons Ratio (z) = 0.36066 0.34571
#
# Static dielectric constant tensor:
#      x y z
#    x 4.073100 0.000000 0.000000 
#    y 0.000000 3.934270 0.000000 
#    z 0.000000 0.000000 3.710950 
# 
# 
# High freq. dielectric constant tensor:
#      x y z
#    x 1.757330 0.000000 0.000000 
#    y 0.000000 1.791800 0.000000 
#    z 0.000000 0.000000 1.759160 
# 
# From -- ./inp_files/27495.got.cif
#   From: 2010.03.12/outbox.cif.g09.slc.cpg/sg50_14_cif.got.tgz:27495.got - 2010.04.16 13:23:21.
