data_PCOD8205104
_publ_section_title
;
Structure prediction by ZEFSAII (Michael W. Deem and Ramdas Pophale) SiO2 
 PCOD8205104
Probable space group: P B A N
;
_chemical_formula_sum "Si O2"
_cell_formula_units_Z 58
_cell_length_a 13.532147
_cell_length_b 24.262882
_cell_length_c 9.025600
_cell_angle_alpha 90.000000
_cell_angle_beta 90.000000
_cell_angle_gamma 90.000000
_cell_volume 2963.365192
_symmetry_space_group_name_H-M "P B A N"
_symmetry_group_IT_number 50
_space_group.IT_coordinate_system_code '2'
_symmetry_cell_setting 'orthorhombic'
loop_
_space_group_symop_operation_xyz
x,y,z
1/2-x,1/2-y,z
x,1/2-y,-z
1/2-x,y,-z
-x,-y,-z
1/2+x,1/2+y,-z
-x,1/2+y,z
1/2+x,-y,z
loop_
_atom_site_type_symbol
_atom_site_label
_atom_site_fract_x
_atom_site_fract_y
_atom_site_fract_z
Si Si1 0.434068 0.948719 0.174635
Si Si2 0.555388 0.263742 0.155597
Si Si3 0.256046 0.499488 0.173423
Si Si4 0.529193 0.839986 0.672991
Si Si5 0.750000 0.250000 0.000000
Si Si6 0.957015 0.857764 0.670700
Si Si7 0.955246 0.056790 0.843864
Si Si8 0.759189 0.616335 0.672360
O O1 0.319170 0.951295 0.221613
O O2 0.501938 0.919252 0.297351
O O3 0.455241 0.014052 0.162116
O O4 0.444926 0.920680 0.012250
O O5 0.526684 0.214354 0.268120
O O6 0.672386 0.277211 0.118368
O O7 0.517196 0.320105 0.219005
O O8 0.501100 0.250000 0.000000
O O9 0.362138 0.522774 0.217111
O O10 0.231616 0.442247 0.251248
O O11 0.250000 0.487552 0.000000
O O12 0.520651 0.840029 0.496070
O O13 0.471686 0.892019 0.736966
O O14 0.646508 0.844870 0.713359
O O15 0.842054 0.852677 0.717035
O O16 0.750000 0.603564 0.500000
#
# Coordination Sequence:
#
# PCOD8205104 Si02
#       8
#     8   8   8   8   2   8   8   8
#     4  10  20  35  57  87 123 167 211 257 303 358
#     4  10  23  46  70  90 116 158 201 252 306 362
#     4  10  20  35  56  85 123 166 215 255 304 362
#     4  11  23  40  63  92 127 163 204 253 307 369
#     4   8  24  48  74  86 116 156 202 260 308 352
#     4  11  23  40  63  92 127 163 204 253 307 369
#     4  10  20  35  57  87 123 167 211 257 303 358
#     4  10  22  37  58  89 131 169 195 244 310 367
#
# _framework density 19.572344999999999
#
# number of rings (size 3 to 8) (size 9 to 14) (size 15 to 20)
#    0.414    1.379    2.759    1.241    0.000    4.414 
#    2.483    5.517    0.000    0.000    0.000    0.000 
#    0.000    0.000    0.000    0.000    0.000    0.000 
#
# Total GULP energy -718519.532354 kJ/mol
# GULP energy per Si atom -12388.267799 kJ/mol
# Density = 1.952780 g / cm^3
# Si number density = 19.572345 Si / 1000 Ang^3
#
#
#
# Elastic Constant Matrix: (Units=GPa)
#
#
# Indices 1 2 3 4 5 6 
#
# 1 127.2246 34.2795 43.9758 0.0000 0.0000 0.0000
# 2 34.2795 65.8615 28.4074 0.0000 0.0000 0.0000
# 3 43.9758 28.4074 67.7710 0.0000 0.0000 0.0000
# 4 0.0000 0.0000 0.0000 29.8646 0.0000 0.0000
# 5 0.0000 0.0000 0.0000 0.0000 33.5168 0.0000
# 6 0.0000 0.0000 0.0000 0.0000 0.0000 18.0163
#
#
#
# Elastic Compliance Matrix: (Units=1/GPa)
#
#
# Indices 1 2 3 4 5 6 
#
# 1 0.010634 -0.003123 -0.005591 0.000000 0.000000 0.000000
# 2 -0.003123 0.019452 -0.006127 0.000000 0.000000 0.000000
# 3 -0.005591 -0.006127 0.020952 0.000000 0.000000 0.000000
# 4 0.000000 0.000000 0.000000 0.033484 0.000000 0.000000
# 5 0.000000 0.000000 0.000000 0.000000 0.029836 0.000000
# 6 0.000000 0.000000 0.000000 0.000000 0.000000 0.055505
#
#
# Mechanical properties :
#
#
# Convention : Reuss Voigt Hill
#
# Bulk Modulus (GPa) = 46.82747 52.68693 49.75720
# Shear Modulus (GPa) = 24.19382 26.55917 25.37650
#
# Velocity S-wave (km/s) = 3.51967 3.68771 3.60467
# Velocity P-wave (km/s) = 6.36354 6.71638 6.54234
#
# Compressibility (1/GPa) = 0.02135499
#
# Stress axis : x y z
#
# Youngs Moduli (GPa) = 94.03509 51.40965 47.72842
#
# Poissons Ratio (x) = 0.16057 0.26686
# Poissons Ratio (y) = 0.29370 0.29242
# Poissons Ratio (z) = 0.52578 0.31498
#
# Static dielectric constant tensor:
#      x y z
#    x 3.918310 0.000000 0.000000 
#    y 0.000000 3.285500 0.000000 
#    z 0.000000 0.000000 3.537700 
# 
# 
# High freq. dielectric constant tensor:
#      x y z
#    x 1.777850 0.000000 0.000000 
#    y 0.000000 1.744260 0.000000 
#    z 0.000000 0.000000 1.758540 
# 
# From -- ./inp_files/13440.got.cif
#   From: 2010.03.12/outbox.cif.g09.slc.cpg/sg50_7_cif.got.tgz:13440.got - 2010.04.16 13:23:21.
