data_PCOD8205470
_publ_section_title
;
Structure prediction by ZEFSAII (Michael W. Deem and Ramdas Pophale) SiO2 
 PCOD8205470
Probable space group: P B A N
;
_chemical_formula_sum "Si O2"
_cell_formula_units_Z 60
_cell_length_a 18.256507
_cell_length_b 13.921324
_cell_length_c 11.761252
_cell_angle_alpha 90.000000
_cell_angle_beta 90.000000
_cell_angle_gamma 90.000000
_cell_volume 2989.178051
_symmetry_space_group_name_H-M "P B A N"
_symmetry_group_IT_number 50
_space_group.IT_coordinate_system_code '2'
_symmetry_cell_setting 'orthorhombic'
loop_
_space_group_symop_operation_xyz
x,y,z
1/2-x,1/2-y,z
x,1/2-y,-z
1/2-x,y,-z
-x,-y,-z
1/2+x,1/2+y,-z
-x,1/2+y,z
1/2+x,-y,z
loop_
_atom_site_type_symbol
_atom_site_label
_atom_site_fract_x
_atom_site_fract_y
_atom_site_fract_z
Si Si1 0.598312 0.144386 0.022822
Si Si2 0.980796 0.864775 0.214703
Si Si3 0.291246 0.571213 0.194235
Si Si4 0.627320 0.024700 0.815013
Si Si5 0.465807 0.202916 0.611103
Si Si6 0.750000 0.250000 0.660081
Si Si7 0.880502 0.371287 0.580202
Si Si8 0.906241 0.009421 0.643485
O O1 0.525628 0.154379 0.099273
O O2 0.662536 0.083170 0.080027
O O3 0.629476 0.250000 0.000000
O O4 0.582263 0.091820 0.903177
O O5 0.029213 0.927822 0.301040
O O6 0.906198 0.918363 0.178532
O O7 0.955488 0.766183 0.275120
O O8 0.213966 0.525016 0.159721
O O9 0.288728 0.673981 0.257017
O O10 0.335227 0.499357 0.276705
O O11 0.615309 0.062329 0.689468
O O12 0.426947 0.250000 0.500000
O O13 0.551664 0.200204 0.583252
O O14 0.434564 0.097096 0.624776
O O15 0.808504 0.304306 0.580193
O O16 0.880558 0.441380 0.472733
#
# Coordination Sequence:
#
# PCOD8205470 Si02
#       8
#     8   8   8   8   8   4   8   8
#     4  11  22  39  65  95 127 159 211 266 333 391
#     4  11  23  40  63  92 125 169 213 269 313 375
#     4  10  23  39  62  89 129 169 204 263 328 384
#     4  11  22  39  60  90 127 167 207 257 321 388
#     4  12  22  38  64  90 125 170 218 260 319 375
#     4  10  22  35  59  96 128 162 203 253 340 396
#     4  11  21  38  60  92 132 162 200 265 321 391
#     4  11  23  41  61  94 127 165 216 263 314 389
#
# _framework density 20.072407999999999
#
# number of rings (size 3 to 8) (size 9 to 14) (size 15 to 20)
#    0.000    1.067    2.667    6.000    0.000    3.200 
#    0.000    0.667    0.000    0.800    0.000    0.000 
#    0.000    0.000    0.000    0.000    0.000    0.000 
#
# Total GULP energy -744083.734368 kJ/mol
# GULP energy per Si atom -12401.395573 kJ/mol
# Density = 2.002672 g / cm^3
# Si number density = 20.072408 Si / 1000 Ang^3
#
#
#
# Elastic Constant Matrix: (Units=GPa)
#
#
# Indices 1 2 3 4 5 6 
#
# 1 90.0808 43.3406 35.3861 0.0000 0.0000 0.0000
# 2 43.3406 92.3525 24.4207 0.0000 0.0000 0.0000
# 3 35.3861 24.4207 89.9301 0.0000 0.0000 0.0000
# 4 0.0000 0.0000 0.0000 24.0339 0.0000 0.0000
# 5 0.0000 0.0000 0.0000 0.0000 12.0347 0.0000
# 6 0.0000 0.0000 0.0000 0.0000 0.0000 15.0272
#
#
#
# Elastic Compliance Matrix: (Units=1/GPa)
#
#
# Indices 1 2 3 4 5 6 
#
# 1 0.015902 -0.006258 -0.004558 0.000000 0.000000 0.000000
# 2 -0.006258 0.014128 -0.001374 0.000000 0.000000 0.000000
# 3 -0.004558 -0.001374 0.013286 0.000000 0.000000 0.000000
# 4 0.000000 0.000000 0.000000 0.041608 0.000000 0.000000
# 5 0.000000 0.000000 0.000000 0.000000 0.083093 0.000000
# 6 0.000000 0.000000 0.000000 0.000000 0.000000 0.066546
#
#
# Mechanical properties :
#
#
# Convention : Reuss Voigt Hill
#
# Bulk Modulus (GPa) = 52.80638 53.18422 52.99530
# Shear Modulus (GPa) = 18.84968 21.50023 20.17496
#
# Velocity S-wave (km/s) = 3.06777 3.27637 3.17378
# Velocity P-wave (km/s) = 6.23806 6.39269 6.31585
#
# Compressibility (1/GPa) = 0.01893711
#
# Stress axis : x y z
#
# Youngs Moduli (GPa) = 62.88352 70.78076 75.26460
#
# Poissons Ratio (x) = 0.44292 0.34306
# Poissons Ratio (y) = 0.39350 0.10343
# Poissons Ratio (z) = 0.28663 0.09727
#
# Static dielectric constant tensor:
#      x y z
#    x 3.767310 0.000000 0.000000 
#    y 0.000000 3.590860 0.000000 
#    z 0.000000 0.000000 3.911770 
# 
# 
# High freq. dielectric constant tensor:
#      x y z
#    x 1.770130 0.000000 0.000000 
#    y 0.000000 1.769980 0.000000 
#    z 0.000000 0.000000 1.806550 
# 
# From -- ./inp_files/22442.got.cif
#   From: 2010.03.12/outbox.cif.g09.slc.cpg/sg50_12_cif.got.tgz:22442.got - 2010.04.16 13:23:21.
