data_PCOD8205655
_publ_section_title
;
Structure prediction by ZEFSAII (Michael W. Deem and Ramdas Pophale) SiO2 
 PCOD8205655
Probable space group: P B A N
;
_chemical_formula_sum "Si O2"
_cell_formula_units_Z 40
_cell_length_a 10.231874
_cell_length_b 25.991650
_cell_length_c 7.618961
_cell_angle_alpha 90.000000
_cell_angle_beta 90.000000
_cell_angle_gamma 90.000000
_cell_volume 2026.211538
_symmetry_space_group_name_H-M "P B A N"
_symmetry_group_IT_number 50
_space_group.IT_coordinate_system_code '2'
_symmetry_cell_setting 'orthorhombic'
loop_
_space_group_symop_operation_xyz
x,y,z
1/2-x,1/2-y,z
x,1/2-y,-z
1/2-x,y,-z
-x,-y,-z
1/2+x,1/2+y,-z
-x,1/2+y,z
1/2+x,-y,z
loop_
_atom_site_type_symbol
_atom_site_label
_atom_site_fract_x
_atom_site_fract_y
_atom_site_fract_z
Si Si1 0.742324 0.554800 0.801854
Si Si2 0.904773 0.808838 0.003620
Si Si3 0.982237 0.618032 0.692298
Si Si4 0.257074 0.559892 0.294916
Si Si5 0.501503 0.618078 0.705485
O O1 0.860680 0.578991 0.692346
O O2 0.752488 0.493567 0.806988
O O3 0.605415 0.571812 0.718367
O O4 0.750000 0.576414 0.000000
O O5 0.963125 0.834813 0.830232
O O6 0.950345 0.750000 0.000000
O O7 0.750000 0.814159 0.000000
O O8 0.959692 0.833594 0.181739
O O9 0.002486 0.638659 0.494496
O O10 0.109234 0.587614 0.759093
O O11 0.250000 0.547455 0.500000
O O12 0.138402 0.596207 0.235836
#
# Coordination Sequence:
#
# PCOD8205655 Si02
#       5
#     8   8   8   8   8
#     4  12  22  36  60  92 125 163 205 237 286 355
#     4  11  24  43  64  92 117 146 205 257 300 356
#     4  11  22  41  62  88 124 159 199 245 296 350
#     4  10  24  38  58  91 125 163 200 236 289 361
#     4  11  22  41  62  88 124 159 199 245 296 350
#
# _framework density 19.741274000000001
#
# number of rings (size 3 to 8) (size 9 to 14) (size 15 to 20)
#    0.000    1.000    4.000    3.000    2.800    5.600 
#    0.000    4.000    0.000    3.600    0.000    0.000 
#    0.000    0.000    0.000    0.000    0.000    0.000 
#
# Total GULP energy -496269.343487 kJ/mol
# GULP energy per Si atom -12406.733587 kJ/mol
# Density = 1.969634 g / cm^3
# Si number density = 19.741274 Si / 1000 Ang^3
#
#
#
# Elastic Constant Matrix: (Units=GPa)
#
#
# Indices 1 2 3 4 5 6 
#
# 1 91.3566 27.2567 5.3307 0.0000 0.0000 0.0000
# 2 27.2567 133.2670 47.0547 0.0000 0.0000 0.0000
# 3 5.3307 47.0547 94.2501 0.0000 0.0000 0.0000
# 4 0.0000 0.0000 0.0000 21.4242 0.0000 0.0000
# 5 0.0000 0.0000 0.0000 0.0000 20.8344 0.0000
# 6 0.0000 0.0000 0.0000 0.0000 0.0000 7.0968
#
#
#
# Elastic Compliance Matrix: (Units=1/GPa)
#
#
# Indices 1 2 3 4 5 6 
#
# 1 0.011690 -0.002619 0.000646 0.000000 0.000000 0.000000
# 2 -0.002619 0.009696 -0.004693 0.000000 0.000000 0.000000
# 3 0.000646 -0.004693 0.012916 0.000000 0.000000 0.000000
# 4 0.000000 0.000000 0.000000 0.046676 0.000000 0.000000
# 5 0.000000 0.000000 0.000000 0.000000 0.047998 0.000000
# 6 0.000000 0.000000 0.000000 0.000000 0.000000 0.140909
#
#
# Mechanical properties :
#
#
# Convention : Reuss Voigt Hill
#
# Bulk Modulus (GPa) = 47.68354 53.12867 50.40610
# Shear Modulus (GPa) = 17.22908 25.81984 21.52446
#
# Velocity S-wave (km/s) = 2.95743 3.62043 3.30559
# Velocity P-wave (km/s) = 5.98903 6.66690 6.33704
#
# Compressibility (1/GPa) = 0.02097160
#
# Stress axis : x y z
#
# Youngs Moduli (GPa) = 85.54448 103.13120 77.42089
#
# Poissons Ratio (x) = 0.27011 -0.05005
# Poissons Ratio (y) = 0.22405 0.36332
# Poissons Ratio (z) = -0.05530 0.48398
#
# Static dielectric constant tensor:
#      x y z
#    x 3.783130 0.000000 0.000000 
#    y 0.000000 3.422960 0.000000 
#    z 0.000000 0.000000 3.616270 
# 
# 
# High freq. dielectric constant tensor:
#      x y z
#    x 1.779390 0.000000 0.000000 
#    y 0.000000 1.753110 0.000000 
#    z 0.000000 0.000000 1.783010 
# 
# From -- ./inp_files/9507.got.cif
#   From: 2010.03.12/outbox.cif.g09.slc.cpg/sg50_5_cif.got.tgz:9507.got - 2010.04.16 13:23:21.
