data_PCOD8205286
_publ_section_title
;
Structure prediction by ZEFSAII (Michael W. Deem and Ramdas Pophale) SiO2 
 PCOD8205286
Probable space group: P B A N
;
_chemical_formula_sum "Si O2"
_cell_formula_units_Z 56
_cell_length_a 20.698379
_cell_length_b 14.390762
_cell_length_c 8.977738
_cell_angle_alpha 90.000000
_cell_angle_beta 90.000000
_cell_angle_gamma 90.000000
_cell_volume 2674.157933
_symmetry_space_group_name_H-M "P B A N"
_symmetry_group_IT_number 50
_space_group.IT_coordinate_system_code '2'
_symmetry_cell_setting 'orthorhombic'
loop_
_space_group_symop_operation_xyz
x,y,z
1/2-x,1/2-y,z
x,1/2-y,-z
1/2-x,y,-z
-x,-y,-z
1/2+x,1/2+y,-z
-x,1/2+y,z
1/2+x,-y,z
loop_
_atom_site_type_symbol
_atom_site_label
_atom_site_fract_x
_atom_site_fract_y
_atom_site_fract_z
Si Si1 0.757154 0.477823 0.672545
Si Si2 0.569371 0.253871 0.838619
Si Si3 0.388980 0.250000 0.500000
Si Si4 0.108572 0.555790 0.187102
Si Si5 0.815323 0.129223 0.914675
Si Si6 0.199825 0.329306 0.742656
Si Si7 0.124898 0.250000 0.000000
Si Si8 0.547407 0.639222 0.246607
O O1 0.750000 0.458073 0.500000
O O2 0.831157 0.455014 0.704793
O O3 0.704222 0.419809 0.762262
O O4 0.743635 0.581483 0.723235
O O5 0.569246 0.149953 0.768370
O O6 0.644935 0.280800 0.859496
O O7 0.528581 0.331669 0.749436
O O8 0.535369 0.250000 0.000000
O O9 0.350856 0.181308 0.609445
O O10 0.428674 0.326397 0.593071
O O11 0.058867 0.470205 0.213670
O O12 0.136773 0.565402 0.017482
O O13 0.750000 0.158471 0.000000
O O14 0.250000 0.250000 0.721173
O O15 0.168056 0.324057 0.907158
O O16 0.083323 0.306647 0.116508
#
# Coordination Sequence:
#
# PCOD8205286 Si02
#       8
#     8   8   4   8   8   8   4   8
#     4  11  21  37  60  92 126 163 205 254 323 380
#     4  10  22  42  64  90 119 162 211 264 317 374
#     4  10  23  38  58  86 126 175 200 252 310 376
#     4  10  22  39  65  88 122 163 211 258 311 382
#     4   9  21  40  63  92 121 159 205 263 324 380
#     4  11  20  34  58  88 127 162 202 253 310 369
#     4  10  21  34  58  92 123 154 208 256 306 368
#     4  11  21  42  60  87 125 165 210 255 309 371
#
# _framework density 20.941172000000002
#
# number of rings (size 3 to 8) (size 9 to 14) (size 15 to 20)
#    0.000    1.714    0.714    4.714    0.000   11.143 
#    7.714    1.429    0.000    0.000    0.000    0.000 
#    0.000    0.000    0.000    0.000    0.000    0.000 
#
# Total GULP energy -693965.101519 kJ/mol
# GULP energy per Si atom -12392.233956 kJ/mol
# Density = 2.089351 g / cm^3
# Si number density = 20.941172 Si / 1000 Ang^3
#
#
#
# Elastic Constant Matrix: (Units=GPa)
#
#
# Indices 1 2 3 4 5 6 
#
# 1 110.1430 59.5036 35.7953 0.0000 0.0000 0.0000
# 2 59.5036 152.8190 38.0183 0.0000 0.0000 0.0000
# 3 35.7953 38.0183 116.3544 0.0000 0.0000 0.0000
# 4 0.0000 0.0000 0.0000 23.5315 0.0000 0.0000
# 5 0.0000 0.0000 0.0000 0.0000 32.5726 0.0000
# 6 0.0000 0.0000 0.0000 0.0000 0.0000 39.1861
#
#
#
# Elastic Compliance Matrix: (Units=1/GPa)
#
#
# Indices 1 2 3 4 5 6 
#
# 1 0.012070 -0.004110 -0.002370 0.000000 0.000000 0.000000
# 2 -0.004110 0.008522 -0.001520 0.000000 0.000000 0.000000
# 3 -0.002370 -0.001520 0.009820 0.000000 0.000000 0.000000
# 4 0.000000 0.000000 0.000000 0.042496 0.000000 0.000000
# 5 0.000000 0.000000 0.000000 0.000000 0.030701 0.000000
# 6 0.000000 0.000000 0.000000 0.000000 0.000000 0.025519
#
#
# Mechanical properties :
#
#
# Convention : Reuss Voigt Hill
#
# Bulk Modulus (GPa) = 69.38908 71.77231 70.58070
# Shear Modulus (GPa) = 33.34820 35.45799 34.40310
#
# Velocity S-wave (km/s) = 3.99491 4.11934 4.05760
# Velocity P-wave (km/s) = 7.38148 7.54804 7.46523
#
# Compressibility (1/GPa) = 0.01441149
#
# Stress axis : x y z
#
# Youngs Moduli (GPa) = 82.85158 117.34066 101.82960
#
# Poissons Ratio (x) = 0.48227 0.24136
# Poissons Ratio (y) = 0.34052 0.15480
# Poissons Ratio (z) = 0.19638 0.17838
#
# Static dielectric constant tensor:
#      x y z
#    x 3.806890 0.000000 0.000000 
#    y 0.000000 3.655880 0.000000 
#    z 0.000000 0.000000 3.944670 
# 
# 
# High freq. dielectric constant tensor:
#      x y z
#    x 1.821220 0.000000 0.000000 
#    y 0.000000 1.818080 0.000000 
#    z 0.000000 0.000000 1.814940 
# 
# From -- ./inp_files/15393.got.cif
#   From: 2010.03.12/outbox.cif.g09.slc.cpg/sg50_8_cif.got.tgz:15393.got - 2010.04.16 13:23:21.
