data_PCOD8205995
_publ_section_title
;
Structure prediction by ZEFSAII (Michael W. Deem and Ramdas Pophale) SiO2 
 PCOD8205995
Probable space group: P M M A
;
_chemical_formula_sum "Si O2"
_cell_formula_units_Z 56
_cell_length_a 21.846747
_cell_length_b 8.627221
_cell_length_c 14.753823
_cell_angle_alpha 90.000000
_cell_angle_beta 90.000000
_cell_angle_gamma 90.000000
_cell_volume 2780.752085
_symmetry_space_group_name_H-M "P M M A"
_symmetry_group_IT_number 51
_symmetry_cell_setting 'orthorhombic'
loop_
_space_group_symop_operation_xyz
x,y,z
1/2-x,-y,z
1/2+x,-y,-z
-x,y,-z
-x,-y,-z
1/2+x,y,-z
1/2-x,y,z
x,-y,z
loop_
_atom_site_type_symbol
_atom_site_label
_atom_site_fract_x
_atom_site_fract_y
_atom_site_fract_z
Si Si1 0.080480 0.317119 0.770895
Si Si2 0.459515 0.816108 0.301749
Si Si3 0.250000 0.317936 0.173236
Si Si4 0.250000 0.184241 0.367605
Si Si5 0.371301 0.816694 0.458428
Si Si6 0.381894 0.319335 0.137629
Si Si7 0.067575 0.169790 0.966928
Si Si8 0.321595 0.183854 0.647458
O O1 0.078983 0.500000 0.781628
O O2 0.069756 0.240805 0.867641
O O3 0.146967 0.264700 0.733785
O O4 0.025724 0.263543 0.704427
O O5 0.428749 0.757747 0.397296
O O6 0.417610 0.774514 0.215283
O O7 0.468758 0.000000 0.302442
O O8 0.250000 0.500000 0.170917
O O9 0.250000 0.257981 0.272349
O O10 0.312330 0.257341 0.128531
O O11 0.190540 0.250262 0.416440
O O12 0.250000 0.000000 0.363914
O O13 0.365873 0.764419 0.563330
O O14 0.371693 0.000000 0.452932
O O15 0.387520 0.500000 0.162539
O O16 0.404693 0.291561 0.036712
O O17 0.100361 0.000000 0.966907
O O18 0.000000 0.141586 0.000000
O O19 0.250000 0.236372 0.636906
O O20 0.323254 0.000000 0.659327
#
# Coordination Sequence:
#
# PCOD8205995 Si02
#       8
#     8   8   4   4   8   8   8   8
#     4  12  26  43  63  89 124 162 200 249 309 369
#     4  11  21  36  61  94 127 160 203 254 302 356
#     4  10  22  36  52  85 130 167 196 239 304 372
#     4  10  16  30  56  87 118 157 208 249 290 346
#     4   9  18  33  61  94 122 156 203 254 299 347
#     4  11  22  37  58  88 127 166 201 245 308 372
#     4  11  23  41  67  92 115 151 204 257 306 366
#     4  10  21  42  69  92 119 160 210 258 301 352
#
# _framework density 20.138437
#
# number of rings (size 3 to 8) (size 9 to 14) (size 15 to 20)
#    0.000    1.429    3.571    2.571    0.000    2.000 
#    1.286    5.000    0.000    0.000    0.000    0.000 
#    0.000    0.000    0.000    0.000    0.000    0.000 
#
# Total GULP energy -693917.633329 kJ/mol
# GULP energy per Si atom -12391.386309 kJ/mol
# Density = 2.009260 g / cm^3
# Si number density = 20.138437 Si / 1000 Ang^3
#
#
#
# Elastic Constant Matrix: (Units=GPa)
#
#
# Indices 1 2 3 4 5 6 
#
# 1 95.6008 19.8242 40.3719 0.0000 0.0000 0.0000
# 2 19.8242 60.2592 24.3580 0.0000 0.0000 0.0000
# 3 40.3719 24.3580 114.0249 0.0000 0.0000 0.0000
# 4 0.0000 0.0000 0.0000 2.1092 0.0000 0.0000
# 5 0.0000 0.0000 0.0000 0.0000 37.3183 0.0000
# 6 0.0000 0.0000 0.0000 0.0000 0.0000 28.9069
#
#
#
# Elastic Compliance Matrix: (Units=1/GPa)
#
#
# Indices 1 2 3 4 5 6 
#
# 1 0.012654 -0.002574 -0.003930 0.000000 0.000000 0.000000
# 2 -0.002574 0.018687 -0.003081 0.000000 0.000000 0.000000
# 3 -0.003930 -0.003081 0.010820 0.000000 0.000000 0.000000
# 4 0.000000 0.000000 0.000000 0.474123 0.000000 0.000000
# 5 0.000000 0.000000 0.000000 0.000000 0.026797 0.000000
# 6 0.000000 0.000000 0.000000 0.000000 0.000000 0.034594
#
#
# Mechanical properties :
#
#
# Convention : Reuss Voigt Hill
#
# Bulk Modulus (GPa) = 43.49632 48.77702 46.13667
# Shear Modulus (GPa) = 8.27120 26.02225 17.14673
#
# Velocity S-wave (km/s) = 2.02881 3.59857 2.92111
# Velocity P-wave (km/s) = 5.20900 6.44513 5.85975
#
# Compressibility (1/GPa) = 0.02299045
#
# Stress axis : x y z
#
# Youngs Moduli (GPa) = 79.02829 53.51304 92.42444
#
# Poissons Ratio (x) = 0.13775 0.36326
# Poissons Ratio (y) = 0.20343 0.28472
# Poissons Ratio (z) = 0.31061 0.16485
#
# Static dielectric constant tensor:
#      x y z
#    x 4.034050 0.000000 0.000000 
#    y 0.000000 3.389620 0.000000 
#    z 0.000000 0.000000 4.039810 
# 
# 
# High freq. dielectric constant tensor:
#      x y z
#    x 1.791170 0.000000 0.000000 
#    y 0.000000 1.771690 0.000000 
#    z 0.000000 0.000000 1.788120 
# 
# From -- ./inp_files/25919.got.cif
#   From: 2010.03.12/outbox.cif.g09.slc.cpg/sg51_13_cif.got.tgz:25919.got - 2010.04.16 13:43:02.
