data_PCOD8205748
_publ_section_title
;
Structure prediction by ZEFSAII (Michael W. Deem and Ramdas Pophale) SiO2 
 PCOD8205748
Probable space group: P B A N
;
_chemical_formula_sum "Si O2"
_cell_formula_units_Z 64
_cell_length_a 13.355112
_cell_length_b 13.185226
_cell_length_c 17.562609
_cell_angle_alpha 90.000000
_cell_angle_beta 90.000000
_cell_angle_gamma 90.000000
_cell_volume 3092.602804
_symmetry_space_group_name_H-M "P B A N"
_symmetry_group_IT_number 50
_space_group.IT_coordinate_system_code '2'
_symmetry_cell_setting 'orthorhombic'
loop_
_space_group_symop_operation_xyz
x,y,z
1/2-x,1/2-y,z
x,1/2-y,-z
1/2-x,y,-z
-x,-y,-z
1/2+x,1/2+y,-z
-x,1/2+y,z
1/2+x,-y,z
loop_
_atom_site_type_symbol
_atom_site_label
_atom_site_fract_x
_atom_site_fract_y
_atom_site_fract_z
Si Si1 0.357971 0.512916 0.640396
Si Si2 0.331651 0.605297 0.797064
Si Si3 0.389310 0.824105 0.803822
Si Si4 0.486051 0.651043 0.352277
Si Si5 0.834728 0.490832 0.435346
Si Si6 0.347545 0.010816 0.051601
Si Si7 0.478366 0.857496 0.962569
Si Si8 0.500474 0.839277 0.437775
O O1 0.383223 0.559510 0.722129
O O2 0.409516 0.404187 0.632260
O O3 0.238495 0.496418 0.637297
O O4 0.404704 0.584539 0.571402
O O5 0.398437 0.703159 0.818195
O O6 0.221209 0.644489 0.779957
O O7 0.323590 0.520306 0.862164
O O8 0.455860 0.866326 0.734768
O O9 0.423549 0.874675 0.882152
O O10 0.407250 0.604529 0.415482
O O11 0.502302 0.771847 0.361026
O O12 0.750000 0.472919 0.500000
O O13 0.899578 0.593083 0.449149
O O14 0.403374 0.119456 0.048885
O O15 0.250000 0.014449 0.000000
O O16 0.427223 0.930778 0.022276
O O17 0.463836 0.750000 0.000000
O O18 0.490383 0.750000 0.500000
#
# Coordination Sequence:
#
# PCOD8205748 Si02
#       8
#     8   8   8   8   8   8   8   8
#     4  11  23  41  63  91 129 167 208 261 318 376
#     4  11  21  38  65  92 125 166 213 260 315 371
#     4  11  21  38  65  92 125 166 213 260 315 371
#     4  11  23  41  63  91 129 167 208 261 318 376
#     4  11  24  42  65  92 124 164 212 264 320 383
#     4  11  23  40  64  93 127 166 208 259 314 370
#     4  11  23  40  64  93 127 166 208 259 314 370
#     4  11  24  42  65  92 124 164 212 264 320 383
#
# _framework density 20.694541000000001
#
# number of rings (size 3 to 8) (size 9 to 14) (size 15 to 20)
#    0.000    1.000    5.000    2.250    0.000    4.750 
#    0.000    2.500    0.000    3.000    0.000    0.000 
#    0.000    0.000    0.000    0.000    0.000    0.000 
#
# Total GULP energy -793089.625087 kJ/mol
# GULP energy per Si atom -12392.025392 kJ/mol
# Density = 2.064744 g / cm^3
# Si number density = 20.694541 Si / 1000 Ang^3
#
#
#
# Elastic Constant Matrix: (Units=GPa)
#
#
# Indices 1 2 3 4 5 6 
#
# 1 101.1886 35.6068 5.2770 0.0000 0.0000 0.0000
# 2 35.6068 69.1900 3.2075 0.0000 0.0000 0.0000
# 3 5.2770 3.2075 86.0961 0.0000 0.0000 0.0000
# 4 0.0000 0.0000 0.0000 20.7187 0.0000 0.0000
# 5 0.0000 0.0000 0.0000 0.0000 23.3525 0.0000
# 6 0.0000 0.0000 0.0000 0.0000 0.0000 25.0438
#
#
#
# Elastic Compliance Matrix: (Units=1/GPa)
#
#
# Indices 1 2 3 4 5 6 
#
# 1 0.012090 -0.006198 -0.000510 0.000000 0.000000 0.000000
# 2 -0.006198 0.017656 -0.000278 0.000000 0.000000 0.000000
# 3 -0.000510 -0.000278 0.011657 0.000000 0.000000 0.000000
# 4 0.000000 0.000000 0.000000 0.048266 0.000000 0.000000
# 5 0.000000 0.000000 0.000000 0.000000 0.042822 0.000000
# 6 0.000000 0.000000 0.000000 0.000000 0.000000 0.039930
#
#
# Mechanical properties :
#
#
# Convention : Reuss Voigt Hill
#
# Bulk Modulus (GPa) = 36.45655 38.29525 37.37590
# Shear Modulus (GPa) = 25.57076 27.98188 26.77632
#
# Velocity S-wave (km/s) = 3.51896 3.68113 3.60096
# Velocity P-wave (km/s) = 5.84513 6.05085 5.94888
#
# Compressibility (1/GPa) = 0.02742992
#
# Stress axis : x y z
#
# Youngs Moduli (GPa) = 82.71144 56.63916 85.78866
#
# Poissons Ratio (x) = 0.35107 0.04376
# Poissons Ratio (y) = 0.51267 0.02384
# Poissons Ratio (z) = 0.04219 0.01574
#
# Static dielectric constant tensor:
#      x y z
#    x 3.816540 0.000000 0.000000 
#    y 0.000000 3.965890 0.000000 
#    z 0.000000 0.000000 3.898800 
# 
# 
# High freq. dielectric constant tensor:
#      x y z
#    x 1.805200 0.000000 0.000000 
#    y 0.000000 1.804070 0.000000 
#    z 0.000000 0.000000 1.826140 
# 
# From -- ./inp_files/29547.got.cif
#   From: 2010.03.12/outbox.cif.g09.slc.cpg/sg50_15_cif.got.tgz:29547.got - 2010.04.16 13:23:21.
