data_PCOD8205341
_publ_section_title
;
Structure prediction by ZEFSAII (Michael W. Deem and Ramdas Pophale) SiO2 
 PCOD8205341
Probable space group: P B A N
;
_chemical_formula_sum "Si O2"
_cell_formula_units_Z 38
_cell_length_a 5.323628
_cell_length_b 15.937750
_cell_length_c 20.985283
_cell_angle_alpha 90.000000
_cell_angle_beta 90.000000
_cell_angle_gamma 90.000000
_cell_volume 1780.531007
_symmetry_space_group_name_H-M "P B A N"
_symmetry_group_IT_number 50
_space_group.IT_coordinate_system_code '2'
_symmetry_cell_setting 'orthorhombic'
loop_
_space_group_symop_operation_xyz
x,y,z
1/2-x,1/2-y,z
x,1/2-y,-z
1/2-x,y,-z
-x,-y,-z
1/2+x,1/2+y,-z
-x,1/2+y,z
1/2+x,-y,z
loop_
_atom_site_type_symbol
_atom_site_label
_atom_site_fract_x
_atom_site_fract_y
_atom_site_fract_z
Si Si1 0.970924 0.053826 0.146313
Si Si2 0.453398 0.552412 0.708652
Si Si3 0.499091 0.845547 0.026704
Si Si4 0.750000 0.552752 0.500000
Si Si5 0.750000 0.250000 0.500000
Si Si6 0.599524 0.669653 0.601073
O O1 0.968908 0.085562 0.218993
O O2 0.990705 0.138554 0.102961
O O3 0.212817 0.995766 0.132176
O O4 0.191718 0.506485 0.694805
O O5 0.459960 0.632236 0.662375
O O6 0.498959 0.750000 0.000000
O O7 0.250000 0.891101 0.000000
O O8 0.750000 0.890157 0.000000
O O9 0.500000 0.500000 0.500000
O O10 0.784015 0.604755 0.565918
O O11 0.591725 0.310212 0.455272
O O12 0.750000 0.750000 0.625955
#
# Coordination Sequence:
#
# PCOD8205341 Si02
#       6
#     8   8   8   4   2   8
#     4  10  21  40  65  92 126 167 213 264 315 373
#     4  10  24  45  68  95 127 168 221 267 319 386
#     4  10  21  37  58  92 131 164 207 257 311 372
#     4  12  24  40  65  93 122 166 212 262 320 376
#     4  12  24  44  64  92 144 162 220 258 338 394
#     4  12  25  43  64  96 131 171 212 269 326 396
#
# _framework density 21.341947999999999
#
# number of rings (size 3 to 8) (size 9 to 14) (size 15 to 20)
#    0.000    1.263    2.105    3.158    2.947    2.526 
#    3.789    2.105    0.000    0.000    0.000    0.000 
#    0.000    0.000    0.000    0.000    0.000    0.000 
#
# Total GULP energy -470932.379414 kJ/mol
# GULP energy per Si atom -12392.957353 kJ/mol
# Density = 2.129337 g / cm^3
# Si number density = 21.341948 Si / 1000 Ang^3
#
#
#
# Elastic Constant Matrix: (Units=GPa)
#
#
# Indices 1 2 3 4 5 6 
#
# 1 156.0108 27.7120 32.8860 0.0000 0.0000 0.0000
# 2 27.7120 89.9983 65.7259 0.0000 0.0000 0.0000
# 3 32.8860 65.7259 157.9611 0.0000 0.0000 0.0000
# 4 0.0000 0.0000 0.0000 51.5583 0.0000 0.0000
# 5 0.0000 0.0000 0.0000 0.0000 10.8410 0.0000
# 6 0.0000 0.0000 0.0000 0.0000 0.0000 4.7480
#
#
#
# Elastic Compliance Matrix: (Units=1/GPa)
#
#
# Indices 1 2 3 4 5 6 
#
# 1 0.006848 -0.001533 -0.000788 0.000000 0.000000 0.000000
# 2 -0.001533 0.016305 -0.006465 0.000000 0.000000 0.000000
# 3 -0.000788 -0.006465 0.009185 0.000000 0.000000 0.000000
# 4 0.000000 0.000000 0.000000 0.019396 0.000000 0.000000
# 5 0.000000 0.000000 0.000000 0.000000 0.092243 0.000000
# 6 0.000000 0.000000 0.000000 0.000000 0.000000 0.210616
#
#
# Mechanical properties :
#
#
# Convention : Reuss Voigt Hill
#
# Bulk Modulus (GPa) = 67.72545 72.95756 70.34150
# Shear Modulus (GPa) = 13.25956 31.93921 22.59939
#
# Velocity S-wave (km/s) = 2.49527 3.87272 3.25763
# Velocity P-wave (km/s) = 6.33279 7.36590 6.86880
#
# Compressibility (1/GPa) = 0.01476550
#
# Stress axis : x y z
#
# Youngs Moduli (GPa) = 146.02307 61.33112 108.87672
#
# Poissons Ratio (x) = 0.09405 0.08576
# Poissons Ratio (y) = 0.22392 0.70389
# Poissons Ratio (z) = 0.11502 0.39651
#
# Static dielectric constant tensor:
#      x y z
#    x 4.678650 0.000000 0.000000 
#    y 0.000000 3.524010 0.000000 
#    z 0.000000 0.000000 4.103390 
# 
# 
# High freq. dielectric constant tensor:
#      x y z
#    x 1.866200 0.000000 0.000000 
#    y 0.000000 1.812320 0.000000 
#    z 0.000000 0.000000 1.844790 
# 
# From -- ./inp_files/28088.got.cif
#   From: 2010.03.12/outbox.cif.g09.slc.cpg/sg50_15_cif.got.tgz:28088.got - 2010.04.16 13:23:21.
