data_PCOD8205297
_publ_section_title
;
Structure prediction by ZEFSAII (Michael W. Deem and Ramdas Pophale) SiO2 
 PCOD8205297
Probable space group: P B A N
;
_chemical_formula_sum "Si O2"
_cell_formula_units_Z 56
_cell_length_a 5.177577
_cell_length_b 14.997419
_cell_length_c 33.557680
_cell_angle_alpha 90.000000
_cell_angle_beta 90.000000
_cell_angle_gamma 90.000000
_cell_volume 2605.763640
_symmetry_space_group_name_H-M "P B A N"
_symmetry_group_IT_number 50
_space_group.IT_coordinate_system_code '2'
_symmetry_cell_setting 'orthorhombic'
loop_
_space_group_symop_operation_xyz
x,y,z
1/2-x,1/2-y,z
x,1/2-y,-z
1/2-x,y,-z
-x,-y,-z
1/2+x,1/2+y,-z
-x,1/2+y,z
1/2+x,-y,z
loop_
_atom_site_type_symbol
_atom_site_label
_atom_site_fract_x
_atom_site_fract_y
_atom_site_fract_z
Si Si1 0.492390 0.690418 0.402332
Si Si2 0.999085 0.899357 0.482457
Si Si3 0.299434 0.057449 0.956849
Si Si4 0.122301 0.942732 0.334881
Si Si5 0.759808 0.146133 0.833283
Si Si6 0.388716 0.554369 0.244071
Si Si7 0.256681 0.354329 0.124759
O O1 0.250000 0.750000 0.415123
O O2 0.515924 0.609787 0.434602
O O3 0.430956 0.645758 0.360069
O O4 0.750000 0.750000 0.399651
O O5 0.750000 0.848680 0.500000
O O6 0.250000 0.849824 0.500000
O O7 0.000000 0.000000 0.500000
O O8 0.267399 0.129817 0.922368
O O9 0.590673 0.021506 0.952965
O O10 0.250000 0.103802 0.000000
O O11 0.127330 0.910139 0.289171
O O12 0.401026 0.984792 0.344701
O O13 0.750000 0.250000 0.841868
O O14 0.805573 0.131816 0.786264
O O15 0.497304 0.102619 0.850823
O O16 0.996480 0.101640 0.857618
O O17 0.684337 0.525429 0.236710
O O18 0.250000 0.250000 0.132878
#
# Coordination Sequence:
#
# PCOD8205297 Si02
#       7
#     8   8   8   8   8   8   8
#     4  12  26  42  66  99 128 157 205 261 302 347
#     4  10  23  40  64  92 122 166 206 236 299 369
#     4  10  21  36  54  78 108 142 188 238 288 339
#     4  10  23  42  67  88 123 167 204 241 296 368
#     4  10  21  36  55  82 116 149 182 236 293 345
#     4  10  21  38  59  89 114 150 199 239 279 342
#     4  10  21  36  54  80 111 148 191 228 287 354
#
# _framework density 21.490822000000001
#
# number of rings (size 3 to 8) (size 9 to 14) (size 15 to 20)
#    0.000    1.714    0.000    3.429    4.000    6.000 
#    0.000    2.143    0.000    5.143    0.000    0.000 
#    0.000    0.000    0.000    0.000    0.000    0.000 
#
# Total GULP energy -694158.868402 kJ/mol
# GULP energy per Si atom -12395.694079 kJ/mol
# Density = 2.144191 g / cm^3
# Si number density = 21.490822 Si / 1000 Ang^3
#
#
#
# Elastic Constant Matrix: (Units=GPa)
#
#
# Indices 1 2 3 4 5 6 
#
# 1 172.7426 22.7026 57.6332 0.0000 0.0000 0.0000
# 2 22.7026 41.2657 41.8311 0.0000 0.0000 0.0000
# 3 57.6332 41.8311 161.4717 0.0000 0.0000 0.0000
# 4 0.0000 0.0000 0.0000 35.1091 0.0000 0.0000
# 5 0.0000 0.0000 0.0000 0.0000 34.0702 0.0000
# 6 0.0000 0.0000 0.0000 0.0000 0.0000 12.7968
#
#
#
# Elastic Compliance Matrix: (Units=1/GPa)
#
#
# Indices 1 2 3 4 5 6 
#
# 1 0.006658 -0.001701 -0.001936 0.000000 0.000000 0.000000
# 2 -0.001701 0.033298 -0.008019 0.000000 0.000000 0.000000
# 3 -0.001936 -0.008019 0.008961 0.000000 0.000000 0.000000
# 4 0.000000 0.000000 0.000000 0.028483 0.000000 0.000000
# 5 0.000000 0.000000 0.000000 0.000000 0.029351 0.000000
# 6 0.000000 0.000000 0.000000 0.000000 0.000000 0.078145
#
#
# Mechanical properties :
#
#
# Convention : Reuss Voigt Hill
#
# Bulk Modulus (GPa) = 39.05312 68.86821 53.96067
# Shear Modulus (GPa) = 23.06877 33.28276 28.17577
#
# Velocity S-wave (km/s) = 3.27987 3.93962 3.62478
# Velocity P-wave (km/s) = 5.70569 7.26699 6.53314
#
# Compressibility (1/GPa) = 0.02560615
#
# Stress axis : x y z
#
# Youngs Moduli (GPa) = 150.18680 30.03188 111.58858
#
# Poissons Ratio (x) = 0.05107 0.21603
# Poissons Ratio (y) = 0.25542 0.89485
# Poissons Ratio (z) = 0.29076 0.24083
#
# Static dielectric constant tensor:
#      x y z
#    x 3.918450 0.000000 0.000000 
#    y 0.000000 3.322540 0.000000 
#    z 0.000000 0.000000 3.989040 
# 
# 
# High freq. dielectric constant tensor:
#      x y z
#    x 1.877100 0.000000 0.000000 
#    y 0.000000 1.802630 0.000000 
#    z 0.000000 0.000000 1.855860 
# 
# From -- ./inp_files/32394.got.cif
#   From: 2010.03.12/outbox.cif.g09.slc.cpg/sg50_17_cif.got.tgz:32394.got - 2010.04.16 13:23:21.
