data_PCOD8205413
_publ_section_title
;
Structure prediction by ZEFSAII (Michael W. Deem and Ramdas Pophale) SiO2 
 PCOD8205413
Probable space group: P B A N
;
_chemical_formula_sum "Si O2"
_cell_formula_units_Z 64
_cell_length_a 8.790685
_cell_length_b 18.123319
_cell_length_c 19.041821
_cell_angle_alpha 90.000000
_cell_angle_beta 90.000000
_cell_angle_gamma 90.000000
_cell_volume 3033.674152
_symmetry_space_group_name_H-M "P B A N"
_symmetry_group_IT_number 50
_space_group.IT_coordinate_system_code '2'
_symmetry_cell_setting 'orthorhombic'
loop_
_space_group_symop_operation_xyz
x,y,z
1/2-x,1/2-y,z
x,1/2-y,-z
1/2-x,y,-z
-x,-y,-z
1/2+x,1/2+y,-z
-x,1/2+y,z
1/2+x,-y,z
loop_
_atom_site_type_symbol
_atom_site_label
_atom_site_fract_x
_atom_site_fract_y
_atom_site_fract_z
Si Si1 0.920935 0.151475 0.208602
Si Si2 0.593414 0.783350 0.842549
Si Si3 0.166799 0.416314 0.073805
Si Si4 0.588566 0.664938 0.646618
Si Si5 0.057061 0.168854 0.620570
Si Si6 0.926143 0.921891 0.512367
Si Si7 0.406350 0.884175 0.750403
Si Si8 0.942554 0.986108 0.850565
O O1 0.747291 0.160701 0.232347
O O2 0.968205 0.217749 0.154813
O O3 0.030692 0.146656 0.275699
O O4 0.931374 0.075246 0.166286
O O5 0.750000 0.750000 0.815330
O O6 0.621113 0.829598 0.915041
O O7 0.547491 0.842111 0.784640
O O8 0.287565 0.444206 0.130792
O O9 0.012078 0.464407 0.085218
O O10 0.250000 0.426626 0.000000
O O11 0.769896 0.658644 0.645176
O O12 0.521309 0.744481 0.625049
O O13 0.527140 0.605798 0.590006
O O14 0.022082 0.141133 0.542360
O O15 0.941747 0.119423 0.667875
O O16 0.750000 0.934017 0.500000
O O17 0.000000 0.000000 0.500000
O O18 0.404569 0.966725 0.780799
#
# Coordination Sequence:
#
# PCOD8205413 Si02
#       8
#     8   8   8   8   8   8   8   8
#     4  12  23  40  63  98 138 163 221 274 333 377
#     4  11  22  40  66  95 129 165 214 268 326 388
#     4  11  24  45  70  95 129 175 220 261 327 401
#     4  10  22  38  66  90 122 174 215 270 327 391
#     4  10  21  40  64  88 124 169 225 264 328 392
#     4  10  23  42  59  89 126 169 219 273 325 391
#     4  11  24  39  64  97 130 171 212 274 326 388
#     4  11  24  42  66  95 130 173 214 267 324 395
#
# _framework density 21.096530000000001
#
# number of rings (size 3 to 8) (size 9 to 14) (size 15 to 20)
#    0.000    1.250    3.750    1.875    3.500    2.750 
#    0.000    0.000    0.000    2.250    3.250    0.000 
#    0.000    0.000    0.000    0.000    0.000    0.000 
#
# Total GULP energy -793370.434549 kJ/mol
# GULP energy per Si atom -12396.413040 kJ/mol
# Density = 2.104851 g / cm^3
# Si number density = 21.096530 Si / 1000 Ang^3
#
#
#
# Elastic Constant Matrix: (Units=GPa)
#
#
# Indices 1 2 3 4 5 6 
#
# 1 62.2430 29.2088 18.3492 0.0000 0.0000 0.0000
# 2 29.2088 132.6612 53.2930 0.0000 0.0000 0.0000
# 3 18.3492 53.2930 76.3662 0.0000 0.0000 0.0000
# 4 0.0000 0.0000 0.0000 27.4846 0.0000 0.0000
# 5 0.0000 0.0000 0.0000 0.0000 29.1637 0.0000
# 6 0.0000 0.0000 0.0000 0.0000 0.0000 29.9037
#
#
#
# Elastic Compliance Matrix: (Units=1/GPa)
#
#
# Indices 1 2 3 4 5 6 
#
# 1 0.018177 -0.003123 -0.002188 0.000000 0.000000 0.000000
# 2 -0.003123 0.011011 -0.006934 0.000000 0.000000 0.000000
# 3 -0.002188 -0.006934 0.018459 0.000000 0.000000 0.000000
# 4 0.000000 0.000000 0.000000 0.036384 0.000000 0.000000
# 5 0.000000 0.000000 0.000000 0.000000 0.034289 0.000000
# 6 0.000000 0.000000 0.000000 0.000000 0.000000 0.033441
#
#
# Mechanical properties :
#
#
# Convention : Reuss Voigt Hill
#
# Bulk Modulus (GPa) = 43.18285 52.55249 47.86767
# Shear Modulus (GPa) = 27.17837 28.67171 27.92504
#
# Velocity S-wave (km/s) = 3.59316 3.69056 3.64219
# Velocity P-wave (km/s) = 6.14232 6.56695 6.35818
#
# Compressibility (1/GPa) = 0.02315734
#
# Stress axis : x y z
#
# Youngs Moduli (GPa) = 55.01565 90.81755 54.17310
#
# Poissons Ratio (x) = 0.28363 0.11853
# Poissons Ratio (y) = 0.17182 0.37563
# Poissons Ratio (z) = 0.12037 0.62971
#
# Static dielectric constant tensor:
#      x y z
#    x 3.791480 0.000000 0.000000 
#    y 0.000000 4.047260 0.000000 
#    z 0.000000 0.000000 3.756680 
# 
# 
# High freq. dielectric constant tensor:
#      x y z
#    x 1.824330 0.000000 0.000000 
#    y 0.000000 1.839250 0.000000 
#    z 0.000000 0.000000 1.807940 
# 
# From -- ./inp_files/30746.got.cif
#   From: 2010.03.12/outbox.cif.g09.slc.cpg/sg50_16_cif.got.tgz:30746.got - 2010.04.16 13:23:21.
