data_PCOD8205084
_publ_section_title
;
Structure prediction by ZEFSAII (Michael W. Deem and Ramdas Pophale) SiO2 
 PCOD8205084
Probable space group: P B A N
;
_chemical_formula_sum "Si O2"
_cell_formula_units_Z 40
_cell_length_a 32.913523
_cell_length_b 4.913375
_cell_length_c 12.134932
_cell_angle_alpha 90.000000
_cell_angle_beta 90.000000
_cell_angle_gamma 90.000000
_cell_volume 1962.418501
_symmetry_space_group_name_H-M "P B A N"
_symmetry_group_IT_number 50
_space_group.IT_coordinate_system_code '2'
_symmetry_cell_setting 'orthorhombic'
loop_
_space_group_symop_operation_xyz
x,y,z
1/2-x,1/2-y,z
x,1/2-y,-z
1/2-x,y,-z
-x,-y,-z
1/2+x,1/2+y,-z
-x,1/2+y,z
1/2+x,-y,z
loop_
_atom_site_type_symbol
_atom_site_label
_atom_site_fract_x
_atom_site_fract_y
_atom_site_fract_z
Si Si1 0.473815 0.240990 0.371406
Si Si2 0.644521 0.986126 0.926267
Si Si3 0.386053 0.228346 0.299688
Si Si4 0.159835 0.768171 0.623686
Si Si5 0.277727 0.507859 0.799403
O O1 0.463349 0.250000 0.500000
O O2 0.509481 0.447125 0.337907
O O3 0.432854 0.315260 0.306028
O O4 0.620878 0.949290 0.811544
O O5 0.692337 0.946166 0.901113
O O6 0.627257 0.750000 0.000000
O O7 0.635075 0.250000 0.000000
O O8 0.356495 0.489947 0.317570
O O9 0.375911 0.995156 0.389656
O O10 0.176798 0.750000 0.500000
O O11 0.196746 0.891788 0.693912
O O12 0.250000 0.250000 0.767170
O O13 0.250000 0.750000 0.841942
#
# Coordination Sequence:
#
# PCOD8205084 Si02
#       5
#     8   8   8   8   8
#     4  10  20  34  57  90 123 155 189 232 294 357
#     4  11  23  40  61  82 107 149 201 250 301 346
#     4  11  22  39  61  87 121 156 201 250 291 356
#     4  11  22  38  60  86 119 162 200 235 294 367
#     4  11  23  39  57  84 115 144 189 244 297 354
#
# _framework density 20.383009999999999
#
# number of rings (size 3 to 8) (size 9 to 14) (size 15 to 20)
#    0.000    1.200    0.000    9.000    0.000    4.400 
#    0.000    3.000    0.000    3.600    0.000    0.000 
#    0.000    0.000    0.000    0.000    0.000    0.000 
#
# Total GULP energy -495646.189704 kJ/mol
# GULP energy per Si atom -12391.154743 kJ/mol
# Density = 2.033662 g / cm^3
# Si number density = 20.383010 Si / 1000 Ang^3
#
#
#
# Elastic Constant Matrix: (Units=GPa)
#
#
# Indices 1 2 3 4 5 6 
#
# 1 99.3097 37.5628 27.2802 0.0000 0.0000 0.0000
# 2 37.5628 146.3889 42.5094 0.0000 0.0000 0.0000
# 3 27.2802 42.5094 77.8035 0.0000 0.0000 0.0000
# 4 0.0000 0.0000 0.0000 16.1515 0.0000 0.0000
# 5 0.0000 0.0000 0.0000 0.0000 87.7308 0.0000
# 6 0.0000 0.0000 0.0000 0.0000 0.0000 23.5261
#
#
#
# Elastic Compliance Matrix: (Units=1/GPa)
#
#
# Indices 1 2 3 4 5 6 
#
# 1 0.011685 -0.002150 -0.002923 0.000000 0.000000 0.000000
# 2 -0.002150 0.008515 -0.003898 0.000000 0.000000 0.000000
# 3 -0.002923 -0.003898 0.016008 0.000000 0.000000 0.000000
# 4 0.000000 0.000000 0.000000 0.061914 0.000000 0.000000
# 5 0.000000 0.000000 0.000000 0.000000 0.011399 0.000000
# 6 0.000000 0.000000 0.000000 0.000000 0.000000 0.042506
#
#
# Mechanical properties :
#
#
# Convention : Reuss Voigt Hill
#
# Bulk Modulus (GPa) = 54.74616 59.80078 57.27347
# Shear Modulus (GPa) = 28.39992 39.89165 34.14578
#
# Velocity S-wave (km/s) = 3.73676 4.42872 4.09737
# Velocity P-wave (km/s) = 6.74795 7.45343 7.10945
#
# Compressibility (1/GPa) = 0.01826612
#
# Stress axis : x y z
#
# Youngs Moduli (GPa) = 85.57625 117.44264 62.46999
#
# Poissons Ratio (x) = 0.25247 0.18258
# Poissons Ratio (y) = 0.18397 0.24354
# Poissons Ratio (z) = 0.25012 0.45785
#
# Static dielectric constant tensor:
#      x y z
#    x 4.076820 0.000000 0.000000 
#    y 0.000000 3.956590 0.000000 
#    z 0.000000 0.000000 3.537470 
# 
# 
# High freq. dielectric constant tensor:
#      x y z
#    x 1.782590 0.000000 0.000000 
#    y 0.000000 1.820900 0.000000 
#    z 0.000000 0.000000 1.785000 
# 
# From -- ./inp_files/23278.got.cif
#   From: 2010.03.12/outbox.cif.g09.slc.cpg/sg50_12_cif.got.tgz:23278.got - 2010.04.16 13:23:21.
