data_PCOD8205609
_publ_section_title
;
Structure prediction by ZEFSAII (Michael W. Deem and Ramdas Pophale) SiO2 
 PCOD8205609
Probable space group: P B A N
;
_chemical_formula_sum "Si O2"
_cell_formula_units_Z 32
_cell_length_a 9.025856
_cell_length_b 13.419871
_cell_length_c 11.227547
_cell_angle_alpha 90.000000
_cell_angle_beta 90.000000
_cell_angle_gamma 90.000000
_cell_volume 1359.945873
_symmetry_space_group_name_H-M "P B A N"
_symmetry_group_IT_number 50
_space_group.IT_coordinate_system_code '2'
_symmetry_cell_setting 'orthorhombic'
loop_
_space_group_symop_operation_xyz
x,y,z
1/2-x,1/2-y,z
x,1/2-y,-z
1/2-x,y,-z
-x,-y,-z
1/2+x,1/2+y,-z
-x,1/2+y,z
1/2+x,-y,z
loop_
_atom_site_type_symbol
_atom_site_label
_atom_site_fract_x
_atom_site_fract_y
_atom_site_fract_z
Si Si1 0.974377 0.393959 0.254373
Si Si2 0.604273 0.691599 0.721527
Si Si3 0.751420 0.522631 0.139100
Si Si4 0.916380 0.132908 0.489559
O O1 0.811809 0.425643 0.209448
O O2 0.001760 0.412318 0.396034
O O3 0.993656 0.276064 0.227368
O O4 0.084496 0.464191 0.181874
O O5 0.750000 0.750000 0.667623
O O6 0.654699 0.621878 0.830274
O O7 0.519704 0.617902 0.627420
O O8 0.750000 0.502107 0.000000
O O9 0.900620 0.250000 0.500000
O O10 0.750000 0.086787 0.500000
#
# Coordination Sequence:
#
# PCOD8205609 Si02
#       4
#     8   8   8   8
#     4  10  23  41  65  94 130 173 217 271 335 384
#     4   9  21  41  68  93 131 178 221 265 338 393
#     4  11  24  43  65  95 133 172 225 276 316 396
#     4   9  19  38  64  93 132 167 216 276 327 395
#
# _framework density 23.530349000000001
#
# number of rings (size 3 to 8) (size 9 to 14) (size 15 to 20)
#    0.000    2.250    0.000    0.750    3.500   17.000 
#    0.000    0.000    0.000    0.000    0.000    0.000 
#    0.000    0.000    0.000    0.000    0.000    0.000 
#
# Total GULP energy -396542.359168 kJ/mol
# GULP energy per Si atom -12391.948724 kJ/mol
# Density = 2.347679 g / cm^3
# Si number density = 23.530349 Si / 1000 Ang^3
#
#
#
# Elastic Constant Matrix: (Units=GPa)
#
#
# Indices 1 2 3 4 5 6 
#
# 1 63.8549 16.6482 32.4101 0.0000 0.0000 0.0000
# 2 16.6482 59.8602 13.6956 0.0000 0.0000 0.0000
# 3 32.4101 13.6956 134.7044 0.0000 0.0000 0.0000
# 4 0.0000 0.0000 0.0000 19.4774 0.0000 0.0000
# 5 0.0000 0.0000 0.0000 0.0000 35.7242 0.0000
# 6 0.0000 0.0000 0.0000 0.0000 0.0000 27.5230
#
#
#
# Elastic Compliance Matrix: (Units=1/GPa)
#
#
# Indices 1 2 3 4 5 6 
#
# 1 0.018865 -0.004308 -0.004101 0.000000 0.000000 0.000000
# 2 -0.004308 0.018087 -0.000802 0.000000 0.000000 0.000000
# 3 -0.004101 -0.000802 0.008492 0.000000 0.000000 0.000000
# 4 0.000000 0.000000 0.000000 0.051342 0.000000 0.000000
# 5 0.000000 0.000000 0.000000 0.000000 0.027992 0.000000
# 6 0.000000 0.000000 0.000000 0.000000 0.000000 0.036333
#
#
# Mechanical properties :
#
#
# Convention : Reuss Voigt Hill
#
# Bulk Modulus (GPa) = 37.00820 42.65859 39.83339
# Shear Modulus (GPa) = 26.51925 29.58930 28.05428
#
# Velocity S-wave (km/s) = 3.36076 3.54996 3.45666
# Velocity P-wave (km/s) = 5.55172 5.91367 5.73555
#
# Compressibility (1/GPa) = 0.02702104
#
# Stress axis : x y z
#
# Youngs Moduli (GPa) = 53.00742 55.28707 117.75882
#
# Poissons Ratio (x) = 0.23820 0.48292
# Poissons Ratio (y) = 0.22838 0.09448
# Poissons Ratio (z) = 0.21738 0.04436
#
# Static dielectric constant tensor:
#      x y z
#    x 4.598680 0.000000 0.000000 
#    y 0.000000 4.233630 0.000000 
#    z 0.000000 0.000000 4.017330 
# 
# 
# High freq. dielectric constant tensor:
#      x y z
#    x 1.938040 0.000000 0.000000 
#    y 0.000000 1.932190 0.000000 
#    z 0.000000 0.000000 1.905910 
# 
# From -- ./inp_files/18457.got.cif
#   From: 2010.03.12/outbox.cif.g09.slc.cpg/sg50_10_cif.got.tgz:18457.got - 2010.04.16 13:23:21.
