data_PCOD8205798
_publ_section_title
;
Structure prediction by ZEFSAII (Michael W. Deem and Ramdas Pophale) SiO2 
 PCOD8205798
Probable space group: P B A N
;
_chemical_formula_sum "Si O2"
_cell_formula_units_Z 34
_cell_length_a 7.798651
_cell_length_b 9.366352
_cell_length_c 17.712745
_cell_angle_alpha 90.000000
_cell_angle_beta 90.000000
_cell_angle_gamma 90.000000
_cell_volume 1293.825871
_symmetry_space_group_name_H-M "P B A N"
_symmetry_group_IT_number 50
_space_group.IT_coordinate_system_code '2'
_symmetry_cell_setting 'orthorhombic'
loop_
_space_group_symop_operation_xyz
x,y,z
1/2-x,1/2-y,z
x,1/2-y,-z
1/2-x,y,-z
-x,-y,-z
1/2+x,1/2+y,-z
-x,1/2+y,z
1/2+x,-y,z
loop_
_atom_site_type_symbol
_atom_site_label
_atom_site_fract_x
_atom_site_fract_y
_atom_site_fract_z
Si Si1 0.299095 0.450767 0.139811
Si Si2 0.310189 0.441984 0.310078
Si Si3 0.250000 0.750000 0.500000
Si Si4 0.485180 0.712360 0.084525
Si Si5 0.513505 0.190212 0.366993
O O1 0.241450 0.415328 0.225643
O O2 0.331339 0.618734 0.122083
O O3 0.477237 0.361306 0.128236
O O4 0.155497 0.387206 0.084431
O O5 0.479802 0.349095 0.334600
O O6 0.359759 0.607709 0.310122
O O7 0.165930 0.395910 0.370519
O O8 0.386268 0.830693 0.553711
O O9 0.431834 0.750000 0.000000
#
# Coordination Sequence:
#
# PCOD8205798 Si02
#       5
#     8   8   2   8   8
#     4  11  22  43  69  97 136 176 231 286 346 395
#     4  11  23  44  71 102 134 183 233 298 335 413
#     4  12  28  46  68 102 140 186 218 286 348 430
#     4  11  24  41  64  98 138 180 226 283 344 413
#     4  11  25  43  69 101 140 176 233 279 352 412
#
# _framework density 26.278652000000001
#
# number of rings (size 3 to 8) (size 9 to 14) (size 15 to 20)
#    0.000    0.941    0.000    9.176    0.000    6.588 
#    0.000    7.059    0.000    0.000    0.000    0.000 
#    0.000    0.000    0.000    0.000    0.000    0.000 
#
# Total GULP energy -421279.257062 kJ/mol
# GULP energy per Si atom -12390.566384 kJ/mol
# Density = 2.621884 g / cm^3
# Si number density = 26.278652 Si / 1000 Ang^3
#
#
#
# Elastic Constant Matrix: (Units=GPa)
#
#
# Indices 1 2 3 4 5 6 
#
# 1 105.1526 6.4058 52.8994 0.0000 0.0000 0.0000
# 2 6.4058 103.0325 48.1934 0.0000 0.0000 0.0000
# 3 52.8994 48.1934 140.7873 0.0000 0.0000 0.0000
# 4 0.0000 0.0000 0.0000 20.8114 0.0000 0.0000
# 5 0.0000 0.0000 0.0000 0.0000 28.0633 0.0000
# 6 0.0000 0.0000 0.0000 0.0000 0.0000 38.0674
#
#
#
# Elastic Compliance Matrix: (Units=1/GPa)
#
#
# Indices 1 2 3 4 5 6 
#
# 1 0.011948 0.001616 -0.005043 0.000000 0.000000 0.000000
# 2 0.001616 0.011774 -0.004638 0.000000 0.000000 0.000000
# 3 -0.005043 -0.004638 0.010585 0.000000 0.000000 0.000000
# 4 0.000000 0.000000 0.000000 0.048051 0.000000 0.000000
# 5 0.000000 0.000000 0.000000 0.000000 0.035634 0.000000
# 6 0.000000 0.000000 0.000000 0.000000 0.000000 0.026269
#
#
# Mechanical properties :
#
#
# Convention : Reuss Voigt Hill
#
# Bulk Modulus (GPa) = 55.00834 62.66328 58.83581
# Shear Modulus (GPa) = 30.03904 33.48668 31.76286
#
# Velocity S-wave (km/s) = 3.38464 3.57360 3.48040
# Velocity P-wave (km/s) = 6.02101 6.39726 6.21198
#
# Compressibility (1/GPa) = 0.01817906
#
# Stress axis : x y z
#
# Youngs Moduli (GPa) = 83.69358 84.92932 94.47186
#
# Poissons Ratio (x) = -0.13723 0.47638
# Poissons Ratio (y) = -0.13523 0.43813
# Poissons Ratio (z) = 0.42203 0.39388
#
# Static dielectric constant tensor:
#      x y z
#    x 4.877720 0.000000 0.000000 
#    y 0.000000 5.033070 0.000000 
#    z 0.000000 0.000000 4.439500 
# 
# 
# High freq. dielectric constant tensor:
#      x y z
#    x 2.073490 0.000000 0.000000 
#    y 0.000000 2.066740 0.000000 
#    z 0.000000 0.000000 2.024810 
# 
# From -- ./inp_files/24444.got.cif
#   From: 2010.03.12/outbox.cif.g09.slc.cpg/sg50_13_cif.got.tgz:24444.got - 2010.04.16 13:23:21.
