data_PCOD8205121
_publ_section_title
;
Structure prediction by ZEFSAII (Michael W. Deem and Ramdas Pophale) SiO2 
 PCOD8205121
Probable space group: P B A N
;
_chemical_formula_sum "Si O2"
_cell_formula_units_Z 40
_cell_length_a 9.048943
_cell_length_b 15.233680
_cell_length_c 13.194892
_cell_angle_alpha 90.000000
_cell_angle_beta 90.000000
_cell_angle_gamma 90.000000
_cell_volume 1818.898735
_symmetry_space_group_name_H-M "P B A N"
_symmetry_group_IT_number 50
_space_group.IT_coordinate_system_code '2'
_symmetry_cell_setting 'orthorhombic'
loop_
_space_group_symop_operation_xyz
x,y,z
1/2-x,1/2-y,z
x,1/2-y,-z
1/2-x,y,-z
-x,-y,-z
1/2+x,1/2+y,-z
-x,1/2+y,z
1/2+x,-y,z
loop_
_atom_site_type_symbol
_atom_site_label
_atom_site_fract_x
_atom_site_fract_y
_atom_site_fract_z
Si Si1 0.079265 0.231941 0.606958
Si Si2 0.126996 0.176326 0.196925
Si Si3 0.229598 0.506359 0.254400
Si Si4 0.316535 0.662047 0.888367
Si Si5 0.516831 0.462924 0.612349
O O1 0.250000 0.250000 0.590535
O O2 0.994262 0.250000 0.500000
O O3 0.035136 0.294721 0.700996
O O4 0.054455 0.131267 0.629477
O O5 0.250000 0.250000 0.166895
O O6 0.997392 0.165139 0.112565
O O7 0.219709 0.087376 0.210872
O O8 0.249838 0.577760 0.167537
O O9 0.062328 0.515268 0.295505
O O10 0.312924 0.532592 0.358518
O O11 0.250000 0.750000 0.836762
O O12 0.250000 0.655456 0.000000
O O13 0.500000 0.500000 0.500000
#
# Coordination Sequence:
#
# PCOD8205121 Si02
#       5
#     8   8   8   8   8
#     4  10  20  35  64  98 141 186 236 283 344 428
#     4  11  22  44  74 103 142 190 237 294 368 444
#     4  12  24  45  72 104 145 186 241 303 359 433
#     4  11  27  49  73 102 144 186 237 314 375 430
#     4  12  24  40  67 105 144 194 242 291 354 425
#
# _framework density 21.991330999999999
#
# number of rings (size 3 to 8) (size 9 to 14) (size 15 to 20)
#    0.000    0.800    6.000    3.000    2.800    0.800 
#    0.000    2.000    0.000    0.000    0.000    0.000 
#    0.000    0.000    0.000    0.000    0.000    0.000 
#
# Total GULP energy -495575.678848 kJ/mol
# GULP energy per Si atom -12389.391971 kJ/mol
# Density = 2.194128 g / cm^3
# Si number density = 21.991331 Si / 1000 Ang^3
#
#
#
# Elastic Constant Matrix: (Units=GPa)
#
#
# Indices 1 2 3 4 5 6 
#
# 1 85.2861 29.0872 38.3288 0.0000 0.0000 0.0000
# 2 29.0872 161.7299 46.5130 0.0000 0.0000 0.0000
# 3 38.3288 46.5130 116.3623 0.0000 0.0000 0.0000
# 4 0.0000 0.0000 0.0000 36.3183 0.0000 0.0000
# 5 0.0000 0.0000 0.0000 0.0000 41.7338 0.0000
# 6 0.0000 0.0000 0.0000 0.0000 0.0000 27.9152
#
#
#
# Elastic Compliance Matrix: (Units=1/GPa)
#
#
# Indices 1 2 3 4 5 6 
#
# 1 0.014018 -0.001348 -0.004079 0.000000 0.000000 0.000000
# 2 -0.001348 0.007116 -0.002400 0.000000 0.000000 0.000000
# 3 -0.004079 -0.002400 0.010897 0.000000 0.000000 0.000000
# 4 0.000000 0.000000 0.000000 0.027534 0.000000 0.000000
# 5 0.000000 0.000000 0.000000 0.000000 0.023961 0.000000
# 6 0.000000 0.000000 0.000000 0.000000 0.000000 0.035823
#
#
# Mechanical properties :
#
#
# Convention : Reuss Voigt Hill
#
# Bulk Modulus (GPa) = 61.06268 65.69295 63.37782
# Shear Modulus (GPa) = 35.59678 37.82341 36.71010
#
# Velocity S-wave (km/s) = 4.02764 4.15170 4.09014
# Velocity P-wave (km/s) = 7.03251 7.27456 7.15455
#
# Compressibility (1/GPa) = 0.01637661
#
# Stress axis : x y z
#
# Youngs Moduli (GPa) = 71.33696 140.52936 91.77036
#
# Poissons Ratio (x) = 0.18946 0.37429
# Poissons Ratio (y) = 0.09617 0.22028
# Poissons Ratio (z) = 0.29095 0.33732
#
# Static dielectric constant tensor:
#      x y z
#    x 3.997330 0.000000 0.000000 
#    y 0.000000 4.171990 0.000000 
#    z 0.000000 0.000000 4.270500 
# 
# 
# High freq. dielectric constant tensor:
#      x y z
#    x 1.860380 0.000000 0.000000 
#    y 0.000000 1.883480 0.000000 
#    z 0.000000 0.000000 1.853590 
# 
# From -- ./inp_files/24635.got.cif
#   From: 2010.03.12/outbox.cif.g09.slc.cpg/sg50_13_cif.got.tgz:24635.got - 2010.04.16 13:23:21.
