data_PCOD8205589
_publ_section_title
;
Structure prediction by ZEFSAII (Michael W. Deem and Ramdas Pophale) SiO2 
 PCOD8205589
Probable space group: P B A N
;
_chemical_formula_sum "Si O2"
_cell_formula_units_Z 60
_cell_length_a 9.016206
_cell_length_b 29.807311
_cell_length_c 12.201683
_cell_angle_alpha 90.000000
_cell_angle_beta 90.000000
_cell_angle_gamma 90.000000
_cell_volume 3279.188351
_symmetry_space_group_name_H-M "P B A N"
_symmetry_group_IT_number 50
_space_group.IT_coordinate_system_code '2'
_symmetry_cell_setting 'orthorhombic'
loop_
_space_group_symop_operation_xyz
x,y,z
1/2-x,1/2-y,z
x,1/2-y,-z
1/2-x,y,-z
-x,-y,-z
1/2+x,1/2+y,-z
-x,1/2+y,z
1/2+x,-y,z
loop_
_atom_site_type_symbol
_atom_site_label
_atom_site_fract_x
_atom_site_fract_y
_atom_site_fract_z
Si Si1 0.468659 0.939444 0.037807
Si Si2 0.929649 0.302367 0.110771
Si Si3 0.069374 0.896084 0.198461
Si Si4 0.579760 0.295322 0.132160
Si Si5 0.750000 0.988611 0.000000
Si Si6 0.092345 0.042339 0.634165
Si Si7 0.404974 0.882513 0.235819
Si Si8 0.438213 0.451796 0.383040
O O1 0.442065 0.897165 0.112508
O O2 0.355799 0.979542 0.074323
O O3 0.434777 0.925760 0.912346
O O4 0.636016 0.956280 0.064228
O O5 0.991103 0.345637 0.176050
O O6 0.753204 0.301593 0.110536
O O7 0.974242 0.254684 0.167611
O O8 0.993598 0.305369 0.986782
O O9 0.231278 0.892251 0.253969
O O10 0.962645 0.918997 0.285635
O O11 0.543600 0.330218 0.230854
O O12 0.036734 0.054050 0.512282
O O13 0.267976 0.040082 0.644685
O O14 0.028401 0.993725 0.666690
O O15 0.501234 0.906613 0.328049
#
# Coordination Sequence:
#
# PCOD8205589 Si02
#       8
#     8   8   8   8   4   8   8   8
#     4  11  22  34  45  75 104 143 172 210 252 314
#     4   8  14  27  48  76 108 138 168 208 257 308
#     4  11  20  32  54  79 108 136 174 214 258 315
#     4   8  14  27  48  76 108 138 168 208 257 308
#     4  10  24  34  44  62 114 146 172 204 256 308
#     4  10  23  40  56  75 101 137 180 222 262 305
#     4  11  20  32  54  79 108 136 174 214 258 315
#     4  10  23  40  56  75 101 137 180 222 262 305
#
# _framework density 18.297211999999998
#
# number of rings (size 3 to 8) (size 9 to 14) (size 15 to 20)
#    0.000    2.133    2.667    1.600    5.600    1.600 
#    0.000    0.000    0.000    1.600    0.000    8.400 
#    0.000    0.000    0.000    0.000    0.000    0.000 
#
# Total GULP energy -743403.516827 kJ/mol
# GULP energy per Si atom -12390.058614 kJ/mol
# Density = 1.825557 g / cm^3
# Si number density = 18.297212 Si / 1000 Ang^3
#
#
#
# Elastic Constant Matrix: (Units=GPa)
#
#
# Indices 1 2 3 4 5 6 
#
# 1 63.6059 28.0308 20.6158 0.0000 0.0000 0.0000
# 2 28.0308 139.5710 45.8752 0.0000 0.0000 0.0000
# 3 20.6158 45.8752 64.9801 0.0000 0.0000 0.0000
# 4 0.0000 0.0000 0.0000 20.9130 0.0000 0.0000
# 5 0.0000 0.0000 0.0000 0.0000 22.6903 0.0000
# 6 0.0000 0.0000 0.0000 0.0000 0.0000 16.2683
#
#
#
# Elastic Compliance Matrix: (Units=1/GPa)
#
#
# Indices 1 2 3 4 5 6 
#
# 1 0.018060 -0.002271 -0.004127 0.000000 0.000000 0.000000
# 2 -0.002271 0.009615 -0.006068 0.000000 0.000000 0.000000
# 3 -0.004127 -0.006068 0.020982 0.000000 0.000000 0.000000
# 4 0.000000 0.000000 0.000000 0.047817 0.000000 0.000000
# 5 0.000000 0.000000 0.000000 0.000000 0.044072 0.000000
# 6 0.000000 0.000000 0.000000 0.000000 0.000000 0.061469
#
#
# Mechanical properties :
#
#
# Convention : Reuss Voigt Hill
#
# Bulk Modulus (GPa) = 42.14572 50.80005 46.47289
# Shear Modulus (GPa) = 21.28969 23.55000 22.41985
#
# Velocity S-wave (km/s) = 3.41478 3.59148 3.50425
# Velocity P-wave (km/s) = 6.21543 6.70988 6.46738
#
# Compressibility (1/GPa) = 0.02372720
#
# Stress axis : x y z
#
# Youngs Moduli (GPa) = 55.37083 104.00119 47.65898
#
# Poissons Ratio (x) = 0.23616 0.19667
# Poissons Ratio (y) = 0.12573 0.28919
# Poissons Ratio (z) = 0.22850 0.63106
#
# Static dielectric constant tensor:
#      x y z
#    x 3.236190 0.000000 0.000000 
#    y 0.000000 3.739510 0.000000 
#    z 0.000000 0.000000 3.079230 
# 
# 
# High freq. dielectric constant tensor:
#      x y z
#    x 1.691090 0.000000 0.000000 
#    y 0.000000 1.718900 0.000000 
#    z 0.000000 0.000000 1.673750 
# 
# From -- ./inp_files/19508.got.cif
#   From: 2010.03.12/outbox.cif.g09.slc.cpg/sg50_10_cif.got.tgz:19508.got - 2010.04.16 13:23:21.
