data_PCOD8205168
_publ_section_title
;
Structure prediction by ZEFSAII (Michael W. Deem and Ramdas Pophale) SiO2 
 PCOD8205168
Probable space group: P B A N
;
_chemical_formula_sum "Si O2"
_cell_formula_units_Z 44
_cell_length_a 18.164813
_cell_length_b 14.289020
_cell_length_c 8.546451
_cell_angle_alpha 90.000000
_cell_angle_beta 90.000000
_cell_angle_gamma 90.000000
_cell_volume 2218.294398
_symmetry_space_group_name_H-M "P B A N"
_symmetry_group_IT_number 50
_space_group.IT_coordinate_system_code '2'
_symmetry_cell_setting 'orthorhombic'
loop_
_space_group_symop_operation_xyz
x,y,z
1/2-x,1/2-y,z
x,1/2-y,-z
1/2-x,y,-z
-x,-y,-z
1/2+x,1/2+y,-z
-x,1/2+y,z
1/2+x,-y,z
loop_
_atom_site_type_symbol
_atom_site_label
_atom_site_fract_x
_atom_site_fract_y
_atom_site_fract_z
Si Si1 0.323397 0.122632 0.242656
Si Si2 0.104955 0.653686 0.190106
Si Si3 0.750000 0.750000 0.000000
Si Si4 0.891669 0.363920 0.174277
Si Si5 0.975709 0.980027 0.177879
Si Si6 0.750000 0.750000 0.500000
Si Si7 0.756500 0.067618 0.319216
O O1 0.305008 0.186442 0.096860
O O2 0.407932 0.090569 0.215184
O O3 0.305176 0.183931 0.398257
O O4 0.271817 0.031037 0.235481
O O5 0.078562 0.759487 0.209024
O O6 0.042879 0.581243 0.254662
O O7 0.179048 0.641734 0.288558
O O8 0.120784 0.624293 0.010736
O O9 0.816061 0.384032 0.257298
O O10 0.951942 0.432831 0.251857
O O11 0.000000 0.000000 0.000000
O O12 0.750000 0.046299 0.500000
#
# Coordination Sequence:
#
# PCOD8205168 Si02
#       7
#     8   8   2   8   8   2   8
#     4  10  22  40  60  92 120 161 207 260 304 365
#     4   9  20  37  58  86 117 151 201 248 302 359
#     4  10  24  34  68  94 110 162 222 246 300 362
#     4  10  20  37  59  86 116 158 192 253 308 358
#     4   9  20  37  60  91 125 152 198 260 316 362
#     4  10  20  46  60  82 130 170 214 246 308 378
#     4  11  22  37  59  82 119 155 200 248 298 359
#
# _framework density 19.835059000000001
#
# number of rings (size 3 to 8) (size 9 to 14) (size 15 to 20)
#    0.000    2.182    0.909    1.091    7.636    5.818 
#    3.273    5.455    0.000    0.000    0.000    0.000 
#    0.000    0.000    0.000    0.000    0.000    0.000 
#
# Total GULP energy -545194.153380 kJ/mol
# GULP energy per Si atom -12390.776213 kJ/mol
# Density = 1.978991 g / cm^3
# Si number density = 19.835059 Si / 1000 Ang^3
#
#
#
# Elastic Constant Matrix: (Units=GPa)
#
#
# Indices 1 2 3 4 5 6 
#
# 1 105.9971 46.0409 23.2091 0.0000 0.0000 0.0000
# 2 46.0409 109.3437 29.4934 0.0000 0.0000 0.0000
# 3 23.2091 29.4934 61.3011 0.0000 0.0000 0.0000
# 4 0.0000 0.0000 0.0000 3.2104 0.0000 0.0000
# 5 0.0000 0.0000 0.0000 0.0000 10.4180 0.0000
# 6 0.0000 0.0000 0.0000 0.0000 0.0000 30.2931
#
#
#
# Elastic Compliance Matrix: (Units=1/GPa)
#
#
# Indices 1 2 3 4 5 6 
#
# 1 0.011844 -0.004341 -0.002396 0.000000 0.000000 0.000000
# 2 -0.004341 0.012100 -0.004178 0.000000 0.000000 0.000000
# 3 -0.002396 -0.004178 0.019230 0.000000 0.000000 0.000000
# 4 0.000000 0.000000 0.000000 0.311490 0.000000 0.000000
# 5 0.000000 0.000000 0.000000 0.000000 0.095987 0.000000
# 6 0.000000 0.000000 0.000000 0.000000 0.000000 0.033011
#
#
# Mechanical properties :
#
#
# Convention : Reuss Voigt Hill
#
# Bulk Modulus (GPa) = 46.84973 52.68098 49.76535
# Shear Modulus (GPa) = 9.75404 20.64421 15.19912
#
# Velocity S-wave (km/s) = 2.21997 3.22963 2.77117
# Velocity P-wave (km/s) = 5.49927 6.36589 5.94838
#
# Compressibility (1/GPa) = 0.02134484
#
# Stress axis : x y z
#
# Youngs Moduli (GPa) = 84.42821 82.64245 52.00150
#
# Poissons Ratio (x) = 0.35875 0.12459
# Poissons Ratio (y) = 0.36651 0.21727
# Poissons Ratio (z) = 0.20227 0.34530
#
# Static dielectric constant tensor:
#      x y z
#    x 3.727200 0.000000 0.000000 
#    y 0.000000 3.992990 0.000000 
#    z 0.000000 0.000000 3.564210 
# 
# 
# High freq. dielectric constant tensor:
#      x y z
#    x 1.768430 0.000000 0.000000 
#    y 0.000000 1.797310 0.000000 
#    z 0.000000 0.000000 1.750920 
# 
# From -- ./inp_files/14161.got.cif
#   From: 2010.03.12/outbox.cif.g09.slc.cpg/sg50_8_cif.got.tgz:14161.got - 2010.04.16 13:23:21.
