data_PCOD8205934
_publ_section_title
;
Structure prediction by ZEFSAII (Michael W. Deem and Ramdas Pophale) SiO2 
 PCOD8205934
Probable space group: P M M A
;
_chemical_formula_sum "Si O2"
_cell_formula_units_Z 36
_cell_length_a 8.969697
_cell_length_b 17.951847
_cell_length_c 15.409799
_cell_angle_alpha 90.000000
_cell_angle_beta 90.000000
_cell_angle_gamma 90.000000
_cell_volume 2481.326335
_symmetry_space_group_name_H-M "P M M A"
_symmetry_group_IT_number 51
_symmetry_cell_setting 'orthorhombic'
loop_
_space_group_symop_operation_xyz
x,y,z
1/2-x,-y,z
1/2+x,-y,-z
-x,y,-z
-x,-y,-z
1/2+x,y,-z
1/2-x,y,z
x,-y,z
loop_
_atom_site_type_symbol
_atom_site_label
_atom_site_fract_x
_atom_site_fract_y
_atom_site_fract_z
Si Si1 0.582395 0.411330 0.415359
Si Si2 0.925601 0.585433 0.758756
Si Si3 0.076271 0.142199 0.092481
Si Si4 0.572025 0.000000 0.096250
Si Si5 0.922713 0.693268 0.907978
O O1 0.500000 0.378434 0.500000
O O2 0.750000 0.380435 0.414853
O O3 0.579605 0.500000 0.418896
O O4 0.500491 0.383581 0.328683
O O5 0.750000 0.594641 0.746813
O O6 0.970460 0.500000 0.776698
O O7 0.986485 0.633955 0.839155
O O8 0.250000 0.121571 0.083411
O O9 0.053737 0.224088 0.134162
O O10 0.990704 0.075081 0.143867
O O11 0.000000 0.148793 0.000000
O O12 0.750000 0.000000 0.094575
O O13 0.500000 0.000000 0.000000
O O14 0.750000 0.678606 0.925357
O O15 0.000000 0.681612 0.000000
#
# Coordination Sequence:
#
# PCOD8205934 Si02
#       5
#     8   8   8   4   8
#     4   9  16  26  41  60  78  96 120 153 195 240
#     4   9  17  29  42  56  76 102 132 165 198 230
#     4   9  15  24  36  50  69  93 122 154 189 227
#     4  10  16  22  34  52  70  88 115 150 189 230
#     4   9  18  29  40  54  74 103 136 167 197 227
#
# _framework density 14.508369
#
# number of rings (size 3 to 8) (size 9 to 14) (size 15 to 20)
#    0.000    2.889    0.000    3.667    0.000    4.889 
#    0.000    0.000    0.000    0.000    0.000    0.000 
#    0.000    0.000    0.000    1.000    0.000   11.222 
#
# Total GULP energy -446056.470063 kJ/mol
# GULP energy per Si atom -12390.457502 kJ/mol
# Density = 1.447535 g / cm^3
# Si number density = 14.508369 Si / 1000 Ang^3
#
#
#
# Elastic Constant Matrix: (Units=GPa)
#
#
# Indices 1 2 3 4 5 6 
#
# 1 83.0298 39.8538 39.3929 0.0000 0.0000 0.0000
# 2 39.8538 83.3195 49.9846 0.0000 0.0000 0.0000
# 3 39.3929 49.9846 88.0506 0.0000 0.0000 0.0000
# 4 0.0000 0.0000 0.0000 1.0647 0.0000 0.0000
# 5 0.0000 0.0000 0.0000 0.0000 19.9302 0.0000
# 6 0.0000 0.0000 0.0000 0.0000 0.0000 16.7485
#
#
#
# Elastic Compliance Matrix: (Units=1/GPa)
#
#
# Indices 1 2 3 4 5 6 
#
# 1 0.016712 -0.005320 -0.004457 0.000000 0.000000 0.000000
# 2 -0.005320 0.019894 -0.008913 0.000000 0.000000 0.000000
# 3 -0.004457 -0.008913 0.018411 0.000000 0.000000 0.000000
# 4 0.000000 0.000000 0.000000 0.939198 0.000000 0.000000
# 5 0.000000 0.000000 0.000000 0.000000 0.050175 0.000000
# 6 0.000000 0.000000 0.000000 0.000000 0.000000 0.059707
#
#
# Mechanical properties :
#
#
# Convention : Reuss Voigt Hill
#
# Bulk Modulus (GPa) = 56.69988 56.98473 56.84230
# Shear Modulus (GPa) = 4.35785 15.89326 10.12556
#
# Velocity S-wave (km/s) = 1.73499 3.31336 2.64467
# Velocity P-wave (km/s) = 6.57109 7.34848 6.97063
#
# Compressibility (1/GPa) = 0.01763672
#
# Stress axis : x y z
#
# Youngs Moduli (GPa) = 59.83762 50.26666 54.31593
#
# Poissons Ratio (x) = 0.26743 0.24206
# Poissons Ratio (y) = 0.31834 0.48413
# Poissons Ratio (z) = 0.26667 0.44804
#
# Static dielectric constant tensor:
#      x y z
#    x 6.550050 0.000000 0.000000 
#    y 0.000000 3.577780 0.000000 
#    z 0.000000 0.000000 2.603680 
# 
# 
# High freq. dielectric constant tensor:
#      x y z
#    x 1.567470 0.000000 0.000000 
#    y 0.000000 1.541860 0.000000 
#    z 0.000000 0.000000 1.506820 
# 
# From -- ./inp_files/14181.got.cif
#   From: 2010.03.12/outbox.cif.g09.slc.cpg/sg51_8_cif.got.tgz:14181.got - 2010.04.16 13:43:02.
