data_PCOD8205258
_publ_section_title
;
Structure prediction by ZEFSAII (Michael W. Deem and Ramdas Pophale) SiO2 
 PCOD8205258
Probable space group: P B A N
;
_chemical_formula_sum "Si O2"
_cell_formula_units_Z 48
_cell_length_a 27.223604
_cell_length_b 9.273790
_cell_length_c 9.217548
_cell_angle_alpha 90.000000
_cell_angle_beta 90.000000
_cell_angle_gamma 90.000000
_cell_volume 2327.117349
_symmetry_space_group_name_H-M "P B A N"
_symmetry_group_IT_number 50
_space_group.IT_coordinate_system_code '2'
_symmetry_cell_setting 'orthorhombic'
loop_
_space_group_symop_operation_xyz
x,y,z
1/2-x,1/2-y,z
x,1/2-y,-z
1/2-x,y,-z
-x,-y,-z
1/2+x,1/2+y,-z
-x,1/2+y,z
1/2+x,-y,z
loop_
_atom_site_type_symbol
_atom_site_label
_atom_site_fract_x
_atom_site_fract_y
_atom_site_fract_z
Si Si1 0.649738 0.415898 0.041642
Si Si2 0.871310 0.908757 0.513183
Si Si3 0.460101 0.902542 0.422311
Si Si4 0.538705 0.400312 0.079584
Si Si5 0.797331 0.578284 0.729539
Si Si6 0.687454 0.602220 0.785365
O O1 0.593063 0.463388 0.054605
O O2 0.676640 0.442140 0.194108
O O3 0.655203 0.250000 0.000000
O O4 0.678362 0.518348 0.932283
O O5 0.896250 0.750000 0.500000
O O6 0.819147 0.907758 0.431047
O O7 0.857599 0.941825 0.679592
O O8 0.906947 0.027422 0.446068
O O9 0.460280 0.750000 0.500000
O O10 0.472167 0.886503 0.251573
O O11 0.500000 0.000000 0.500000
O O12 0.533559 0.250000 0.000000
O O13 0.500000 0.500000 0.000000
O O14 0.739388 0.551560 0.718707
O O15 0.810633 0.726364 0.815212
#
# Coordination Sequence:
#
# PCOD8205258 Si02
#       6
#     8   8   8   8   8   8
#     4  11  24  40  61  92 130 167 213 260 322 383
#     4  10  22  40  65  95 128 166 215 265 323 378
#     4  12  26  45  71  98 132 168 216 269 325 391
#     4  11  26  46  68  95 131 170 213 265 326 390
#     4  10  20  42  59  94 126 168 219 264 319 372
#     4  10  22  36  67  90 127 171 214 268 313 381
#
# _framework density 20.626376
#
# number of rings (size 3 to 8) (size 9 to 14) (size 15 to 20)
#    0.000    1.333    1.667    3.000    7.000    6.000 
#    0.000    0.000    0.000    3.000    0.000    0.000 
#    0.000    0.000    0.000    0.000    0.000    0.000 
#
# Total GULP energy -595251.843583 kJ/mol
# GULP energy per Si atom -12401.080075 kJ/mol
# Density = 2.057943 g / cm^3
# Si number density = 20.626376 Si / 1000 Ang^3
#
#
#
# Elastic Constant Matrix: (Units=GPa)
#
#
# Indices 1 2 3 4 5 6 
#
# 1 106.3174 48.0361 31.6602 0.0000 0.0000 0.0000
# 2 48.0361 93.5581 45.0945 0.0000 0.0000 0.0000
# 3 31.6602 45.0945 112.0393 0.0000 0.0000 0.0000
# 4 0.0000 0.0000 0.0000 33.0989 0.0000 0.0000
# 5 0.0000 0.0000 0.0000 0.0000 36.7690 0.0000
# 6 0.0000 0.0000 0.0000 0.0000 0.0000 32.0351
#
#
#
# Elastic Compliance Matrix: (Units=1/GPa)
#
#
# Indices 1 2 3 4 5 6 
#
# 1 0.012368 -0.005789 -0.001165 0.000000 0.000000 0.000000
# 2 -0.005789 0.015970 -0.004792 0.000000 0.000000 0.000000
# 3 -0.001165 -0.004792 0.011183 0.000000 0.000000 0.000000
# 4 0.000000 0.000000 0.000000 0.030212 0.000000 0.000000
# 5 0.000000 0.000000 0.000000 0.000000 0.027197 0.000000
# 6 0.000000 0.000000 0.000000 0.000000 0.000000 0.031216
#
#
# Mechanical properties :
#
#
# Convention : Reuss Voigt Hill
#
# Bulk Modulus (GPa) = 62.38239 62.38852 62.38545
# Shear Modulus (GPa) = 31.85067 32.85552 32.35309
#
# Velocity S-wave (km/s) = 3.93386 3.99543 3.96476
# Velocity P-wave (km/s) = 7.13746 7.18312 7.16033
#
# Compressibility (1/GPa) = 0.01603017
#
# Stress axis : x y z
#
# Youngs Moduli (GPa) = 80.85248 62.61560 89.41769
#
# Poissons Ratio (x) = 0.36246 0.10418
# Poissons Ratio (y) = 0.46803 0.42850
# Poissons Ratio (z) = 0.09420 0.30006
#
# Static dielectric constant tensor:
#      x y z
#    x 3.857330 0.000000 0.000000 
#    y 0.000000 2.476030 0.000000 
#    z 0.000000 0.000000 3.751480 
# 
# 
# High freq. dielectric constant tensor:
#      x y z
#    x 1.815510 0.000000 0.000000 
#    y 0.000000 1.802080 0.000000 
#    z 0.000000 0.000000 1.817770 
# 
# From -- ./inp_files/16915.got.cif
#   From: 2010.03.12/outbox.cif.g09.slc.cpg/sg50_9_cif.got.tgz:16915.got - 2010.04.16 13:23:21.
