data_PCOD8205984
_publ_section_title
;
Structure prediction by ZEFSAII (Michael W. Deem and Ramdas Pophale) SiO2 
 PCOD8205984
Probable space group: P M M A
;
_chemical_formula_sum "Si O2"
_cell_formula_units_Z 56
_cell_length_a 21.970454
_cell_length_b 8.935708
_cell_length_c 14.806112
_cell_angle_alpha 90.000000
_cell_angle_beta 90.000000
_cell_angle_gamma 90.000000
_cell_volume 2906.759029
_symmetry_space_group_name_H-M "P M M A"
_symmetry_group_IT_number 51
_symmetry_cell_setting 'orthorhombic'
loop_
_space_group_symop_operation_xyz
x,y,z
1/2-x,-y,z
1/2+x,-y,-z
-x,y,-z
-x,-y,-z
1/2+x,y,-z
1/2-x,y,z
x,-y,z
loop_
_atom_site_type_symbol
_atom_site_label
_atom_site_fract_x
_atom_site_fract_y
_atom_site_fract_z
Si Si1 0.578693 0.824968 0.722255
Si Si2 0.372750 0.175930 0.628629
Si Si3 0.931835 0.666739 0.532617
Si Si4 0.750000 0.837504 0.153090
Si Si5 0.371988 0.168354 0.957866
Si Si6 0.750000 0.326633 0.328832
Si Si7 0.680715 0.822755 0.860660
Si Si8 0.950769 0.823466 0.201871
O O1 0.573621 0.725825 0.633896
O O2 0.642366 0.784572 0.770889
O O3 0.522016 0.784180 0.788396
O O4 0.575346 0.000000 0.696383
O O5 0.400162 0.214816 0.532085
O O6 0.308044 0.252691 0.626804
O O7 0.413936 0.239758 0.711184
O O8 0.365577 0.000000 0.637477
O O9 0.902645 0.500000 0.527831
O O10 0.000000 0.656475 0.500000
O O11 0.808495 0.826888 0.092344
O O12 0.750000 0.701291 0.222018
O O13 0.750000 0.000000 0.203766
O O14 0.423291 0.245282 0.892468
O O15 0.394216 0.000000 0.977645
O O16 0.357741 0.247212 0.054535
O O17 0.750000 0.500000 0.350116
O O18 0.750000 0.757694 0.853143
O O19 0.685185 0.000000 0.875246
O O20 0.939528 0.000000 0.198665
#
# Coordination Sequence:
#
# PCOD8205984 Si02
#       8
#     8   8   8   4   8   4   8   8
#     4  10  20  35  55  82 112 144 190 242 289 343
#     4  11  21  37  60  84 113 151 195 236 288 350
#     4  11  23  39  60  84 110 147 190 236 298 359
#     4  10  16  28  52  77 106 151 194 223 268 334
#     4   9  15  26  49  81 112 142 184 233 282 331
#     4  12  24  36  52  83 124 153 186 237 292 344
#     4   9  17  30  51  81 115 149 186 235 288 334
#     4   9  17  28  50  84 113 140 180 235 288 335
#
# _framework density 19.265443000000001
#
# number of rings (size 3 to 8) (size 9 to 14) (size 15 to 20)
#    0.000    2.000    3.571    1.500    0.000    1.143 
#    1.286    2.857    0.000    0.857    0.000    1.000 
#    0.000    0.000    0.000    0.000    0.000    0.000 
#
# Total GULP energy -693970.132153 kJ/mol
# GULP energy per Si atom -12392.323788 kJ/mol
# Density = 1.922159 g / cm^3
# Si number density = 19.265443 Si / 1000 Ang^3
#
#
#
# Elastic Constant Matrix: (Units=GPa)
#
#
# Indices 1 2 3 4 5 6 
#
# 1 105.0976 23.8329 49.5041 0.0000 0.0000 0.0000
# 2 23.8329 53.9373 24.7789 0.0000 0.0000 0.0000
# 3 49.5041 24.7789 119.1838 0.0000 0.0000 0.0000
# 4 0.0000 0.0000 0.0000 59.6642 0.0000 0.0000
# 5 0.0000 0.0000 0.0000 0.0000 11.3318 0.0000
# 6 0.0000 0.0000 0.0000 0.0000 0.0000 12.9945
#
#
#
# Elastic Compliance Matrix: (Units=1/GPa)
#
#
# Indices 1 2 3 4 5 6 
#
# 1 0.012380 -0.003436 -0.004428 0.000000 0.000000 0.000000
# 2 -0.003436 0.021452 -0.003033 0.000000 0.000000 0.000000
# 3 -0.004428 -0.003033 0.010860 0.000000 0.000000 0.000000
# 4 0.000000 0.000000 0.000000 0.016760 0.000000 0.000000
# 5 0.000000 0.000000 0.000000 0.000000 0.088247 0.000000
# 6 0.000000 0.000000 0.000000 0.000000 0.000000 0.076956
#
#
# Mechanical properties :
#
#
# Convention : Reuss Voigt Hill
#
# Bulk Modulus (GPa) = 43.67112 52.71674 48.19393
# Shear Modulus (GPa) = 19.52514 28.80496 24.16505
#
# Velocity S-wave (km/s) = 3.18697 3.87093 3.54548
# Velocity P-wave (km/s) = 6.02160 6.88488 6.46766
#
# Compressibility (1/GPa) = 0.02289843
#
# Stress axis : x y z
#
# Youngs Moduli (GPa) = 80.77731 46.61671 92.08119
#
# Poissons Ratio (x) = 0.16018 0.40770
# Poissons Ratio (y) = 0.27756 0.27925
# Poissons Ratio (z) = 0.35765 0.14137
#
# Static dielectric constant tensor:
#      x y z
#    x 3.651700 0.000000 0.000000 
#    y 0.000000 3.209790 0.000000 
#    z 0.000000 0.000000 3.743610 
# 
# 
# High freq. dielectric constant tensor:
#      x y z
#    x 1.757120 0.000000 0.000000 
#    y 0.000000 1.693620 0.000000 
#    z 0.000000 0.000000 1.754040 
# 
# From -- ./inp_files/25875.got.cif
#   From: 2010.03.12/outbox.cif.g09.slc.cpg/sg51_13_cif.got.tgz:25875.got - 2010.04.16 13:43:02.
