data_PCOD8205220
_publ_section_title
;
Structure prediction by ZEFSAII (Michael W. Deem and Ramdas Pophale) SiO2 
 PCOD8205220
Probable space group: P B A N
;
_chemical_formula_sum "Si O2"
_cell_formula_units_Z 34
_cell_length_a 5.347277
_cell_length_b 22.611033
_cell_length_c 14.001696
_cell_angle_alpha 90.000000
_cell_angle_beta 90.000000
_cell_angle_gamma 90.000000
_cell_volume 1692.909453
_symmetry_space_group_name_H-M "P B A N"
_symmetry_group_IT_number 50
_space_group.IT_coordinate_system_code '2'
_symmetry_cell_setting 'orthorhombic'
loop_
_space_group_symop_operation_xyz
x,y,z
1/2-x,1/2-y,z
x,1/2-y,-z
1/2-x,y,-z
-x,-y,-z
1/2+x,1/2+y,-z
-x,1/2+y,z
1/2+x,-y,z
loop_
_atom_site_type_symbol
_atom_site_label
_atom_site_fract_x
_atom_site_fract_y
_atom_site_fract_z
Si Si1 0.250000 0.750000 0.500000
Si Si2 0.248580 0.820499 0.108750
Si Si3 0.535129 0.024169 0.393358
Si Si4 0.918364 0.653044 0.590423
Si Si5 0.752222 0.819175 0.792447
O O1 0.411004 0.789997 0.571400
O O2 0.250000 0.750000 0.114170
O O3 0.496370 0.846269 0.160852
O O4 0.999943 0.846215 0.160233
O O5 0.250000 0.842738 0.000000
O O6 0.583575 0.094621 0.390993
O O7 0.500000 0.000000 0.500000
O O8 0.272765 0.006876 0.341200
O O9 0.750000 0.638903 0.500000
O O10 0.741715 0.666995 0.680007
O O11 0.750000 0.750000 0.812272
#
# Coordination Sequence:
#
# PCOD8205220 Si02
#       5
#     2   8   8   8   8
#     4  12  26  36  52  78 122 184 190 222 286 360
#     4   9  18  34  54  74 104 146 190 235 280 331
#     4  10  20  39  59  77 100 151 198 257 287 314
#     4  12  25  37  56  80 123 161 200 234 288 351
#     4  10  21  33  51  79 113 148 188 231 275 348
#
# _framework density 20.083767000000002
#
# number of rings (size 3 to 8) (size 9 to 14) (size 15 to 20)
#    0.000    1.647    2.353    3.882    8.235    2.824 
#    0.000    0.000    0.000    0.000    0.000    0.000 
#    0.000   18.824    0.000    0.000    0.000    0.000 
#
# Total GULP energy -421516.931063 kJ/mol
# GULP energy per Si atom -12397.556796 kJ/mol
# Density = 2.003806 g / cm^3
# Si number density = 20.083767 Si / 1000 Ang^3
#
#
#
# Elastic Constant Matrix: (Units=GPa)
#
#
# Indices 1 2 3 4 5 6 
#
# 1 182.2958 35.9357 65.4961 0.0000 0.0000 0.0000
# 2 35.9357 92.3332 5.5016 0.0000 0.0000 0.0000
# 3 65.4961 5.5016 124.4925 0.0000 0.0000 0.0000
# 4 0.0000 0.0000 0.0000 -2.7611 0.0000 0.0000
# 5 0.0000 0.0000 0.0000 0.0000 36.2772 0.0000
# 6 0.0000 0.0000 0.0000 0.0000 0.0000 23.5871
#
#
#
# Elastic Compliance Matrix: (Units=1/GPa)
#
#
# Indices 1 2 3 4 5 6 
#
# 1 0.007354 -0.002639 -0.003752 0.000000 0.000000 0.000000
# 2 -0.002639 0.011806 0.000866 0.000000 0.000000 0.000000
# 3 -0.003752 0.000866 0.009968 0.000000 0.000000 0.000000
# 4 0.000000 0.000000 0.000000 -0.362177 0.000000 0.000000
# 5 0.000000 0.000000 0.000000 0.000000 0.027566 0.000000
# 6 0.000000 0.000000 0.000000 0.000000 0.000000 0.042396
#
#
# Mechanical properties :
#
#
# Convention : Reuss Voigt Hill
#
# Bulk Modulus (GPa) = 55.31244 68.10981 61.71113
# Shear Modulus (GPa) = -20.32421 30.89985 5.28782
#
# Velocity S-wave (km/s) = -3.18460 3.92669 1.62438
# Velocity P-wave (km/s) = 3.75212 7.38546 5.85762
#
# Compressibility (1/GPa) = 0.01807911
#
# Stress axis : x y z
#
# Youngs Moduli (GPa) = 135.98301 84.70550 100.31669
#
# Poissons Ratio (x) = 0.22350 0.37642
# Poissons Ratio (y) = 0.35879 -0.08692
# Poissons Ratio (z) = 0.51025 -0.07339
#
# Static dielectric constant tensor:
#      x y z
#    x 3.744980 0.000000 0.000000 
#    y 0.000000 3.332790 0.000000 
#    z 0.000000 0.000000 3.409050 
# 
# 
# High freq. dielectric constant tensor:
#      x y z
#    x 1.808970 0.000000 0.000000 
#    y 0.000000 1.737350 0.000000 
#    z 0.000000 0.000000 1.751850 
# 
# From -- ./inp_files/17754.got.cif
#   From: 2010.03.12/outbox.cif.g09.slc.cpg/sg50_9_cif.got.tgz:17754.got - 2010.04.16 13:23:21.
