data_PCOD8205528
_publ_section_title
;
Structure prediction by ZEFSAII (Michael W. Deem and Ramdas Pophale) SiO2 
 PCOD8205528
Probable space group: P B A N
;
_chemical_formula_sum "Si O2"
_cell_formula_units_Z 48
_cell_length_a 9.046162
_cell_length_b 22.697376
_cell_length_c 10.974272
_cell_angle_alpha 90.000000
_cell_angle_beta 90.000000
_cell_angle_gamma 90.000000
_cell_volume 2253.282963
_symmetry_space_group_name_H-M "P B A N"
_symmetry_group_IT_number 50
_space_group.IT_coordinate_system_code '2'
_symmetry_cell_setting 'orthorhombic'
loop_
_space_group_symop_operation_xyz
x,y,z
1/2-x,1/2-y,z
x,1/2-y,-z
1/2-x,y,-z
-x,-y,-z
1/2+x,1/2+y,-z
-x,1/2+y,z
1/2+x,-y,z
loop_
_atom_site_type_symbol
_atom_site_label
_atom_site_fract_x
_atom_site_fract_y
_atom_site_fract_z
Si Si1 0.982540 0.657200 0.762330
Si Si2 0.224908 0.886276 0.638075
Si Si3 0.588272 0.155072 0.974229
Si Si4 0.053107 0.543179 0.171494
Si Si5 0.093228 0.723208 0.256085
Si Si6 0.772476 0.571531 0.860823
O O1 0.118111 0.620352 0.706444
O O2 0.983554 0.723174 0.701624
O O3 0.828460 0.620789 0.760650
O O4 0.994147 0.666360 0.907084
O O5 0.250000 0.905520 0.500000
O O6 0.134723 0.937854 0.703968
O O7 0.127936 0.825391 0.639499
O O8 0.595033 0.086289 0.939432
O O9 0.519431 0.190463 0.859576
O O10 0.750000 0.179257 0.000000
O O11 0.101248 0.478199 0.132061
O O12 0.877158 0.544600 0.193946
O O13 0.250000 0.750000 0.215203
O O14 0.750000 0.595986 0.000000
#
# Coordination Sequence:
#
# PCOD8205528 Si02
#       6
#     8   8   8   8   8   8
#     4  11  21  34  57  92 126 160 210 254 315 381
#     4  10  22  41  64  90 121 165 217 269 313 367
#     4  11  17  31  56  88 124 158 198 257 320 375
#     4  11  23  39  60  90 127 166 215 261 318 379
#     4   9  18  30  57  88 122 155 200 256 308 374
#     4  12  24  38  62  94 131 170 206 259 329 396
#
# _framework density 21.302251999999999
#
# number of rings (size 3 to 8) (size 9 to 14) (size 15 to 20)
#    0.000    1.333    6.667    2.500    0.000    3.000 
#    0.000    7.500    0.000    0.000    0.000   11.667 
#    0.000    0.000    0.000    0.000    0.000    0.000 
#
# Total GULP energy -594751.493058 kJ/mol
# GULP energy per Si atom -12390.656105 kJ/mol
# Density = 2.125377 g / cm^3
# Si number density = 21.302252 Si / 1000 Ang^3
#
#
#
# Elastic Constant Matrix: (Units=GPa)
#
#
# Indices 1 2 3 4 5 6 
#
# 1 97.9269 21.8417 19.0215 0.0000 0.0000 0.0000
# 2 21.8417 72.9921 1.5449 0.0000 0.0000 0.0000
# 3 19.0215 1.5449 65.6157 0.0000 0.0000 0.0000
# 4 0.0000 0.0000 0.0000 10.1295 0.0000 0.0000
# 5 0.0000 0.0000 0.0000 0.0000 11.5844 0.0000
# 6 0.0000 0.0000 0.0000 0.0000 0.0000 31.1107
#
#
#
# Elastic Compliance Matrix: (Units=1/GPa)
#
#
# Indices 1 2 3 4 5 6 
#
# 1 0.011609 -0.003404 -0.003285 0.000000 0.000000 0.000000
# 2 -0.003404 0.014705 0.000641 0.000000 0.000000 0.000000
# 3 -0.003285 0.000641 0.016178 0.000000 0.000000 0.000000
# 4 0.000000 0.000000 0.000000 0.098721 0.000000 0.000000
# 5 0.000000 0.000000 0.000000 0.000000 0.086323 0.000000
# 6 0.000000 0.000000 0.000000 0.000000 0.000000 0.032143
#
#
# Mechanical properties :
#
#
# Convention : Reuss Voigt Hill
#
# Bulk Modulus (GPa) = 32.90110 35.70566 34.30338
# Shear Modulus (GPa) = 17.73626 23.50670 20.62148
#
# Velocity S-wave (km/s) = 2.88861 3.32548 3.11471
# Velocity P-wave (km/s) = 5.15789 5.61631 5.39197
#
# Compressibility (1/GPa) = 0.03039412
#
# Stress axis : x y z
#
# Youngs Moduli (GPa) = 86.13904 68.00292 61.81404
#
# Poissons Ratio (x) = 0.23150 0.20308
# Poissons Ratio (y) = 0.29325 -0.03960
# Poissons Ratio (z) = 0.28299 -0.04357
#
# Static dielectric constant tensor:
#      x y z
#    x 4.151810 0.000000 0.000000 
#    y 0.000000 4.164140 0.000000 
#    z 0.000000 0.000000 3.444130 
# 
# 
# High freq. dielectric constant tensor:
#      x y z
#    x 1.813730 0.000000 0.000000 
#    y 0.000000 1.842950 0.000000 
#    z 0.000000 0.000000 1.791170 
# 
# From -- ./inp_files/19152.got.cif
#   From: 2010.03.12/outbox.cif.g09.slc.cpg/sg50_10_cif.got.tgz:19152.got - 2010.04.16 13:23:21.
