data_PCOD8205998
_publ_section_title
;
Structure prediction by ZEFSAII (Michael W. Deem and Ramdas Pophale) SiO2 
 PCOD8205998
Probable space group: P M M A
;
_chemical_formula_sum "Si O2"
_cell_formula_units_Z 56
_cell_length_a 21.732909
_cell_length_b 8.925451
_cell_length_c 14.756905
_cell_angle_alpha 90.000000
_cell_angle_beta 90.000000
_cell_angle_gamma 90.000000
_cell_volume 2862.485616
_symmetry_space_group_name_H-M "P M M A"
_symmetry_group_IT_number 51
_symmetry_cell_setting 'orthorhombic'
loop_
_space_group_symop_operation_xyz
x,y,z
1/2-x,-y,z
1/2+x,-y,-z
-x,y,-z
-x,-y,-z
1/2+x,y,-z
1/2-x,y,z
x,-y,z
loop_
_atom_site_type_symbol
_atom_site_label
_atom_site_fract_x
_atom_site_fract_y
_atom_site_fract_z
Si Si1 0.625721 0.825453 0.130845
Si Si2 0.068993 0.664893 0.030478
Si Si3 0.080950 0.322700 0.237792
Si Si4 0.750000 0.672975 0.172151
Si Si5 0.542165 0.179399 0.299090
Si Si6 0.250000 0.836406 0.651290
Si Si7 0.321552 0.820672 0.356800
Si Si8 0.626275 0.831184 0.458157
O O1 0.690406 0.744598 0.128665
O O2 0.582798 0.766092 0.213060
O O3 0.636132 0.000000 0.142917
O O4 0.597891 0.790613 0.033125
O O5 0.100837 0.500000 0.021049
O O6 0.073547 0.722885 0.133139
O O7 0.000000 0.646336 0.000000
O O8 0.079970 0.500000 0.251818
O O9 0.145941 0.254020 0.270186
O O10 0.025149 0.250612 0.294633
O O11 0.750000 0.500000 0.150228
O O12 0.750000 0.700834 0.279206
O O13 0.574364 0.241201 0.392222
O O14 0.537234 0.000000 0.299430
O O15 0.308887 0.823931 0.590149
O O16 0.250000 0.000000 0.701080
O O17 0.250000 0.769767 0.361027
O O18 0.360956 0.757459 0.443476
O O19 0.324945 0.000000 0.351649
O O20 0.604778 0.000000 0.475125
#
# Coordination Sequence:
#
# PCOD8205998 Si02
#       8
#     8   8   8   4   8   4   8   8
#     4  11  22  37  61  90 120 155 200 256 302 347
#     4  10  21  40  63  85 114 157 199 239 300 370
#     4  11  24  41  61  85 120 159 194 242 299 359
#     4  12  24  36  54  85 128 167 196 237 302 372
#     4  10  20  35  60  92 122 152 192 245 298 349
#     4  10  16  32  58  85 116 153 202 245 284 340
#     4  10  21  40  66  89 113 155 206 251 292 345
#     4   9  17  33  61  90 117 152 196 245 294 343
#
# _framework density 19.563417999999999
#
# number of rings (size 3 to 8) (size 9 to 14) (size 15 to 20)
#    0.000    1.714    3.571    1.500    0.000    2.857 
#    1.286    4.286    0.000    0.000    0.000    0.000 
#    0.000    0.000    0.000    0.000    0.000    0.000 
#
# Total GULP energy -694139.440895 kJ/mol
# GULP energy per Si atom -12395.347159 kJ/mol
# Density = 1.951889 g / cm^3
# Si number density = 19.563418 Si / 1000 Ang^3
#
#
#
# Elastic Constant Matrix: (Units=GPa)
#
#
# Indices 1 2 3 4 5 6 
#
# 1 105.0722 35.0683 53.2408 0.0000 0.0000 0.0000
# 2 35.0683 53.8761 26.8067 0.0000 0.0000 0.0000
# 3 53.2408 26.8067 128.2824 0.0000 0.0000 0.0000
# 4 0.0000 0.0000 0.0000 79.9859 0.0000 0.0000
# 5 0.0000 0.0000 0.0000 0.0000 54.6938 0.0000
# 6 0.0000 0.0000 0.0000 0.0000 0.0000 19.9229
#
#
#
# Elastic Compliance Matrix: (Units=1/GPa)
#
#
# Indices 1 2 3 4 5 6 
#
# 1 0.014065 -0.006976 -0.004379 0.000000 0.000000 0.000000
# 2 -0.006976 0.024175 -0.002157 0.000000 0.000000 0.000000
# 3 -0.004379 -0.002157 0.010064 0.000000 0.000000 0.000000
# 4 0.000000 0.000000 0.000000 0.012502 0.000000 0.000000
# 5 0.000000 0.000000 0.000000 0.000000 0.018284 0.000000
# 6 0.000000 0.000000 0.000000 0.000000 0.000000 0.050193
#
#
# Mechanical properties :
#
#
# Convention : Reuss Voigt Hill
#
# Bulk Modulus (GPa) = 46.99408 57.49581 52.24494
# Shear Modulus (GPa) = 30.60003 42.39486 36.49744
#
# Velocity S-wave (km/s) = 3.95922 4.66021 4.32394
# Velocity P-wave (km/s) = 6.70627 7.64264 7.18972
#
# Compressibility (1/GPa) = 0.02127928
#
# Stress axis : x y z
#
# Youngs Moduli (GPa) = 71.10088 41.36567 99.36821
#
# Poissons Ratio (x) = 0.28855 0.43518
# Poissons Ratio (y) = 0.49597 0.21430
# Poissons Ratio (z) = 0.31139 0.08921
#
# Static dielectric constant tensor:
#      x y z
#    x 3.675490 0.000000 0.000000 
#    y 0.000000 3.447230 0.000000 
#    z 0.000000 0.000000 3.798500 
# 
# 
# High freq. dielectric constant tensor:
#      x y z
#    x 1.766740 0.000000 0.000000 
#    y 0.000000 1.736270 0.000000 
#    z 0.000000 0.000000 1.766170 
# 
# From -- ./inp_files/25841.got.cif
#   From: 2010.03.12/outbox.cif.g09.slc.cpg/sg51_13_cif.got.tgz:25841.got - 2010.04.16 13:43:02.
