data_PCOD8205477
_publ_section_title
;
Structure prediction by ZEFSAII (Michael W. Deem and Ramdas Pophale) SiO2 
 PCOD8205477
Probable space group: P B A N
;
_chemical_formula_sum "Si O2"
_cell_formula_units_Z 40
_cell_length_a 5.008633
_cell_length_b 21.370681
_cell_length_c 15.977498
_cell_angle_alpha 90.000000
_cell_angle_beta 90.000000
_cell_angle_gamma 90.000000
_cell_volume 1710.197803
_symmetry_space_group_name_H-M "P B A N"
_symmetry_group_IT_number 50
_space_group.IT_coordinate_system_code '2'
_symmetry_cell_setting 'orthorhombic'
loop_
_space_group_symop_operation_xyz
x,y,z
1/2-x,1/2-y,z
x,1/2-y,-z
1/2-x,y,-z
-x,-y,-z
1/2+x,1/2+y,-z
-x,1/2+y,z
1/2+x,-y,z
loop_
_atom_site_type_symbol
_atom_site_label
_atom_site_fract_x
_atom_site_fract_y
_atom_site_fract_z
Si Si1 0.146798 0.609081 0.779991
Si Si2 0.017621 0.835388 0.553323
Si Si3 0.224956 0.538584 0.377116
Si Si4 0.496607 0.929943 0.961059
Si Si5 0.864369 0.685030 0.262312
O O1 0.285613 0.557753 0.720641
O O2 0.035689 0.573322 0.861663
O O3 0.383943 0.660683 0.794195
O O4 0.884998 0.637382 0.735418
O O5 0.750000 0.833641 0.500000
O O6 0.969484 0.803318 0.643223
O O7 0.250000 0.800031 0.500000
O O8 0.129476 0.905060 0.565773
O O9 0.528924 0.519293 0.396711
O O10 0.250000 0.892473 0.000000
O O11 0.750000 0.894109 0.000000
O O12 0.500000 0.000000 0.000000
O O13 0.750000 0.750000 0.224767
#
# Coordination Sequence:
#
# PCOD8205477 Si02
#       5
#     8   8   8   8   8
#     4  11  23  41  66  95 138 169 220 275 317 396
#     4  11  23  41  61  90 128 163 222 286 332 385
#     4  11  23  36  59  88 125 180 214 254 323 408
#     4  10  22  37  62 100 137 174 201 259 326 393
#     4  11  24  45  69  94 123 176 230 276 337 385
#
# _framework density 23.389109000000001
#
# number of rings (size 3 to 8) (size 9 to 14) (size 15 to 20)
#    0.000    1.200    0.000    7.800    5.600    2.800 
#    0.000    3.000    0.000    9.000    0.000    0.000 
#    0.000    0.000    0.000    0.000    0.000    0.000 
#
# Total GULP energy -495562.862806 kJ/mol
# GULP energy per Si atom -12389.071570 kJ/mol
# Density = 2.333587 g / cm^3
# Si number density = 23.389109 Si / 1000 Ang^3
#
#
#
# Elastic Constant Matrix: (Units=GPa)
#
#
# Indices 1 2 3 4 5 6 
#
# 1 200.6544 21.7498 50.2553 0.0000 0.0000 0.0000
# 2 21.7498 60.8337 23.9829 0.0000 0.0000 0.0000
# 3 50.2553 23.9829 120.0110 0.0000 0.0000 0.0000
# 4 0.0000 0.0000 0.0000 11.8009 0.0000 0.0000
# 5 0.0000 0.0000 0.0000 0.0000 48.2463 0.0000
# 6 0.0000 0.0000 0.0000 0.0000 0.0000 -311.4830
#
#
#
# Elastic Compliance Matrix: (Units=1/GPa)
#
#
# Indices 1 2 3 4 5 6 
#
# 1 0.005644 -0.001179 -0.002128 0.000000 0.000000 0.000000
# 2 -0.001179 0.018090 -0.003121 0.000000 0.000000 0.000000
# 3 -0.002128 -0.003121 0.009847 0.000000 0.000000 0.000000
# 4 0.000000 0.000000 0.000000 0.084739 0.000000 0.000000
# 5 0.000000 0.000000 0.000000 0.000000 0.020727 0.000000
# 6 0.000000 0.000000 0.000000 0.000000 0.000000 -0.003210
#
#
# Mechanical properties :
#
#
# Convention : Reuss Voigt Hill
#
# Bulk Modulus (GPa) = 48.25030 63.71944 55.98487
# Shear Modulus (GPa) = 32.13291 -31.25308 0.43991
#
# Velocity S-wave (km/s) = 3.71056 -3.65941 0.43416
# Velocity P-wave (km/s) = 6.24754 3.07366 4.92337
#
# Compressibility (1/GPa) = 0.02072526
#
# Stress axis : x y z
#
# Youngs Moduli (GPa) = 177.16414 55.27794 101.54894
#
# Poissons Ratio (x) = 0.06518 0.21610
# Poissons Ratio (y) = 0.20890 0.31698
# Poissons Ratio (z) = 0.37701 0.17254
#
# Static dielectric constant tensor:
#      x y z
#    x 4.639290 0.000000 0.000000 
#    y 0.000000 3.989410 0.000000 
#    z 0.000000 0.000000 4.037340 
# 
# 
# High freq. dielectric constant tensor:
#      x y z
#    x 1.965720 0.000000 0.000000 
#    y 0.000000 1.894550 0.000000 
#    z 0.000000 0.000000 1.909170 
# 
# From -- ./inp_files/23929.got.cif
#   From: 2010.03.12/outbox.cif.g09.slc.cpg/sg50_12_cif.got.tgz:23929.got - 2010.04.16 13:23:21.
