data_PCOD8205607
_publ_section_title
;
Structure prediction by ZEFSAII (Michael W. Deem and Ramdas Pophale) SiO2 
 PCOD8205607
Probable space group: P B A N
;
_chemical_formula_sum "Si O2"
_cell_formula_units_Z 30
_cell_length_a 5.208550
_cell_length_b 13.085925
_cell_length_c 19.357563
_cell_angle_alpha 90.000000
_cell_angle_beta 90.000000
_cell_angle_gamma 90.000000
_cell_volume 1319.386226
_symmetry_space_group_name_H-M "P B A N"
_symmetry_group_IT_number 50
_space_group.IT_coordinate_system_code '2'
_symmetry_cell_setting 'orthorhombic'
loop_
_space_group_symop_operation_xyz
x,y,z
1/2-x,1/2-y,z
x,1/2-y,-z
1/2-x,y,-z
-x,-y,-z
1/2+x,1/2+y,-z
-x,1/2+y,z
1/2+x,-y,z
loop_
_atom_site_type_symbol
_atom_site_label
_atom_site_fract_x
_atom_site_fract_y
_atom_site_fract_z
Si Si1 0.750000 0.750000 0.829257
Si Si2 0.503407 0.693199 0.696603
Si Si3 0.750000 0.250000 0.500000
Si Si4 0.765403 0.938961 0.080312
Si Si5 0.574318 0.437194 0.420594
O O1 0.533391 0.696102 0.780266
O O2 0.855172 0.660880 0.877989
O O3 0.250000 0.750000 0.673130
O O4 0.473702 0.580267 0.662397
O O5 0.750000 0.750000 0.663226
O O6 0.565867 0.323801 0.454052
O O7 0.481116 0.977652 0.099767
O O8 0.750000 0.910427 0.000000
O O9 0.345631 0.512429 0.443424
#
# Coordination Sequence:
#
# PCOD8205607 Si02
#       5
#     4   8   2   8   8
#     4  10  25  40  72  93 136 178 224 274 350 383
#     4  10  23  44  65  96 136 174 217 281 333 397
#     4  12  28  50  76 100 152 166 242 278 332 416
#     4  10  23  41  63  96 134 175 227 279 331 402
#     4  12  27  47  74 103 134 183 224 275 348 402
#
# _framework density 22.737845
#
# number of rings (size 3 to 8) (size 9 to 14) (size 15 to 20)
#    0.800    0.533    1.333    2.800    3.733    3.200 
#    0.000    4.000    0.000    0.000    0.000    0.000 
#    0.000    0.000    0.000    0.000    0.000    0.000 
#
# Total GULP energy -371665.249308 kJ/mol
# GULP energy per Si atom -12388.841644 kJ/mol
# Density = 2.268609 g / cm^3
# Si number density = 22.737845 Si / 1000 Ang^3
#
#
#
# Elastic Constant Matrix: (Units=GPa)
#
#
# Indices 1 2 3 4 5 6 
#
# 1 161.4171 47.5954 34.4487 0.0000 0.0000 0.0000
# 2 47.5954 131.1240 69.9497 0.0000 0.0000 0.0000
# 3 34.4487 69.9497 96.5118 0.0000 0.0000 0.0000
# 4 0.0000 0.0000 0.0000 53.6335 0.0000 0.0000
# 5 0.0000 0.0000 0.0000 0.0000 36.0678 0.0000
# 6 0.0000 0.0000 0.0000 0.0000 0.0000 30.3780
#
#
#
# Elastic Compliance Matrix: (Units=1/GPa)
#
#
# Indices 1 2 3 4 5 6 
#
# 1 0.007005 -0.001971 -0.001072 0.000000 0.000000 0.000000
# 2 -0.001971 0.012988 -0.008710 0.000000 0.000000 0.000000
# 3 -0.001072 -0.008710 0.017057 0.000000 0.000000 0.000000
# 4 0.000000 0.000000 0.000000 0.018645 0.000000 0.000000
# 5 0.000000 0.000000 0.000000 0.000000 0.027726 0.000000
# 6 0.000000 0.000000 0.000000 0.000000 0.000000 0.032919
#
#
# Mechanical properties :
#
#
# Convention : Reuss Voigt Hill
#
# Bulk Modulus (GPa) = 73.83120 77.00449 75.41784
# Shear Modulus (GPa) = 34.63559 39.81981 37.22770
#
# Velocity S-wave (km/s) = 3.90713 4.18934 4.05069
# Velocity P-wave (km/s) = 7.27292 7.57235 7.42414
#
# Compressibility (1/GPa) = 0.01354441
#
# Stress axis : x y z
#
# Youngs Moduli (GPa) = 142.75485 76.99245 58.62704
#
# Poissons Ratio (x) = 0.15174 0.06284
# Poissons Ratio (y) = 0.28135 0.51065
# Poissons Ratio (z) = 0.15302 0.67062
#
# Static dielectric constant tensor:
#      x y z
#    x 3.907620 0.000000 0.000000 
#    y 0.000000 3.700790 0.000000 
#    z 0.000000 0.000000 4.212310 
# 
# 
# High freq. dielectric constant tensor:
#      x y z
#    x 1.892500 0.000000 0.000000 
#    y 0.000000 1.882040 0.000000 
#    z 0.000000 0.000000 1.912270 
# 
# From -- ./inp_files/27918.got.cif
#   From: 2010.03.12/outbox.cif.g09.slc.cpg/sg50_14_cif.got.tgz:27918.got - 2010.04.16 13:23:21.
