data_PCOD8205117
_publ_section_title
;
Structure prediction by ZEFSAII (Michael W. Deem and Ramdas Pophale) SiO2 
 PCOD8205117
Probable space group: P B A N
;
_chemical_formula_sum "Si O2"
_cell_formula_units_Z 48
_cell_length_a 22.448002
_cell_length_b 12.648866
_cell_length_c 8.617557
_cell_angle_alpha 90.000000
_cell_angle_beta 90.000000
_cell_angle_gamma 90.000000
_cell_volume 2446.884381
_symmetry_space_group_name_H-M "P B A N"
_symmetry_group_IT_number 50
_space_group.IT_coordinate_system_code '2'
_symmetry_cell_setting 'orthorhombic'
loop_
_space_group_symop_operation_xyz
x,y,z
1/2-x,1/2-y,z
x,1/2-y,-z
1/2-x,y,-z
-x,-y,-z
1/2+x,1/2+y,-z
-x,1/2+y,z
1/2+x,-y,z
loop_
_atom_site_type_symbol
_atom_site_label
_atom_site_fract_x
_atom_site_fract_y
_atom_site_fract_z
Si Si1 0.850304 0.781256 0.178752
Si Si2 0.297122 0.478942 0.702758
Si Si3 0.419758 0.980612 0.857966
Si Si4 0.529549 0.849156 0.908744
Si Si5 0.814719 0.372867 0.958520
Si Si6 0.667438 0.927197 0.368546
O O1 0.806611 0.881402 0.180853
O O2 0.919402 0.814026 0.213559
O O3 0.829121 0.692850 0.303100
O O4 0.847488 0.750000 0.000000
O O5 0.322506 0.589356 0.777319
O O6 0.226788 0.492369 0.676032
O O7 0.335312 0.439027 0.553945
O O8 0.475785 0.905872 0.818466
O O9 0.392453 0.019663 0.696188
O O10 0.368120 0.919912 0.945629
O O11 0.440526 0.077790 0.960955
O O12 0.501415 0.750000 0.000000
O O13 0.814454 0.250000 0.000000
O O14 0.750000 0.421853 0.000000
#
# Coordination Sequence:
#
# PCOD8205117 Si02
#       6
#     8   8   8   8   8   8
#     4  11  20  37  61  93 123 162 209 253 309 383
#     4  11  23  38  60  94 130 160 197 262 327 391
#     4  11  20  37  62  87 120 163 208 258 306 364
#     4  10  20  35  61  92 117 158 219 263 298 349
#     4  11  22  38  63  90 116 159 219 264 304 368
#     4  11  22  38  60  93 135 162 194 254 339 384
#
# _framework density 19.616783999999999
#
# number of rings (size 3 to 8) (size 9 to 14) (size 15 to 20)
#    0.000    1.167    6.667    1.500    0.000    2.000 
#    0.000    1.667    0.000    2.000    0.000    0.000 
#    0.000    0.000    0.000    0.000    0.000    0.000 
#
# Total GULP energy -594728.165221 kJ/mol
# GULP energy per Si atom -12390.170109 kJ/mol
# Density = 1.957214 g / cm^3
# Si number density = 19.616784 Si / 1000 Ang^3
#
#
#
# Elastic Constant Matrix: (Units=GPa)
#
#
# Indices 1 2 3 4 5 6 
#
# 1 97.0943 29.7467 32.9564 0.0000 0.0000 0.0000
# 2 29.7467 112.2648 43.0003 0.0000 0.0000 0.0000
# 3 32.9564 43.0003 78.7143 0.0000 0.0000 0.0000
# 4 0.0000 0.0000 0.0000 31.3181 0.0000 0.0000
# 5 0.0000 0.0000 0.0000 0.0000 31.3943 0.0000
# 6 0.0000 0.0000 0.0000 0.0000 0.0000 54.1396
#
#
#
# Elastic Compliance Matrix: (Units=1/GPa)
#
#
# Indices 1 2 3 4 5 6 
#
# 1 0.012234 -0.001618 -0.004238 0.000000 0.000000 0.000000
# 2 -0.001618 0.011479 -0.005593 0.000000 0.000000 0.000000
# 3 -0.004238 -0.005593 0.017534 0.000000 0.000000 0.000000
# 4 0.000000 0.000000 0.000000 0.031930 0.000000 0.000000
# 5 0.000000 0.000000 0.000000 0.000000 0.031853 0.000000
# 6 0.000000 0.000000 0.000000 0.000000 0.000000 0.018471
#
#
# Mechanical properties :
#
#
# Convention : Reuss Voigt Hill
#
# Bulk Modulus (GPa) = 54.50319 55.49781 55.00050
# Shear Modulus (GPa) = 32.78378 35.52839 34.15609
#
# Velocity S-wave (km/s) = 4.09248 4.26035 4.17726
# Velocity P-wave (km/s) = 7.08346 7.24935 7.16689
#
# Compressibility (1/GPa) = 0.01834755
#
# Stress axis : x y z
#
# Youngs Moduli (GPa) = 81.74261 87.11885 57.03236
#
# Poissons Ratio (x) = 0.14098 0.24170
# Poissons Ratio (y) = 0.13228 0.31898
# Poissons Ratio (z) = 0.34642 0.48726
#
# Static dielectric constant tensor:
#      x y z
#    x 3.962760 0.000000 0.000000 
#    y 0.000000 2.753010 0.000000 
#    z 0.000000 0.000000 4.106360 
# 
# 
# High freq. dielectric constant tensor:
#      x y z
#    x 1.773060 0.000000 0.000000 
#    y 0.000000 1.766440 0.000000 
#    z 0.000000 0.000000 1.737980 
# 
# From -- ./inp_files/15966.got.cif
#   From: 2010.03.12/outbox.cif.g09.slc.cpg/sg50_8_cif.got.tgz:15966.got - 2010.04.16 13:23:21.
