data_PCOD8205541
_publ_section_title
;
Structure prediction by ZEFSAII (Michael W. Deem and Ramdas Pophale) SiO2 
 PCOD8205541
Probable space group: P B A N
;
_chemical_formula_sum "Si O2"
_cell_formula_units_Z 26
_cell_length_a 5.271966
_cell_length_b 31.843981
_cell_length_c 7.425721
_cell_angle_alpha 90.000000
_cell_angle_beta 90.000000
_cell_angle_gamma 90.000000
_cell_volume 1246.632901
_symmetry_space_group_name_H-M "P B A N"
_symmetry_group_IT_number 50
_space_group.IT_coordinate_system_code '2'
_symmetry_cell_setting 'orthorhombic'
loop_
_space_group_symop_operation_xyz
x,y,z
1/2-x,1/2-y,z
x,1/2-y,-z
1/2-x,y,-z
-x,-y,-z
1/2+x,1/2+y,-z
-x,1/2+y,z
1/2+x,-y,z
loop_
_atom_site_type_symbol
_atom_site_label
_atom_site_fract_x
_atom_site_fract_y
_atom_site_fract_z
Si Si1 0.750000 0.750000 0.500000
Si Si2 0.500652 0.517953 0.297103
Si Si3 0.500935 0.102226 0.116905
Si Si4 0.989651 0.670063 0.604793
O O1 0.929089 0.720132 0.624688
O O2 0.500000 0.500000 0.500000
O O3 0.250751 0.499944 0.197546
O O4 0.500551 0.568491 0.281085
O O5 0.510051 0.148893 0.200186
O O6 0.250000 0.096738 0.000000
O O7 0.750000 0.094929 0.000000
O O8 0.750000 0.648997 0.500000
O O9 0.250000 0.662354 0.500000
#
# Coordination Sequence:
#
# PCOD8205541 Si02
#       4
#     2   8   8   8
#     4   8  22  40  76  96 122 164 236 252 302 396
#     4  10  23  39  64  91 125 176 224 259 310 386
#     4  12  26  42  65 100 137 167 212 276 338 375
#     4  10  22  41  73  93 128 173 218 262 311 399
#
# _framework density 20.856179999999998
#
# number of rings (size 3 to 8) (size 9 to 14) (size 15 to 20)
#    0.923    0.615    0.000    4.154    8.615    3.692 
#    0.000    0.769    0.000    0.000    0.000    0.000 
#    0.000    0.000    0.000    0.000    0.000    0.000 
#
# Total GULP energy -322120.119479 kJ/mol
# GULP energy per Si atom -12389.235365 kJ/mol
# Density = 2.080871 g / cm^3
# Si number density = 20.856180 Si / 1000 Ang^3
#
#
#
# Elastic Constant Matrix: (Units=GPa)
#
#
# Indices 1 2 3 4 5 6 
#
# 1 218.1432 46.3019 42.1711 0.0000 0.0000 0.0000
# 2 46.3019 158.1117 65.6773 0.0000 0.0000 0.0000
# 3 42.1711 65.6773 88.2187 0.0000 0.0000 0.0000
# 4 0.0000 0.0000 0.0000 34.9972 0.0000 0.0000
# 5 0.0000 0.0000 0.0000 0.0000 12.1694 0.0000
# 6 0.0000 0.0000 0.0000 0.0000 0.0000 21.4523
#
#
#
# Elastic Compliance Matrix: (Units=1/GPa)
#
#
# Indices 1 2 3 4 5 6 
#
# 1 0.005103 -0.000697 -0.001921 0.000000 0.000000 0.000000
# 2 -0.000697 0.009251 -0.006554 0.000000 0.000000 0.000000
# 3 -0.001921 -0.006554 0.017133 0.000000 0.000000 0.000000
# 4 0.000000 0.000000 0.000000 0.028574 0.000000 0.000000
# 5 0.000000 0.000000 0.000000 0.000000 0.082173 0.000000
# 6 0.000000 0.000000 0.000000 0.000000 0.000000 0.046615
#
#
# Mechanical properties :
#
#
# Convention : Reuss Voigt Hill
#
# Bulk Modulus (GPa) = 76.07973 85.86379 80.97176
# Shear Modulus (GPa) = 23.63224 34.41200 29.02212
#
# Velocity S-wave (km/s) = 3.36981 4.06638 3.73438
# Velocity P-wave (km/s) = 7.19015 7.95652 7.58302
#
# Compressibility (1/GPa) = 0.01314411
#
# Stress axis : x y z
#
# Youngs Moduli (GPa) = 195.94972 108.09383 58.36548
#
# Poissons Ratio (x) = 0.07529 0.11212
# Poissons Ratio (y) = 0.13648 0.38255
# Poissons Ratio (z) = 0.37642 0.70849
#
# Static dielectric constant tensor:
#      x y z
#    x 5.481790 0.000000 0.000000 
#    y 0.000000 3.729950 0.000000 
#    z 0.000000 0.000000 3.411850 
# 
# 
# High freq. dielectric constant tensor:
#      x y z
#    x 1.854390 0.000000 0.000000 
#    y 0.000000 1.814670 0.000000 
#    z 0.000000 0.000000 1.777470 
# 
# From -- ./inp_files/7740.got.cif
#   From: 2010.03.12/outbox.cif.g09.slc.cpg/sg50_4_cif.got.tgz:7740.got - 2010.04.16 13:23:21.
