data_PCOD8205055
_publ_section_title
;
Structure prediction by ZEFSAII (Michael W. Deem and Ramdas Pophale) SiO2 
 PCOD8205055
Probable space group: P B A N
;
_chemical_formula_sum "Si O2"
_cell_formula_units_Z 56
_cell_length_a 8.998831
_cell_length_b 24.005917
_cell_length_c 12.816789
_cell_angle_alpha 90.000000
_cell_angle_beta 90.000000
_cell_angle_gamma 90.000000
_cell_volume 2768.749280
_symmetry_space_group_name_H-M "P B A N"
_symmetry_group_IT_number 50
_space_group.IT_coordinate_system_code '2'
_symmetry_cell_setting 'orthorhombic'
loop_
_space_group_symop_operation_xyz
x,y,z
1/2-x,1/2-y,z
x,1/2-y,-z
1/2-x,y,-z
-x,-y,-z
1/2+x,1/2+y,-z
-x,1/2+y,z
1/2+x,-y,z
loop_
_atom_site_type_symbol
_atom_site_label
_atom_site_fract_x
_atom_site_fract_y
_atom_site_fract_z
Si Si1 0.414971 0.057060 0.886918
Si Si2 0.905449 0.958319 0.121460
Si Si3 0.075358 0.637932 0.792282
Si Si4 0.426492 0.253595 0.877728
Si Si5 0.923867 0.352609 0.796261
Si Si6 0.426171 0.940901 0.611067
Si Si7 0.920213 0.444978 0.625173
O O1 0.254082 0.058373 0.827592
O O2 0.494251 0.117172 0.893627
O O3 0.532603 0.015931 0.828640
O O4 0.380938 0.032753 0.999418
O O5 0.033702 0.912488 0.131935
O O6 0.247697 0.653521 0.806757
O O7 0.035276 0.615463 0.675928
O O8 0.973663 0.689089 0.824709
O O9 0.250000 0.250000 0.870944
O O10 0.504600 0.208507 0.801198
O O11 0.477798 0.250000 0.000000
O O12 0.970057 0.392421 0.697903
O O13 0.471586 0.928807 0.491903
O O14 0.254382 0.953654 0.627955
O O15 0.510297 0.995128 0.655985
#
# Coordination Sequence:
#
# PCOD8205055 Si02
#       7
#     8   8   8   8   8   8   8
#     4  10  20  33  50  75 108 143 178 221 275 333
#     4  10  20  33  50  75 108 143 178 221 275 333
#     4  11  22  36  57  82 108 143 186 231 279 330
#     4  11  25  43  60  79 108 148 191 235 282 333
#     4  11  22  36  57  82 108 143 186 231 279 330
#     4   9  19  36  58  86 118 149 182 223 275 333
#     4   9  19  36  58  86 118 149 182 223 275 333
#
# _framework density 20.225739999999998
#
# number of rings (size 3 to 8) (size 9 to 14) (size 15 to 20)
#    0.000    1.857    0.000    3.857    0.000   10.857 
#    0.000    0.714    0.000    4.286    0.000    0.000 
#    0.000    0.000    0.000    0.000    0.000    0.000 
#
# Total GULP energy -693802.915826 kJ/mol
# GULP energy per Si atom -12389.337783 kJ/mol
# Density = 2.017971 g / cm^3
# Si number density = 20.225740 Si / 1000 Ang^3
#
#
#
# Elastic Constant Matrix: (Units=GPa)
#
#
# Indices 1 2 3 4 5 6 
#
# 1 73.1775 11.3725 10.6806 0.0000 0.0000 0.0000
# 2 11.3725 81.4176 4.0046 0.0000 0.0000 0.0000
# 3 10.6806 4.0046 52.5245 0.0000 0.0000 0.0000
# 4 0.0000 0.0000 0.0000 29.0915 0.0000 0.0000
# 5 0.0000 0.0000 0.0000 0.0000 24.0731 0.0000
# 6 0.0000 0.0000 0.0000 0.0000 0.0000 38.2640
#
#
#
# Elastic Compliance Matrix: (Units=1/GPa)
#
#
# Indices 1 2 3 4 5 6 
#
# 1 0.014361 -0.001869 -0.002778 0.000000 0.000000 0.000000
# 2 -0.001869 0.012572 -0.000578 0.000000 0.000000 0.000000
# 3 -0.002778 -0.000578 0.019648 0.000000 0.000000 0.000000
# 4 0.000000 0.000000 0.000000 0.034374 0.000000 0.000000
# 5 0.000000 0.000000 0.000000 0.000000 0.041540 0.000000
# 6 0.000000 0.000000 0.000000 0.000000 0.000000 0.026134
#
#
# Mechanical properties :
#
#
# Convention : Reuss Voigt Hill
#
# Bulk Modulus (GPa) = 27.67794 28.80389 28.24091
# Shear Modulus (GPa) = 29.21855 30.35649 29.78752
#
# Velocity S-wave (km/s) = 3.80494 3.87833 3.84181
# Velocity P-wave (km/s) = 5.74610 5.85895 5.80280
#
# Compressibility (1/GPa) = 0.03612986
#
# Stress axis : x y z
#
# Youngs Moduli (GPa) = 69.63134 79.54228 50.89657
#
# Poissons Ratio (x) = 0.14869 0.14138
# Poissons Ratio (y) = 0.13017 0.02944
# Poissons Ratio (z) = 0.19342 0.04601
#
# Static dielectric constant tensor:
#      x y z
#    x 4.031930 0.000000 0.000000 
#    y 0.000000 3.657580 0.000000 
#    z 0.000000 0.000000 3.834110 
# 
# 
# High freq. dielectric constant tensor:
#      x y z
#    x 1.803810 0.000000 0.000000 
#    y 0.000000 1.779670 0.000000 
#    z 0.000000 0.000000 1.784490 
# 
# From -- ./inp_files/25256.got.cif
#   From: 2010.03.12/outbox.cif.g09.slc.cpg/sg50_13_cif.got.tgz:25256.got - 2010.04.16 13:23:21.
