data_PCOD8205053
_publ_section_title
;
Structure prediction by ZEFSAII (Michael W. Deem and Ramdas Pophale) SiO2 
 PCOD8205053
Probable space group: P B A N
;
_chemical_formula_sum "Si O2"
_cell_formula_units_Z 64
_cell_length_a 8.921876
_cell_length_b 18.041232
_cell_length_c 20.965111
_cell_angle_alpha 90.000000
_cell_angle_beta 90.000000
_cell_angle_gamma 90.000000
_cell_volume 3374.578540
_symmetry_space_group_name_H-M "P B A N"
_symmetry_group_IT_number 50
_space_group.IT_coordinate_system_code '2'
_symmetry_cell_setting 'orthorhombic'
loop_
_space_group_symop_operation_xyz
x,y,z
1/2-x,1/2-y,z
x,1/2-y,-z
1/2-x,y,-z
-x,-y,-z
1/2+x,1/2+y,-z
-x,1/2+y,z
1/2+x,-y,z
loop_
_atom_site_type_symbol
_atom_site_label
_atom_site_fract_x
_atom_site_fract_y
_atom_site_fract_z
Si Si1 0.928151 0.331302 0.500000
Si Si2 0.578644 0.837539 0.762137
Si Si3 0.428119 0.833187 1.000000
Si Si4 0.581868 0.338500 0.363608
Si Si5 0.581868 0.338500 0.636392
Si Si6 0.427316 0.579865 0.123950
Si Si7 0.578644 0.837539 0.237863
Si Si8 0.427316 0.579865 0.876050
O O1 0.003038 0.250000 0.500000
O O2 0.750000 0.323176 0.500000
O O3 0.974039 0.371248 0.567142
O O4 0.974039 0.371248 0.432858
O O5 0.528919 0.865603 0.692066
O O6 0.473529 0.875997 0.813392
O O7 0.555918 0.750000 0.768469
O O8 0.750000 0.861119 0.773152
O O9 0.487264 0.875554 0.062464
O O10 0.494703 0.750000 0.000000
O O11 0.250000 0.830054 0.000000
O O12 0.487264 0.875554 0.937536
O O13 0.581823 0.250000 0.368771
O O14 0.750000 0.366418 0.347734
O O15 0.471082 0.365603 0.307934
O O16 0.250000 0.571252 0.122576
O O17 0.500000 0.500000 0.123529
O O18 0.473529 0.875997 0.186608
#
# Coordination Sequence:
#
# PCOD8205053 Si02
#       8
#     8   8   8   8   8   8   8   8
#     4   7  10  18  35  61  92 125 164 209 254 303
#     4  10  20  33  49  73 105 138 175 218 260 305
#     4   9  19  36  59  85 108 133 168 207 248 300
#     4   8  13  23  41  65  94 130 170 211 257 306
#     4   8  13  23  41  65  94 130 170 211 257 306
#     4  11  22  37  57  79 106 138 172 211 255 304
#     4  10  20  33  49  73 105 138 175 218 260 305
#     4  11  22  37  57  79 106 138 172 211 255 304
#
# _framework density 18.965332
#
# number of rings (size 3 to 8) (size 9 to 14) (size 15 to 20)
#    0.000    2.750    0.000    4.125    0.000    2.500 
#    0.000    2.500    0.000    8.250    0.000    0.875 
#    0.000    0.000    0.000    0.000    0.000    0.000 
#
# Total GULP energy -793133.491271 kJ/mol
# GULP energy per Si atom -12392.710801 kJ/mol
# Density = 1.892217 g / cm^3
# Si number density = 18.965332 Si / 1000 Ang^3
#
#
#
# Elastic Constant Matrix: (Units=GPa)
#
#
# Indices 1 2 3 4 5 6 
#
# 1 65.4925 28.5749 41.6653 0.0000 0.0000 0.0000
# 2 28.5749 46.8936 46.9322 0.0000 0.0000 0.0000
# 3 41.6653 46.9322 180.0815 0.0000 0.0000 0.0000
# 4 0.0000 0.0000 0.0000 -1.1748 0.0000 0.0000
# 5 0.0000 0.0000 0.0000 0.0000 14.3912 0.0000
# 6 0.0000 0.0000 0.0000 0.0000 0.0000 13.1705
#
#
#
# Elastic Compliance Matrix: (Units=1/GPa)
#
#
# Indices 1 2 3 4 5 6 
#
# 1 0.021369 -0.010922 -0.002098 0.000000 0.000000 0.000000
# 2 -0.010922 0.034432 -0.006447 0.000000 0.000000 0.000000
# 3 -0.002098 -0.006447 0.007718 0.000000 0.000000 0.000000
# 4 0.000000 0.000000 0.000000 -0.851184 0.000000 0.000000
# 5 0.000000 0.000000 0.000000 0.000000 0.069487 0.000000
# 6 0.000000 0.000000 0.000000 0.000000 0.000000 0.075927
#
#
# Mechanical properties :
#
#
# Convention : Reuss Voigt Hill
#
# Bulk Modulus (GPa) = 40.67165 58.53470 49.60318
# Shear Modulus (GPa) = -8.40162 16.96373 4.28105
#
# Velocity S-wave (km/s) = -2.10704 2.99400 1.50406
# Velocity P-wave (km/s) = 3.94618 6.54852 5.40627
#
# Compressibility (1/GPa) = 0.02458715
#
# Stress axis : x y z
#
# Youngs Moduli (GPa) = 46.79754 29.04280 129.55948
#
# Poissons Ratio (x) = 0.31720 0.27177
# Poissons Ratio (y) = 0.51111 0.83522
# Poissons Ratio (z) = 0.09817 0.18723
#
# Static dielectric constant tensor:
#      x y z
#    x 3.267560 0.000000 0.000000 
#    y 0.000000 3.095090 0.000000 
#    z 0.000000 0.000000 4.036900 
# 
# 
# High freq. dielectric constant tensor:
#      x y z
#    x 1.714890 0.000000 0.000000 
#    y 0.000000 1.689260 0.000000 
#    z 0.000000 0.000000 1.766200 
# 
# From -- ./inp_files/30728.got.cif
#   From: 2010.03.12/outbox.cif.g09.slc.cpg/sg50_16_cif.got.tgz:30728.got - 2010.04.16 13:23:21.
