data_PCOD8205791
_publ_section_title
;
Structure prediction by ZEFSAII (Michael W. Deem and Ramdas Pophale) SiO2 
 PCOD8205791
Probable space group: P B A N
;
_chemical_formula_sum "Si O2"
_cell_formula_units_Z 60
_cell_length_a 11.852988
_cell_length_b 20.874454
_cell_length_c 10.877205
_cell_angle_alpha 90.000000
_cell_angle_beta 90.000000
_cell_angle_gamma 90.000000
_cell_volume 2691.288670
_symmetry_space_group_name_H-M "P B A N"
_symmetry_group_IT_number 50
_space_group.IT_coordinate_system_code '2'
_symmetry_cell_setting 'orthorhombic'
loop_
_space_group_symop_operation_xyz
x,y,z
1/2-x,1/2-y,z
x,1/2-y,-z
1/2-x,y,-z
-x,-y,-z
1/2+x,1/2+y,-z
-x,1/2+y,z
1/2+x,-y,z
loop_
_atom_site_type_symbol
_atom_site_label
_atom_site_fract_x
_atom_site_fract_y
_atom_site_fract_z
Si Si1 0.624775 0.276491 0.129223
Si Si2 0.451717 0.589329 0.930304
Si Si3 0.750000 0.750000 0.275729
Si Si4 0.310736 0.383549 0.186737
Si Si5 0.993741 0.724315 0.634225
Si Si6 0.899785 0.549740 0.863699
Si Si7 0.504351 0.078634 0.377931
Si Si8 0.350555 0.464578 0.414706
O O1 0.750000 0.250000 0.151795
O O2 0.631376 0.352742 0.103852
O O3 0.548660 0.261984 0.249465
O O4 0.572647 0.250000 0.000000
O O5 0.566884 0.597083 0.857127
O O6 0.387145 0.524961 0.893705
O O7 0.490763 0.583150 0.072681
O O8 0.709403 0.807529 0.188122
O O9 0.857150 0.772301 0.357774
O O10 0.216330 0.415173 0.098233
O O11 0.302658 0.411459 0.323518
O O12 0.031755 0.750000 0.500000
O O13 0.039910 0.652115 0.641239
O O14 0.908410 0.559663 0.718635
O O15 0.455205 0.068393 0.514156
O O16 0.609147 0.030979 0.351859
O O17 0.250000 0.486857 0.500000
#
# Coordination Sequence:
#
# PCOD8205791 Si02
#       8
#     8   8   4   8   8   8   8   8
#     4  11  27  52  73  98 140 197 242 286 359 436
#     4  11  25  46  71  98 141 179 236 294 354 421
#     4  12  23  40  73 104 147 190 219 294 365 438
#     4  12  23  42  67 106 136 179 229 289 359 420
#     4  12  25  45  72 106 144 184 241 296 355 428
#     4  11  23  43  69 103 135 176 230 297 352 423
#     4  11  23  40  66  96 134 180 225 279 346 418
#     4  11  22  40  64  94 137 178 225 278 350 415
#
# _framework density 22.294152
#
# number of rings (size 3 to 8) (size 9 to 14) (size 15 to 20)
#    0.000    0.667    5.333    2.200    0.000    1.333 
#   12.000    1.000    0.000    0.000    0.000    0.000 
#    0.000    0.000    0.000    0.000    0.000    0.000 
#
# Total GULP energy -743829.322582 kJ/mol
# GULP energy per Si atom -12397.155376 kJ/mol
# Density = 2.224341 g / cm^3
# Si number density = 22.294152 Si / 1000 Ang^3
#
#
#
# Elastic Constant Matrix: (Units=GPa)
#
#
# Indices 1 2 3 4 5 6 
#
# 1 79.1512 38.6379 10.0271 0.0000 0.0000 0.0000
# 2 38.6379 167.2059 26.9352 0.0000 0.0000 0.0000
# 3 10.0271 26.9352 90.8864 0.0000 0.0000 0.0000
# 4 0.0000 0.0000 0.0000 26.7802 0.0000 0.0000
# 5 0.0000 0.0000 0.0000 0.0000 53.5053 0.0000
# 6 0.0000 0.0000 0.0000 0.0000 0.0000 31.3308
#
#
#
# Elastic Compliance Matrix: (Units=1/GPa)
#
#
# Indices 1 2 3 4 5 6 
#
# 1 0.014274 -0.003197 -0.000627 0.000000 0.000000 0.000000
# 2 -0.003197 0.006997 -0.001721 0.000000 0.000000 0.000000
# 3 -0.000627 -0.001721 0.011582 0.000000 0.000000 0.000000
# 4 0.000000 0.000000 0.000000 0.037341 0.000000 0.000000
# 5 0.000000 0.000000 0.000000 0.000000 0.018690 0.000000
# 6 0.000000 0.000000 0.000000 0.000000 0.000000 0.031918
#
#
# Mechanical properties :
#
#
# Convention : Reuss Voigt Hill
#
# Bulk Modulus (GPa) = 45.95161 54.27156 50.11159
# Shear Modulus (GPa) = 35.93341 39.76614 37.84977
#
# Velocity S-wave (km/s) = 4.01906 4.22797 4.12484
# Velocity P-wave (km/s) = 6.49564 6.94482 6.72399
#
# Compressibility (1/GPa) = 0.02176202
#
# Stress axis : x y z
#
# Youngs Moduli (GPa) = 70.05569 142.92401 86.34150
#
# Poissons Ratio (x) = 0.45700 0.05415
# Poissons Ratio (y) = 0.22400 0.14858
# Poissons Ratio (z) = 0.04394 0.24594
#
# Static dielectric constant tensor:
#      x y z
#    x 3.953670 0.000000 0.000000 
#    y 0.000000 4.154610 0.000000 
#    z 0.000000 0.000000 4.195120 
# 
# 
# High freq. dielectric constant tensor:
#      x y z
#    x 1.867830 0.000000 0.000000 
#    y 0.000000 1.886590 0.000000 
#    z 0.000000 0.000000 1.885250 
# 
# From -- ./inp_files/20417.got.cif
#   From: 2010.03.12/outbox.cif.g09.slc.cpg/sg50_11_cif.got.tgz:20417.got - 2010.04.16 13:23:21.
