data_PCOD8205897
_publ_section_title
;
Structure prediction by ZEFSAII (Michael W. Deem and Ramdas Pophale) SiO2 
 PCOD8205897
Probable space group: P B A N
;
_chemical_formula_sum "Si O2"
_cell_formula_units_Z 22
_cell_length_a 5.057823
_cell_length_b 31.482948
_cell_length_c 5.417390
_cell_angle_alpha 90.000000
_cell_angle_beta 90.000000
_cell_angle_gamma 90.000000
_cell_volume 862.639064
_symmetry_space_group_name_H-M "P B A N"
_symmetry_group_IT_number 50
_space_group.IT_coordinate_system_code '2'
_symmetry_cell_setting 'orthorhombic'
loop_
_space_group_symop_operation_xyz
x,y,z
1/2-x,1/2-y,z
x,1/2-y,-z
1/2-x,y,-z
-x,-y,-z
1/2+x,1/2+y,-z
-x,1/2+y,z
1/2+x,-y,z
loop_
_atom_site_type_symbol
_atom_site_label
_atom_site_fract_x
_atom_site_fract_y
_atom_site_fract_z
Si Si1 0.250000 0.250000 0.000000
Si Si2 0.904459 0.088435 0.754737
Si Si3 0.003439 0.682933 0.661959
Si Si4 0.250000 0.030270 0.000000
O O1 0.050270 0.220842 0.848574
O O2 0.750000 0.078189 0.500000
O O3 0.942518 0.138560 0.796440
O O4 0.750000 0.072177 0.000000
O O5 0.185411 0.062504 0.766931
O O6 0.750000 0.674425 0.500000
O O7 0.250000 0.697852 0.500000
O O8 0.500000 0.000000 0.000000
#
# Coordination Sequence:
#
# PCOD8205897 Si02
#       4
#     2   8   8   4
#     4  12  28  50  80 112 168 198 278 338 424 454
#     4  11  28  53  82 113 160 213 268 321 399 485
#     4  11  29  50  77 113 153 212 267 327 399 482
#     4  12  27  50  82 123 160 203 262 332 407 472
#
# _framework density 25.503132999999998
#
# number of rings (size 3 to 8) (size 9 to 14) (size 15 to 20)
#    0.000    0.727    1.818    1.636   20.364    5.818 
#    0.000    0.000    0.000    0.000    0.000    0.000 
#    0.000    0.000    0.000    0.000    0.000    0.000 
#
# Total GULP energy -272539.262195 kJ/mol
# GULP energy per Si atom -12388.148282 kJ/mol
# Density = 2.544509 g / cm^3
# Si number density = 25.503133 Si / 1000 Ang^3
#
#
#
# Elastic Constant Matrix: (Units=GPa)
#
#
# Indices 1 2 3 4 5 6 
#
# 1 181.5729 85.9496 83.2573 0.0000 0.0000 0.0000
# 2 85.9496 213.0035 84.1809 0.0000 0.0000 0.0000
# 3 83.2573 84.1809 161.9265 0.0000 0.0000 0.0000
# 4 0.0000 0.0000 0.0000 -44.5999 0.0000 0.0000
# 5 0.0000 0.0000 0.0000 0.0000 19.3660 0.0000
# 6 0.0000 0.0000 0.0000 0.0000 0.0000 35.5789
#
#
#
# Elastic Compliance Matrix: (Units=1/GPa)
#
#
# Indices 1 2 3 4 5 6 
#
# 1 0.007812 -0.001969 -0.002993 0.000000 0.000000 0.000000
# 2 -0.001969 0.006405 -0.002317 0.000000 0.000000 0.000000
# 3 -0.002993 -0.002317 0.008919 0.000000 0.000000 0.000000
# 4 0.000000 0.000000 0.000000 -0.022422 0.000000 0.000000
# 5 0.000000 0.000000 0.000000 0.000000 0.051637 0.000000
# 6 0.000000 0.000000 0.000000 0.000000 0.000000 0.028107
#
#
# Mechanical properties :
#
#
# Convention : Reuss Voigt Hill
#
# Bulk Modulus (GPa) = 116.58674 118.14203 117.36439
# Shear Modulus (GPa) = 51.08482 22.27667 36.68075
#
# Velocity S-wave (km/s) = 4.48043 2.95869 3.79659
# Velocity P-wave (km/s) = 8.51937 7.62213 8.08321
#
# Compressibility (1/GPa) = 0.00857730
#
# Stress axis : x y z
#
# Youngs Moduli (GPa) = 128.00822 156.12137 112.11844
#
# Poissons Ratio (x) = 0.30747 0.33555
# Poissons Ratio (y) = 0.25211 0.25981
# Poissons Ratio (z) = 0.38310 0.36178
#
# Static dielectric constant tensor:
#      x y z
#    x 5.544220 0.000000 0.000000 
#    y 0.000000 5.253060 0.000000 
#    z 0.000000 0.000000 3.977830 
# 
# 
# High freq. dielectric constant tensor:
#      x y z
#    x 2.037340 0.000000 0.000000 
#    y 0.000000 2.056130 0.000000 
#    z 0.000000 0.000000 1.999700 
# 
# From -- ./inp_files/449.got.cif
#   From: 2010.03.12/outbox.cif.g09.slc.cpg/sg50_1_cif.got.tgz:449.got - 2010.04.16 13:23:21.
