data_PCOD8205097
_publ_section_title
;
Structure prediction by ZEFSAII (Michael W. Deem and Ramdas Pophale) SiO2 
 PCOD8205097
Probable space group: P B A N
;
_chemical_formula_sum "Si O2"
_cell_formula_units_Z 40
_cell_length_a 12.264875
_cell_length_b 9.552831
_cell_length_c 16.627039
_cell_angle_alpha 90.000000
_cell_angle_beta 90.000000
_cell_angle_gamma 90.000000
_cell_volume 1948.095022
_symmetry_space_group_name_H-M "P B A N"
_symmetry_group_IT_number 50
_space_group.IT_coordinate_system_code '2'
_symmetry_cell_setting 'orthorhombic'
loop_
_space_group_symop_operation_xyz
x,y,z
1/2-x,1/2-y,z
x,1/2-y,-z
1/2-x,y,-z
-x,-y,-z
1/2+x,1/2+y,-z
-x,1/2+y,z
1/2+x,-y,z
loop_
_atom_site_type_symbol
_atom_site_label
_atom_site_fract_x
_atom_site_fract_y
_atom_site_fract_z
Si Si1 0.892766 0.020737 0.330854
Si Si2 0.683473 0.878907 0.306738
Si Si3 0.011523 0.241854 0.592763
Si Si4 0.487241 0.480132 0.177366
Si Si5 0.375723 0.741891 0.094947
O O1 0.763265 0.000441 0.339840
O O2 0.970367 0.920868 0.385452
O O3 0.918805 0.972947 0.239330
O O4 0.916705 0.182989 0.353512
O O5 0.750000 0.750000 0.270581
O O6 0.620387 0.828521 0.386684
O O7 0.607799 0.921532 0.233614
O O8 0.980050 0.250000 0.500000
O O9 0.435187 0.600467 0.123008
O O10 0.545313 0.366832 0.121383
O O11 0.250000 0.750000 0.128624
O O12 0.370179 0.750000 0.000000
#
# Coordination Sequence:
#
# PCOD8205097 Si02
#       5
#     8   8   8   8   8
#     4  10  20  35  57  83 109 149 196 236 289 348
#     4   9  19  34  57  84 109 149 198 237 289 352
#     4  10  20  35  54  79 113 148 187 239 290 342
#     4  11  21  39  62  83 118 156 195 248 296 357
#     4  11  24  40  61  90 121 155 196 246 304 360
#
# _framework density 20.532878
#
# number of rings (size 3 to 8) (size 9 to 14) (size 15 to 20)
#    0.000    1.800    0.000    6.000    0.000    3.600 
#    0.000    3.000    0.000    9.600    0.000    0.000 
#    0.000    0.000    0.000    0.000    0.000    0.000 
#
# Total GULP energy -495600.446790 kJ/mol
# GULP energy per Si atom -12390.011170 kJ/mol
# Density = 2.048614 g / cm^3
# Si number density = 20.532878 Si / 1000 Ang^3
#
#
#
# Elastic Constant Matrix: (Units=GPa)
#
#
# Indices 1 2 3 4 5 6 
#
# 1 90.6273 41.8680 11.3281 0.0000 0.0000 0.0000
# 2 41.8680 84.6166 27.3255 0.0000 0.0000 0.0000
# 3 11.3281 27.3255 84.1612 0.0000 0.0000 0.0000
# 4 0.0000 0.0000 0.0000 29.1108 0.0000 0.0000
# 5 0.0000 0.0000 0.0000 0.0000 19.8481 0.0000
# 6 0.0000 0.0000 0.0000 0.0000 0.0000 27.5248
#
#
#
# Elastic Compliance Matrix: (Units=1/GPa)
#
#
# Indices 1 2 3 4 5 6 
#
# 1 0.014317 -0.007219 0.000417 0.000000 0.000000 0.000000
# 2 -0.007219 0.016842 -0.004497 0.000000 0.000000 0.000000
# 3 0.000417 -0.004497 0.013286 0.000000 0.000000 0.000000
# 4 0.000000 0.000000 0.000000 0.034352 0.000000 0.000000
# 5 0.000000 0.000000 0.000000 0.000000 0.050383 0.000000
# 6 0.000000 0.000000 0.000000 0.000000 0.000000 0.036331
#
#
# Mechanical properties :
#
#
# Convention : Reuss Voigt Hill
#
# Bulk Modulus (GPa) = 45.77151 46.71649 46.24400
# Shear Modulus (GPa) = 25.58996 27.22231 26.40614
#
# Velocity S-wave (km/s) = 3.53412 3.64509 3.59003
# Velocity P-wave (km/s) = 6.24448 6.36530 6.30518
#
# Compressibility (1/GPa) = 0.02184765
#
# Stress axis : x y z
#
# Youngs Moduli (GPa) = 69.84737 59.37605 75.26816
#
# Poissons Ratio (x) = 0.42861 -0.03136
# Poissons Ratio (y) = 0.50419 0.33845
# Poissons Ratio (z) = -0.02910 0.26699
#
# Static dielectric constant tensor:
#      x y z
#    x 4.177930 0.000000 0.000000 
#    y 0.000000 4.144350 0.000000 
#    z 0.000000 0.000000 3.606850 
# 
# 
# High freq. dielectric constant tensor:
#      x y z
#    x 1.814710 0.000000 0.000000 
#    y 0.000000 1.807360 0.000000 
#    z 0.000000 0.000000 1.791970 
# 
# From -- ./inp_files/26270.got.cif
#   From: 2010.03.12/outbox.cif.g09.slc.cpg/sg50_14_cif.got.tgz:26270.got - 2010.04.16 13:23:21.
