data_PCOD8205835
_publ_section_title
;
Structure prediction by ZEFSAII (Michael W. Deem and Ramdas Pophale) SiO2 
 PCOD8205835
Probable space group: P B A N
;
_chemical_formula_sum "Si O2"
_cell_formula_units_Z 34
_cell_length_a 10.298895
_cell_length_b 20.648936
_cell_length_c 7.038917
_cell_angle_alpha 90.000000
_cell_angle_beta 90.000000
_cell_angle_gamma 90.000000
_cell_volume 1496.904703
_symmetry_space_group_name_H-M "P B A N"
_symmetry_group_IT_number 50
_space_group.IT_coordinate_system_code '2'
_symmetry_cell_setting 'orthorhombic'
loop_
_space_group_symop_operation_xyz
x,y,z
1/2-x,1/2-y,z
x,1/2-y,-z
1/2-x,y,-z
-x,-y,-z
1/2+x,1/2+y,-z
-x,1/2+y,z
1/2+x,-y,z
loop_
_atom_site_type_symbol
_atom_site_label
_atom_site_fract_x
_atom_site_fract_y
_atom_site_fract_z
Si Si1 0.385300 0.392314 0.097939
Si Si2 0.250000 0.750000 0.000000
Si Si3 0.369416 0.991854 0.625654
Si Si4 0.586355 0.140178 0.213976
Si Si5 0.387780 0.323212 0.466614
O O1 0.379918 0.462773 0.190701
O O2 0.428289 0.338100 0.251058
O O3 0.250000 0.372699 0.000000
O O4 0.498724 0.391376 0.946504
O O5 0.332939 0.797727 0.862414
O O6 0.250000 0.015932 0.500000
O O7 0.331249 0.920157 0.703885
O O8 0.500000 0.000000 0.500000
O O9 0.500856 0.158868 0.392467
O O10 0.357062 0.250000 0.500000
O O11 0.250000 0.361125 0.500000
#
# Coordination Sequence:
#
# PCOD8205835 Si02
#       5
#     8   2   8   8   8
#     4  12  24  46  78 113 147 190 259 327 387 455
#     4  12  32  48  72 116 164 222 256 296 410 504
#     4  12  27  47  79 111 147 200 256 321 397 456
#     4  12  27  49  73 109 156 203 252 313 388 479
#     4  11  23  44  72 106 145 193 250 318 384 447
#
# _framework density 22.713536000000001
#
# number of rings (size 3 to 8) (size 9 to 14) (size 15 to 20)
#    0.000    0.235    4.706    4.235    4.941    1.882 
#    0.000    1.176    0.000    0.000    0.000    0.000 
#    0.000    0.000    0.000    0.000    0.000    0.000 
#
# Total GULP energy -421359.466635 kJ/mol
# GULP energy per Si atom -12392.925489 kJ/mol
# Density = 2.266184 g / cm^3
# Si number density = 22.713536 Si / 1000 Ang^3
#
#
#
# Elastic Constant Matrix: (Units=GPa)
#
#
# Indices 1 2 3 4 5 6 
#
# 1 112.8903 37.5050 56.3597 0.0000 0.0000 0.0000
# 2 37.5050 160.8566 53.4840 0.0000 0.0000 0.0000
# 3 56.3597 53.4840 150.1300 0.0000 0.0000 0.0000
# 4 0.0000 0.0000 0.0000 51.2000 0.0000 0.0000
# 5 0.0000 0.0000 0.0000 0.0000 48.1117 0.0000
# 6 0.0000 0.0000 0.0000 0.0000 0.0000 28.3015
#
#
#
# Elastic Compliance Matrix: (Units=1/GPa)
#
#
# Indices 1 2 3 4 5 6 
#
# 1 0.011162 -0.001372 -0.003702 0.000000 0.000000 0.000000
# 2 -0.001372 0.007221 -0.002057 0.000000 0.000000 0.000000
# 3 -0.003702 -0.002057 0.008783 0.000000 0.000000 0.000000
# 4 0.000000 0.000000 0.000000 0.019531 0.000000 0.000000
# 5 0.000000 0.000000 0.000000 0.000000 0.020785 0.000000
# 6 0.000000 0.000000 0.000000 0.000000 0.000000 0.035334
#
#
# Mechanical properties :
#
#
# Convention : Reuss Voigt Hill
#
# Bulk Modulus (GPa) = 77.49206 79.84160 78.66683
# Shear Modulus (GPa) = 41.19338 43.95787 42.57563
#
# Velocity S-wave (km/s) = 4.26326 4.40400 4.33420
# Velocity P-wave (km/s) = 7.64363 7.81589 7.73024
#
# Compressibility (1/GPa) = 0.01290455
#
# Stress axis : x y z
#
# Youngs Moduli (GPa) = 89.59092 138.49221 113.85080
#
# Poissons Ratio (x) = 0.18997 0.42142
# Poissons Ratio (y) = 0.12289 0.23424
# Poissons Ratio (z) = 0.33162 0.28493
#
# Static dielectric constant tensor:
#      x y z
#    x -179.352920 0.000000 0.000000 
#    y 0.000000 4.098900 0.000000 
#    z 0.000000 0.000000 4.257660 
# 
# 
# High freq. dielectric constant tensor:
#      x y z
#    x 1.895720 0.000000 0.000000 
#    y 0.000000 1.912900 0.000000 
#    z 0.000000 0.000000 1.915290 
# 
# From -- ./inp_files/2241.got.cif
#   From: 2010.03.12/outbox.cif.g09.slc.cpg/sg50_2_cif.got.tgz:2241.got - 2010.04.16 13:23:21.
