data_PCOD8205233
_publ_section_title
;
Structure prediction by ZEFSAII (Michael W. Deem and Ramdas Pophale) SiO2 
 PCOD8205233
Probable space group: P B A N
;
_chemical_formula_sum "Si O2"
_cell_formula_units_Z 56
_cell_length_a 20.984703
_cell_length_b 8.341375
_cell_length_c 14.196603
_cell_angle_alpha 90.000000
_cell_angle_beta 90.000000
_cell_angle_gamma 90.000000
_cell_volume 2484.991518
_symmetry_space_group_name_H-M "P B A N"
_symmetry_group_IT_number 50
_space_group.IT_coordinate_system_code '2'
_symmetry_cell_setting 'orthorhombic'
loop_
_space_group_symop_operation_xyz
x,y,z
1/2-x,1/2-y,z
x,1/2-y,-z
1/2-x,y,-z
-x,-y,-z
1/2+x,1/2+y,-z
-x,1/2+y,z
1/2+x,-y,z
loop_
_atom_site_type_symbol
_atom_site_label
_atom_site_fract_x
_atom_site_fract_y
_atom_site_fract_z
Si Si1 0.741755 0.060838 0.689927
Si Si2 0.822887 0.560631 0.000903
Si Si3 0.421327 0.087374 0.633012
Si Si4 0.625044 0.430273 0.188806
Si Si5 0.662713 0.432027 0.477902
Si Si6 0.136534 0.948487 0.199619
Si Si7 0.445604 0.043277 0.352712
O O1 0.750000 0.250000 0.695119
O O2 0.685070 0.998136 0.755619
O O3 0.726744 0.005760 0.580667
O O4 0.804159 0.988535 0.737366
O O5 0.858751 0.508108 0.094300
O O6 0.821505 0.750000 0.000000
O O7 0.750000 0.492464 0.000000
O O8 0.866660 0.487979 0.918301
O O9 0.428458 0.275794 0.620053
O O10 0.359717 0.029393 0.571003
O O11 0.418733 0.039261 0.743500
O O12 0.486032 0.997831 0.602243
O O13 0.623115 0.239396 0.196415
O O14 0.562025 0.505031 0.240092
O O15 0.678240 0.250000 0.500000
O O16 0.605250 0.428384 0.403333
#
# Coordination Sequence:
#
# PCOD8205233 Si02
#       7
#     8   8   8   8   8   8   8
#     4   9  19  35  59  90 123 160 205 253 305 369
#     4  11  22  37  61  95 131 168 207 256 309 369
#     4  12  24  41  63  91 123 166 210 264 319 376
#     4  10  20  39  63  92 124 162 209 262 305 373
#     4  11  22  39  63  90 122 165 212 258 309 369
#     4  11  22  38  64  94 125 168 211 254 315 375
#     4  11  24  43  64  90 123 162 213 267 316 371
#
# _framework density 22.535288999999999
#
# number of rings (size 3 to 8) (size 9 to 14) (size 15 to 20)
#    0.000    1.286    1.429    6.429    0.000    2.571 
#    0.000    0.714    0.000   10.286    0.000    0.000 
#    0.000    0.000    0.000    0.000    0.000    0.000 
#
# Total GULP energy -693926.717788 kJ/mol
# GULP energy per Si atom -12391.548532 kJ/mol
# Density = 2.248400 g / cm^3
# Si number density = 22.535289 Si / 1000 Ang^3
#
#
#
# Elastic Constant Matrix: (Units=GPa)
#
#
# Indices 1 2 3 4 5 6 
#
# 1 33.7346 27.7316 23.6966 0.0000 0.0000 0.0000
# 2 27.7316 87.0592 27.1500 0.0000 0.0000 0.0000
# 3 23.6966 27.1500 165.3564 0.0000 0.0000 0.0000
# 4 0.0000 0.0000 0.0000 34.8847 0.0000 0.0000
# 5 0.0000 0.0000 0.0000 0.0000 26.0186 0.0000
# 6 0.0000 0.0000 0.0000 0.0000 0.0000 22.2127
#
#
#
# Elastic Compliance Matrix: (Units=1/GPa)
#
#
# Indices 1 2 3 4 5 6 
#
# 1 0.042630 -0.012304 -0.004089 0.000000 0.000000 0.000000
# 2 -0.012304 0.015658 -0.000808 0.000000 0.000000 0.000000
# 3 -0.004089 -0.000808 0.006766 0.000000 0.000000 0.000000
# 4 0.000000 0.000000 0.000000 0.028666 0.000000 0.000000
# 5 0.000000 0.000000 0.000000 0.000000 0.038434 0.000000
# 6 0.000000 0.000000 0.000000 0.000000 0.000000 0.045019
#
#
# Mechanical properties :
#
#
# Convention : Reuss Voigt Hill
#
# Bulk Modulus (GPa) = 32.62373 49.25627 40.94000
# Shear Modulus (GPa) = 22.54371 30.46136 26.50254
#
# Velocity S-wave (km/s) = 3.16630 3.68056 3.43307
# Velocity P-wave (km/s) = 5.27972 6.32194 5.82419
#
# Compressibility (1/GPa) = 0.03065253
#
# Stress axis : x y z
#
# Youngs Moduli (GPa) = 23.45768 63.86683 147.79547
#
# Poissons Ratio (x) = 0.78582 0.60432
# Poissons Ratio (y) = 0.28862 0.11936
# Poissons Ratio (z) = 0.09592 0.05158
#
# Static dielectric constant tensor:
#      x y z
#    x 4.287480 0.000000 0.000000 
#    y 0.000000 3.704320 0.000000 
#    z 0.000000 0.000000 4.196870 
# 
# 
# High freq. dielectric constant tensor:
#      x y z
#    x 1.882690 0.000000 0.000000 
#    y 0.000000 1.870330 0.000000 
#    z 0.000000 0.000000 1.907160 
# 
# From -- ./inp_files/27236.got.cif
#   From: 2010.03.12/outbox.cif.g09.slc.cpg/sg50_14_cif.got.tgz:27236.got - 2010.04.16 13:23:21.
