data_PCOD8205937
_publ_section_title
;
Structure prediction by ZEFSAII (Michael W. Deem and Ramdas Pophale) SiO2 
 PCOD8205937
Probable space group: P M M A
;
_chemical_formula_sum "Si O2"
_cell_formula_units_Z 44
_cell_length_a 8.884297
_cell_length_b 27.557945
_cell_length_c 10.177437
_cell_angle_alpha 90.000000
_cell_angle_beta 90.000000
_cell_angle_gamma 90.000000
_cell_volume 2491.772108
_symmetry_space_group_name_H-M "P M M A"
_symmetry_group_IT_number 51
_symmetry_cell_setting 'orthorhombic'
loop_
_space_group_symop_operation_xyz
x,y,z
1/2-x,-y,z
1/2+x,-y,-z
-x,y,-z
-x,-y,-z
1/2+x,y,-z
1/2-x,y,z
x,-y,z
loop_
_atom_site_type_symbol
_atom_site_label
_atom_site_fract_x
_atom_site_fract_y
_atom_site_fract_z
Si Si1 0.075686 0.943273 0.635737
Si Si2 0.074744 0.406745 0.359097
Si Si3 0.927114 0.882467 0.863933
Si Si4 0.428892 0.500000 0.646020
Si Si5 0.924917 0.299547 0.640748
Si Si6 0.426755 0.771137 0.135370
O O1 0.250000 0.928878 0.631005
O O2 0.000000 0.927171 0.500000
O O3 0.993834 0.915044 0.750395
O O4 0.052470 0.000000 0.661563
O O5 0.250000 0.419707 0.371528
O O6 0.049346 0.353464 0.296441
O O7 0.000000 0.402988 0.500000
O O8 0.990601 0.450950 0.281550
O O9 0.750000 0.890510 0.872773
O O10 0.969441 0.826709 0.834637
O O11 0.000000 0.899704 0.000000
O O12 0.250000 0.500000 0.643441
O O13 0.500000 0.500000 0.500000
O O14 0.750000 0.290136 0.617092
O O15 0.991479 0.261261 0.745239
O O16 0.000000 0.291774 0.500000
O O17 0.250000 0.763719 0.120780
O O18 0.500000 0.753308 0.000000
#
# Coordination Sequence:
#
# PCOD8205937 Si02
#       6
#     8   8   8   4   8   8
#     4  10  21  37  56  78 105 136 169 205 247 295
#     4   9  15  24  38  57  84 117 150 187 230 277
#     4  10  20  35  55  77 103 133 168 209 249 293
#     4  10  16  22  34  54  83 116 149 186 228 278
#     4   9  18  31  47  69  97 125 158 198 239 285
#     4   9  19  35  52  73  99 129 164 201 242 289
#
# _framework density 17.658116
#
# number of rings (size 3 to 8) (size 9 to 14) (size 15 to 20)
#    0.000    2.545    0.000    3.545    0.000    4.364 
#    0.000    1.818    0.000    0.000    0.000    0.636 
#    0.000    0.000    0.000    0.000    0.000    0.000 
#
# Total GULP energy -545380.173541 kJ/mol
# GULP energy per Si atom -12395.003944 kJ/mol
# Density = 1.761792 g / cm^3
# Si number density = 17.658116 Si / 1000 Ang^3
#
#
#
# Elastic Constant Matrix: (Units=GPa)
#
#
# Indices 1 2 3 4 5 6 
#
# 1 98.9687 50.6177 51.8387 0.0000 0.0000 0.0000
# 2 50.6177 89.5413 72.5456 0.0000 0.0000 0.0000
# 3 51.8387 72.5456 115.1067 0.0000 0.0000 0.0000
# 4 0.0000 0.0000 0.0000 -10.0949 0.0000 0.0000
# 5 0.0000 0.0000 0.0000 0.0000 27.4931 0.0000
# 6 0.0000 0.0000 0.0000 0.0000 0.0000 32.8533
#
#
#
# Elastic Compliance Matrix: (Units=1/GPa)
#
#
# Indices 1 2 3 4 5 6 
#
# 1 0.014647 -0.005999 -0.002816 0.000000 0.000000 0.000000
# 2 -0.005999 0.025278 -0.013230 0.000000 0.000000 0.000000
# 3 -0.002816 -0.013230 0.018293 0.000000 0.000000 0.000000
# 4 0.000000 0.000000 0.000000 -0.099060 0.000000 0.000000
# 5 0.000000 0.000000 0.000000 0.000000 0.036373 0.000000
# 6 0.000000 0.000000 0.000000 0.000000 0.000000 0.030438
#
#
# Mechanical properties :
#
#
# Convention : Reuss Voigt Hill
#
# Bulk Modulus (GPa) = 70.77022 72.62450 71.69736
# Shear Modulus (GPa) = 66.87378 18.62462 42.74920
#
# Velocity S-wave (km/s) = 6.16065 3.25119 4.92564
# Velocity P-wave (km/s) = 9.52732 7.43714 8.54637
#
# Compressibility (1/GPa) = 0.01413024
#
# Stress axis : x y z
#
# Youngs Moduli (GPa) = 68.27286 39.56069 54.66425
#
# Poissons Ratio (x) = 0.23732 0.15392
# Poissons Ratio (y) = 0.40956 0.72318
# Poissons Ratio (z) = 0.19223 0.52337
#
# Static dielectric constant tensor:
#      x y z
#    x 3.261370 0.000000 0.000000 
#    y 0.000000 4.092760 0.000000 
#    z 0.000000 0.000000 3.039540 
# 
# 
# High freq. dielectric constant tensor:
#      x y z
#    x 1.693820 0.000000 0.000000 
#    y 0.000000 1.698610 0.000000 
#    z 0.000000 0.000000 1.643510 
# 
# From -- ./inp_files/5814.got.cif
#   From: 2010.03.12/outbox.cif.g09.slc.cpg/sg51_3_cif.got.tgz:5814.got - 2010.04.16 13:43:02.
