data_PCOD8205777
_publ_section_title
;
Structure prediction by ZEFSAII (Michael W. Deem and Ramdas Pophale) SiO2 
 PCOD8205777
Probable space group: P B A N
;
_chemical_formula_sum "Si O2"
_cell_formula_units_Z 52
_cell_length_a 8.500568
_cell_length_b 20.467453
_cell_length_c 15.910601
_cell_angle_alpha 90.000000
_cell_angle_beta 90.000000
_cell_angle_gamma 90.000000
_cell_volume 2768.205533
_symmetry_space_group_name_H-M "P B A N"
_symmetry_group_IT_number 50
_space_group.IT_coordinate_system_code '2'
_symmetry_cell_setting 'orthorhombic'
loop_
_space_group_symop_operation_xyz
x,y,z
1/2-x,1/2-y,z
x,1/2-y,-z
1/2-x,y,-z
-x,-y,-z
1/2+x,1/2+y,-z
-x,1/2+y,z
1/2+x,-y,z
loop_
_atom_site_type_symbol
_atom_site_label
_atom_site_fract_x
_atom_site_fract_y
_atom_site_fract_z
Si Si1 0.369975 0.304427 0.160058
Si Si2 0.249641 0.425993 0.744696
Si Si3 0.423616 0.564921 0.467719
Si Si4 0.583580 0.645002 0.599120
Si Si5 0.893275 0.432604 0.270511
Si Si6 0.750000 0.750000 0.500000
Si Si7 0.250000 0.250000 0.000000
Si Si8 0.335194 0.684269 0.734135
O O1 0.250000 0.250000 0.201297
O O2 0.324814 0.377599 0.186771
O O3 0.549230 0.293844 0.190005
O O4 0.360280 0.296109 0.058760
O O5 0.208571 0.400516 0.650103
O O6 0.433289 0.427001 0.767664
O O7 0.183774 0.498993 0.756662
O O8 0.250000 0.573450 0.500000
O O9 0.500000 0.500000 0.500000
O O10 0.536504 0.618144 0.508355
O O11 0.420819 0.571106 0.369068
O O12 0.652362 0.712884 0.570759
O O13 0.431640 0.654356 0.657041
O O14 0.787313 0.372158 0.237504
O O15 0.250000 0.750000 0.703488
#
# Coordination Sequence:
#
# PCOD8205777 Si02
#       8
#     8   8   8   8   8   2   2   8
#     4   9  20  41  69  96 122 155 194 236 305 375
#     4  11  22  38  63  87 119 161 206 259 303 373
#     4  12  23  38  53  78 115 161 213 270 311 351
#     4  11  25  39  52  81 114 163 223 265 320 359
#     4  12  23  38  60  88 122 166 214 262 310 357
#     4  12  28  34  54  72 108 162 216 272 312 354
#     4   8  20  42  74 100 124 162 188 236 308 386
#     4  11  24  39  60  89 124 159 207 257 309 375
#
# _framework density 18.784732999999999
#
# number of rings (size 3 to 8) (size 9 to 14) (size 15 to 20)
#    0.462    0.615    3.077    4.615    9.692    0.000 
#    0.000    0.385    0.000    3.692    0.000    0.000 
#    0.000    0.000    0.000    0.000    0.000    0.000 
#
# Total GULP energy -644422.938667 kJ/mol
# GULP energy per Si atom -12392.748821 kJ/mol
# Density = 1.874198 g / cm^3
# Si number density = 18.784733 Si / 1000 Ang^3
#
#
#
# Elastic Constant Matrix: (Units=GPa)
#
#
# Indices 1 2 3 4 5 6 
#
# 1 106.8475 44.8928 12.3161 0.0000 0.0000 0.0000
# 2 44.8928 132.1260 19.9226 0.0000 0.0000 0.0000
# 3 12.3161 19.9226 79.8707 0.0000 0.0000 0.0000
# 4 0.0000 0.0000 0.0000 27.4675 0.0000 0.0000
# 5 0.0000 0.0000 0.0000 0.0000 17.4278 0.0000
# 6 0.0000 0.0000 0.0000 0.0000 0.0000 41.5925
#
#
#
# Elastic Compliance Matrix: (Units=1/GPa)
#
#
# Indices 1 2 3 4 5 6 
#
# 1 0.010966 -0.003607 -0.000791 0.000000 0.000000 0.000000
# 2 -0.003607 0.009050 -0.001701 0.000000 0.000000 0.000000
# 3 -0.000791 -0.001701 0.013067 0.000000 0.000000 0.000000
# 4 0.000000 0.000000 0.000000 0.036407 0.000000 0.000000
# 5 0.000000 0.000000 0.000000 0.000000 0.057380 0.000000
# 6 0.000000 0.000000 0.000000 0.000000 0.000000 0.024043
#
#
# Mechanical properties :
#
#
# Convention : Reuss Voigt Hill
#
# Bulk Modulus (GPa) = 47.88278 52.56749 50.22513
# Shear Modulus (GPa) = 29.39935 33.41173 31.40554
#
# Velocity S-wave (km/s) = 3.96038 4.22200 4.09328
# Velocity P-wave (km/s) = 6.81604 7.19805 7.00965
#
# Compressibility (1/GPa) = 0.02088433
#
# Stress axis : x y z
#
# Youngs Moduli (GPa) = 91.19390 110.49149 76.53073
#
# Poissons Ratio (x) = 0.39849 0.06056
# Poissons Ratio (y) = 0.32889 0.13021
# Poissons Ratio (z) = 0.07216 0.18799
#
# Static dielectric constant tensor:
#      x y z
#    x 3.763650 0.000000 0.000000 
#    y 0.000000 3.550350 0.000000 
#    z 0.000000 0.000000 2.635340 
# 
# 
# High freq. dielectric constant tensor:
#      x y z
#    x 1.747880 0.000000 0.000000 
#    y 0.000000 1.743490 0.000000 
#    z 0.000000 0.000000 1.685510 
# 
# From -- ./inp_files/28866.got.cif
#   From: 2010.03.12/outbox.cif.g09.slc.cpg/sg50_15_cif.got.tgz:28866.got - 2010.04.16 13:23:21.
