data_PCOD8205167
_publ_section_title
;
Structure prediction by ZEFSAII (Michael W. Deem and Ramdas Pophale) SiO2 
 PCOD8205167
Probable space group: P B A N
;
_chemical_formula_sum "Si O2"
_cell_formula_units_Z 58
_cell_length_a 11.530017
_cell_length_b 17.496478
_cell_length_c 14.332188
_cell_angle_alpha 90.000000
_cell_angle_beta 90.000000
_cell_angle_gamma 90.000000
_cell_volume 2891.299486
_symmetry_space_group_name_H-M "P B A N"
_symmetry_group_IT_number 50
_space_group.IT_coordinate_system_code '2'
_symmetry_cell_setting 'orthorhombic'
loop_
_space_group_symop_operation_xyz
x,y,z
1/2-x,1/2-y,z
x,1/2-y,-z
1/2-x,y,-z
-x,-y,-z
1/2+x,1/2+y,-z
-x,1/2+y,z
1/2+x,-y,z
loop_
_atom_site_type_symbol
_atom_site_label
_atom_site_fract_x
_atom_site_fract_y
_atom_site_fract_z
Si Si1 0.371891 0.544510 0.789444
Si Si2 0.250000 0.250000 0.500000
Si Si3 0.175874 0.985838 0.344704
Si Si4 0.627873 0.142009 0.483175
Si Si5 0.282207 0.666096 0.107408
Si Si6 0.531774 0.626211 0.659436
Si Si7 0.994079 0.402678 0.204106
Si Si8 0.069129 0.295398 0.360063
O O1 0.305371 0.515654 0.696462
O O2 0.292602 0.595544 0.855312
O O3 0.476243 0.598384 0.756175
O O4 0.422113 0.467987 0.842117
O O5 0.171411 0.307037 0.436383
O O6 0.162604 0.939480 0.439633
O O7 0.092837 0.948237 0.268839
O O8 0.139680 0.072442 0.367143
O O9 0.750000 0.185659 0.500000
O O10 0.562397 0.125351 0.578191
O O11 0.553567 0.194338 0.412956
O O12 0.250000 0.750000 0.151931
O O13 0.418600 0.646732 0.128777
O O14 0.250000 0.670752 0.000000
O O15 0.581778 0.709761 0.677393
O O16 0.075381 0.348912 0.269039
#
# Coordination Sequence:
#
# PCOD8205167 Si02
#       8
#     8   2   8   8   8   8   8   8
#     4  10  20  37  59  85 116 155 189 249 306 374
#     4  12  24  40  46  84 120 178 214 258 308 352
#     4   9  20  34  50  77 110 148 197 244 298 358
#     4  11  20  37  52  77 107 152 207 265 308 350
#     4  10  21  40  66  97 125 150 193 255 320 387
#     4  11  20  35  52  77 109 153 206 248 307 359
#     4   9  21  38  58  85 116 153 202 245 304 377
#     4  11  24  38  53  80 118 162 214 258 303 365
#
# _framework density 20.060185000000001
#
# number of rings (size 3 to 8) (size 9 to 14) (size 15 to 20)
#    0.000    1.793    2.759    1.241    1.931    1.655 
#    1.241    0.000    0.000    0.000    0.000    0.000 
#    0.000    0.000    0.000    0.000    0.000    0.000 
#
# Total GULP energy -718749.335312 kJ/mol
# GULP energy per Si atom -12392.229919 kJ/mol
# Density = 2.001453 g / cm^3
# Si number density = 20.060185 Si / 1000 Ang^3
#
#
#
# Elastic Constant Matrix: (Units=GPa)
#
#
# Indices 1 2 3 4 5 6 
#
# 1 78.7325 51.1427 19.9283 0.0000 0.0000 0.0000
# 2 51.1427 145.3521 30.9859 0.0000 0.0000 0.0000
# 3 19.9283 30.9859 59.0897 0.0000 0.0000 0.0000
# 4 0.0000 0.0000 0.0000 11.8689 0.0000 0.0000
# 5 0.0000 0.0000 0.0000 0.0000 24.1909 0.0000
# 6 0.0000 0.0000 0.0000 0.0000 0.0000 27.8465
#
#
#
# Elastic Compliance Matrix: (Units=1/GPa)
#
#
# Indices 1 2 3 4 5 6 
#
# 1 0.016896 -0.005325 -0.002906 0.000000 0.000000 0.000000
# 2 -0.005325 0.009424 -0.003146 0.000000 0.000000 0.000000
# 3 -0.002906 -0.003146 0.019553 0.000000 0.000000 0.000000
# 4 0.000000 0.000000 0.000000 0.084254 0.000000 0.000000
# 5 0.000000 0.000000 0.000000 0.000000 0.041338 0.000000
# 6 0.000000 0.000000 0.000000 0.000000 0.000000 0.035911
#
#
# Mechanical properties :
#
#
# Convention : Reuss Voigt Hill
#
# Bulk Modulus (GPa) = 43.25407 54.14313 48.69860
# Shear Modulus (GPa) = 21.02285 24.85576 22.93931
#
# Velocity S-wave (km/s) = 3.24078 3.52385 3.38527
# Velocity P-wave (km/s) = 5.96762 6.60345 6.29357
#
# Compressibility (1/GPa) = 0.02311921
#
# Stress axis : x y z
#
# Youngs Moduli (GPa) = 59.18561 106.10887 51.14290
#
# Poissons Ratio (x) = 0.56508 0.14860
# Poissons Ratio (y) = 0.31519 0.16089
# Poissons Ratio (z) = 0.17197 0.33381
#
# Static dielectric constant tensor:
#      x y z
#    x 3.937220 0.000000 0.000000 
#    y 0.000000 4.015300 0.000000 
#    z 0.000000 0.000000 3.275350 
# 
# 
# High freq. dielectric constant tensor:
#      x y z
#    x 1.785680 0.000000 0.000000 
#    y 0.000000 1.798520 0.000000 
#    z 0.000000 0.000000 1.736300 
# 
# From -- ./inp_files/26029.got.cif
#   From: 2010.03.12/outbox.cif.g09.slc.cpg/sg50_14_cif.got.tgz:26029.got - 2010.04.16 13:23:21.
