data_PCOD8205524
_publ_section_title
;
Structure prediction by ZEFSAII (Michael W. Deem and Ramdas Pophale) SiO2 
 PCOD8205524
Probable space group: P B A N
;
_chemical_formula_sum "Si O2"
_cell_formula_units_Z 44
_cell_length_a 18.235442
_cell_length_b 8.005611
_cell_length_c 14.440180
_cell_angle_alpha 90.000000
_cell_angle_beta 90.000000
_cell_angle_gamma 90.000000
_cell_volume 2108.062025
_symmetry_space_group_name_H-M "P B A N"
_symmetry_group_IT_number 50
_space_group.IT_coordinate_system_code '2'
_symmetry_cell_setting 'orthorhombic'
loop_
_space_group_symop_operation_xyz
x,y,z
1/2-x,1/2-y,z
x,1/2-y,-z
1/2-x,y,-z
-x,-y,-z
1/2+x,1/2+y,-z
-x,1/2+y,z
1/2+x,-y,z
loop_
_atom_site_type_symbol
_atom_site_label
_atom_site_fract_x
_atom_site_fract_y
_atom_site_fract_z
Si Si1 0.443073 0.681651 0.406604
Si Si2 0.175770 0.411601 0.552737
Si Si3 0.559861 0.004478 0.713577
Si Si4 0.980818 0.250000 0.000000
Si Si5 0.442741 0.484369 0.129524
Si Si6 0.827974 0.715076 0.244827
O O1 0.479854 0.750000 0.500000
O O2 0.377345 0.568870 0.445413
O O3 0.506939 0.577116 0.361020
O O4 0.414026 0.820214 0.332245
O O5 0.141258 0.250000 0.500000
O O6 0.250000 0.464548 0.500000
O O7 0.192852 0.366997 0.658086
O O8 0.627758 0.886534 0.739244
O O9 0.513804 0.031366 0.805892
O O10 0.931838 0.330367 0.084005
O O11 0.040235 0.123549 0.040276
O O12 0.371514 0.421329 0.184159
O O13 0.750000 0.750000 0.194337
#
# Coordination Sequence:
#
# PCOD8205524 Si02
#       6
#     8   8   8   4   8   8
#     4  12  24  38  65  95 134 181 250 293 339 409
#     4  11  23  44  63  91 141 194 239 285 354 413
#     4  12  23  43  67 103 135 183 242 295 355 426
#     4  10  22  40  79 107 134 164 236 294 350 442
#     4  11  21  43  73 107 133 177 230 292 364 431
#     4  12  24  44  70 100 144 192 232 296 363 429
#
# _framework density 20.872250999999999
#
# number of rings (size 3 to 8) (size 9 to 14) (size 15 to 20)
#    0.000    0.545    7.273    1.636    0.000    1.818 
#    0.000    0.455    0.000    1.091    0.000    0.000 
#    0.000    0.000    0.000    0.000    0.000    0.000 
#
# Total GULP energy -545283.576428 kJ/mol
# GULP energy per Si atom -12392.808555 kJ/mol
# Density = 2.082475 g / cm^3
# Si number density = 20.872251 Si / 1000 Ang^3
#
#
#
# Elastic Constant Matrix: (Units=GPa)
#
#
# Indices 1 2 3 4 5 6 
#
# 1 139.0979 57.5650 42.4420 0.0000 0.0000 0.0000
# 2 57.5650 118.3899 42.2364 0.0000 0.0000 0.0000
# 3 42.4420 42.2364 110.4829 0.0000 0.0000 0.0000
# 4 0.0000 0.0000 0.0000 58.1117 0.0000 0.0000
# 5 0.0000 0.0000 0.0000 0.0000 -167.1449 0.0000
# 6 0.0000 0.0000 0.0000 0.0000 0.0000 4.4265
#
#
#
# Elastic Compliance Matrix: (Units=1/GPa)
#
#
# Indices 1 2 3 4 5 6 
#
# 1 0.009427 -0.003812 -0.002164 0.000000 0.000000 0.000000
# 2 -0.003812 0.011322 -0.002864 0.000000 0.000000 0.000000
# 3 -0.002164 -0.002864 0.010977 0.000000 0.000000 0.000000
# 4 0.000000 0.000000 0.000000 0.017208 0.000000 0.000000
# 5 0.000000 0.000000 0.000000 0.000000 -0.005983 0.000000
# 6 0.000000 0.000000 0.000000 0.000000 0.000000 0.225910
#
#
# Mechanical properties :
#
#
# Convention : Reuss Voigt Hill
#
# Bulk Modulus (GPa) = 71.19185 72.49528 71.84356
# Shear Modulus (GPa) = 17.16896 -5.87285 5.64805
#
# Velocity S-wave (km/s) = 2.87117 -1.67923 1.64678
# Velocity P-wave (km/s) = 6.72115 5.57212 6.17343
#
# Compressibility (1/GPa) = 0.01404655
#
# Stress axis : x y z
#
# Youngs Moduli (GPa) = 106.07893 88.32582 91.09607
#
# Poissons Ratio (x) = 0.33666 0.19715
# Poissons Ratio (y) = 0.40433 0.26089
# Poissons Ratio (z) = 0.22958 0.25296
#
# Static dielectric constant tensor:
#      x y z
#    x 3.669570 0.000000 0.000000 
#    y 0.000000 4.501990 0.000000 
#    z 0.000000 0.000000 4.151730 
# 
# 
# High freq. dielectric constant tensor:
#      x y z
#    x 1.788810 0.000000 0.000000 
#    y 0.000000 1.831620 0.000000 
#    z 0.000000 0.000000 1.832370 
# 
# From -- ./inp_files/26781.got.cif
#   From: 2010.03.12/outbox.cif.g09.slc.cpg/sg50_14_cif.got.tgz:26781.got - 2010.04.16 13:23:21.
