data_PCOD8205360
_publ_section_title
;
Structure prediction by ZEFSAII (Michael W. Deem and Ramdas Pophale) SiO2 
 PCOD8205360
Probable space group: P B A N
;
_chemical_formula_sum "Si O2"
_cell_formula_units_Z 56
_cell_length_a 13.763108
_cell_length_b 14.123222
_cell_length_c 14.216664
_cell_angle_alpha 90.000000
_cell_angle_beta 90.000000
_cell_angle_gamma 90.000000
_cell_volume 2763.427040
_symmetry_space_group_name_H-M "P B A N"
_symmetry_group_IT_number 50
_space_group.IT_coordinate_system_code '2'
_symmetry_cell_setting 'orthorhombic'
loop_
_space_group_symop_operation_xyz
x,y,z
1/2-x,1/2-y,z
x,1/2-y,-z
1/2-x,y,-z
-x,-y,-z
1/2+x,1/2+y,-z
-x,1/2+y,z
1/2+x,-y,z
loop_
_atom_site_type_symbol
_atom_site_label
_atom_site_fract_x
_atom_site_fract_y
_atom_site_fract_z
Si Si1 0.484843 0.891427 0.600037
Si Si2 0.487298 0.648383 0.047515
Si Si3 0.380796 0.679297 0.230099
Si Si4 0.353002 0.994712 0.046186
Si Si5 0.143164 0.242580 0.610257
Si Si6 0.172785 0.612872 0.228616
Si Si7 0.013732 0.895673 0.615422
O O1 0.419375 0.821397 0.662969
O O2 0.596182 0.861487 0.625153
O O3 0.458389 0.870223 0.491684
O O4 0.465905 0.000555 0.623189
O O5 0.465816 0.646968 0.159154
O O6 0.583246 0.587513 0.027652
O O7 0.504100 0.750000 0.000000
O O8 0.393746 0.599382 0.002301
O O9 0.289158 0.608491 0.237139
O O10 0.352635 0.782457 0.191640
O O11 0.353629 0.971118 0.157050
O O12 0.250000 0.017211 0.000000
O O13 0.250000 0.250000 0.659324
O O14 0.157626 0.250000 0.500000
O O15 0.069656 0.323070 0.651558
O O16 0.113023 0.601935 0.325259
#
# Coordination Sequence:
#
# PCOD8205360 Si02
#       7
#     8   8   8   8   8   8   8
#     4  10  21  38  60  86 125 168 212 262 315 371
#     4  11  23  41  68  94 126 163 207 265 321 385
#     4  11  22  37  62  92 123 166 207 258 321 385
#     4  11  23  42  68  95 123 164 209 259 323 385
#     4   9  18  35  58  82 114 162 214 256 307 372
#     4  11  22  37  63  93 124 161 210 258 317 389
#     4  10  21  38  60  88 125 167 211 265 313 369
#
# _framework density 20.264692
#
# number of rings (size 3 to 8) (size 9 to 14) (size 15 to 20)
#    0.000    1.571    4.286    0.857    0.000    2.286 
#    0.000    4.286    6.286    0.000    0.000    0.000 
#    0.000    0.000    0.000    0.000    0.000    0.000 
#
# Total GULP energy -693969.645486 kJ/mol
# GULP energy per Si atom -12392.315098 kJ/mol
# Density = 2.021857 g / cm^3
# Si number density = 20.264692 Si / 1000 Ang^3
#
#
#
# Elastic Constant Matrix: (Units=GPa)
#
#
# Indices 1 2 3 4 5 6 
#
# 1 112.5509 41.5054 48.1027 0.0000 0.0000 0.0000
# 2 41.5054 96.0572 26.5948 0.0000 0.0000 0.0000
# 3 48.1027 26.5948 101.6025 0.0000 0.0000 0.0000
# 4 0.0000 0.0000 0.0000 26.2458 0.0000 0.0000
# 5 0.0000 0.0000 0.0000 0.0000 30.3740 0.0000
# 6 0.0000 0.0000 0.0000 0.0000 0.0000 17.9713
#
#
#
# Elastic Compliance Matrix: (Units=1/GPa)
#
#
# Indices 1 2 3 4 5 6 
#
# 1 0.012439 -0.004037 -0.004832 0.000000 0.000000 0.000000
# 2 -0.004037 0.012534 -0.001370 0.000000 0.000000 0.000000
# 3 -0.004832 -0.001370 0.012489 0.000000 0.000000 0.000000
# 4 0.000000 0.000000 0.000000 0.038101 0.000000 0.000000
# 5 0.000000 0.000000 0.000000 0.000000 0.032923 0.000000
# 6 0.000000 0.000000 0.000000 0.000000 0.000000 0.055644
#
#
# Mechanical properties :
#
#
# Convention : Reuss Voigt Hill
#
# Bulk Modulus (GPa) = 58.87974 60.29072 59.58523
# Shear Modulus (GPa) = 26.27864 27.85208 27.06536
#
# Velocity S-wave (km/s) = 3.60498 3.71133 3.65854
# Velocity P-wave (km/s) = 6.81515 6.94129 6.87851
#
# Compressibility (1/GPa) = 0.01698377
#
# Stress axis : x y z
#
# Youngs Moduli (GPa) = 80.39361 79.78353 80.07286
#
# Poissons Ratio (x) = 0.32207 0.38694
# Poissons Ratio (y) = 0.32453 0.10967
# Poissons Ratio (z) = 0.38849 0.10927
#
# Static dielectric constant tensor:
#      x y z
#    x 3.768150 0.000000 0.000000 
#    y 0.000000 3.696180 0.000000 
#    z 0.000000 0.000000 3.560890 
# 
# 
# High freq. dielectric constant tensor:
#      x y z
#    x 1.787810 0.000000 0.000000 
#    y 0.000000 1.794490 0.000000 
#    z 0.000000 0.000000 1.779780 
# 
# From -- ./inp_files/25934.got.cif
#   From: 2010.03.12/outbox.cif.g09.slc.cpg/sg50_13_cif.got.tgz:25934.got - 2010.04.16 13:23:21.
