data_PCOD8205941
_publ_section_title
;
Structure prediction by ZEFSAII (Michael W. Deem and Ramdas Pophale) SiO2 
 PCOD8205941
Probable space group: P M M A
;
_chemical_formula_sum "Si O2"
_cell_formula_units_Z 40
_cell_length_a 8.772548
_cell_length_b 26.128600
_cell_length_c 9.055859
_cell_angle_alpha 90.000000
_cell_angle_beta 90.000000
_cell_angle_gamma 90.000000
_cell_volume 2075.733266
_symmetry_space_group_name_H-M "P M M A"
_symmetry_group_IT_number 51
_symmetry_cell_setting 'orthorhombic'
loop_
_space_group_symop_operation_xyz
x,y,z
1/2-x,-y,z
1/2+x,-y,-z
-x,y,-z
-x,-y,-z
1/2+x,y,-z
1/2-x,y,z
x,-y,z
loop_
_atom_site_type_symbol
_atom_site_label
_atom_site_fract_x
_atom_site_fract_y
_atom_site_fract_z
Si Si1 0.928467 0.400482 0.339512
Si Si2 0.569731 0.500000 0.664462
Si Si3 0.568754 0.099102 0.660081
Si Si4 0.571069 0.000000 0.840467
Si Si5 0.572547 0.288203 0.340716
Si Si6 0.930942 0.191229 0.160351
O O1 0.750000 0.411962 0.349137
O O2 0.962964 0.344492 0.269762
O O3 0.000000 0.397917 0.500000
O O4 0.009175 0.448147 0.253499
O O5 0.750000 0.500000 0.660960
O O6 0.500000 0.500000 0.500000
O O7 0.500000 0.091232 0.500000
O O8 0.750000 0.104693 0.651575
O O9 0.497104 0.149259 0.730607
O O10 0.516318 0.050266 0.754482
O O11 0.750000 0.000000 0.858986
O O12 0.500000 0.000000 0.000000
O O13 0.500000 0.279097 0.500000
O O14 0.750000 0.282144 0.369700
O O15 0.515830 0.246303 0.223320
O O16 0.750000 0.186054 0.151324
O O17 0.000000 0.183204 0.000000
#
# Coordination Sequence:
#
# PCOD8205941 Si02
#       6
#     8   4   8   4   8   8
#     4   9  15  25  40  61  90 126 163 204 252 306
#     4  10  16  22  34  58  91 126 161 202 250 304
#     4  11  23  40  61  87 115 148 186 228 273 322
#     4  10  23  40  60  86 118 152 189 228 271 318
#     4   9  19  33  51  74 102 134 173 216 263 316
#     4  11  23  39  57  81 110 143 181 225 273 326
#
# _framework density 19.270298
#
# number of rings (size 3 to 8) (size 9 to 14) (size 15 to 20)
#    0.000    2.000    0.000    5.400    0.000    7.200 
#    0.000    0.000    0.000    0.000    0.000    0.700 
#    0.000    0.000    0.000    0.000    0.000    0.000 
#
# Total GULP energy -495804.078097 kJ/mol
# GULP energy per Si atom -12395.101952 kJ/mol
# Density = 1.922644 g / cm^3
# Si number density = 19.270298 Si / 1000 Ang^3
#
#
#
# Elastic Constant Matrix: (Units=GPa)
#
#
# Indices 1 2 3 4 5 6 
#
# 1 93.6456 62.6780 34.9662 0.0000 0.0000 0.0000
# 2 62.6780 182.5312 57.3162 0.0000 0.0000 0.0000
# 3 34.9662 57.3162 100.5305 0.0000 0.0000 0.0000
# 4 0.0000 0.0000 0.0000 2.1554 0.0000 0.0000
# 5 0.0000 0.0000 0.0000 0.0000 26.2564 0.0000
# 6 0.0000 0.0000 0.0000 0.0000 0.0000 32.2738
#
#
#
# Elastic Compliance Matrix: (Units=1/GPa)
#
#
# Indices 1 2 3 4 5 6 
#
# 1 0.014432 -0.004116 -0.002673 0.000000 0.000000 0.000000
# 2 -0.004116 0.007847 -0.003042 0.000000 0.000000 0.000000
# 3 -0.002673 -0.003042 0.012611 0.000000 0.000000 0.000000
# 4 0.000000 0.000000 0.000000 0.463958 0.000000 0.000000
# 5 0.000000 0.000000 0.000000 0.000000 0.038086 0.000000
# 6 0.000000 0.000000 0.000000 0.000000 0.000000 0.030985
#
#
# Mechanical properties :
#
#
# Convention : Reuss Voigt Hill
#
# Bulk Modulus (GPa) = 65.67009 76.29201 70.98105
# Shear Modulus (GPa) = 8.43657 26.92025 17.67841
#
# Velocity S-wave (km/s) = 2.09464 3.74168 3.03213
# Velocity P-wave (km/s) = 6.32475 7.63828 7.01233
#
# Compressibility (1/GPa) = 0.01522763
#
# Stress axis : x y z
#
# Youngs Moduli (GPa) = 69.29241 127.43255 79.29350
#
# Poissons Ratio (x) = 0.52455 0.21193
# Poissons Ratio (y) = 0.28523 0.24124
# Poissons Ratio (z) = 0.18520 0.38769
#
# Static dielectric constant tensor:
#      x y z
#    x 3.586210 0.000000 0.000000 
#    y 0.000000 4.899630 0.000000 
#    z 0.000000 0.000000 3.160210 
# 
# 
# High freq. dielectric constant tensor:
#      x y z
#    x 1.759880 0.000000 0.000000 
#    y 0.000000 1.784720 0.000000 
#    z 0.000000 0.000000 1.706200 
# 
# From -- ./inp_files/5598.got.cif
#   From: 2010.03.12/outbox.cif.g09.slc.cpg/sg51_3_cif.got.tgz:5598.got - 2010.04.16 13:43:02.
