data_PCOD8205844
_publ_section_title
;
Structure prediction by ZEFSAII (Michael W. Deem and Ramdas Pophale) SiO2 
 PCOD8205844
Probable space group: P B A N
;
_chemical_formula_sum "Si O2"
_cell_formula_units_Z 34
_cell_length_a 20.837871
_cell_length_b 8.186192
_cell_length_c 8.579552
_cell_angle_alpha 90.000000
_cell_angle_beta 90.000000
_cell_angle_gamma 90.000000
_cell_volume 1463.524113
_symmetry_space_group_name_H-M "P B A N"
_symmetry_group_IT_number 50
_space_group.IT_coordinate_system_code '2'
_symmetry_cell_setting 'orthorhombic'
loop_
_space_group_symop_operation_xyz
x,y,z
1/2-x,1/2-y,z
x,1/2-y,-z
1/2-x,y,-z
-x,-y,-z
1/2+x,1/2+y,-z
-x,1/2+y,z
1/2+x,-y,z
loop_
_atom_site_type_symbol
_atom_site_label
_atom_site_fract_x
_atom_site_fract_y
_atom_site_fract_z
Si Si1 0.821405 0.004572 0.447952
Si Si2 0.347898 0.822654 0.751901
Si Si3 0.530617 0.012778 0.166642
Si Si4 0.568984 0.799682 0.663509
Si Si5 0.750000 0.250000 0.000000
O O1 0.750000 0.959818 0.500000
O O2 0.825741 0.151834 0.323781
O O3 0.854613 0.046101 0.612547
O O4 0.856852 0.851781 0.367257
O O5 0.418750 0.834600 0.828864
O O6 0.295809 0.861878 0.888579
O O7 0.566051 0.843284 0.208363
O O8 0.471649 0.043982 0.282865
O O9 0.500000 0.000000 0.000000
O O10 0.537130 0.750000 0.500000
#
# Coordination Sequence:
#
# PCOD8205844 Si02
#       5
#     8   8   8   8   2
#     4  11  23  47  72 107 140 193 257 312 365 455
#     4  11  24  44  73 104 145 192 254 304 379 454
#     4  12  28  47  70 110 151 197 243 321 388 455
#     4  12  26  46  72 104 143 190 251 304 374 448
#     4  12  24  42  72 110 140 202 240 320 380 466
#
# _framework density 23.231598000000002
#
# number of rings (size 3 to 8) (size 9 to 14) (size 15 to 20)
#    0.000    0.471    4.706    3.529    9.882    0.471 
#    0.000    0.000    0.000    0.000    0.000    0.000 
#    0.000    0.000    0.000    0.000    0.000    0.000 
#
# Total GULP energy -421386.845326 kJ/mol
# GULP energy per Si atom -12393.730745 kJ/mol
# Density = 2.317872 g / cm^3
# Si number density = 23.231598 Si / 1000 Ang^3
#
#
#
# Elastic Constant Matrix: (Units=GPa)
#
#
# Indices 1 2 3 4 5 6 
#
# 1 185.3734 59.5035 78.8253 0.0000 0.0000 0.0000
# 2 59.5035 102.2621 56.9536 0.0000 0.0000 0.0000
# 3 78.8253 56.9536 168.1914 0.0000 0.0000 0.0000
# 4 0.0000 0.0000 0.0000 31.3313 0.0000 0.0000
# 5 0.0000 0.0000 0.0000 0.0000 55.4493 0.0000
# 6 0.0000 0.0000 0.0000 0.0000 0.0000 43.2061
#
#
#
# Elastic Compliance Matrix: (Units=1/GPa)
#
#
# Indices 1 2 3 4 5 6 
#
# 1 0.007382 -0.002919 -0.002471 0.000000 0.000000 0.000000
# 2 -0.002919 0.013206 -0.003104 0.000000 0.000000 0.000000
# 3 -0.002471 -0.003104 0.008155 0.000000 0.000000 0.000000
# 4 0.000000 0.000000 0.000000 0.031917 0.000000 0.000000
# 5 0.000000 0.000000 0.000000 0.000000 0.018034 0.000000
# 6 0.000000 0.000000 0.000000 0.000000 0.000000 0.023145
#
#
# Mechanical properties :
#
#
# Convention : Reuss Voigt Hill
#
# Bulk Modulus (GPa) = 85.07284 94.04352 89.55818
# Shear Modulus (GPa) = 40.73434 43.36697 42.05066
#
# Velocity S-wave (km/s) = 4.19191 4.32525 4.25910
# Velocity P-wave (km/s) = 7.75425 8.09397 7.92593
#
# Compressibility (1/GPa) = 0.01175463
#
# Stress axis : x y z
#
# Youngs Moduli (GPa) = 135.45616 75.72309 122.62652
#
# Poissons Ratio (x) = 0.22106 0.30306
# Poissons Ratio (y) = 0.39543 0.38060
# Poissons Ratio (z) = 0.33476 0.23502
#
# Static dielectric constant tensor:
#      x y z
#    x 4.268910 0.000000 0.000000 
#    y 0.000000 4.159770 0.000000 
#    z 0.000000 0.000000 4.776530 
# 
# 
# High freq. dielectric constant tensor:
#      x y z
#    x 1.928080 0.000000 0.000000 
#    y 0.000000 1.895450 0.000000 
#    z 0.000000 0.000000 1.933450 
# 
# From -- ./inp_files/9272.got.cif
#   From: 2010.03.12/outbox.cif.g09.slc.cpg/sg50_5_cif.got.tgz:9272.got - 2010.04.16 13:23:21.
