data_PCOD8205488
_publ_section_title
;
Structure prediction by ZEFSAII (Michael W. Deem and Ramdas Pophale) SiO2 
 PCOD8205488
Probable space group: P B A N
;
_chemical_formula_sum "Si O2"
_cell_formula_units_Z 26
_cell_length_a 12.072475
_cell_length_b 5.022536
_cell_length_c 19.410631
_cell_angle_alpha 90.000000
_cell_angle_beta 90.000000
_cell_angle_gamma 90.000000
_cell_volume 1176.952746
_symmetry_space_group_name_H-M "P B A N"
_symmetry_group_IT_number 50
_space_group.IT_coordinate_system_code '2'
_symmetry_cell_setting 'orthorhombic'
loop_
_space_group_symop_operation_xyz
x,y,z
1/2-x,1/2-y,z
x,1/2-y,-z
1/2-x,y,-z
-x,-y,-z
1/2+x,1/2+y,-z
-x,1/2+y,z
1/2+x,-y,z
loop_
_atom_site_type_symbol
_atom_site_label
_atom_site_fract_x
_atom_site_fract_y
_atom_site_fract_z
Si Si1 0.250000 0.250000 0.275852
Si Si2 0.420847 0.381533 0.609286
Si Si3 0.068911 0.777570 0.076208
Si Si4 0.750000 0.250000 0.184611
Si Si5 0.750000 0.750000 0.500000
O O1 0.353834 0.140604 0.319634
O O2 0.287670 0.499078 0.230187
O O3 0.505146 0.621134 0.603255
O O4 0.330762 0.424006 0.548470
O O5 0.149258 0.673342 0.135459
O O6 0.961961 0.587408 0.084226
O O7 0.122516 0.750000 0.000000
#
# Coordination Sequence:
#
# PCOD8205488 Si02
#       5
#     4   8   8   4   2
#     4  11  26  39  59  92 121 158 208 238 289 368
#     4  11  24  43  65  90 126 161 195 247 298 345
#     4  10  22  39  60  87 117 153 200 251 304 359
#     4  12  23  40  62  87 120 160 200 250 296 351
#     4  10  24  42  68 100 118 154 210 242 290 360
#
# _framework density 22.090945000000001
#
# number of rings (size 3 to 8) (size 9 to 14) (size 15 to 20)
#    0.000    1.231    0.000    5.077    0.000   12.308 
#    0.000    6.154    0.000    0.000    0.000    0.000 
#    0.000    0.000    0.000    0.000    0.000    0.000 
#
# Total GULP energy -322351.515520 kJ/mol
# GULP energy per Si atom -12398.135212 kJ/mol
# Density = 2.204067 g / cm^3
# Si number density = 22.090945 Si / 1000 Ang^3
#
#
#
# Elastic Constant Matrix: (Units=GPa)
#
#
# Indices 1 2 3 4 5 6 
#
# 1 120.2579 43.8787 59.5098 0.0000 0.0000 0.0000
# 2 43.8787 137.9150 39.1136 0.0000 0.0000 0.0000
# 3 59.5098 39.1136 144.5796 0.0000 0.0000 0.0000
# 4 0.0000 0.0000 0.0000 24.4945 0.0000 0.0000
# 5 0.0000 0.0000 0.0000 0.0000 19.2396 0.0000
# 6 0.0000 0.0000 0.0000 0.0000 0.0000 22.6717
#
#
#
# Elastic Compliance Matrix: (Units=1/GPa)
#
#
# Indices 1 2 3 4 5 6 
#
# 1 0.011148 -0.002432 -0.003931 0.000000 0.000000 0.000000
# 2 -0.002432 0.008384 -0.001267 0.000000 0.000000 0.000000
# 3 -0.003931 -0.001267 0.008877 0.000000 0.000000 0.000000
# 4 0.000000 0.000000 0.000000 0.040826 0.000000 0.000000
# 5 0.000000 0.000000 0.000000 0.000000 0.051976 0.000000
# 6 0.000000 0.000000 0.000000 0.000000 0.000000 0.044108
#
#
# Mechanical properties :
#
#
# Convention : Reuss Voigt Hill
#
# Bulk Modulus (GPa) = 76.04762 76.41739 76.23251
# Shear Modulus (GPa) = 27.03267 30.63118 28.83193
#
# Velocity S-wave (km/s) = 3.50194 3.72774 3.61660
# Velocity P-wave (km/s) = 7.13098 7.29351 7.21271
#
# Compressibility (1/GPa) = 0.01314966
#
# Stress axis : x y z
#
# Youngs Moduli (GPa) = 89.70298 119.27518 112.64746
#
# Poissons Ratio (x) = 0.29008 0.44277
# Poissons Ratio (y) = 0.21816 0.14274
# Poissons Ratio (z) = 0.35259 0.15113
#
# Static dielectric constant tensor:
#      x y z
#    x 3.956090 0.000000 0.000000 
#    y 0.000000 3.703420 0.000000 
#    z 0.000000 0.000000 4.321950 
# 
# 
# High freq. dielectric constant tensor:
#      x y z
#    x 1.867050 0.000000 0.000000 
#    y 0.000000 1.869840 0.000000 
#    z 0.000000 0.000000 1.889650 
# 
# From -- ./inp_files/27841.got.cif
#   From: 2010.03.12/outbox.cif.g09.slc.cpg/sg50_14_cif.got.tgz:27841.got - 2010.04.16 13:23:21.
