data_PCOD8205151
_publ_section_title
;
Structure prediction by ZEFSAII (Michael W. Deem and Ramdas Pophale) SiO2 
 PCOD8205151
Probable space group: P B A N
;
_chemical_formula_sum "Si O2"
_cell_formula_units_Z 48
_cell_length_a 13.717062
_cell_length_b 19.880217
_cell_length_c 8.841107
_cell_angle_alpha 90.000000
_cell_angle_beta 90.000000
_cell_angle_gamma 90.000000
_cell_volume 2410.953692
_symmetry_space_group_name_H-M "P B A N"
_symmetry_group_IT_number 50
_space_group.IT_coordinate_system_code '2'
_symmetry_cell_setting 'orthorhombic'
loop_
_space_group_symop_operation_xyz
x,y,z
1/2-x,1/2-y,z
x,1/2-y,-z
1/2-x,y,-z
-x,-y,-z
1/2+x,1/2+y,-z
-x,1/2+y,z
1/2+x,-y,z
loop_
_atom_site_type_symbol
_atom_site_label
_atom_site_fract_x
_atom_site_fract_y
_atom_site_fract_z
Si Si1 0.114655 0.604836 0.810973
Si Si2 0.862388 0.244194 0.676428
Si Si3 0.257034 0.496036 0.321633
Si Si4 0.439224 0.490477 0.823913
Si Si5 0.457097 0.639504 0.871916
Si Si6 0.350342 0.087052 0.914513
O O1 0.098164 0.671055 0.713504
O O2 0.215096 0.567368 0.760001
O O3 0.026184 0.556236 0.767693
O O4 0.114739 0.630415 0.984707
O O5 0.750000 0.250000 0.723681
O O6 0.879480 0.250000 0.500000
O O7 0.922967 0.300222 0.766955
O O8 0.250000 0.504145 0.500000
O O9 0.152382 0.469200 0.274622
O O10 0.330367 0.438827 0.256364
O O11 0.458940 0.568299 0.785274
O O12 0.409070 0.475506 0.001228
O O13 0.572934 0.649781 0.916445
O O14 0.250000 0.106393 0.000000
#
# Coordination Sequence:
#
# PCOD8205151 Si02
#       6
#     8   8   8   8   8   8
#     4  11  22  40  60  90 121 158 209 250 301 366
#     4  11  27  42  57  88 131 167 199 245 309 378
#     4  11  22  32  56  92 126 158 199 253 310 362
#     4  10  20  36  63  89 117 155 209 258 300 359
#     4  11  20  40  65  88 117 166 208 253 305 365
#     4   9  18  37  60  93 120 148 205 265 305 354
#
# _framework density 19.909132
#
# number of rings (size 3 to 8) (size 9 to 14) (size 15 to 20)
#    0.000    1.500    3.333    2.500    4.667    4.667 
#    0.000    0.000    0.000   17.000    0.000   11.667 
#    0.000    0.000    0.000    0.000    0.000    0.000 
#
# Total GULP energy -594841.578410 kJ/mol
# GULP energy per Si atom -12392.532884 kJ/mol
# Density = 1.986382 g / cm^3
# Si number density = 19.909132 Si / 1000 Ang^3
#
#
#
# Elastic Constant Matrix: (Units=GPa)
#
#
# Indices 1 2 3 4 5 6 
#
# 1 110.2753 50.6716 42.6112 0.0000 0.0000 0.0000
# 2 50.6716 105.1091 45.5988 0.0000 0.0000 0.0000
# 3 42.6112 45.5988 106.3790 0.0000 0.0000 0.0000
# 4 0.0000 0.0000 0.0000 24.1673 0.0000 0.0000
# 5 0.0000 0.0000 0.0000 0.0000 16.5334 0.0000
# 6 0.0000 0.0000 0.0000 0.0000 0.0000 21.4834
#
#
#
# Elastic Compliance Matrix: (Units=1/GPa)
#
#
# Indices 1 2 3 4 5 6 
#
# 1 0.012356 -0.004680 -0.002943 0.000000 0.000000 0.000000
# 2 -0.004680 0.013460 -0.003895 0.000000 0.000000 0.000000
# 3 -0.002943 -0.003895 0.012249 0.000000 0.000000 0.000000
# 4 0.000000 0.000000 0.000000 0.041378 0.000000 0.000000
# 5 0.000000 0.000000 0.000000 0.000000 0.060483 0.000000
# 6 0.000000 0.000000 0.000000 0.000000 0.000000 0.046548
#
#
# Mechanical properties :
#
#
# Convention : Reuss Voigt Hill
#
# Bulk Modulus (GPa) = 66.54029 66.61407 66.57718
# Shear Modulus (GPa) = 23.30796 24.62895 23.96846
#
# Velocity S-wave (km/s) = 3.42529 3.52101 3.47348
# Velocity P-wave (km/s) = 7.00985 7.07543 7.04272
#
# Compressibility (1/GPa) = 0.01502849
#
# Stress axis : x y z
#
# Youngs Moduli (GPa) = 80.93323 74.29619 81.64017
#
# Poissons Ratio (x) = 0.34768 0.24030
# Poissons Ratio (y) = 0.37874 0.31798
# Poissons Ratio (z) = 0.23821 0.28938
#
# Static dielectric constant tensor:
#      x y z
#    x 4.118500 0.000000 0.000000 
#    y 0.000000 3.429060 0.000000 
#    z 0.000000 0.000000 3.563510 
# 
# 
# High freq. dielectric constant tensor:
#      x y z
#    x 1.797020 0.000000 0.000000 
#    y 0.000000 1.751000 0.000000 
#    z 0.000000 0.000000 1.762660 
# 
# From -- ./inp_files/12966.got.cif
#   From: 2010.03.12/outbox.cif.g09.slc.cpg/sg50_7_cif.got.tgz:12966.got - 2010.04.16 13:23:21.
