data_PCOD8205584
_publ_section_title
;
Structure prediction by ZEFSAII (Michael W. Deem and Ramdas Pophale) SiO2 
 PCOD8205584
Probable space group: P B A N
;
_chemical_formula_sum "Si O2"
_cell_formula_units_Z 64
_cell_length_a 14.296464
_cell_length_b 9.134847
_cell_length_c 25.156401
_cell_angle_alpha 90.000000
_cell_angle_beta 90.000000
_cell_angle_gamma 90.000000
_cell_volume 3285.325629
_symmetry_space_group_name_H-M "P B A N"
_symmetry_group_IT_number 50
_space_group.IT_coordinate_system_code '2'
_symmetry_cell_setting 'orthorhombic'
loop_
_space_group_symop_operation_xyz
x,y,z
1/2-x,1/2-y,z
x,1/2-y,-z
1/2-x,y,-z
-x,-y,-z
1/2+x,1/2+y,-z
-x,1/2+y,z
1/2+x,-y,z
loop_
_atom_site_type_symbol
_atom_site_label
_atom_site_fract_x
_atom_site_fract_y
_atom_site_fract_z
Si Si1 0.613292 0.037237 0.276579
Si Si2 0.463932 0.268070 0.437529
Si Si3 0.901205 0.577782 0.003084
Si Si4 0.073041 0.623992 0.275001
Si Si5 0.732061 0.415887 0.193314
Si Si6 0.247518 0.077939 0.916131
Si Si7 0.296090 0.402440 0.379298
Si Si8 0.393363 0.523897 0.608402
O O1 0.575806 0.201942 0.282721
O O2 0.684494 0.021950 0.228526
O O3 0.532205 0.923134 0.262605
O O4 0.663752 0.993555 0.330675
O O5 0.459485 0.250000 0.500000
O O6 0.378847 0.374652 0.421149
O O7 0.563994 0.335698 0.421227
O O8 0.456969 0.114821 0.407089
O O9 0.846866 0.531828 0.057366
O O10 0.918181 0.750000 0.000000
O O11 0.837312 0.527874 0.953835
O O12 0.000000 0.500000 0.000000
O O13 0.136269 0.570151 0.226233
O O14 0.106234 0.543198 0.328293
O O15 0.750000 0.250000 0.176871
O O16 0.727678 0.507673 0.140202
O O17 0.250000 0.250000 0.908669
O O18 0.250000 0.250000 0.359271
O O19 0.214726 0.497536 0.408405
#
# Coordination Sequence:
#
# PCOD8205584 Si02
#       8
#     8   8   8   8   8   8   8   8
#     4  11  23  40  61  88 122 161 205 256 305 375
#     4  11  24  43  65  92 124 157 201 255 311 374
#     4   9  19  37  62  88 123 163 213 250 307 364
#     4  11  23  39  63  89 119 161 206 252 312 373
#     4  10  23  40  58  88 126 159 206 261 307 361
#     4   9  20  39  59  87 123 167 205 257 303 365
#     4  10  23  38  65  90 119 158 200 246 310 375
#     4  11  22  41  65  89 121 161 199 250 313 371
#
# _framework density 19.480567000000001
#
# number of rings (size 3 to 8) (size 9 to 14) (size 15 to 20)
#    0.000    1.750    2.500    1.875    1.750    5.750 
#    0.000    6.250    0.000    0.000    0.000    0.000 
#    0.000    0.000    0.000    0.000    0.000    0.000 
#
# Total GULP energy -793642.198966 kJ/mol
# GULP energy per Si atom -12400.659359 kJ/mol
# Density = 1.943623 g / cm^3
# Si number density = 19.480567 Si / 1000 Ang^3
#
#
#
# Elastic Constant Matrix: (Units=GPa)
#
#
# Indices 1 2 3 4 5 6 
#
# 1 131.1694 61.1536 56.8483 0.0000 0.0000 0.0000
# 2 61.1536 80.0539 61.0927 0.0000 0.0000 0.0000
# 3 56.8483 61.0927 145.8695 0.0000 0.0000 0.0000
# 4 0.0000 0.0000 0.0000 -41.8082 0.0000 0.0000
# 5 0.0000 0.0000 0.0000 0.0000 31.0123 0.0000
# 6 0.0000 0.0000 0.0000 0.0000 0.0000 55.2561
#
#
#
# Elastic Compliance Matrix: (Units=1/GPa)
#
#
# Indices 1 2 3 4 5 6 
#
# 1 0.011989 -0.008220 -0.001230 0.000000 0.000000 0.000000
# 2 -0.008220 0.023996 -0.006846 0.000000 0.000000 0.000000
# 3 -0.001230 -0.006846 0.010202 0.000000 0.000000 0.000000
# 4 0.000000 0.000000 0.000000 -0.023919 0.000000 0.000000
# 5 0.000000 0.000000 0.000000 0.000000 0.032245 0.000000
# 6 0.000000 0.000000 0.000000 0.000000 0.000000 0.018098
#
#
# Mechanical properties :
#
#
# Convention : Reuss Voigt Hill
#
# Bulk Modulus (GPa) = 73.55822 79.47578 76.51700
# Shear Modulus (GPa) = 45.56462 20.75857 33.16159
#
# Velocity S-wave (km/s) = 4.84154 3.26790 4.13036
# Velocity P-wave (km/s) = 8.31239 7.42462 7.88101
#
# Compressibility (1/GPa) = 0.01359467
#
# Stress axis : x y z
#
# Youngs Moduli (GPa) = 83.40972 41.67426 98.02007
#
# Poissons Ratio (x) = 0.34257 0.12053
# Poissons Ratio (y) = 0.68563 0.67107
# Poissons Ratio (z) = 0.10257 0.28531
#
# Static dielectric constant tensor:
#      x y z
#    x 3.743320 0.000000 0.000000 
#    y 0.000000 3.602850 0.000000 
#    z 0.000000 0.000000 3.558870 
# 
# 
# High freq. dielectric constant tensor:
#      x y z
#    x 1.772270 0.000000 0.000000 
#    y 0.000000 1.761780 0.000000 
#    z 0.000000 0.000000 1.751470 
# 
# From -- ./inp_files/31771.got.cif
#   From: 2010.03.12/outbox.cif.g09.slc.cpg/sg50_16_cif.got.tgz:31771.got - 2010.04.16 13:23:21.
