data_PCOD8205376
_publ_section_title
;
Structure prediction by ZEFSAII (Michael W. Deem and Ramdas Pophale) SiO2 
 PCOD8205376
Probable space group: P B A N
;
_chemical_formula_sum "Si O2"
_cell_formula_units_Z 48
_cell_length_a 14.354405
_cell_length_b 9.323938
_cell_length_c 16.567898
_cell_angle_alpha 90.000000
_cell_angle_beta 90.000000
_cell_angle_gamma 90.000000
_cell_volume 2217.440547
_symmetry_space_group_name_H-M "P B A N"
_symmetry_group_IT_number 50
_space_group.IT_coordinate_system_code '2'
_symmetry_cell_setting 'orthorhombic'
loop_
_space_group_symop_operation_xyz
x,y,z
1/2-x,1/2-y,z
x,1/2-y,-z
1/2-x,y,-z
-x,-y,-z
1/2+x,1/2+y,-z
-x,1/2+y,z
1/2+x,-y,z
loop_
_atom_site_type_symbol
_atom_site_label
_atom_site_fract_x
_atom_site_fract_y
_atom_site_fract_z
Si Si1 0.147798 0.764848 0.147683
Si Si2 0.263644 0.089400 0.352494
Si Si3 0.020895 0.365234 0.055126
Si Si4 0.652711 0.188750 0.587756
Si Si5 0.095042 0.911367 0.298366
Si Si6 0.596568 0.530905 0.221291
O O1 0.250000 0.750000 0.109418
O O2 0.078118 0.792649 0.074982
O O3 0.146006 0.894014 0.212044
O O4 0.118211 0.631254 0.201566
O O5 0.250000 0.250000 0.389444
O O6 0.315122 0.103732 0.265665
O O7 0.332663 0.985259 0.407176
O O8 0.159062 0.024678 0.347152
O O9 0.078485 0.388748 0.136668
O O10 0.076716 0.250000 0.000000
O O11 0.000000 0.500000 0.000000
O O12 0.750000 0.250000 0.618971
O O13 0.626819 0.250000 0.500000
O O14 0.581438 0.261147 0.651338
O O15 0.991624 0.969137 0.281640
#
# Coordination Sequence:
#
# PCOD8205376 Si02
#       6
#     8   8   8   8   8   8
#     4  11  20  40  68  90 118 173 231 263 318 396
#     4  11  23  37  63 103 128 158 222 272 318 384
#     4  11  24  41  60  90 127 167 211 265 337 384
#     4   9  18  39  64  89 127 176 210 256 326 391
#     4  10  21  38  65  91 124 171 219 255 320 393
#     4  11  23  39  67  93 126 168 219 273 317 381
#
# _framework density 21.646578000000002
#
# number of rings (size 3 to 8) (size 9 to 14) (size 15 to 20)
#    0.000    1.500    5.000    0.500    4.667    0.333 
#    0.000    7.500    0.000    2.000    0.000    0.000 
#    0.000    0.000    0.000    0.000    0.000    0.000 
#
# Total GULP energy -594668.570261 kJ/mol
# GULP energy per Si atom -12388.928547 kJ/mol
# Density = 2.159731 g / cm^3
# Si number density = 21.646578 Si / 1000 Ang^3
#
#
#
# Elastic Constant Matrix: (Units=GPa)
#
#
# Indices 1 2 3 4 5 6 
#
# 1 82.0342 22.4229 17.4779 0.0000 0.0000 0.0000
# 2 22.4229 124.8424 31.9758 0.0000 0.0000 0.0000
# 3 17.4779 31.9758 97.0316 0.0000 0.0000 0.0000
# 4 0.0000 0.0000 0.0000 36.0140 0.0000 0.0000
# 5 0.0000 0.0000 0.0000 0.0000 21.5459 0.0000
# 6 0.0000 0.0000 0.0000 0.0000 0.0000 28.4038
#
#
#
# Elastic Compliance Matrix: (Units=1/GPa)
#
#
# Indices 1 2 3 4 5 6 
#
# 1 0.013079 -0.001907 -0.001728 0.000000 0.000000 0.000000
# 2 -0.001907 0.009026 -0.002631 0.000000 0.000000 0.000000
# 3 -0.001728 -0.002631 0.011484 0.000000 0.000000 0.000000
# 4 0.000000 0.000000 0.000000 0.027767 0.000000 0.000000
# 5 0.000000 0.000000 0.000000 0.000000 0.046413 0.000000
# 6 0.000000 0.000000 0.000000 0.000000 0.000000 0.035207
#
#
# Mechanical properties :
#
#
# Convention : Reuss Voigt Hill
#
# Bulk Modulus (GPa) = 47.48541 49.74015 48.61278
# Shear Modulus (GPa) = 30.76421 32.66152 31.71286
#
# Velocity S-wave (km/s) = 3.77398 3.88861 3.83172
# Velocity P-wave (km/s) = 6.40116 6.57190 6.48709
#
# Compressibility (1/GPa) = 0.02105910
#
# Stress axis : x y z
#
# Youngs Moduli (GPa) = 76.45681 110.78528 87.07637
#
# Poissons Ratio (x) = 0.21123 0.15043
# Poissons Ratio (y) = 0.14578 0.22911
# Poissons Ratio (z) = 0.13209 0.29149
#
# Static dielectric constant tensor:
#      x y z
#    x 3.667880 0.000000 0.000000 
#    y 0.000000 4.108360 0.000000 
#    z 0.000000 0.000000 3.763790 
# 
# 
# High freq. dielectric constant tensor:
#      x y z
#    x 1.825990 0.000000 0.000000 
#    y 0.000000 1.851340 0.000000 
#    z 0.000000 0.000000 1.847850 
# 
# From -- ./inp_files/29441.got.cif
#   From: 2010.03.12/outbox.cif.g09.slc.cpg/sg50_15_cif.got.tgz:29441.got - 2010.04.16 13:23:21.
