data_PCOD8205411
_publ_section_title
;
Structure prediction by ZEFSAII (Michael W. Deem and Ramdas Pophale) SiO2 
 PCOD8205411
Probable space group: P B A N
;
_chemical_formula_sum "Si O2"
_cell_formula_units_Z 48
_cell_length_a 5.123138
_cell_length_b 15.011299
_cell_length_c 28.713807
_cell_angle_alpha 90.000000
_cell_angle_beta 90.000000
_cell_angle_gamma 90.000000
_cell_volume 2208.234074
_symmetry_space_group_name_H-M "P B A N"
_symmetry_group_IT_number 50
_space_group.IT_coordinate_system_code '2'
_symmetry_cell_setting 'orthorhombic'
loop_
_space_group_symop_operation_xyz
x,y,z
1/2-x,1/2-y,z
x,1/2-y,-z
1/2-x,y,-z
-x,-y,-z
1/2+x,1/2+y,-z
-x,1/2+y,z
1/2+x,-y,z
loop_
_atom_site_type_symbol
_atom_site_label
_atom_site_fract_x
_atom_site_fract_y
_atom_site_fract_z
Si Si1 0.967552 0.555829 0.198115
Si Si2 0.772183 0.447111 0.945213
Si Si3 0.430105 0.057642 0.695666
Si Si4 0.505384 0.195414 0.878683
Si Si5 0.496495 0.189152 0.614644
Si Si6 0.500395 0.399701 0.479136
O O1 0.760001 0.477706 0.188341
O O2 0.942498 0.590090 0.250984
O O3 0.901673 0.634852 0.163184
O O4 0.483657 0.477825 0.929161
O O5 0.867956 0.355825 0.922541
O O6 0.750000 0.432054 0.000000
O O7 0.472533 0.145279 0.665180
O O8 0.648799 0.984015 0.684442
O O9 0.250000 0.250000 0.895852
O O10 0.750000 0.250000 0.858181
O O11 0.250000 0.250000 0.603765
O O12 0.507194 0.108307 0.576882
O O13 0.750000 0.250000 0.612511
O O14 0.250000 0.349246 0.500000
O O15 0.500000 0.500000 0.500000
O O16 0.750000 0.348737 0.500000
#
# Coordination Sequence:
#
# PCOD8205411 Si02
#       6
#     8   8   8   8   8   8
#     4  10  21  41  64  91 121 167 216 254 297 372
#     4  10  21  40  63  85 116 166 216 257 302 367
#     4  10  23  41  68  91 122 167 210 247 302 378
#     4  12  24  37  60  95 130 165 202 264 331 370
#     4  12  26  41  64  96 127 156 197 260 317 365
#     4  10  23  40  63  88 115 163 203 242 300 364
#
# _framework density 21.736826000000001
#
# number of rings (size 3 to 8) (size 9 to 14) (size 15 to 20)
#    0.000    1.333    0.000    5.000    4.667    3.667 
#    0.000    0.833    0.000    0.000    0.000    0.000 
#    0.000    0.000    0.000    0.000    0.000    0.000 
#
# Total GULP energy -595116.405142 kJ/mol
# GULP energy per Si atom -12398.258440 kJ/mol
# Density = 2.168735 g / cm^3
# Si number density = 21.736826 Si / 1000 Ang^3
#
#
#
# Elastic Constant Matrix: (Units=GPa)
#
#
# Indices 1 2 3 4 5 6 
#
# 1 151.7760 27.1012 45.8313 0.0000 0.0000 0.0000
# 2 27.1012 86.9674 61.5548 0.0000 0.0000 0.0000
# 3 45.8313 61.5548 99.5181 0.0000 0.0000 0.0000
# 4 0.0000 0.0000 0.0000 25.3147 0.0000 0.0000
# 5 0.0000 0.0000 0.0000 0.0000 30.1859 0.0000
# 6 0.0000 0.0000 0.0000 0.0000 0.0000 25.7328
#
#
#
# Elastic Compliance Matrix: (Units=1/GPa)
#
#
# Indices 1 2 3 4 5 6 
#
# 1 0.007655 0.000195 -0.003646 0.000000 0.000000 0.000000
# 2 0.000195 0.020457 -0.012743 0.000000 0.000000 0.000000
# 3 -0.003646 -0.012743 0.019610 0.000000 0.000000 0.000000
# 4 0.000000 0.000000 0.000000 0.039503 0.000000 0.000000
# 5 0.000000 0.000000 0.000000 0.000000 0.033128 0.000000
# 6 0.000000 0.000000 0.000000 0.000000 0.000000 0.038861
#
#
# Mechanical properties :
#
#
# Convention : Reuss Voigt Hill
#
# Bulk Modulus (GPa) = 65.21684 67.47066 66.34375
# Shear Modulus (GPa) = 25.41772 29.83161 27.62467
#
# Velocity S-wave (km/s) = 3.42327 3.70861 3.56879
# Velocity P-wave (km/s) = 6.75967 7.03175 6.89705
#
# Compressibility (1/GPa) = 0.01533346
#
# Stress axis : x y z
#
# Youngs Moduli (GPa) = 130.63743 48.88213 50.99526
#
# Poissons Ratio (x) = -0.00954 0.18593
# Poissons Ratio (y) = -0.02550 0.64985
# Poissons Ratio (z) = 0.47630 0.62292
#
# Static dielectric constant tensor:
#      x y z
#    x 35.874300 0.000000 0.000000 
#    y 0.000000 3.663520 0.000000 
#    z 0.000000 0.000000 3.966190 
# 
# 
# High freq. dielectric constant tensor:
#      x y z
#    x 1.887280 0.000000 0.000000 
#    y 0.000000 1.832570 0.000000 
#    z 0.000000 0.000000 1.859910 
# 
# From -- ./inp_files/32038.got.cif
#   From: 2010.03.12/outbox.cif.g09.slc.cpg/sg50_17_cif.got.tgz:32038.got - 2010.04.16 13:23:21.
