data_PCOD8205947
_publ_section_title
;
Structure prediction by ZEFSAII (Michael W. Deem and Ramdas Pophale) SiO2 
 PCOD8205947
Probable space group: P M M A
;
_chemical_formula_sum "Si O2"
_cell_formula_units_Z 36
_cell_length_a 8.904162
_cell_length_b 17.646567
_cell_length_c 15.335244
_cell_angle_alpha 90.000000
_cell_angle_beta 90.000000
_cell_angle_gamma 90.000000
_cell_volume 2409.594552
_symmetry_space_group_name_H-M "P M M A"
_symmetry_group_IT_number 51
_symmetry_cell_setting 'orthorhombic'
loop_
_space_group_symop_operation_xyz
x,y,z
1/2-x,-y,z
1/2+x,-y,-z
-x,y,-z
-x,-y,-z
1/2+x,y,-z
1/2-x,y,z
x,-y,z
loop_
_atom_site_type_symbol
_atom_site_label
_atom_site_fract_x
_atom_site_fract_y
_atom_site_fract_z
Si Si1 0.422847 0.410604 0.261234
Si Si2 0.575713 0.687418 0.406259
Si Si3 0.575731 0.145234 0.406843
Si Si4 0.919140 0.409770 0.086041
Si Si5 0.928621 0.000000 0.596867
O O1 0.250000 0.386824 0.261168
O O2 0.444394 0.500000 0.270406
O O3 0.504333 0.373174 0.342391
O O4 0.494557 0.380460 0.171420
O O5 0.500000 0.679816 0.500000
O O6 0.750000 0.668660 0.418453
O O7 0.554740 0.771740 0.363819
O O8 0.500000 0.152334 0.500000
O O9 0.750000 0.123823 0.416637
O O10 0.490580 0.076612 0.355293
O O11 0.750000 0.378340 0.088665
O O12 0.920349 0.500000 0.083119
O O13 0.000000 0.376998 0.000000
O O14 0.000000 0.000000 0.500000
O O15 0.750000 0.000000 0.595398
#
# Coordination Sequence:
#
# PCOD8205947 Si02
#       5
#     8   8   8   8   4
#     4  10  20  32  45  61  81 107 140 176 212 249
#     4  10  20  32  45  59  78 108 143 178 213 246
#     4   9  16  26  39  55  75  99 129 164 202 242
#     4   9  16  27  44  64  84 104 128 162 205 252
#     4  10  16  22  36  56  76  98 125 158 197 240
#
# _framework density 14.940272
#
# number of rings (size 3 to 8) (size 9 to 14) (size 15 to 20)
#    0.000    2.444    0.000    5.000    0.000    7.111 
#    0.000    0.000    0.000    0.000    0.000    0.000 
#    0.000    0.000    0.000    1.000    0.000   13.222 
#
# Total GULP energy -446141.467171 kJ/mol
# GULP energy per Si atom -12392.818533 kJ/mol
# Density = 1.490627 g / cm^3
# Si number density = 14.940272 Si / 1000 Ang^3
#
#
#
# Elastic Constant Matrix: (Units=GPa)
#
#
# Indices 1 2 3 4 5 6 
#
# 1 146.0721 41.9663 51.3594 0.0000 0.0000 0.0000
# 2 41.9663 39.2081 31.3395 0.0000 0.0000 0.0000
# 3 51.3594 31.3395 82.3203 0.0000 0.0000 0.0000
# 4 0.0000 0.0000 0.0000 0.1885 0.0000 0.0000
# 5 0.0000 0.0000 0.0000 0.0000 24.6829 0.0000
# 6 0.0000 0.0000 0.0000 0.0000 0.0000 19.3445
#
#
#
# Elastic Compliance Matrix: (Units=1/GPa)
#
#
# Indices 1 2 3 4 5 6 
#
# 1 0.010459 -0.008594 -0.003254 0.000000 0.000000 0.000000
# 2 -0.008594 0.043723 -0.011283 0.000000 0.000000 0.000000
# 3 -0.003254 -0.011283 0.018473 0.000000 0.000000 0.000000
# 4 0.000000 0.000000 0.000000 5.306240 0.000000 0.000000
# 5 0.000000 0.000000 0.000000 0.000000 0.040514 0.000000
# 6 0.000000 0.000000 0.000000 0.000000 0.000000 0.051694
#
#
# Mechanical properties :
#
#
# Convention : Reuss Voigt Hill
#
# Bulk Modulus (GPa) = 37.88940 57.43677 47.66308
# Shear Modulus (GPa) = 0.90479 18.37220 9.63850
#
# Velocity S-wave (km/s) = 0.77905 3.51053 2.54271
# Velocity P-wave (km/s) = 5.12102 7.41346 6.37120
#
# Compressibility (1/GPa) = 0.02639261
#
# Stress axis : x y z
#
# Youngs Moduli (GPa) = 95.61171 22.87142 54.13271
#
# Poissons Ratio (x) = 0.19656 0.17612
# Poissons Ratio (y) = 0.82170 0.61080
# Poissons Ratio (z) = 0.31107 0.25807
#
# Static dielectric constant tensor:
#      x y z
#    x 3.129370 0.000000 0.000000 
#    y 0.000000 3.435850 0.000000 
#    z 0.000000 0.000000 2.605310 
# 
# 
# High freq. dielectric constant tensor:
#      x y z
#    x 1.598770 0.000000 0.000000 
#    y 0.000000 1.555510 0.000000 
#    z 0.000000 0.000000 1.524100 
# 
# From -- ./inp_files/14175.got.cif
#   From: 2010.03.12/outbox.cif.g09.slc.cpg/sg51_8_cif.got.tgz:14175.got - 2010.04.16 13:43:02.
