data_PCOD8205332
_publ_section_title
;
Structure prediction by ZEFSAII (Michael W. Deem and Ramdas Pophale) SiO2 
 PCOD8205332
Probable space group: P B A N
;
_chemical_formula_sum "Si O2"
_cell_formula_units_Z 26
_cell_length_a 10.146456
_cell_length_b 13.922500
_cell_length_c 9.258150
_cell_angle_alpha 90.000000
_cell_angle_beta 90.000000
_cell_angle_gamma 90.000000
_cell_volume 1307.843613
_symmetry_space_group_name_H-M "P B A N"
_symmetry_group_IT_number 50
_space_group.IT_coordinate_system_code '2'
_symmetry_cell_setting 'orthorhombic'
loop_
_space_group_symop_operation_xyz
x,y,z
1/2-x,1/2-y,z
x,1/2-y,-z
1/2-x,y,-z
-x,-y,-z
1/2+x,1/2+y,-z
-x,1/2+y,z
1/2+x,-y,z
loop_
_atom_site_type_symbol
_atom_site_label
_atom_site_fract_x
_atom_site_fract_y
_atom_site_fract_z
Si Si1 0.641993 0.598523 0.709908
Si Si2 0.750000 0.750000 0.500000
Si Si3 0.002164 0.856760 0.982246
Si Si4 0.904474 0.991807 0.212566
O O1 0.653669 0.684526 0.596018
O O2 0.623165 0.642758 0.871320
O O3 0.770709 0.530476 0.703129
O O4 0.514042 0.532107 0.673869
O O5 0.059698 0.750000 0.000000
O O6 0.957598 0.894159 0.138866
O O7 0.114690 0.927536 0.914608
#
# Coordination Sequence:
#
# PCOD8205332 Si02
#       4
#     8   2   8   8
#     4  10  21  37  56  86 111 154 201 236 289 350
#     4  12  24  36  66  78 110 176 212 228 268 384
#     4   9  18  34  61  87 116 150 188 243 298 365
#     4   9  20  35  60  87 118 144 192 253 300 339
#
# _framework density 19.880053
#
# number of rings (size 3 to 8) (size 9 to 14) (size 15 to 20)
#    1.846    0.615    0.000    2.769    0.000    2.462 
#    0.000    3.077    0.000    1.846    0.000    0.000 
#    0.000    0.000    0.000    0.000    0.000    0.000 
#
# Total GULP energy -322093.844301 kJ/mol
# GULP energy per Si atom -12388.224781 kJ/mol
# Density = 1.983480 g / cm^3
# Si number density = 19.880053 Si / 1000 Ang^3
#
#
#
# Elastic Constant Matrix: (Units=GPa)
#
#
# Indices 1 2 3 4 5 6 
#
# 1 96.2839 36.7789 30.9353 0.0000 0.0000 0.0000
# 2 36.7789 138.6532 31.2105 0.0000 0.0000 0.0000
# 3 30.9353 31.2105 62.7315 0.0000 0.0000 0.0000
# 4 0.0000 0.0000 0.0000 39.9199 0.0000 0.0000
# 5 0.0000 0.0000 0.0000 0.0000 16.7887 0.0000
# 6 0.0000 0.0000 0.0000 0.0000 0.0000 16.2584
#
#
#
# Elastic Compliance Matrix: (Units=1/GPa)
#
#
# Indices 1 2 3 4 5 6 
#
# 1 0.012934 -0.002247 -0.005261 0.000000 0.000000 0.000000
# 2 -0.002247 0.008512 -0.003127 0.000000 0.000000 0.000000
# 3 -0.005261 -0.003127 0.020091 0.000000 0.000000 0.000000
# 4 0.000000 0.000000 0.000000 0.025050 0.000000 0.000000
# 5 0.000000 0.000000 0.000000 0.000000 0.059564 0.000000
# 6 0.000000 0.000000 0.000000 0.000000 0.000000 0.061507
#
#
# Mechanical properties :
#
#
# Convention : Reuss Voigt Hill
#
# Bulk Modulus (GPa) = 49.33739 55.05754 52.19746
# Shear Modulus (GPa) = 23.18216 27.84299 25.51257
#
# Velocity S-wave (km/s) = 3.41853 3.74645 3.58624
# Velocity P-wave (km/s) = 6.36028 6.81686 6.59252
#
# Compressibility (1/GPa) = 0.02026860
#
# Stress axis : x y z
#
# Youngs Moduli (GPa) = 77.31329 117.47973 49.77377
#
# Poissons Ratio (x) = 0.26395 0.26184
# Poissons Ratio (y) = 0.17371 0.15564
# Poissons Ratio (z) = 0.40671 0.36736
#
# Static dielectric constant tensor:
#      x y z
#    x 3.231000 0.000000 0.000000 
#    y 0.000000 3.571810 0.000000 
#    z 0.000000 0.000000 3.291910 
# 
# 
# High freq. dielectric constant tensor:
#      x y z
#    x 1.744200 0.000000 0.000000 
#    y 0.000000 1.778390 0.000000 
#    z 0.000000 0.000000 1.747300 
# 
# From -- ./inp_files/10453.got.cif
#   From: 2010.03.12/outbox.cif.g09.slc.cpg/sg50_6_cif.got.tgz:10453.got - 2010.04.16 13:23:21.
