data_PCOD8205959
_publ_section_title
;
Structure prediction by ZEFSAII (Michael W. Deem and Ramdas Pophale) SiO2 
 PCOD8205959
Probable space group: P M M A
;
_chemical_formula_sum "Si O2"
_cell_formula_units_Z 56
_cell_length_a 26.989657
_cell_length_b 9.624090
_cell_length_c 14.264407
_cell_angle_alpha 90.000000
_cell_angle_beta 90.000000
_cell_angle_gamma 90.000000
_cell_volume 3705.192386
_symmetry_space_group_name_H-M "P M M A"
_symmetry_group_IT_number 51
_symmetry_cell_setting 'orthorhombic'
loop_
_space_group_symop_operation_xyz
x,y,z
1/2-x,-y,z
1/2+x,-y,-z
-x,y,-z
-x,-y,-z
1/2+x,y,-z
1/2-x,y,z
x,-y,z
loop_
_atom_site_type_symbol
_atom_site_label
_atom_site_fract_x
_atom_site_fract_y
_atom_site_fract_z
Si Si1 0.564907 0.164281 0.201558
Si Si2 0.037472 0.844242 0.128862
Si Si3 0.432729 0.660300 0.416818
Si Si4 0.694773 0.834386 0.878349
Si Si5 0.121673 0.843880 0.279974
Si Si6 0.886835 0.835764 0.016056
Si Si7 0.544174 0.339325 0.372698
O O1 0.514440 0.227087 0.156039
O O2 0.574168 0.245986 0.297956
O O3 0.561771 0.000000 0.223426
O O4 0.608948 0.197832 0.126798
O O5 0.072631 0.841511 0.218210
O O6 0.065644 0.772522 0.040606
O O7 0.023166 0.000000 0.099903
O O8 0.424046 0.500000 0.392562
O O9 0.388289 0.746965 0.369571
O O10 0.429661 0.685951 0.527773
O O11 0.486690 0.706613 0.378780
O O12 0.750000 0.770396 0.881760
O O13 0.667717 0.787063 0.782167
O O14 0.664203 0.779081 0.969758
O O15 0.696775 0.000000 0.880245
O O16 0.132725 0.000000 0.315529
O O17 0.888343 0.000000 0.997716
O O18 0.548082 0.500000 0.343527
#
# Coordination Sequence:
#
# PCOD8205959 Si02
#       7
#     8   8   8   8   8   8   8
#     4  10  16  23  38  59  80 106 139 172 196 222
#     4   8  13  21  33  54  81 105 129 160 194 226
#     4   9  17  29  41  54  77 111 142 165 198 242
#     4   8  14  25  41  63  88 108 128 161 205 249
#     4   9  15  24  41  63  82 103 135 169 201 237
#     4   8  14  22  35  56  81 108 135 160 194 240
#     4   9  18  29  39  53  79 113 141 164 197 241
#
# _framework density 15.113924000000001
#
# number of rings (size 3 to 8) (size 9 to 14) (size 15 to 20)
#    0.000    3.286    1.429    3.000    0.000    2.286 
#    0.000    1.429    0.000    5.571    0.000    1.000 
#    0.000    5.714    0.000    0.000    0.000    0.000 
#
# Total GULP energy -693795.551328 kJ/mol
# GULP energy per Si atom -12389.206274 kJ/mol
# Density = 1.507952 g / cm^3
# Si number density = 15.113924 Si / 1000 Ang^3
#
#
#
# Elastic Constant Matrix: (Units=GPa)
#
#
# Indices 1 2 3 4 5 6 
#
# 1 75.3126 21.2674 44.1881 0.0000 0.0000 0.0000
# 2 21.2674 35.9879 41.8010 0.0000 0.0000 0.0000
# 3 44.1881 41.8010 104.9792 0.0000 0.0000 0.0000
# 4 0.0000 0.0000 0.0000 6.6481 0.0000 0.0000
# 5 0.0000 0.0000 0.0000 0.0000 15.6030 0.0000
# 6 0.0000 0.0000 0.0000 0.0000 0.0000 8.9337
#
#
#
# Elastic Compliance Matrix: (Units=1/GPa)
#
#
# Indices 1 2 3 4 5 6 
#
# 1 0.017852 -0.003389 -0.006165 0.000000 0.000000 0.000000
# 2 -0.003389 0.052341 -0.019415 0.000000 0.000000 0.000000
# 3 -0.006165 -0.019415 0.019851 0.000000 0.000000 0.000000
# 4 0.000000 0.000000 0.000000 0.150419 0.000000 0.000000
# 5 0.000000 0.000000 0.000000 0.000000 0.064090 0.000000
# 6 0.000000 0.000000 0.000000 0.000000 0.000000 0.111936
#
#
# Mechanical properties :
#
#
# Convention : Reuss Voigt Hill
#
# Bulk Modulus (GPa) = 31.14626 47.86588 39.50607
# Shear Modulus (GPa) = 10.30655 13.50518 11.90586
#
# Velocity S-wave (km/s) = 2.61420 2.99249 2.80972
# Velocity P-wave (km/s) = 5.45568 6.60899 6.05984
#
# Compressibility (1/GPa) = 0.03210659
#
# Stress axis : x y z
#
# Youngs Moduli (GPa) = 56.01560 19.10564 50.37493
#
# Poissons Ratio (x) = 0.06476 0.31055
# Poissons Ratio (y) = 0.18985 0.97800
# Poissons Ratio (z) = 0.34533 0.37093
#
# Static dielectric constant tensor:
#      x y z
#    x 2.872430 0.000000 0.000000 
#    y 0.000000 2.531400 0.000000 
#    z 0.000000 0.000000 2.922390 
# 
# 
# High freq. dielectric constant tensor:
#      x y z
#    x 1.543940 0.000000 0.000000 
#    y 0.000000 1.533910 0.000000 
#    z 0.000000 0.000000 1.579750 
# 
# From -- ./inp_files/26532.got.cif
#   From: 2010.03.12/outbox.cif.g09.slc.cpg/sg51_14_cif.got.tgz:26532.got - 2010.04.16 13:43:02.
