data_PCOD8205086
_publ_section_title
;
Structure prediction by ZEFSAII (Michael W. Deem and Ramdas Pophale) SiO2 
 PCOD8205086
Probable space group: P B A N
;
_chemical_formula_sum "Si O2"
_cell_formula_units_Z 44
_cell_length_a 8.702004
_cell_length_b 18.117606
_cell_length_c 13.368864
_cell_angle_alpha 90.000000
_cell_angle_beta 90.000000
_cell_angle_gamma 90.000000
_cell_volume 2107.728145
_symmetry_space_group_name_H-M "P B A N"
_symmetry_group_IT_number 50
_space_group.IT_coordinate_system_code '2'
_symmetry_cell_setting 'orthorhombic'
loop_
_space_group_symop_operation_xyz
x,y,z
1/2-x,1/2-y,z
x,1/2-y,-z
1/2-x,y,-z
-x,-y,-z
1/2+x,1/2+y,-z
-x,1/2+y,z
1/2+x,-y,z
loop_
_atom_site_type_symbol
_atom_site_label
_atom_site_fract_x
_atom_site_fract_y
_atom_site_fract_z
Si Si1 0.278462 0.047223 0.341907
Si Si2 0.474995 0.481168 0.203028
Si Si3 0.750000 0.431555 0.500000
Si Si4 0.250000 0.750000 0.759355
Si Si5 0.750000 0.840245 0.500000
Si Si6 0.254949 0.603526 0.115324
Si Si7 0.560004 0.197225 0.579652
O O1 0.430117 0.025007 0.284861
O O2 0.334870 0.111404 0.415559
O O3 0.147452 0.070762 0.261672
O O4 0.197333 0.981977 0.406879
O O5 0.383609 0.540927 0.135349
O O6 0.585303 0.427733 0.140191
O O7 0.888623 0.385090 0.549604
O O8 0.296065 0.821253 0.825129
O O9 0.393143 0.723853 0.690451
O O10 0.624264 0.794378 0.435996
O O11 0.250000 0.625056 0.000000
O O12 0.643605 0.250000 0.500000
#
# Coordination Sequence:
#
# PCOD8205086 Si02
#       7
#     8   8   4   4   4   8   8
#     4  10  20  34  59  91 119 160 194 254 292 366
#     4  10  21  38  65  92 122 155 209 253 322 367
#     4  11  19  36  58  84 127 163 210 232 292 358
#     4  12  24  42  68  90 128 168 212 256 310 370
#     4  11  23  34  54  88 129 157 206 236 294 354
#     4  11  24  43  68  94 119 158 211 271 322 372
#     4  12  23  37  55  83 123 167 199 236 287 366
#
# _framework density 20.875557000000001
#
# number of rings (size 3 to 8) (size 9 to 14) (size 15 to 20)
#    0.000    1.091    1.818    6.545    2.545    2.909 
#    0.000    0.000    0.000    0.000    0.000   11.455 
#    0.000    0.000    0.000    0.000    0.000    0.000 
#
# Total GULP energy -545158.488258 kJ/mol
# GULP energy per Si atom -12389.965642 kJ/mol
# Density = 2.082804 g / cm^3
# Si number density = 20.875557 Si / 1000 Ang^3
#
#
#
# Elastic Constant Matrix: (Units=GPa)
#
#
# Indices 1 2 3 4 5 6 
#
# 1 109.6579 27.2921 41.1613 0.0000 0.0000 0.0000
# 2 27.2921 98.4777 49.0118 0.0000 0.0000 0.0000
# 3 41.1613 49.0118 139.6404 0.0000 0.0000 0.0000
# 4 0.0000 0.0000 0.0000 34.6660 0.0000 0.0000
# 5 0.0000 0.0000 0.0000 0.0000 20.2790 0.0000
# 6 0.0000 0.0000 0.0000 0.0000 0.0000 7.4710
#
#
#
# Elastic Compliance Matrix: (Units=1/GPa)
#
#
# Indices 1 2 3 4 5 6 
#
# 1 0.010472 -0.001655 -0.002506 0.000000 0.000000 0.000000
# 2 -0.001655 0.012565 -0.003922 0.000000 0.000000 0.000000
# 3 -0.002506 -0.003922 0.009277 0.000000 0.000000 0.000000
# 4 0.000000 0.000000 0.000000 0.028847 0.000000 0.000000
# 5 0.000000 0.000000 0.000000 0.000000 0.049312 0.000000
# 6 0.000000 0.000000 0.000000 0.000000 0.000000 0.133851
#
#
# Mechanical properties :
#
#
# Convention : Reuss Voigt Hill
#
# Bulk Modulus (GPa) = 61.93015 64.74515 63.33765
# Shear Modulus (GPa) = 18.80602 27.83727 23.32164
#
# Velocity S-wave (km/s) = 3.00469 3.65565 3.34604
# Velocity P-wave (km/s) = 6.46284 6.99289 6.73309
#
# Compressibility (1/GPa) = 0.01614722
#
# Stress axis : x y z
#
# Youngs Moduli (GPa) = 95.49483 79.58340 107.79796
#
# Poissons Ratio (x) = 0.13171 0.27012
# Poissons Ratio (y) = 0.15804 0.42283
# Poissons Ratio (z) = 0.23930 0.31216
#
# Static dielectric constant tensor:
#      x y z
#    x 3.738170 0.000000 0.000000 
#    y 0.000000 3.953240 0.000000 
#    z 0.000000 0.000000 3.798390 
# 
# 
# High freq. dielectric constant tensor:
#      x y z
#    x 1.823900 0.000000 0.000000 
#    y 0.000000 1.816390 0.000000 
#    z 0.000000 0.000000 1.808990 
# 
# From -- ./inp_files/24939.got.cif
#   From: 2010.03.12/outbox.cif.g09.slc.cpg/sg50_13_cif.got.tgz:24939.got - 2010.04.16 13:23:21.
