data_PCOD8205359
_publ_section_title
;
Structure prediction by ZEFSAII (Michael W. Deem and Ramdas Pophale) SiO2 
 PCOD8205359
Probable space group: P B A N
;
_chemical_formula_sum "Si O2"
_cell_formula_units_Z 64
_cell_length_a 9.877720
_cell_length_b 21.496370
_cell_length_c 15.899602
_cell_angle_alpha 90.000000
_cell_angle_beta 90.000000
_cell_angle_gamma 90.000000
_cell_volume 3376.043960
_symmetry_space_group_name_H-M "P B A N"
_symmetry_group_IT_number 50
_space_group.IT_coordinate_system_code '2'
_symmetry_cell_setting 'orthorhombic'
loop_
_space_group_symop_operation_xyz
x,y,z
1/2-x,1/2-y,z
x,1/2-y,-z
1/2-x,y,-z
-x,-y,-z
1/2+x,1/2+y,-z
-x,1/2+y,z
1/2+x,-y,z
loop_
_atom_site_type_symbol
_atom_site_label
_atom_site_fract_x
_atom_site_fract_y
_atom_site_fract_z
Si Si1 0.109369 0.230542 0.755301
Si Si2 0.251908 0.435930 0.195917
Si Si3 0.768279 0.058206 0.287329
Si Si4 0.975131 0.611036 0.681442
Si Si5 0.982683 0.142793 0.204033
Si Si6 0.598193 0.323584 0.016940
Si Si7 0.122576 0.479382 0.442423
Si Si8 0.156317 0.154131 0.924322
O O1 0.250000 0.250000 0.710829
O O2 0.026809 0.185240 0.692744
O O3 0.155517 0.201132 0.845210
O O4 0.010541 0.288736 0.762068
O O5 0.262732 0.509637 0.211127
O O6 0.119770 0.414162 0.245277
O O7 0.391404 0.402740 0.223317
O O8 0.220709 0.413252 0.100756
O O9 0.626076 0.084948 0.316441
O O10 0.854482 0.115198 0.252140
O O11 0.847062 0.026905 0.365713
O O12 0.912181 0.588872 0.593311
O O13 0.948420 0.152208 0.106904
O O14 0.584452 0.250000 0.000000
O O15 0.750000 0.346397 0.000000
O O16 0.498308 0.356838 0.951520
O O17 0.250000 0.471187 0.500000
O O18 0.000000 0.500000 0.500000
O O19 0.250000 0.181826 0.000000
#
# Coordination Sequence:
#
# PCOD8205359 Si02
#       8
#     8   8   8   8   8   8   8   8
#     4  11  21  37  64  93 124 165 213 263 321 379
#     4  10  21  38  60  85 122 165 213 262 314 374
#     4  11  25  41  62  97 129 162 210 254 320 387
#     4  10  22  38  63  95 127 158 202 260 305 373
#     4  12  23  39  63  90 126 171 211 269 323 378
#     4  11  24  36  54  87 125 160 222 276 321 369
#     4  11  22  42  72 100 127 164 211 256 300 370
#     4  11  20  36  61  85 115 165 222 272 316 367
#
# _framework density 18.957098999999999
#
# number of rings (size 3 to 8) (size 9 to 14) (size 15 to 20)
#    0.000    1.125    6.250    1.500    5.250    0.500 
#    0.000    1.250    0.000    2.625    0.000    0.000 
#    0.000    0.000    0.000    0.000    0.000    0.000 
#
# Total GULP energy -793125.194222 kJ/mol
# GULP energy per Si atom -12392.581160 kJ/mol
# Density = 1.891395 g / cm^3
# Si number density = 18.957099 Si / 1000 Ang^3
#
#
#
# Elastic Constant Matrix: (Units=GPa)
#
#
# Indices 1 2 3 4 5 6 
#
# 1 127.5942 45.8724 38.9317 0.0000 0.0000 0.0000
# 2 45.8724 121.7063 52.5868 0.0000 0.0000 0.0000
# 3 38.9317 52.5868 78.8231 0.0000 0.0000 0.0000
# 4 0.0000 0.0000 0.0000 0.1492 0.0000 0.0000
# 5 0.0000 0.0000 0.0000 0.0000 37.5930 0.0000
# 6 0.0000 0.0000 0.0000 0.0000 0.0000 28.2669
#
#
#
# Elastic Compliance Matrix: (Units=1/GPa)
#
#
# Indices 1 2 3 4 5 6 
#
# 1 0.009634 -0.002213 -0.003282 0.000000 0.000000 0.000000
# 2 -0.002213 0.012053 -0.006948 0.000000 0.000000 0.000000
# 3 -0.003282 -0.006948 0.018943 0.000000 0.000000 0.000000
# 4 0.000000 0.000000 0.000000 6.703684 0.000000 0.000000
# 5 0.000000 0.000000 0.000000 0.000000 0.026601 0.000000
# 6 0.000000 0.000000 0.000000 0.000000 0.000000 0.035377
#
#
# Mechanical properties :
#
#
# Convention : Reuss Voigt Hill
#
# Bulk Modulus (GPa) = 63.51655 66.98949 65.25302
# Shear Modulus (GPa) = 0.73138 25.91732 13.32435
#
# Velocity S-wave (km/s) = 0.62181 3.70152 2.65404
# Velocity P-wave (km/s) = 5.83898 7.32683 6.62481
#
# Compressibility (1/GPa) = 0.01574393
#
# Stress axis : x y z
#
# Youngs Moduli (GPa) = 103.79408 82.96892 52.79022
#
# Poissons Ratio (x) = 0.18363 0.17326
# Poissons Ratio (y) = 0.22972 0.36678
# Poissons Ratio (z) = 0.34065 0.57645
#
# Static dielectric constant tensor:
#      x y z
#    x 1.970290 0.000000 0.000000 
#    y 0.000000 3.751790 0.000000 
#    z 0.000000 0.000000 3.600840 
# 
# 
# High freq. dielectric constant tensor:
#      x y z
#    x 1.759850 0.000000 0.000000 
#    y 0.000000 1.725620 0.000000 
#    z 0.000000 0.000000 1.716290 
# 
# From -- ./inp_files/28951.got.cif
#   From: 2010.03.12/outbox.cif.g09.slc.cpg/sg50_15_cif.got.tgz:28951.got - 2010.04.16 13:23:21.
