data_PCOD8205431
_publ_section_title
;
Structure prediction by ZEFSAII (Michael W. Deem and Ramdas Pophale) SiO2 
 PCOD8205431
Probable space group: P B A N
;
_chemical_formula_sum "Si O2"
_cell_formula_units_Z 64
_cell_length_a 9.320926
_cell_length_b 18.178450
_cell_length_c 18.547543
_cell_angle_alpha 90.000000
_cell_angle_beta 90.000000
_cell_angle_gamma 90.000000
_cell_volume 3142.695449
_symmetry_space_group_name_H-M "P B A N"
_symmetry_group_IT_number 50
_space_group.IT_coordinate_system_code '2'
_symmetry_cell_setting 'orthorhombic'
loop_
_space_group_symop_operation_xyz
x,y,z
1/2-x,1/2-y,z
x,1/2-y,-z
1/2-x,y,-z
-x,-y,-z
1/2+x,1/2+y,-z
-x,1/2+y,z
1/2+x,-y,z
loop_
_atom_site_type_symbol
_atom_site_label
_atom_site_fract_x
_atom_site_fract_y
_atom_site_fract_z
Si Si1 0.128431 0.440086 0.415699
Si Si2 0.982050 0.255391 0.077464
Si Si3 0.778784 0.430574 0.771493
Si Si4 0.039635 0.429728 0.264375
Si Si5 0.752344 0.370022 0.077573
Si Si6 0.881616 0.299710 0.672177
Si Si7 0.459351 0.088692 0.568638
Si Si8 0.899863 0.723855 0.775213
O O1 0.054767 0.402864 0.346986
O O2 0.068334 0.393940 0.484024
O O3 0.301490 0.436912 0.403727
O O4 0.078651 0.525116 0.422748
O O5 0.909143 0.334999 0.092354
O O6 0.860082 0.195081 0.071517
O O7 0.083402 0.238886 0.145763
O O8 0.065569 0.250000 0.000000
O O9 0.619819 0.452972 0.752146
O O10 0.874564 0.496252 0.745283
O O11 0.792238 0.423613 0.857854
O O12 0.821735 0.356706 0.730583
O O13 0.097753 0.364210 0.214400
O O14 0.750000 0.412531 0.000000
O O15 0.750000 0.250000 0.640223
O O16 0.975501 0.339651 0.609450
O O17 0.979033 0.244934 0.718313
O O18 0.750000 0.750000 0.742437
#
# Coordination Sequence:
#
# PCOD8205431 Si02
#       8
#     8   8   8   8   8   8   8   8
#     4  10  21  41  64  98 134 172 214 265 319 407
#     4   9  17  34  63  92 121 166 214 265 328 402
#     4  12  24  40  65  95 129 170 224 270 329 394
#     4  12  25  40  64  93 131 171 214 268 325 397
#     4   9  17  35  64  91 121 167 219 265 324 394
#     4  12  23  43  68  94 129 175 226 283 326 397
#     4  10  22  39  68  97 132 174 221 265 328 392
#     4  12  25  39  64  96 132 165 217 278 338 389
#
# _framework density 20.364682999999999
#
# number of rings (size 3 to 8) (size 9 to 14) (size 15 to 20)
#    0.000    1.250    5.000    2.250    1.750    0.250 
#    0.000    1.250    5.500    2.250    0.000    0.000 
#    0.000    0.000    0.000    0.000    0.000    0.000 
#
# Total GULP energy -793228.105757 kJ/mol
# GULP energy per Si atom -12394.189152 kJ/mol
# Density = 2.031833 g / cm^3
# Si number density = 20.364683 Si / 1000 Ang^3
#
#
#
# Elastic Constant Matrix: (Units=GPa)
#
#
# Indices 1 2 3 4 5 6 
#
# 1 115.8182 38.7724 30.5235 0.0000 0.0000 0.0000
# 2 38.7724 71.0884 28.2620 0.0000 0.0000 0.0000
# 3 30.5235 28.2620 139.4733 0.0000 0.0000 0.0000
# 4 0.0000 0.0000 0.0000 -81.3836 0.0000 0.0000
# 5 0.0000 0.0000 0.0000 0.0000 26.6530 0.0000
# 6 0.0000 0.0000 0.0000 0.0000 0.0000 15.1763
#
#
#
# Elastic Compliance Matrix: (Units=1/GPa)
#
#
# Indices 1 2 3 4 5 6 
#
# 1 0.010765 -0.005367 -0.001268 0.000000 0.000000 0.000000
# 2 -0.005367 0.017975 -0.002468 0.000000 0.000000 0.000000
# 3 -0.001268 -0.002468 0.007947 0.000000 0.000000 0.000000
# 4 0.000000 0.000000 0.000000 -0.012287 0.000000 0.000000
# 5 0.000000 0.000000 0.000000 0.000000 0.037519 0.000000
# 6 0.000000 0.000000 0.000000 0.000000 0.000000 0.065892
#
#
# Mechanical properties :
#
#
# Convention : Reuss Voigt Hill
#
# Bulk Modulus (GPa) = 54.10867 57.94397 56.02632
# Shear Modulus (GPa) = 32.85587 7.34393 20.09990
#
# Velocity S-wave (km/s) = 4.02104 1.90106 3.14506
# Velocity P-wave (km/s) = 6.94161 5.77353 6.38434
#
# Compressibility (1/GPa) = 0.01848133
#
# Stress axis : x y z
#
# Youngs Moduli (GPa) = 92.89108 55.63133 125.82607
#
# Poissons Ratio (x) = 0.29859 0.15960
# Poissons Ratio (y) = 0.49857 0.31052
# Poissons Ratio (z) = 0.11782 0.13729
#
# Static dielectric constant tensor:
#      x y z
#    x 3.676990 0.000000 0.000000 
#    y 0.000000 3.383540 0.000000 
#    z 0.000000 0.000000 5.133830 
# 
# 
# High freq. dielectric constant tensor:
#      x y z
#    x 1.796240 0.000000 0.000000 
#    y 0.000000 1.768100 0.000000 
#    z 0.000000 0.000000 1.809960 
# 
# From -- ./inp_files/28977.got.cif
#   From: 2010.03.12/outbox.cif.g09.slc.cpg/sg50_15_cif.got.tgz:28977.got - 2010.04.16 13:23:21.
