data_PCOD8205561
_publ_section_title
;
Structure prediction by ZEFSAII (Michael W. Deem and Ramdas Pophale) SiO2 
 PCOD8205561
Probable space group: P B A N
;
_chemical_formula_sum "Si O2"
_cell_formula_units_Z 64
_cell_length_a 24.446284
_cell_length_b 8.923012
_cell_length_c 14.289151
_cell_angle_alpha 90.000000
_cell_angle_beta 90.000000
_cell_angle_gamma 90.000000
_cell_volume 3116.956601
_symmetry_space_group_name_H-M "P B A N"
_symmetry_group_IT_number 50
_space_group.IT_coordinate_system_code '2'
_symmetry_cell_setting 'orthorhombic'
loop_
_space_group_symop_operation_xyz
x,y,z
1/2-x,1/2-y,z
x,1/2-y,-z
1/2-x,y,-z
-x,-y,-z
1/2+x,1/2+y,-z
-x,1/2+y,z
1/2+x,-y,z
loop_
_atom_site_type_symbol
_atom_site_label
_atom_site_fract_x
_atom_site_fract_y
_atom_site_fract_z
Si Si1 0.811911 0.566005 0.313687
Si Si2 0.102899 0.069106 0.162895
Si Si3 0.189161 0.416215 0.328533
Si Si4 0.529960 0.150027 0.577926
Si Si5 0.981218 0.418607 0.300882
Si Si6 0.058997 0.573261 0.013107
Si Si7 0.852778 0.082670 0.501435
Si Si8 0.092250 0.088731 0.805750
O O1 0.840873 0.529575 0.215204
O O2 0.815636 0.739359 0.339491
O O3 0.748745 0.523058 0.298462
O O4 0.845079 0.477419 0.393429
O O5 0.099186 0.247738 0.148370
O O6 0.052689 0.000793 0.221131
O O7 0.102097 0.992972 0.061396
O O8 0.181161 0.480880 0.431457
O O9 0.145101 0.469520 0.251629
O O10 0.498900 0.250000 0.500000
O O11 0.544346 0.258763 0.667438
O O12 0.584420 0.082464 0.531740
O O13 0.486591 0.023907 0.607342
O O14 0.042760 0.396567 0.266045
O O15 0.053161 0.750000 0.000000
O O16 0.081611 0.536054 0.115679
O O17 0.000000 0.500000 0.000000
O O18 0.828723 0.250000 0.500000
#
# Coordination Sequence:
#
# PCOD8205561 Si02
#       8
#     8   8   8   8   8   8   8   8
#     4  10  23  42  66  93 118 169 215 266 308 361
#     4  11  23  41  65  92 128 158 206 260 314 378
#     4  10  22  43  67  89 124 162 222 263 305 366
#     4  11  24  38  55  87 128 172 211 249 308 372
#     4  12  22  39  60  88 127 167 207 254 313 375
#     4  12  26  41  66  95 128 162 204 255 314 386
#     4  11  22  38  59  92 128 166 213 258 310 366
#     4  11  23  41  64  94 121 167 205 259 318 373
#
# _framework density 20.532848999999999
#
# number of rings (size 3 to 8) (size 9 to 14) (size 15 to 20)
#    0.000    1.000    3.750    3.750    1.750    3.000 
#    0.000    0.625    0.000    3.750    0.000    0.000 
#    0.000    0.000    0.000    0.000    0.000    0.000 
#
# Total GULP energy -793655.834988 kJ/mol
# GULP energy per Si atom -12400.872422 kJ/mol
# Density = 2.048612 g / cm^3
# Si number density = 20.532849 Si / 1000 Ang^3
#
#
#
# Elastic Constant Matrix: (Units=GPa)
#
#
# Indices 1 2 3 4 5 6 
#
# 1 92.2476 22.0507 38.4729 0.0000 0.0000 0.0000
# 2 22.0507 77.1148 30.0026 0.0000 0.0000 0.0000
# 3 38.4729 30.0026 98.7588 0.0000 0.0000 0.0000
# 4 0.0000 0.0000 0.0000 43.1207 0.0000 0.0000
# 5 0.0000 0.0000 0.0000 0.0000 27.1281 0.0000
# 6 0.0000 0.0000 0.0000 0.0000 0.0000 20.6223
#
#
#
# Elastic Compliance Matrix: (Units=1/GPa)
#
#
# Indices 1 2 3 4 5 6 
#
# 1 0.013213 -0.002014 -0.004536 0.000000 0.000000 0.000000
# 2 -0.002014 0.015013 -0.003776 0.000000 0.000000 0.000000
# 3 -0.004536 -0.003776 0.013040 0.000000 0.000000 0.000000
# 4 0.000000 0.000000 0.000000 0.023191 0.000000 0.000000
# 5 0.000000 0.000000 0.000000 0.000000 0.036862 0.000000
# 6 0.000000 0.000000 0.000000 0.000000 0.000000 0.048491
#
#
# Mechanical properties :
#
#
# Convention : Reuss Voigt Hill
#
# Bulk Modulus (GPa) = 48.50949 49.90819 49.20884
# Shear Modulus (GPa) = 28.19554 30.01389 29.10471
#
# Velocity S-wave (km/s) = 3.70968 3.82743 3.76902
# Velocity P-wave (km/s) = 6.48271 6.62507 6.55428
#
# Compressibility (1/GPa) = 0.02061453
#
# Stress axis : x y z
#
# Youngs Moduli (GPa) = 75.68078 66.61010 76.68779
#
# Poissons Ratio (x) = 0.13413 0.34783
# Poissons Ratio (y) = 0.15239 0.28960
# Poissons Ratio (z) = 0.34327 0.25155
#
# Static dielectric constant tensor:
#      x y z
#    x 3.759970 0.000000 0.000000 
#    y 0.000000 3.927100 0.000000 
#    z 0.000000 0.000000 3.865720 
# 
# 
# High freq. dielectric constant tensor:
#      x y z
#    x 1.788760 0.000000 0.000000 
#    y 0.000000 1.812790 0.000000 
#    z 0.000000 0.000000 1.805550 
# 
# From -- ./inp_files/27515.got.cif
#   From: 2010.03.12/outbox.cif.g09.slc.cpg/sg50_14_cif.got.tgz:27515.got - 2010.04.16 13:23:21.
