data_PCOD8205861
_publ_section_title
;
Structure prediction by ZEFSAII (Michael W. Deem and Ramdas Pophale) SiO2 
 PCOD8205861
Probable space group: P B A N
;
_chemical_formula_sum "Si O2"
_cell_formula_units_Z 40
_cell_length_a 9.112916
_cell_length_b 9.328153
_cell_length_c 20.490906
_cell_angle_alpha 90.000000
_cell_angle_beta 90.000000
_cell_angle_gamma 90.000000
_cell_volume 1741.863781
_symmetry_space_group_name_H-M "P B A N"
_symmetry_group_IT_number 50
_space_group.IT_coordinate_system_code '2'
_symmetry_cell_setting 'orthorhombic'
loop_
_space_group_symop_operation_xyz
x,y,z
1/2-x,1/2-y,z
x,1/2-y,-z
1/2-x,y,-z
-x,-y,-z
1/2+x,1/2+y,-z
-x,1/2+y,z
1/2+x,-y,z
loop_
_atom_site_type_symbol
_atom_site_label
_atom_site_fract_x
_atom_site_fract_y
_atom_site_fract_z
Si Si1 0.538079 0.813846 0.570901
Si Si2 0.048459 0.954937 0.155314
Si Si3 0.922286 0.783061 0.926178
Si Si4 0.785366 0.581246 0.760936
Si Si5 0.315957 0.044810 0.617995
O O1 0.507192 0.750000 0.500000
O O2 0.571124 0.679961 0.619150
O O3 0.680048 0.919161 0.569260
O O4 0.394945 0.899461 0.594953
O O5 0.024830 0.801175 0.124288
O O6 0.951070 0.961214 0.221567
O O7 0.026786 0.058041 0.092609
O O8 0.207250 0.989302 0.182913
O O9 0.750000 0.750000 0.913866
O O10 0.966877 0.750000 0.000000
O O11 0.750000 0.750000 0.767449
O O12 0.750552 0.522297 0.689416
#
# Coordination Sequence:
#
# PCOD8205861 Si02
#       5
#     8   8   8   8   8
#     4  11  24  45  73 102 144 180 229 284 341 410
#     4  12  22  45  67  99 136 186 227 288 351 407
#     4  11  24  45  68  98 140 182 230 292 348 409
#     4  12  24  44  69  98 147 179 228 288 347 408
#     4  11  24  45  69 104 139 186 228 283 344 406
#
# _framework density 22.963909000000001
#
# number of rings (size 3 to 8) (size 9 to 14) (size 15 to 20)
#    0.000    0.600    6.000    3.600    0.000    1.600 
#    0.000    5.000    0.000    0.000    0.000    0.000 
#    0.000    0.000    0.000    0.000    0.000    0.000 
#
# Total GULP energy -495749.552844 kJ/mol
# GULP energy per Si atom -12393.738821 kJ/mol
# Density = 2.291164 g / cm^3
# Si number density = 22.963909 Si / 1000 Ang^3
#
#
#
# Elastic Constant Matrix: (Units=GPa)
#
#
# Indices 1 2 3 4 5 6 
#
# 1 44.3645 20.5118 18.3881 0.0000 0.0000 0.0000
# 2 20.5118 43.4289 18.6557 0.0000 0.0000 0.0000
# 3 18.3881 18.6557 123.7149 0.0000 0.0000 0.0000
# 4 0.0000 0.0000 0.0000 13.6199 0.0000 0.0000
# 5 0.0000 0.0000 0.0000 0.0000 21.5433 0.0000
# 6 0.0000 0.0000 0.0000 0.0000 0.0000 46.1340
#
#
#
# Elastic Compliance Matrix: (Units=1/GPa)
#
#
# Indices 1 2 3 4 5 6 
#
# 1 0.029512 -0.012890 -0.002443 0.000000 0.000000 0.000000
# 2 -0.012890 0.030251 -0.002646 0.000000 0.000000 0.000000
# 3 -0.002443 -0.002646 0.008845 0.000000 0.000000 0.000000
# 4 0.000000 0.000000 0.000000 0.073422 0.000000 0.000000
# 5 0.000000 0.000000 0.000000 0.000000 0.046418 0.000000
# 6 0.000000 0.000000 0.000000 0.000000 0.000000 0.021676
#
#
# Mechanical properties :
#
#
# Convention : Reuss Voigt Hill
#
# Bulk Modulus (GPa) = 30.62629 36.29106 33.45867
# Shear Modulus (GPa) = 19.45789 26.52293 22.99041
#
# Velocity S-wave (km/s) = 2.91404 3.40219 3.16753
# Velocity P-wave (km/s) = 4.96869 5.59205 5.28956
#
# Compressibility (1/GPa) = 0.03265169
#
# Stress axis : x y z
#
# Youngs Moduli (GPa) = 33.88395 33.05721 113.05612
#
# Poissons Ratio (x) = 0.42609 0.27618
# Poissons Ratio (y) = 0.43675 0.29913
# Poissons Ratio (z) = 0.08277 0.08746
#
# Static dielectric constant tensor:
#      x y z
#    x 4.057560 0.000000 0.000000 
#    y 0.000000 4.131920 0.000000 
#    z 0.000000 0.000000 4.201640 
# 
# 
# High freq. dielectric constant tensor:
#      x y z
#    x 1.896530 0.000000 0.000000 
#    y 0.000000 1.903250 0.000000 
#    z 0.000000 0.000000 1.922550 
# 
# From -- ./inp_files/31562.got.cif
#   From: 2010.03.12/outbox.cif.g09.slc.cpg/sg50_16_cif.got.tgz:31562.got - 2010.04.16 13:23:21.
