data_PCOD8205596
_publ_section_title
;
Structure prediction by ZEFSAII (Michael W. Deem and Ramdas Pophale) SiO2 
 PCOD8205596
Probable space group: P B A N
;
_chemical_formula_sum "Si O2"
_cell_formula_units_Z 36
_cell_length_a 18.565805
_cell_length_b 7.952063
_cell_length_c 12.255490
_cell_angle_alpha 90.000000
_cell_angle_beta 90.000000
_cell_angle_gamma 90.000000
_cell_volume 1809.357049
_symmetry_space_group_name_H-M "P B A N"
_symmetry_group_IT_number 50
_space_group.IT_coordinate_system_code '2'
_symmetry_cell_setting 'orthorhombic'
loop_
_space_group_symop_operation_xyz
x,y,z
1/2-x,1/2-y,z
x,1/2-y,-z
1/2-x,y,-z
-x,-y,-z
1/2+x,1/2+y,-z
-x,1/2+y,z
1/2+x,-y,z
loop_
_atom_site_type_symbol
_atom_site_label
_atom_site_fract_x
_atom_site_fract_y
_atom_site_fract_z
Si Si1 0.430762 0.162673 0.384067
Si Si2 0.024074 0.449875 0.754492
Si Si3 0.402857 0.745912 0.128400
Si Si4 0.750000 0.250000 0.766717
Si Si5 0.773680 0.934969 0.377230
O O1 0.441645 0.250000 0.500000
O O2 0.425536 0.299542 0.286878
O O3 0.359741 0.049789 0.377629
O O4 0.499100 0.046208 0.356047
O O5 0.953411 0.388910 0.819617
O O6 0.072789 0.562752 0.832023
O O7 0.319940 0.777881 0.158981
O O8 0.411433 0.750000 0.000000
O O9 0.738610 0.417175 0.694078
O O10 0.750000 0.750000 0.334745
O O11 0.750000 0.963244 0.500000
#
# Coordination Sequence:
#
# PCOD8205596 Si02
#       5
#     8   8   8   4   8
#     4  11  20  39  61  93 125 165 201 253 315 386
#     4  10  23  40  64  92 126 161 210 260 318 388
#     4  11  23  42  66  89 121 165 215 269 317 369
#     4  12  24  42  64  96 128 162 220 266 326 368
#     4  11  22  39  62  87 130 171 205 250 317 388
#
# _framework density 19.896571999999999
#
# number of rings (size 3 to 8) (size 9 to 14) (size 15 to 20)
#    0.000    1.111    4.444    3.333    0.000    0.000 
#    0.000    0.000    0.000    1.333    0.000    0.000 
#    0.000    0.000    0.000    0.000    0.000    0.000 
#
# Total GULP energy -446450.626846 kJ/mol
# GULP energy per Si atom -12401.406301 kJ/mol
# Density = 1.985129 g / cm^3
# Si number density = 19.896572 Si / 1000 Ang^3
#
#
#
# Elastic Constant Matrix: (Units=GPa)
#
#
# Indices 1 2 3 4 5 6 
#
# 1 94.0203 14.2302 33.2892 0.0000 0.0000 0.0000
# 2 14.2302 78.6818 25.0111 0.0000 0.0000 0.0000
# 3 33.2892 25.0111 99.0886 0.0000 0.0000 0.0000
# 4 0.0000 0.0000 0.0000 0.1799 0.0000 0.0000
# 5 0.0000 0.0000 0.0000 0.0000 -4.7912 0.0000
# 6 0.0000 0.0000 0.0000 0.0000 0.0000 22.7843
#
#
#
# Elastic Compliance Matrix: (Units=1/GPa)
#
#
# Indices 1 2 3 4 5 6 
#
# 1 0.012141 -0.000978 -0.003832 0.000000 0.000000 0.000000
# 2 -0.000978 0.013897 -0.003179 0.000000 0.000000 0.000000
# 3 -0.003832 -0.003179 0.012182 0.000000 0.000000 0.000000
# 4 0.000000 0.000000 0.000000 5.557832 0.000000 0.000000
# 5 0.000000 0.000000 0.000000 0.000000 -0.208714 0.000000
# 6 0.000000 0.000000 0.000000 0.000000 0.000000 0.043890
#
#
# Mechanical properties :
#
#
# Convention : Reuss Voigt Hill
#
# Bulk Modulus (GPa) = 44.96072 46.31684 45.63878
# Shear Modulus (GPa) = 0.91665 16.91861 8.91763
#
# Velocity S-wave (km/s) = 0.67949 2.91920 2.11937
# Velocity P-wave (km/s) = 4.82306 5.88996 5.38301
#
# Compressibility (1/GPa) = 0.02224164
#
# Stress axis : x y z
#
# Youngs Moduli (GPa) = 82.36733 71.95877 82.08948
#
# Poissons Ratio (x) = 0.07035 0.31456
# Poissons Ratio (y) = 0.08053 0.26098
# Poissons Ratio (z) = 0.31563 0.22878
#
# Static dielectric constant tensor:
#      x y z
#    x 3.605140 0.000000 0.000000 
#    y 0.000000 3.878790 0.000000 
#    z 0.000000 0.000000 3.482320 
# 
# 
# High freq. dielectric constant tensor:
#      x y z
#    x 1.783180 0.000000 0.000000 
#    y 0.000000 1.785220 0.000000 
#    z 0.000000 0.000000 1.768020 
# 
# From -- ./inp_files/21616.got.cif
#   From: 2010.03.12/outbox.cif.g09.slc.cpg/sg50_11_cif.got.tgz:21616.got - 2010.04.16 13:23:21.
