data_PCOD8205033
_publ_section_title
;
Structure prediction by ZEFSAII (Michael W. Deem and Ramdas Pophale) SiO2 
 PCOD8205033
Probable space group: P B A N
;
_chemical_formula_sum "Si O2"
_cell_formula_units_Z 52
_cell_length_a 9.130326
_cell_length_b 27.445946
_cell_length_c 11.573774
_cell_angle_alpha 90.000000
_cell_angle_beta 90.000000
_cell_angle_gamma 90.000000
_cell_volume 2900.277054
_symmetry_space_group_name_H-M "P B A N"
_symmetry_group_IT_number 50
_space_group.IT_coordinate_system_code '2'
_symmetry_cell_setting 'orthorhombic'
loop_
_space_group_symop_operation_xyz
x,y,z
1/2-x,1/2-y,z
x,1/2-y,-z
1/2-x,y,-z
-x,-y,-z
1/2+x,1/2+y,-z
-x,1/2+y,z
1/2+x,-y,z
loop_
_atom_site_type_symbol
_atom_site_label
_atom_site_fract_x
_atom_site_fract_y
_atom_site_fract_z
Si Si1 0.766912 0.193143 0.374375
Si Si2 0.467560 0.157448 0.311925
Si Si3 0.105025 0.955783 0.645252
Si Si4 0.441340 0.947407 0.624574
Si Si5 0.252922 0.192849 0.135702
Si Si6 0.250000 0.156494 0.500000
Si Si7 0.456201 0.137527 0.701476
O O1 0.750000 0.250000 0.383073
O O2 0.750000 0.168261 0.500000
O O3 0.633376 0.174574 0.297954
O O4 0.922977 0.178098 0.326624
O O5 0.470535 0.099602 0.331880
O O6 0.400518 0.170381 0.188136
O O7 0.372041 0.183936 0.417482
O O8 0.277396 0.953554 0.673877
O O9 0.068789 0.943934 0.512904
O O10 0.029857 0.914704 0.726669
O O11 0.039317 0.008449 0.673400
O O12 0.250000 0.250000 0.168602
O O13 0.120170 0.161168 0.187623
O O14 0.250000 0.184970 0.000000
O O15 0.343298 0.127152 0.595653
#
# Coordination Sequence:
#
# PCOD8205033 Si02
#       7
#     8   8   8   8   8   4   8
#     4  11  20  32  51  82 119 149 176 220 289 358
#     4  11  20  36  57  82 117 151 188 237 287 342
#     4  10  20  31  53  85 123 155 185 222 276 347
#     4  10  20  31  53  85 123 155 185 222 276 347
#     4  10  24  44  62  81 108 152 208 253 291 338
#     4  10  20  28  53  80 116 150 184 220 283 348
#     4  11  20  36  57  82 117 151 188 237 287 342
#
# _framework density 17.929323
#
# number of rings (size 3 to 8) (size 9 to 14) (size 15 to 20)
#    0.000    1.538    4.615    0.923    4.308    0.000 
#    0.000    3.077    0.000    3.692    0.000    0.000 
#    0.000    0.000    0.000    0.000    0.000    0.000 
#
# Total GULP energy -644248.651806 kJ/mol
# GULP energy per Si atom -12389.397150 kJ/mol
# Density = 1.788852 g / cm^3
# Si number density = 17.929323 Si / 1000 Ang^3
#
#
#
# Elastic Constant Matrix: (Units=GPa)
#
#
# Indices 1 2 3 4 5 6 
#
# 1 127.2925 46.9852 45.7123 0.0000 0.0000 0.0000
# 2 46.9852 110.9662 43.3995 0.0000 0.0000 0.0000
# 3 45.7123 43.3995 80.1314 0.0000 0.0000 0.0000
# 4 0.0000 0.0000 0.0000 18.4541 0.0000 0.0000
# 5 0.0000 0.0000 0.0000 0.0000 19.4506 0.0000
# 6 0.0000 0.0000 0.0000 0.0000 0.0000 31.2684
#
#
#
# Elastic Compliance Matrix: (Units=1/GPa)
#
#
# Indices 1 2 3 4 5 6 
#
# 1 0.010464 -0.002659 -0.004529 0.000000 0.000000 0.000000
# 2 -0.002659 0.012110 -0.005042 0.000000 0.000000 0.000000
# 3 -0.004529 -0.005042 0.017794 0.000000 0.000000 0.000000
# 4 0.000000 0.000000 0.000000 0.054189 0.000000 0.000000
# 5 0.000000 0.000000 0.000000 0.000000 0.051412 0.000000
# 6 0.000000 0.000000 0.000000 0.000000 0.000000 0.031981
#
#
# Mechanical properties :
#
#
# Convention : Reuss Voigt Hill
#
# Bulk Modulus (GPa) = 62.86379 65.62046 64.24213
# Shear Modulus (GPa) = 24.07187 25.98750 25.02968
#
# Velocity S-wave (km/s) = 3.66812 3.81128 3.74039
# Velocity P-wave (km/s) = 7.28548 7.48644 7.38665
#
# Compressibility (1/GPa) = 0.01590741
#
# Stress axis : x y z
#
# Youngs Moduli (GPa) = 95.56632 82.57973 56.19978
#
# Poissons Ratio (x) = 0.21960 0.25453
# Poissons Ratio (y) = 0.25414 0.28333
# Poissons Ratio (z) = 0.43282 0.41633
#
# Static dielectric constant tensor:
#      x y z
#    x 3.680520 0.000000 0.000000 
#    y 0.000000 3.398160 0.000000 
#    z 0.000000 0.000000 2.871500 
# 
# 
# High freq. dielectric constant tensor:
#      x y z
#    x 1.722240 0.000000 0.000000 
#    y 0.000000 1.694310 0.000000 
#    z 0.000000 0.000000 1.632810 
# 
# From -- ./inp_files/19354.got.cif
#   From: 2010.03.12/outbox.cif.g09.slc.cpg/sg50_10_cif.got.tgz:19354.got - 2010.04.16 13:23:21.
