data_PCOD8205542
_publ_section_title
;
Structure prediction by ZEFSAII (Michael W. Deem and Ramdas Pophale) SiO2 
 PCOD8205542
Probable space group: P B A N
;
_chemical_formula_sum "Si O2"
_cell_formula_units_Z 30
_cell_length_a 13.242038
_cell_length_b 8.965248
_cell_length_c 10.891312
_cell_angle_alpha 90.000000
_cell_angle_beta 90.000000
_cell_angle_gamma 90.000000
_cell_volume 1292.996463
_symmetry_space_group_name_H-M "P B A N"
_symmetry_group_IT_number 50
_space_group.IT_coordinate_system_code '2'
_symmetry_cell_setting 'orthorhombic'
loop_
_space_group_symop_operation_xyz
x,y,z
1/2-x,1/2-y,z
x,1/2-y,-z
1/2-x,y,-z
-x,-y,-z
1/2+x,1/2+y,-z
-x,1/2+y,z
1/2+x,-y,z
loop_
_atom_site_type_symbol
_atom_site_label
_atom_site_fract_x
_atom_site_fract_y
_atom_site_fract_z
Si Si1 0.250000 0.250000 0.189376
Si Si2 0.750000 0.250000 0.500000
Si Si3 0.039866 0.317270 0.749920
Si Si4 0.750000 0.009199 0.000000
Si Si5 0.421937 0.750000 0.000000
Si Si6 0.436325 0.911048 0.601604
O O1 0.149389 0.256713 0.269018
O O2 0.248803 0.404230 0.116624
O O3 0.680210 0.130699 0.426730
O O4 0.052873 0.494288 0.728029
O O5 0.978823 0.252265 0.634160
O O6 0.993497 0.279046 0.882853
O O7 0.648815 0.106193 0.013063
O O8 0.500000 0.000000 0.500000
#
# Coordination Sequence:
#
# PCOD8205542 Si02
#       6
#     4   2   8   4   4   8
#     4  11  24  38  65 106 144 198 245 307 372 450
#     4  12  28  52  86 108 152 196 270 324 398 450
#     4  12  26  45  75 108 153 192 253 315 382 460
#     4  10  22  42  64 100 152 198 250 290 376 460
#     4  11  24  45  72 106 150 199 242 311 384 464
#     4  12  27  52  75 109 146 200 257 319 380 448
#
# _framework density 23.201919
#
# number of rings (size 3 to 8) (size 9 to 14) (size 15 to 20)
#    0.000    0.533    2.667    4.800    3.733    7.467 
#    0.000    0.000    0.000    0.000    0.000    0.000 
#    0.000    0.000    0.000    0.000    0.000    0.000 
#
# Total GULP energy -371695.363751 kJ/mol
# GULP energy per Si atom -12389.845458 kJ/mol
# Density = 2.314911 g / cm^3
# Si number density = 23.201919 Si / 1000 Ang^3
#
#
#
# Elastic Constant Matrix: (Units=GPa)
#
#
# Indices 1 2 3 4 5 6 
#
# 1 176.4763 59.0950 42.9330 0.0000 0.0000 0.0000
# 2 59.0950 149.6877 44.8654 0.0000 0.0000 0.0000
# 3 42.9330 44.8654 82.8106 0.0000 0.0000 0.0000
# 4 0.0000 0.0000 0.0000 69.0657 0.0000 0.0000
# 5 0.0000 0.0000 0.0000 0.0000 34.6493 0.0000
# 6 0.0000 0.0000 0.0000 0.0000 0.0000 44.1230
#
#
#
# Elastic Compliance Matrix: (Units=1/GPa)
#
#
# Indices 1 2 3 4 5 6 
#
# 1 0.006946 -0.001985 -0.002525 0.000000 0.000000 0.000000
# 2 -0.001985 0.008543 -0.003599 0.000000 0.000000 0.000000
# 3 -0.002525 -0.003599 0.015335 0.000000 0.000000 0.000000
# 4 0.000000 0.000000 0.000000 0.014479 0.000000 0.000000
# 5 0.000000 0.000000 0.000000 0.000000 0.028861 0.000000
# 6 0.000000 0.000000 0.000000 0.000000 0.000000 0.022664
#
#
# Mechanical properties :
#
#
# Convention : Reuss Voigt Hill
#
# Bulk Modulus (GPa) = 68.47410 78.08460 73.27935
# Shear Modulus (GPa) = 42.40341 47.03968 44.72155
#
# Velocity S-wave (km/s) = 4.27966 4.50756 4.39509
# Velocity P-wave (km/s) = 7.34826 7.79860 7.57678
#
# Compressibility (1/GPa) = 0.01460406
#
# Stress axis : x y z
#
# Youngs Moduli (GPa) = 143.97595 117.05372 65.20977
#
# Poissons Ratio (x) = 0.23236 0.16468
# Poissons Ratio (y) = 0.28581 0.23471
# Poissons Ratio (z) = 0.36360 0.42132
#
# Static dielectric constant tensor:
#      x y z
#    x 4.433980 0.000000 0.000000 
#    y 0.000000 4.545740 0.000000 
#    z 0.000000 0.000000 3.980250 
# 
# 
# High freq. dielectric constant tensor:
#      x y z
#    x 1.933860 0.000000 0.000000 
#    y 0.000000 1.946250 0.000000 
#    z 0.000000 0.000000 1.907840 
# 
# From -- ./inp_files/18424.got.cif
#   From: 2010.03.12/outbox.cif.g09.slc.cpg/sg50_10_cif.got.tgz:18424.got - 2010.04.16 13:23:21.
