data_PCOD8205577
_publ_section_title
;
Structure prediction by ZEFSAII (Michael W. Deem and Ramdas Pophale) SiO2 
 PCOD8205577
Probable space group: P B A N
;
_chemical_formula_sum "Si O2"
_cell_formula_units_Z 40
_cell_length_a 9.775142
_cell_length_b 13.582244
_cell_length_c 14.473438
_cell_angle_alpha 90.000000
_cell_angle_beta 90.000000
_cell_angle_gamma 90.000000
_cell_volume 1921.614682
_symmetry_space_group_name_H-M "P B A N"
_symmetry_group_IT_number 50
_space_group.IT_coordinate_system_code '2'
_symmetry_cell_setting 'orthorhombic'
loop_
_space_group_symop_operation_xyz
x,y,z
1/2-x,1/2-y,z
x,1/2-y,-z
1/2-x,y,-z
-x,-y,-z
1/2+x,1/2+y,-z
-x,1/2+y,z
1/2+x,-y,z
loop_
_atom_site_type_symbol
_atom_site_label
_atom_site_fract_x
_atom_site_fract_y
_atom_site_fract_z
Si Si1 0.002636 0.493682 0.347327
Si Si2 0.250000 0.750000 0.862850
Si Si3 0.740548 0.047499 0.229995
Si Si4 0.882039 0.944988 0.945244
Si Si5 0.589652 0.857852 0.487504
Si Si6 0.482930 0.750000 0.000000
O O1 0.121789 0.497298 0.269552
O O2 0.044110 0.428977 0.432552
O O3 0.869199 0.437320 0.310041
O O4 0.958942 0.601144 0.387127
O O5 0.208287 0.846374 0.805684
O O6 0.380556 0.789815 0.920885
O O7 0.655391 0.977873 0.158557
O O8 0.918793 0.829980 0.952209
O O9 0.750000 0.974351 0.000000
O O10 0.000000 0.000000 0.000000
O O11 0.522960 0.750000 0.500000
O O12 0.750000 0.849717 0.500000
#
# Coordination Sequence:
#
# PCOD8205577 Si02
#       6
#     8   4   8   8   8   4
#     4  11  24  44  66 102 133 172 220 283 338 402
#     4  11  24  40  68  97 136 180 224 283 338 396
#     4  12  25  42  67 101 137 173 227 288 333 400
#     4  12  24  45  68  95 136 182 225 277 335 398
#     4  10  22  45  70  94 133 179 215 267 343 419
#     4  11  23  44  66  96 130 188 232 266 342 404
#
# _framework density 20.815826999999999
#
# number of rings (size 3 to 8) (size 9 to 14) (size 15 to 20)
#    0.000    0.800    4.000    3.900    2.800    0.000 
#    0.000    1.000    0.000    0.000    0.000    0.000 
#    0.000    0.000    0.000    0.000    0.000    0.000 
#
# Total GULP energy -495699.128410 kJ/mol
# GULP energy per Si atom -12392.478210 kJ/mol
# Density = 2.076845 g / cm^3
# Si number density = 20.815827 Si / 1000 Ang^3
#
#
#
# Elastic Constant Matrix: (Units=GPa)
#
#
# Indices 1 2 3 4 5 6 
#
# 1 115.3964 26.9789 30.6185 0.0000 0.0000 0.0000
# 2 26.9789 110.4540 37.9961 0.0000 0.0000 0.0000
# 3 30.6185 37.9961 85.2070 0.0000 0.0000 0.0000
# 4 0.0000 0.0000 0.0000 27.9858 0.0000 0.0000
# 5 0.0000 0.0000 0.0000 0.0000 47.2879 0.0000
# 6 0.0000 0.0000 0.0000 0.0000 0.0000 35.7802
#
#
#
# Elastic Compliance Matrix: (Units=1/GPa)
#
#
# Indices 1 2 3 4 5 6 
#
# 1 0.009757 -0.001390 -0.002886 0.000000 0.000000 0.000000
# 2 -0.001390 0.010892 -0.004357 0.000000 0.000000 0.000000
# 3 -0.002886 -0.004357 0.014716 0.000000 0.000000 0.000000
# 4 0.000000 0.000000 0.000000 0.035732 0.000000 0.000000
# 5 0.000000 0.000000 0.000000 0.000000 0.021147 0.000000
# 6 0.000000 0.000000 0.000000 0.000000 0.000000 0.027948
#
#
# Mechanical properties :
#
#
# Convention : Reuss Voigt Hill
#
# Bulk Modulus (GPa) = 55.25645 55.80492 55.53069
# Shear Modulus (GPa) = 34.84492 36.57503 35.70997
#
# Velocity S-wave (km/s) = 4.09585 4.19630 4.14638
# Velocity P-wave (km/s) = 6.99793 7.09547 7.04687
#
# Compressibility (1/GPa) = 0.01809743
#
# Stress axis : x y z
#
# Youngs Moduli (GPa) = 102.49496 91.80963 67.95193
#
# Poissons Ratio (x) = 0.12764 0.19611
# Poissons Ratio (y) = 0.14250 0.29610
# Poissons Ratio (z) = 0.29580 0.40006
#
# Static dielectric constant tensor:
#      x y z
#    x 4.375570 0.000000 0.000000 
#    y 0.000000 4.014000 0.000000 
#    z 0.000000 0.000000 4.007610 
# 
# 
# High freq. dielectric constant tensor:
#      x y z
#    x 1.830420 0.000000 0.000000 
#    y 0.000000 1.812240 0.000000 
#    z 0.000000 0.000000 1.819320 
# 
# From -- ./inp_files/24743.got.cif
#   From: 2010.03.12/outbox.cif.g09.slc.cpg/sg50_13_cif.got.tgz:24743.got - 2010.04.16 13:23:21.
