data_PCOD8205702
_publ_section_title
;
Structure prediction by ZEFSAII (Michael W. Deem and Ramdas Pophale) SiO2 
 PCOD8205702
Probable space group: P B A N
;
_chemical_formula_sum "Si O2"
_cell_formula_units_Z 38
_cell_length_a 9.468864
_cell_length_b 15.938131
_cell_length_c 10.775577
_cell_angle_alpha 90.000000
_cell_angle_beta 90.000000
_cell_angle_gamma 90.000000
_cell_volume 1626.206923
_symmetry_space_group_name_H-M "P B A N"
_symmetry_group_IT_number 50
_space_group.IT_coordinate_system_code '2'
_symmetry_cell_setting 'orthorhombic'
loop_
_space_group_symop_operation_xyz
x,y,z
1/2-x,1/2-y,z
x,1/2-y,-z
1/2-x,y,-z
-x,-y,-z
1/2+x,1/2+y,-z
-x,1/2+y,z
1/2+x,-y,z
loop_
_atom_site_type_symbol
_atom_site_label
_atom_site_fract_x
_atom_site_fract_y
_atom_site_fract_z
Si Si1 0.777225 0.609773 0.860201
Si Si2 0.750000 0.250000 0.000000
Si Si3 0.545438 0.837980 0.318868
Si Si4 0.750000 0.910868 0.500000
Si Si5 0.205935 0.957974 0.714937
Si Si6 0.923765 0.173557 0.780386
O O1 0.668009 0.666377 0.783327
O O2 0.760459 0.509053 0.841586
O O3 0.933183 0.629275 0.815266
O O4 0.750000 0.635330 0.000000
O O5 0.846372 0.193859 0.910125
O O6 0.619265 0.851616 0.454166
O O7 0.447663 0.916987 0.285751
O O8 0.451993 0.753973 0.308006
O O9 0.797098 0.970160 0.388879
O O10 0.326922 0.888043 0.697039
#
# Coordination Sequence:
#
# PCOD8205702 Si02
#       6
#     8   2   8   4   8   8
#     4  11  25  41  67 102 145 187 240 296 362 431
#     4  12  24  44  74 102 152 188 240 300 362 428
#     4  11  23  46  70 104 138 191 239 299 360 430
#     4  10  24  46  76 102 140 186 244 306 359 424
#     4  11  24  46  70 103 142 188 243 301 361 430
#     4  12  25  44  70 105 144 192 242 301 363 435
#
# _framework density 23.367260999999999
#
# number of rings (size 3 to 8) (size 9 to 14) (size 15 to 20)
#    0.000    0.842    2.105    5.053    1.474    4.211 
#    0.000   16.842    0.000    0.000    0.000    0.000 
#    0.000    0.000    0.000    0.000    0.000    0.000 
#
# Total GULP energy -471198.245576 kJ/mol
# GULP energy per Si atom -12399.953831 kJ/mol
# Density = 2.331408 g / cm^3
# Si number density = 23.367261 Si / 1000 Ang^3
#
#
#
# Elastic Constant Matrix: (Units=GPa)
#
#
# Indices 1 2 3 4 5 6 
#
# 1 121.6600 38.0196 33.1760 0.0000 0.0000 0.0000
# 2 38.0196 121.8310 40.1049 0.0000 0.0000 0.0000
# 3 33.1760 40.1049 102.5557 0.0000 0.0000 0.0000
# 4 0.0000 0.0000 0.0000 52.2577 0.0000 0.0000
# 5 0.0000 0.0000 0.0000 0.0000 40.9891 0.0000
# 6 0.0000 0.0000 0.0000 0.0000 0.0000 47.3349
#
#
#
# Elastic Compliance Matrix: (Units=1/GPa)
#
#
# Indices 1 2 3 4 5 6 
#
# 1 0.009522 -0.002247 -0.002202 0.000000 0.000000 0.000000
# 2 -0.002247 0.009951 -0.003165 0.000000 0.000000 0.000000
# 3 -0.002202 -0.003165 0.011701 0.000000 0.000000 0.000000
# 4 0.000000 0.000000 0.000000 0.019136 0.000000 0.000000
# 5 0.000000 0.000000 0.000000 0.000000 0.024397 0.000000
# 6 0.000000 0.000000 0.000000 0.000000 0.000000 0.021126
#
#
# Mechanical properties :
#
#
# Convention : Reuss Voigt Hill
#
# Bulk Modulus (GPa) = 62.70559 63.18307 62.94433
# Shear Modulus (GPa) = 42.96478 43.76610 43.36544
#
# Velocity S-wave (km/s) = 4.29263 4.33247 4.31260
# Velocity P-wave (km/s) = 7.17370 7.21976 7.19677
#
# Compressibility (1/GPa) = 0.01594754
#
# Stress axis : x y z
#
# Youngs Moduli (GPa) = 105.01810 100.49276 85.46597
#
# Poissons Ratio (x) = 0.22579 0.18817
# Poissons Ratio (y) = 0.23595 0.27046
# Poissons Ratio (z) = 0.23122 0.31801
#
# Static dielectric constant tensor:
#      x y z
#    x 4.218100 0.000000 0.000000 
#    y 0.000000 4.398240 0.000000 
#    z 0.000000 0.000000 4.695860 
# 
# 
# High freq. dielectric constant tensor:
#      x y z
#    x 1.944190 0.000000 0.000000 
#    y 0.000000 1.939110 0.000000 
#    z 0.000000 0.000000 1.910780 
# 
# From -- ./inp_files/18797.got.cif
#   From: 2010.03.12/outbox.cif.g09.slc.cpg/sg50_10_cif.got.tgz:18797.got - 2010.04.16 13:23:21.
