data_PCOD8205351
_publ_section_title
;
Structure prediction by ZEFSAII (Michael W. Deem and Ramdas Pophale) SiO2 
 PCOD8205351
Probable space group: P B A N
;
_chemical_formula_sum "Si O2"
_cell_formula_units_Z 48
_cell_length_a 5.149021
_cell_length_b 15.958675
_cell_length_c 27.065756
_cell_angle_alpha 90.000000
_cell_angle_beta 90.000000
_cell_angle_gamma 90.000000
_cell_volume 2224.035196
_symmetry_space_group_name_H-M "P B A N"
_symmetry_group_IT_number 50
_space_group.IT_coordinate_system_code '2'
_symmetry_cell_setting 'orthorhombic'
loop_
_space_group_symop_operation_xyz
x,y,z
1/2-x,1/2-y,z
x,1/2-y,-z
1/2-x,y,-z
-x,-y,-z
1/2+x,1/2+y,-z
-x,1/2+y,z
1/2+x,-y,z
loop_
_atom_site_type_symbol
_atom_site_label
_atom_site_fract_x
_atom_site_fract_y
_atom_site_fract_z
Si Si1 0.794266 0.048480 0.058194
Si Si2 0.025121 0.058175 0.206165
Si Si3 0.006888 0.805683 0.712907
Si Si4 0.991023 0.534016 0.444407
Si Si5 0.492073 0.806279 0.121724
Si Si6 0.507383 0.300794 0.398270
O O1 0.883730 0.141570 0.074384
O O2 0.513954 0.017176 0.078512
O O3 0.750000 0.049095 0.000000
O O4 0.027355 0.107986 0.257674
O O5 0.060229 0.127644 0.163978
O O6 0.256657 0.991775 0.201607
O O7 0.750000 0.750000 0.718429
O O8 0.064607 0.835595 0.656674
O O9 0.250000 0.750000 0.732247
O O10 0.252581 0.509030 0.415777
O O11 0.000000 0.500000 0.500000
O O12 0.956463 0.632382 0.441228
O O13 0.750000 0.750000 0.109405
O O14 0.250000 0.750000 0.139803
O O15 0.250000 0.250000 0.394269
O O16 0.750000 0.250000 0.418576
#
# Coordination Sequence:
#
# PCOD8205351 Si02
#       6
#     8   8   8   8   8   8
#     4  10  21  40  63  87 118 156 198 247 300 352
#     4  12  24  39  61  90 122 159 202 244 294 360
#     4  10  21  39  60  86 119 154 194 243 297 353
#     4  10  21  38  56  81 114 148 187 240 295 343
#     4  12  24  40  62  89 124 163 202 250 301 354
#     4  10  21  38  61  85 114 153 196 240 293 358
#
# _framework density 21.582394000000001
#
# number of rings (size 3 to 8) (size 9 to 14) (size 15 to 20)
#    0.000    1.333    0.000    6.000    0.000    1.667 
#    0.000   10.833    0.000    0.000    0.000    0.000 
#    0.000    0.000    0.000    0.000    0.000    0.000 
#
# Total GULP energy -594811.280870 kJ/mol
# GULP energy per Si atom -12391.901685 kJ/mol
# Density = 2.153327 g / cm^3
# Si number density = 21.582394 Si / 1000 Ang^3
#
#
#
# Elastic Constant Matrix: (Units=GPa)
#
#
# Indices 1 2 3 4 5 6 
#
# 1 158.6015 42.3970 28.3760 0.0000 0.0000 0.0000
# 2 42.3970 117.0887 48.9053 0.0000 0.0000 0.0000
# 3 28.3760 48.9053 58.5572 0.0000 0.0000 0.0000
# 4 0.0000 0.0000 0.0000 45.1297 0.0000 0.0000
# 5 0.0000 0.0000 0.0000 0.0000 -329.2931 0.0000
# 6 0.0000 0.0000 0.0000 0.0000 0.0000 47.3009
#
#
#
# Elastic Compliance Matrix: (Units=1/GPa)
#
#
# Indices 1 2 3 4 5 6 
#
# 1 0.007129 -0.001748 -0.001995 0.000000 0.000000 0.000000
# 2 -0.001748 0.013544 -0.010465 0.000000 0.000000 0.000000
# 3 -0.001995 -0.010465 0.026784 0.000000 0.000000 0.000000
# 4 0.000000 0.000000 0.000000 0.022158 0.000000 0.000000
# 5 0.000000 0.000000 0.000000 0.000000 -0.003037 0.000000
# 6 0.000000 0.000000 0.000000 0.000000 0.000000 0.021141
#
#
# Mechanical properties :
#
#
# Convention : Reuss Voigt Hill
#
# Bulk Modulus (GPa) = 52.51508 63.73377 58.12443
# Shear Modulus (GPa) = 40.82201 -33.06788 3.87707
#
# Velocity S-wave (km/s) = 4.35380 -3.91854 1.34175
# Velocity P-wave (km/s) = 7.04693 3.02015 5.42128
#
# Compressibility (1/GPa) = 0.01904215
#
# Stress axis : x y z
#
# Youngs Moduli (GPa) = 140.26537 73.83085 37.33624
#
# Poissons Ratio (x) = 0.12909 0.07447
# Poissons Ratio (y) = 0.24524 0.39071
# Poissons Ratio (z) = 0.27977 0.77262
#
# Static dielectric constant tensor:
#      x y z
#    x 4.695800 0.000000 0.000000 
#    y 0.000000 4.001860 0.000000 
#    z 0.000000 0.000000 3.887800 
# 
# 
# High freq. dielectric constant tensor:
#      x y z
#    x 1.881490 0.000000 0.000000 
#    y 0.000000 1.847680 0.000000 
#    z 0.000000 0.000000 1.832710 
# 
# From -- ./inp_files/32047.got.cif
#   From: 2010.03.12/outbox.cif.g09.slc.cpg/sg50_17_cif.got.tgz:32047.got - 2010.04.16 13:23:21.
