data_PCOD8205044
_publ_section_title
;
Structure prediction by ZEFSAII (Michael W. Deem and Ramdas Pophale) SiO2 
 PCOD8205044
Probable space group: P B A N
;
_chemical_formula_sum "Si O2"
_cell_formula_units_Z 64
_cell_length_a 22.570415
_cell_length_b 17.661659
_cell_length_c 9.556077
_cell_angle_alpha 90.000000
_cell_angle_beta 90.000000
_cell_angle_gamma 90.000000
_cell_volume 3809.348275
_symmetry_space_group_name_H-M "P B A N"
_symmetry_group_IT_number 50
_space_group.IT_coordinate_system_code '2'
_symmetry_cell_setting 'orthorhombic'
loop_
_space_group_symop_operation_xyz
x,y,z
1/2-x,1/2-y,z
x,1/2-y,-z
1/2-x,y,-z
-x,-y,-z
1/2+x,1/2+y,-z
-x,1/2+y,z
1/2+x,-y,z
loop_
_atom_site_type_symbol
_atom_site_label
_atom_site_fract_x
_atom_site_fract_y
_atom_site_fract_z
Si Si1 0.883358 0.896324 0.776714
Si Si2 0.115312 0.393196 0.276808
Si Si3 0.562970 0.460266 0.657519
Si Si4 0.681552 0.836769 0.973586
Si Si5 0.491193 0.836745 0.160497
Si Si6 0.684734 0.662047 0.527663
Si Si7 0.062331 0.957320 0.658201
Si Si8 0.008042 0.838182 0.162911
O O1 0.858549 0.892940 0.933901
O O2 0.945682 0.852623 0.767652
O O3 0.834179 0.852148 0.686792
O O4 0.889041 0.983314 0.726779
O O5 0.132551 0.375191 0.436126
O O6 0.107847 0.484079 0.268922
O O7 0.055884 0.349734 0.232539
O O8 0.169474 0.362065 0.184743
O O9 0.500596 0.501964 0.653327
O O10 0.582341 0.436611 0.500210
O O11 0.557846 0.385740 0.754188
O O12 0.662011 0.750000 0.000000
O O13 0.750000 0.849033 0.000000
O O14 0.440784 0.882880 0.245023
O O15 0.474356 0.749300 0.174193
O O16 0.493141 0.863988 0.999151
O O17 0.687609 0.750000 0.500000
O O18 0.750000 0.626372 0.500000
#
# Coordination Sequence:
#
# PCOD8205044 Si02
#       8
#     8   8   8   8   8   8   8   8
#     4  11  20  34  51  69 100 136 167 203 244 288
#     4  11  20  34  51  69 100 136 167 203 244 288
#     4   9  19  33  48  71  97 128 166 202 240 292
#     4  11  22  34  49  72 101 133 174 213 240 276
#     4  10  20  32  50  75 101 129 163 199 244 300
#     4  11  22  34  49  70  97 133 174 209 240 276
#     4   9  19  33  48  71  97 128 166 202 240 292
#     4  10  20  32  50  75 101 129 163 199 244 300
#
# _framework density 16.800774000000001
#
# number of rings (size 3 to 8) (size 9 to 14) (size 15 to 20)
#    0.000    1.750    2.500    3.000    3.500    4.000 
#    0.000    0.000    0.000    0.000    0.000    0.000 
#    0.000    6.000    0.000    0.000    0.000    0.000 
#
# Total GULP energy -793655.773601 kJ/mol
# GULP energy per Si atom -12400.871463 kJ/mol
# Density = 1.676253 g / cm^3
# Si number density = 16.800774 Si / 1000 Ang^3
#
#
#
# Elastic Constant Matrix: (Units=GPa)
#
#
# Indices 1 2 3 4 5 6 
#
# 1 45.3709 33.6333 19.2664 0.0000 0.0000 0.0000
# 2 33.6333 90.8862 41.3897 0.0000 0.0000 0.0000
# 3 19.2664 41.3897 76.5591 0.0000 0.0000 0.0000
# 4 0.0000 0.0000 0.0000 32.3158 0.0000 0.0000
# 5 0.0000 0.0000 0.0000 0.0000 7.8133 0.0000
# 6 0.0000 0.0000 0.0000 0.0000 0.0000 19.8983
#
#
#
# Elastic Compliance Matrix: (Units=1/GPa)
#
#
# Indices 1 2 3 4 5 6 
#
# 1 0.030624 -0.010378 -0.002096 0.000000 0.000000 0.000000
# 2 -0.010378 0.018114 -0.007181 0.000000 0.000000 0.000000
# 3 -0.002096 -0.007181 0.017471 0.000000 0.000000 0.000000
# 4 0.000000 0.000000 0.000000 0.030945 0.000000 0.000000
# 5 0.000000 0.000000 0.000000 0.000000 0.127986 0.000000
# 6 0.000000 0.000000 0.000000 0.000000 0.000000 0.050256
#
#
# Mechanical properties :
#
#
# Convention : Reuss Voigt Hill
#
# Bulk Modulus (GPa) = 37.17634 44.59944 40.88789
# Shear Modulus (GPa) = 15.44775 19.90726 17.67750
#
# Velocity S-wave (km/s) = 3.03556 3.44597 3.24726
# Velocity P-wave (km/s) = 5.87043 6.51434 6.20075
#
# Compressibility (1/GPa) = 0.02689883
#
# Stress axis : x y z
#
# Youngs Moduli (GPa) = 32.65427 55.20737 57.23630
#
# Poissons Ratio (x) = 0.57295 0.11996
# Poissons Ratio (y) = 0.33889 0.41101
# Poissons Ratio (z) = 0.06844 0.39644
#
# Static dielectric constant tensor:
#      x y z
#    x 2.952200 0.000000 0.000000 
#    y 0.000000 3.177250 0.000000 
#    z 0.000000 0.000000 3.462190 
# 
# 
# High freq. dielectric constant tensor:
#      x y z
#    x 1.607950 0.000000 0.000000 
#    y 0.000000 1.633130 0.000000 
#    z 0.000000 0.000000 1.668360 
# 
# From -- ./inp_files/14680.got.cif
#   From: 2010.03.12/outbox.cif.g09.slc.cpg/sg50_8_cif.got.tgz:14680.got - 2010.04.16 13:23:21.
