data_PCOD8205548
_publ_section_title
;
Structure prediction by ZEFSAII (Michael W. Deem and Ramdas Pophale) SiO2 
 PCOD8205548
Probable space group: P B A N
;
_chemical_formula_sum "Si O2"
_cell_formula_units_Z 60
_cell_length_a 10.857724
_cell_length_b 20.243149
_cell_length_c 12.455216
_cell_angle_alpha 90.000000
_cell_angle_beta 90.000000
_cell_angle_gamma 90.000000
_cell_volume 2737.588281
_symmetry_space_group_name_H-M "P B A N"
_symmetry_group_IT_number 50
_space_group.IT_coordinate_system_code '2'
_symmetry_cell_setting 'orthorhombic'
loop_
_space_group_symop_operation_xyz
x,y,z
1/2-x,1/2-y,z
x,1/2-y,-z
1/2-x,y,-z
-x,-y,-z
1/2+x,1/2+y,-z
-x,1/2+y,z
1/2+x,-y,z
loop_
_atom_site_type_symbol
_atom_site_label
_atom_site_fract_x
_atom_site_fract_y
_atom_site_fract_z
Si Si1 0.568813 0.386176 0.487804
Si Si2 0.514977 0.444018 0.154653
Si Si3 0.931024 0.298640 0.304200
Si Si4 0.839412 0.912364 0.659814
Si Si5 0.632573 0.936630 0.946683
Si Si6 0.670883 0.342243 0.280495
Si Si7 0.690047 0.680827 0.200773
Si Si8 0.750000 0.005754 0.500000
O O1 0.559525 0.328745 0.576346
O O2 0.436385 0.391924 0.431906
O O3 0.676155 0.373934 0.398865
O O4 0.621800 0.456248 0.528948
O O5 0.404604 0.449181 0.240237
O O6 0.577377 0.516310 0.146177
O O7 0.613159 0.389331 0.191061
O O8 0.469272 0.421401 0.037262
O O9 0.809674 0.326759 0.243935
O O10 0.917649 0.220036 0.303636
O O11 0.049301 0.314907 0.235590
O O12 0.772530 0.846433 0.701474
O O13 0.735892 0.959632 0.606486
O O14 0.687849 0.869135 0.898695
O O15 0.750000 0.973689 0.000000
O O16 0.750000 0.750000 0.163705
#
# Coordination Sequence:
#
# PCOD8205548 Si02
#       8
#     8   8   8   8   8   8   8   4
#     4  11  22  39  64  97 137 182 228 281 330 405
#     4  10  24  45  71 100 134 171 226 293 347 408
#     4  11  23  41  67  97 139 182 226 271 339 406
#     4  11  25  42  65 100 142 178 235 281 340 413
#     4  11  25  45  71 102 131 174 227 286 354 415
#     4  10  22  42  67 101 132 178 228 281 334 407
#     4  12  27  46  69 100 135 185 223 282 352 419
#     4  12  24  38  64 102 136 186 226 282 340 406
#
# _framework density 21.917100000000001
#
# number of rings (size 3 to 8) (size 9 to 14) (size 15 to 20)
#    0.000    1.067    2.667    3.200    5.600    3.467 
#    0.000    2.333    0.000    1.600    0.000    0.000 
#    0.000    0.000    0.000    0.000    0.000    0.000 
#
# Total GULP energy -743847.251361 kJ/mol
# GULP energy per Si atom -12397.454189 kJ/mol
# Density = 2.186722 g / cm^3
# Si number density = 21.917100 Si / 1000 Ang^3
#
#
#
# Elastic Constant Matrix: (Units=GPa)
#
#
# Indices 1 2 3 4 5 6 
#
# 1 103.9777 41.1473 36.6739 0.0000 0.0000 0.0000
# 2 41.1473 135.1360 61.2668 0.0000 0.0000 0.0000
# 3 36.6739 61.2668 98.6242 0.0000 0.0000 0.0000
# 4 0.0000 0.0000 0.0000 29.0818 0.0000 0.0000
# 5 0.0000 0.0000 0.0000 0.0000 37.0726 0.0000
# 6 0.0000 0.0000 0.0000 0.0000 0.0000 27.4996
#
#
#
# Elastic Compliance Matrix: (Units=1/GPa)
#
#
# Indices 1 2 3 4 5 6 
#
# 1 0.011512 -0.002178 -0.002928 0.000000 0.000000 0.000000
# 2 -0.002178 0.010713 -0.005845 0.000000 0.000000 0.000000
# 3 -0.002928 -0.005845 0.014859 0.000000 0.000000 0.000000
# 4 0.000000 0.000000 0.000000 0.034386 0.000000 0.000000
# 5 0.000000 0.000000 0.000000 0.000000 0.026974 0.000000
# 6 0.000000 0.000000 0.000000 0.000000 0.000000 0.036364
#
#
# Mechanical properties :
#
#
# Convention : Reuss Voigt Hill
#
# Bulk Modulus (GPa) = 65.86534 68.43487 67.15010
# Shear Modulus (GPa) = 30.90776 31.97413 31.44095
#
# Velocity S-wave (km/s) = 3.75935 3.82366 3.79164
# Velocity P-wave (km/s) = 6.99721 7.12643 7.06211
#
# Compressibility (1/GPa) = 0.01518249
#
# Stress axis : x y z
#
# Youngs Moduli (GPa) = 86.86604 93.34279 67.29720
#
# Poissons Ratio (x) = 0.20329 0.19704
# Poissons Ratio (y) = 0.18918 0.39338
# Poissons Ratio (z) = 0.25433 0.54562
#
# Static dielectric constant tensor:
#      x y z
#    x 4.060960 0.000000 0.000000 
#    y 0.000000 4.116290 0.000000 
#    z 0.000000 0.000000 3.815440 
# 
# 
# High freq. dielectric constant tensor:
#      x y z
#    x 1.878010 0.000000 0.000000 
#    y 0.000000 1.862600 0.000000 
#    z 0.000000 0.000000 1.851990 
# 
# From -- ./inp_files/20415.got.cif
#   From: 2010.03.12/outbox.cif.g09.slc.cpg/sg50_11_cif.got.tgz:20415.got - 2010.04.16 13:23:21.
