data_PCOD8205336
_publ_section_title
;
Structure prediction by ZEFSAII (Michael W. Deem and Ramdas Pophale) SiO2 
 PCOD8205336
Probable space group: P B A N
;
_chemical_formula_sum "Si O2"
_cell_formula_units_Z 48
_cell_length_a 22.282434
_cell_length_b 9.548248
_cell_length_c 11.853241
_cell_angle_alpha 90.000000
_cell_angle_beta 90.000000
_cell_angle_gamma 90.000000
_cell_volume 2521.874289
_symmetry_space_group_name_H-M "P B A N"
_symmetry_group_IT_number 50
_space_group.IT_coordinate_system_code '2'
_symmetry_cell_setting 'orthorhombic'
loop_
_space_group_symop_operation_xyz
x,y,z
1/2-x,1/2-y,z
x,1/2-y,-z
1/2-x,y,-z
-x,-y,-z
1/2+x,1/2+y,-z
-x,1/2+y,z
1/2+x,-y,z
loop_
_atom_site_type_symbol
_atom_site_label
_atom_site_fract_x
_atom_site_fract_y
_atom_site_fract_z
Si Si1 0.836001 0.666065 0.307317
Si Si2 0.067261 0.287165 0.872014
Si Si3 0.219268 0.057690 0.621597
Si Si4 0.886775 0.363284 0.649319
Si Si5 0.986257 0.513240 0.770590
Si Si6 0.083585 0.935621 0.403353
O O1 0.868506 0.694568 0.188593
O O2 0.826118 0.811206 0.374140
O O3 0.772413 0.585673 0.287163
O O4 0.876599 0.573162 0.389239
O O5 0.027667 0.164603 0.819309
O O6 0.029115 0.430019 0.857889
O O7 0.081549 0.250000 0.000000
O O8 0.250000 0.044495 0.500000
O O9 0.181876 0.918117 0.650560
O O10 0.924475 0.428321 0.752443
O O11 0.884452 0.195434 0.660335
O O12 0.921977 0.404963 0.535316
O O13 0.018570 0.536768 0.650308
#
# Coordination Sequence:
#
# PCOD8205336 Si02
#       6
#     8   8   8   8   8   8
#     4  10  21  37  57  83 118 148 198 243 287 343
#     4  11  23  40  64  86 111 154 202 253 302 346
#     4  11  21  36  59  86 117 159 191 232 293 353
#     4  11  21  36  56  85 125 157 192 228 292 360
#     4  11  21  40  58  87 122 148 192 246 302 353
#     4  10  22  35  54  90 121 157 187 229 290 361
#
# _framework density 19.033462
#
# number of rings (size 3 to 8) (size 9 to 14) (size 15 to 20)
#    0.000    1.333    5.000    2.000    0.000    0.667 
#    0.000    1.667    0.000    0.000    0.000    0.000 
#   10.000    0.000    0.000    0.000    0.000    0.000 
#
# Total GULP energy -595173.165868 kJ/mol
# GULP energy per Si atom -12399.440956 kJ/mol
# Density = 1.899014 g / cm^3
# Si number density = 19.033462 Si / 1000 Ang^3
#
#
#
# Elastic Constant Matrix: (Units=GPa)
#
#
# Indices 1 2 3 4 5 6 
#
# 1 111.0273 39.8198 34.7026 0.0000 0.0000 0.0000
# 2 39.8198 75.3482 6.5750 0.0000 0.0000 0.0000
# 3 34.7026 6.5750 60.8458 0.0000 0.0000 0.0000
# 4 0.0000 0.0000 0.0000 21.1650 0.0000 0.0000
# 5 0.0000 0.0000 0.0000 0.0000 16.9650 0.0000
# 6 0.0000 0.0000 0.0000 0.0000 0.0000 17.6981
#
#
#
# Elastic Compliance Matrix: (Units=1/GPa)
#
#
# Indices 1 2 3 4 5 6 
#
# 1 0.013549 -0.006548 -0.007020 0.000000 0.000000 0.000000
# 2 -0.006548 0.016562 0.001945 0.000000 0.000000 0.000000
# 3 -0.007020 0.001945 0.020229 0.000000 0.000000 0.000000
# 4 0.000000 0.000000 0.000000 0.047248 0.000000 0.000000
# 5 0.000000 0.000000 0.000000 0.000000 0.058945 0.000000
# 6 0.000000 0.000000 0.000000 0.000000 0.000000 0.056503
#
#
# Mechanical properties :
#
#
# Convention : Reuss Voigt Hill
#
# Bulk Modulus (GPa) = 36.90864 45.49066 41.19965
# Shear Modulus (GPa) = 20.38200 22.24055 21.31127
#
# Velocity S-wave (km/s) = 3.27594 3.42204 3.34978
# Velocity P-wave (km/s) = 5.80883 6.29015 6.05428
#
# Compressibility (1/GPa) = 0.02709393
#
# Stress axis : x y z
#
# Youngs Moduli (GPa) = 73.80382 60.37753 49.43478
#
# Poissons Ratio (x) = 0.39535 0.34704
# Poissons Ratio (y) = 0.48327 -0.09614
# Poissons Ratio (z) = 0.51811 -0.11742
#
# Static dielectric constant tensor:
#      x y z
#    x 3.645850 0.000000 0.000000 
#    y 0.000000 3.677560 0.000000 
#    z 0.000000 0.000000 3.229160 
# 
# 
# High freq. dielectric constant tensor:
#      x y z
#    x 1.744630 0.000000 0.000000 
#    y 0.000000 1.755280 0.000000 
#    z 0.000000 0.000000 1.695510 
# 
# From -- ./inp_files/19149.got.cif
#   From: 2010.03.12/outbox.cif.g09.slc.cpg/sg50_10_cif.got.tgz:19149.got - 2010.04.16 13:23:21.
