data_PCOD8205302
_publ_section_title
;
Structure prediction by ZEFSAII (Michael W. Deem and Ramdas Pophale) SiO2 
 PCOD8205302
Probable space group: P B A N
;
_chemical_formula_sum "Si O2"
_cell_formula_units_Z 58
_cell_length_a 30.684424
_cell_length_b 5.035205
_cell_length_c 18.088405
_cell_angle_alpha 90.000000
_cell_angle_beta 90.000000
_cell_angle_gamma 90.000000
_cell_volume 2794.701354
_symmetry_space_group_name_H-M "P B A N"
_symmetry_group_IT_number 50
_space_group.IT_coordinate_system_code '2'
_symmetry_cell_setting 'orthorhombic'
loop_
_space_group_symop_operation_xyz
x,y,z
1/2-x,1/2-y,z
x,1/2-y,-z
1/2-x,y,-z
-x,-y,-z
1/2+x,1/2+y,-z
-x,1/2+y,z
1/2+x,-y,z
loop_
_atom_site_type_symbol
_atom_site_label
_atom_site_fract_x
_atom_site_fract_y
_atom_site_fract_z
Si Si1 0.822366 0.087211 0.426935
Si Si2 0.798250 0.326966 0.122742
Si Si3 0.651701 0.812803 0.920136
Si Si4 0.888448 0.779258 0.230810
Si Si5 0.417279 0.489703 0.549665
Si Si6 0.471907 0.485647 0.696092
Si Si7 0.250000 0.250000 0.500000
Si Si8 0.837657 0.286015 0.274553
O O1 0.829923 0.250000 0.500000
O O2 0.815067 0.279348 0.355833
O O3 0.868646 0.934808 0.416614
O O4 0.779893 0.909903 0.442006
O O5 0.750000 0.250000 0.099989
O O6 0.807233 0.614587 0.088131
O O7 0.802354 0.355937 0.211834
O O8 0.832204 0.115288 0.088603
O O9 0.615982 0.742701 0.857651
O O10 0.630277 0.750000 0.000000
O O11 0.936515 0.888984 0.244557
O O12 0.877596 0.498557 0.271745
O O13 0.853401 0.988610 0.259894
O O14 0.432327 0.250000 0.500000
O O15 0.451495 0.485772 0.615307
O O16 0.420642 0.750000 0.500000
O O17 0.487506 0.787068 0.707752
#
# Coordination Sequence:
#
# PCOD8205302 Si02
#       8
#     8   8   8   8   8   8   2   8
#     4  11  25  41  62  87 120 167 215 267 311 361
#     4  10  21  36  55  91 124 157 203 256 306 351
#     4  10  21  38  62  88 119 163 202 239 299 375
#     4  10  22  42  64  90 119 157 200 247 297 373
#     4  11  24  41  64  87 122 165 201 253 317 369
#     4  12  25  40  65  95 123 157 201 253 312 371
#     4  12  26  44  56  98 116 160 236 268 318 340
#     4  10  22  40  64  81 118 166 211 246 306 366
#
# _framework density 20.753557000000001
#
# number of rings (size 3 to 8) (size 9 to 14) (size 15 to 20)
#    0.000    1.379    2.069    2.690    5.793    4.414 
#    4.966    0.000    0.000    0.828    0.000    0.000 
#    0.000    0.000    0.000    0.000    0.000    0.000 
#
# Total GULP energy -719023.331581 kJ/mol
# GULP energy per Si atom -12396.953993 kJ/mol
# Density = 2.070632 g / cm^3
# Si number density = 20.753557 Si / 1000 Ang^3
#
#
#
# Elastic Constant Matrix: (Units=GPa)
#
#
# Indices 1 2 3 4 5 6 
#
# 1 74.7280 10.6080 24.0850 0.0000 0.0000 0.0000
# 2 10.6080 87.4940 26.5972 0.0000 0.0000 0.0000
# 3 24.0850 26.5972 140.3487 0.0000 0.0000 0.0000
# 4 0.0000 0.0000 0.0000 25.2830 0.0000 0.0000
# 5 0.0000 0.0000 0.0000 0.0000 10.5624 0.0000
# 6 0.0000 0.0000 0.0000 0.0000 0.0000 47.1491
#
#
#
# Elastic Compliance Matrix: (Units=1/GPa)
#
#
# Indices 1 2 3 4 5 6 
#
# 1 0.014255 -0.001045 -0.002248 0.000000 0.000000 0.000000
# 2 -0.001045 0.012205 -0.002134 0.000000 0.000000 0.000000
# 3 -0.002248 -0.002134 0.007915 0.000000 0.000000 0.000000
# 4 0.000000 0.000000 0.000000 0.039552 0.000000 0.000000
# 5 0.000000 0.000000 0.000000 0.000000 0.094675 0.000000
# 6 0.000000 0.000000 0.000000 0.000000 0.000000 0.021209
#
#
# Mechanical properties :
#
#
# Convention : Reuss Voigt Hill
#
# Bulk Modulus (GPa) = 42.51455 47.23901 44.87678
# Shear Modulus (GPa) = 23.98023 32.68427 28.33225
#
# Velocity S-wave (km/s) = 3.40292 3.97278 3.69884
# Velocity P-wave (km/s) = 5.99747 6.62233 6.31763
#
# Compressibility (1/GPa) = 0.02352136
#
# Stress axis : x y z
#
# Youngs Moduli (GPa) = 70.15184 81.93627 126.33833
#
# Poissons Ratio (x) = 0.08561 0.28404
# Poissons Ratio (y) = 0.07330 0.26955
# Poissons Ratio (z) = 0.15772 0.17482
#
# Static dielectric constant tensor:
#      x y z
#    x 3.785800 0.000000 0.000000 
#    y 0.000000 4.060380 0.000000 
#    z 0.000000 0.000000 4.012160 
# 
# 
# High freq. dielectric constant tensor:
#      x y z
#    x 1.784050 0.000000 0.000000 
#    y 0.000000 1.825840 0.000000 
#    z 0.000000 0.000000 1.815410 
# 
# From -- ./inp_files/30044.got.cif
#   From: 2010.03.12/outbox.cif.g09.slc.cpg/sg50_16_cif.got.tgz:30044.got - 2010.04.16 13:23:21.
