data_PCOD8205349
_publ_section_title
;
Structure prediction by ZEFSAII (Michael W. Deem and Ramdas Pophale) SiO2 
 PCOD8205349
Probable space group: P B A N
;
_chemical_formula_sum "Si O2"
_cell_formula_units_Z 46
_cell_length_a 12.816875
_cell_length_b 24.089990
_cell_length_c 7.430913
_cell_angle_alpha 90.000000
_cell_angle_beta 90.000000
_cell_angle_gamma 90.000000
_cell_volume 2294.356738
_symmetry_space_group_name_H-M "P B A N"
_symmetry_group_IT_number 50
_space_group.IT_coordinate_system_code '2'
_symmetry_cell_setting 'orthorhombic'
loop_
_space_group_symop_operation_xyz
x,y,z
1/2-x,1/2-y,z
x,1/2-y,-z
1/2-x,y,-z
-x,-y,-z
1/2+x,1/2+y,-z
-x,1/2+y,z
1/2+x,-y,z
loop_
_atom_site_type_symbol
_atom_site_label
_atom_site_fract_x
_atom_site_fract_y
_atom_site_fract_z
Si Si1 0.250000 0.356047 0.500000
Si Si2 0.966505 0.105809 0.792806
Si Si3 0.306935 0.061444 0.191424
Si Si4 0.385878 0.844135 0.162925
Si Si5 0.244959 0.943289 0.211061
Si Si6 0.027316 0.312814 0.521288
Si Si7 0.250000 0.750000 0.000000
O O1 0.240649 0.392833 0.321992
O O2 0.151729 0.316346 0.527052
O O3 0.874323 0.065094 0.723478
O O4 0.069112 0.069604 0.831565
O O5 0.983428 0.152479 0.644533
O O6 0.929046 0.135301 0.973475
O O7 0.288950 0.001464 0.286967
O O8 0.250000 0.067148 0.000000
O O9 0.314517 0.890081 0.264482
O O10 0.483996 0.834265 0.289765
O O11 0.319648 0.788311 0.130896
O O12 0.250000 0.949698 0.000000
O O13 0.990920 0.250000 0.500000
#
# Coordination Sequence:
#
# PCOD8205349 Si02
#       7
#     4   8   8   8   8   8   2
#     4  10  23  42  58  88 122 147 208 256 290 356
#     4  10  21  41  58  88 123 155 204 244 302 367
#     4  10  21  37  64  86 115 163 200 244 304 360
#     4  11  22  39  60  86 125 155 193 251 298 352
#     4   9  20  38  57  89 121 154 194 249 295 359
#     4  11  24  39  62  87 115 163 200 247 303 358
#     4  12  20  40  62  88 130 158 200 256 300 370
#
# _framework density 20.049194
#
# number of rings (size 3 to 8) (size 9 to 14) (size 15 to 20)
#    0.000    1.739    2.609    2.348    0.000    9.739 
#    0.000    3.478    0.000    3.130    0.000    0.000 
#    0.000    0.000    0.000    0.000    0.000    0.000 
#
# Total GULP energy -570390.527488 kJ/mol
# GULP energy per Si atom -12399.794076 kJ/mol
# Density = 2.000356 g / cm^3
# Si number density = 20.049194 Si / 1000 Ang^3
#
#
#
# Elastic Constant Matrix: (Units=GPa)
#
#
# Indices 1 2 3 4 5 6 
#
# 1 141.8490 58.6538 45.8184 0.0000 0.0000 0.0000
# 2 58.6538 114.2708 25.3494 0.0000 0.0000 0.0000
# 3 45.8184 25.3494 71.9889 0.0000 0.0000 0.0000
# 4 0.0000 0.0000 0.0000 5.8269 0.0000 0.0000
# 5 0.0000 0.0000 0.0000 0.0000 28.9821 0.0000
# 6 0.0000 0.0000 0.0000 0.0000 0.0000 34.1697
#
#
#
# Elastic Compliance Matrix: (Units=1/GPa)
#
#
# Indices 1 2 3 4 5 6 
#
# 1 0.010468 -0.004225 -0.005175 0.000000 0.000000 0.000000
# 2 -0.004225 0.011198 -0.001254 0.000000 0.000000 0.000000
# 3 -0.005175 -0.001254 0.017626 0.000000 0.000000 0.000000
# 4 0.000000 0.000000 0.000000 0.171617 0.000000 0.000000
# 5 0.000000 0.000000 0.000000 0.000000 0.034504 0.000000
# 6 0.000000 0.000000 0.000000 0.000000 0.000000 0.029266
#
#
# Mechanical properties :
#
#
# Convention : Reuss Voigt Hill
#
# Bulk Modulus (GPa) = 55.60363 65.30578 60.45470
# Shear Modulus (GPa) = 16.55724 27.01488 21.78606
#
# Velocity S-wave (km/s) = 2.87684 3.67472 3.29998
# Velocity P-wave (km/s) = 6.23127 7.11676 6.68868
#
# Compressibility (1/GPa) = 0.01798444
#
# Stress axis : x y z
#
# Youngs Moduli (GPa) = 95.52510 89.30068 56.73362
#
# Poissons Ratio (x) = 0.37733 0.29359
# Poissons Ratio (y) = 0.40363 0.07114
# Poissons Ratio (z) = 0.49434 0.11197
#
# Static dielectric constant tensor:
#      x y z
#    x 3.980350 0.000000 0.000000 
#    y 0.000000 4.000930 0.000000 
#    z 0.000000 0.000000 3.429570 
# 
# 
# High freq. dielectric constant tensor:
#      x y z
#    x 1.795040 0.000000 0.000000 
#    y 0.000000 1.790780 0.000000 
#    z 0.000000 0.000000 1.775780 
# 
# From -- ./inp_files/11588.got.cif
#   From: 2010.03.12/outbox.cif.g09.slc.cpg/sg50_6_cif.got.tgz:11588.got - 2010.04.16 13:23:21.
