data_PCOD8205997
_publ_section_title
;
Structure prediction by ZEFSAII (Michael W. Deem and Ramdas Pophale) SiO2 
 PCOD8205997
Probable space group: P M M A
;
_chemical_formula_sum "Si O2"
_cell_formula_units_Z 56
_cell_length_a 21.556963
_cell_length_b 8.940553
_cell_length_c 14.889750
_cell_angle_alpha 90.000000
_cell_angle_beta 90.000000
_cell_angle_gamma 90.000000
_cell_volume 2869.718942
_symmetry_space_group_name_H-M "P M M A"
_symmetry_group_IT_number 51
_symmetry_cell_setting 'orthorhombic'
loop_
_space_group_symop_operation_xyz
x,y,z
1/2-x,-y,z
1/2+x,-y,-z
-x,y,-z
-x,-y,-z
1/2+x,y,-z
1/2-x,y,z
x,-y,z
loop_
_atom_site_type_symbol
_atom_site_label
_atom_site_fract_x
_atom_site_fract_y
_atom_site_fract_z
Si Si1 0.632425 0.323875 0.859601
Si Si2 0.180123 0.176030 0.771469
Si Si3 0.074896 0.176100 0.635244
Si Si4 0.124237 0.674273 0.468825
Si Si5 0.955263 0.673756 0.704977
Si Si6 0.250000 0.678684 0.247763
Si Si7 0.322050 0.674317 0.954465
Si Si8 0.750000 0.822766 0.560576
O O1 0.640583 0.500000 0.863777
O O2 0.570486 0.281645 0.804127
O O3 0.690972 0.261832 0.805866
O O4 0.635360 0.264757 0.962479
O O5 0.250000 0.232977 0.749932
O O6 0.134844 0.227844 0.692093
O O7 0.155768 0.242908 0.865033
O O8 0.178751 0.000000 0.782232
O O9 0.074846 0.263007 0.540697
O O10 0.013702 0.221182 0.689332
O O11 0.074345 0.000000 0.617332
O O12 0.135365 0.500000 0.484887
O O13 0.098090 0.704194 0.369026
O O14 0.188342 0.760874 0.487199
O O15 0.975144 0.500000 0.701429
O O16 0.250000 0.500000 0.266478
O O17 0.250000 0.766391 0.339290
O O18 0.250000 0.707628 0.976629
O O19 0.332956 0.500000 0.938339
O O20 0.750000 0.000000 0.552328
#
# Coordination Sequence:
#
# PCOD8205997 Si02
#       8
#     8   8   8   8   8   4   8   4
#     4   9  16  30  56  85 114 148 185 227 280 330
#     4   9  20  39  58  77 108 147 183 228 289 345
#     4  11  24  40  59  81 110 149 191 239 291 339
#     4  11  23  40  62  85 112 151 194 233 279 336
#     4  10  21  38  59  82 113 153 191 228 275 340
#     4  10  16  32  56  79 114 155 188 225 274 332
#     4   9  16  29  55  87 112 138 181 236 284 329
#     4  12  24  36  54  87 124 151 182 233 284 328
#
# _framework density 19.514106999999999
#
# number of rings (size 3 to 8) (size 9 to 14) (size 15 to 20)
#    0.000    2.000    2.143    1.929    1.000    4.000 
#    0.000    2.143    0.000    4.286    0.000    0.000 
#    0.000    0.000    0.000    0.000    0.000    0.000 
#
# Total GULP energy -694347.989111 kJ/mol
# GULP energy per Si atom -12399.071234 kJ/mol
# Density = 1.946969 g / cm^3
# Si number density = 19.514107 Si / 1000 Ang^3
#
#
#
# Elastic Constant Matrix: (Units=GPa)
#
#
# Indices 1 2 3 4 5 6 
#
# 1 73.0498 33.8626 16.3985 0.0000 0.0000 0.0000
# 2 33.8626 62.2039 29.9356 0.0000 0.0000 0.0000
# 3 16.3985 29.9356 83.1337 0.0000 0.0000 0.0000
# 4 0.0000 0.0000 0.0000 8.2035 0.0000 0.0000
# 5 0.0000 0.0000 0.0000 0.0000 18.8832 0.0000
# 6 0.0000 0.0000 0.0000 0.0000 0.0000 29.3949
#
#
#
# Elastic Compliance Matrix: (Units=1/GPa)
#
#
# Indices 1 2 3 4 5 6 
#
# 1 0.018310 -0.009954 -0.000027 0.000000 0.000000 0.000000
# 2 -0.009954 0.024858 -0.006988 0.000000 0.000000 0.000000
# 3 -0.000027 -0.006988 0.014550 0.000000 0.000000 0.000000
# 4 0.000000 0.000000 0.000000 0.121900 0.000000 0.000000
# 5 0.000000 0.000000 0.000000 0.000000 0.052957 0.000000
# 6 0.000000 0.000000 0.000000 0.000000 0.000000 0.034020
#
#
# Mechanical properties :
#
#
# Convention : Reuss Voigt Hill
#
# Bulk Modulus (GPa) = 42.05260 42.08675 42.06968
# Shear Modulus (GPa) = 16.20959 20.50902 18.35931
#
# Velocity S-wave (km/s) = 2.88524 3.24541 3.07061
# Velocity P-wave (km/s) = 5.71805 5.97141 5.84610
#
# Compressibility (1/GPa) = 0.02377974
#
# Stress axis : x y z
#
# Youngs Moduli (GPa) = 54.61550 40.22872 68.72702
#
# Poissons Ratio (x) = 0.40045 0.00187
# Poissons Ratio (y) = 0.54366 0.48023
# Poissons Ratio (z) = 0.00149 0.28110
#
# Static dielectric constant tensor:
#      x y z
#    x 3.750400 0.000000 0.000000 
#    y 0.000000 3.300850 0.000000 
#    z 0.000000 0.000000 3.723530 
# 
# 
# High freq. dielectric constant tensor:
#      x y z
#    x 1.750930 0.000000 0.000000 
#    y 0.000000 1.738030 0.000000 
#    z 0.000000 0.000000 1.767650 
# 
# From -- ./inp_files/25859.got.cif
#   From: 2010.03.12/outbox.cif.g09.slc.cpg/sg51_13_cif.got.tgz:25859.got - 2010.04.16 13:43:02.
