data_PCOD8205372
_publ_section_title
;
Structure prediction by ZEFSAII (Michael W. Deem and Ramdas Pophale) SiO2 
 PCOD8205372
Probable space group: P B A N
;
_chemical_formula_sum "Si O2"
_cell_formula_units_Z 38
_cell_length_a 4.908266
_cell_length_b 13.477189
_cell_length_c 27.405162
_cell_angle_alpha 90.000000
_cell_angle_beta 90.000000
_cell_angle_gamma 90.000000
_cell_volume 1812.841286
_symmetry_space_group_name_H-M "P B A N"
_symmetry_group_IT_number 50
_space_group.IT_coordinate_system_code '2'
_symmetry_cell_setting 'orthorhombic'
loop_
_space_group_symop_operation_xyz
x,y,z
1/2-x,1/2-y,z
x,1/2-y,-z
1/2-x,y,-z
-x,-y,-z
1/2+x,1/2+y,-z
-x,1/2+y,z
1/2+x,-y,z
loop_
_atom_site_type_symbol
_atom_site_label
_atom_site_fract_x
_atom_site_fract_y
_atom_site_fract_z
Si Si1 0.229693 0.934675 0.444207
Si Si2 0.234206 0.434658 0.129535
Si Si3 0.788389 0.935249 0.241688
Si Si4 0.750000 0.250000 0.000000
Si Si5 0.750000 0.750000 0.308338
Si Si6 0.750000 0.750000 0.064902
Si Si7 0.250000 0.750000 0.376760
O O1 0.250000 0.898366 0.500000
O O2 0.314178 0.844162 0.410211
O O3 0.425463 0.028073 0.433405
O O4 0.534669 0.473973 0.117651
O O5 0.225085 0.400466 0.185666
O O6 0.144548 0.341051 0.097170
O O7 0.693954 0.844526 0.274730
O O8 0.593357 0.028780 0.253008
O O9 0.514981 0.202283 0.964389
O O10 0.499718 0.724733 0.342508
#
# Coordination Sequence:
#
# PCOD8205372 Si02
#       7
#     8   8   8   2   4   4   4
#     4  10  22  41  63  85 112 149 193 243 291 332
#     4  10  21  38  64  89 109 150 201 241 285 331
#     4  10  22  40  60  86 118 150 194 242 281 336
#     4  10  24  38  58  86 120 162 184 226 304 346
#     4  12  25  38  58  88 120 162 186 223 298 346
#     4  11  21  42  59  82 124 151 190 243 281 346
#     4  12  25  38  59  88 118 151 196 231 280 356
#
# _framework density 20.961569999999998
#
# number of rings (size 3 to 8) (size 9 to 14) (size 15 to 20)
#    0.000    1.474    0.000    4.737    0.000    5.053 
#    0.000   23.158    0.000    0.000    0.000    0.000 
#    0.000    0.000    0.000    0.000    0.000    0.000 
#
# Total GULP energy -470895.422487 kJ/mol
# GULP energy per Si atom -12391.984802 kJ/mol
# Density = 2.091386 g / cm^3
# Si number density = 20.961570 Si / 1000 Ang^3
#
#
#
# Elastic Constant Matrix: (Units=GPa)
#
#
# Indices 1 2 3 4 5 6 
#
# 1 110.1754 8.6839 30.6824 0.0000 0.0000 0.0000
# 2 8.6839 91.3192 63.3826 0.0000 0.0000 0.0000
# 3 30.6824 63.3826 99.2948 0.0000 0.0000 0.0000
# 4 0.0000 0.0000 0.0000 0.7734 0.0000 0.0000
# 5 0.0000 0.0000 0.0000 0.0000 29.7975 0.0000
# 6 0.0000 0.0000 0.0000 0.0000 0.0000 11.6709
#
#
#
# Elastic Compliance Matrix: (Units=1/GPa)
#
#
# Indices 1 2 3 4 5 6 
#
# 1 0.010167 0.002179 -0.004533 0.000000 0.000000 0.000000
# 2 0.002179 0.020129 -0.013522 0.000000 0.000000 0.000000
# 3 -0.004533 -0.013522 0.020103 0.000000 0.000000 0.000000
# 4 0.000000 0.000000 0.000000 1.293000 0.000000 0.000000
# 5 0.000000 0.000000 0.000000 0.000000 0.033560 0.000000
# 6 0.000000 0.000000 0.000000 0.000000 0.000000 0.085683
#
#
# Mechanical properties :
#
#
# Convention : Reuss Voigt Hill
#
# Bulk Modulus (GPa) = 53.62584 56.25415 54.93999
# Shear Modulus (GPa) = 3.33198 21.65106 12.49152
#
# Velocity S-wave (km/s) = 1.26215 3.21735 2.44381
# Velocity P-wave (km/s) = 5.26901 6.37941 5.85061
#
# Compressibility (1/GPa) = 0.01864773
#
# Stress axis : x y z
#
# Youngs Moduli (GPa) = 98.35776 49.68008 49.74336
#
# Poissons Ratio (x) = -0.10826 0.22547
# Poissons Ratio (y) = -0.21434 0.67264
# Poissons Ratio (z) = 0.44582 0.67178
#
# Static dielectric constant tensor:
#      x y z
#    x 3.896050 0.000000 0.000000 
#    y 0.000000 3.345560 0.000000 
#    z 0.000000 0.000000 4.015800 
# 
# 
# High freq. dielectric constant tensor:
#      x y z
#    x 1.838450 0.000000 0.000000 
#    y 0.000000 1.798210 0.000000 
#    z 0.000000 0.000000 1.834540 
# 
# From -- ./inp_files/31968.got.cif
#   From: 2010.03.12/outbox.cif.g09.slc.cpg/sg50_16_cif.got.tgz:31968.got - 2010.04.16 13:23:21.
