data_PCOD8205594
_publ_section_title
;
Structure prediction by ZEFSAII (Michael W. Deem and Ramdas Pophale) SiO2 
 PCOD8205594
Probable space group: P B A N
;
_chemical_formula_sum "Si O2"
_cell_formula_units_Z 40
_cell_length_a 10.573868
_cell_length_b 21.608421
_cell_length_c 8.503105
_cell_angle_alpha 90.000000
_cell_angle_beta 90.000000
_cell_angle_gamma 90.000000
_cell_volume 1942.828471
_symmetry_space_group_name_H-M "P B A N"
_symmetry_group_IT_number 50
_space_group.IT_coordinate_system_code '2'
_symmetry_cell_setting 'orthorhombic'
loop_
_space_group_symop_operation_xyz
x,y,z
1/2-x,1/2-y,z
x,1/2-y,-z
1/2-x,y,-z
-x,-y,-z
1/2+x,1/2+y,-z
-x,1/2+y,z
1/2+x,-y,z
loop_
_atom_site_type_symbol
_atom_site_label
_atom_site_fract_x
_atom_site_fract_y
_atom_site_fract_z
Si Si1 0.374510 0.010811 0.604108
Si Si2 0.763319 0.412917 0.173005
Si Si3 0.550403 0.185466 0.089496
Si Si4 0.389002 0.254155 0.317235
Si Si5 0.012142 0.118458 0.209668
O O1 0.250000 0.024575 0.500000
O O2 0.354292 0.950815 0.712165
O O3 0.500000 0.000000 0.500000
O O4 0.389631 0.067584 0.726914
O O5 0.818379 0.343610 0.149105
O O6 0.627503 0.405796 0.255469
O O7 0.750000 0.445003 0.000000
O O8 0.464369 0.197020 0.241564
O O9 0.575167 0.250000 0.000000
O O10 0.482288 0.133643 0.977864
O O11 0.250000 0.250000 0.238715
O O12 0.376447 0.250000 0.500000
O O13 0.460821 0.317851 0.294586
#
# Coordination Sequence:
#
# PCOD8205594 Si02
#       5
#     8   8   8   8   8
#     4  12  26  45  69  97 137 183 233 290 344 407
#     4  10  23  44  68  97 136 172 233 277 350 421
#     4   9  21  41  68  96 134 174 221 282 346 420
#     4  10  23  40  62  97 133 174 224 275 347 414
#     4  10  23  43  63  95 131 176 220 281 339 404
#
# _framework density 20.588539999999998
#
# number of rings (size 3 to 8) (size 9 to 14) (size 15 to 20)
#    0.000    1.800    2.000    0.000    5.600   16.000 
#    3.600    1.000    0.000    0.000    0.000    0.000 
#    0.000    0.000    0.000    0.000    0.000    0.000 
#
# Total GULP energy -495754.089777 kJ/mol
# GULP energy per Si atom -12393.852244 kJ/mol
# Density = 2.054168 g / cm^3
# Si number density = 20.588540 Si / 1000 Ang^3
#
#
#
# Elastic Constant Matrix: (Units=GPa)
#
#
# Indices 1 2 3 4 5 6 
#
# 1 125.2091 49.4830 60.5338 0.0000 0.0000 0.0000
# 2 49.4830 98.9098 52.2272 0.0000 0.0000 0.0000
# 3 60.5338 52.2272 91.6129 0.0000 0.0000 0.0000
# 4 0.0000 0.0000 0.0000 31.0979 0.0000 0.0000
# 5 0.0000 0.0000 0.0000 0.0000 38.5582 0.0000
# 6 0.0000 0.0000 0.0000 0.0000 0.0000 32.3191
#
#
#
# Elastic Compliance Matrix: (Units=1/GPa)
#
#
# Indices 1 2 3 4 5 6 
#
# 1 0.012200 -0.002642 -0.006555 0.000000 0.000000 0.000000
# 2 -0.002642 0.015037 -0.006826 0.000000 0.000000 0.000000
# 3 -0.006555 -0.006826 0.019138 0.000000 0.000000 0.000000
# 4 0.000000 0.000000 0.000000 0.032156 0.000000 0.000000
# 5 0.000000 0.000000 0.000000 0.000000 0.025935 0.000000
# 6 0.000000 0.000000 0.000000 0.000000 0.000000 0.030941
#
#
# Mechanical properties :
#
#
# Convention : Reuss Voigt Hill
#
# Bulk Modulus (GPa) = 69.79363 71.13553 70.46458
# Shear Modulus (GPa) = 29.03096 30.62757 29.82926
#
# Velocity S-wave (km/s) = 3.75914 3.86113 3.81048
# Velocity P-wave (km/s) = 7.26735 7.38267 7.32524
#
# Compressibility (1/GPa) = 0.01432796
#
# Stress axis : x y z
#
# Youngs Moduli (GPa) = 81.96796 66.50472 52.25162
#
# Poissons Ratio (x) = 0.17572 0.34250
# Poissons Ratio (y) = 0.21658 0.35668
# Poissons Ratio (z) = 0.53729 0.45397
#
# Static dielectric constant tensor:
#      x y z
#    x 4.008270 0.000000 0.000000 
#    y 0.000000 3.722190 0.000000 
#    z 0.000000 0.000000 4.210460 
# 
# 
# High freq. dielectric constant tensor:
#      x y z
#    x 1.810180 0.000000 0.000000 
#    y 0.000000 1.800290 0.000000 
#    z 0.000000 0.000000 1.810460 
# 
# From -- ./inp_files/11331.got.cif
#   From: 2010.03.12/outbox.cif.g09.slc.cpg/sg50_6_cif.got.tgz:11331.got - 2010.04.16 13:23:21.
