data_PCOD8205309
_publ_section_title
;
Structure prediction by ZEFSAII (Michael W. Deem and Ramdas Pophale) SiO2 
 PCOD8205309
Probable space group: P B A N
;
_chemical_formula_sum "Si O2"
_cell_formula_units_Z 64
_cell_length_a 9.615237
_cell_length_b 29.686900
_cell_length_c 12.284514
_cell_angle_alpha 90.000000
_cell_angle_beta 90.000000
_cell_angle_gamma 90.000000
_cell_volume 3506.572500
_symmetry_space_group_name_H-M "P B A N"
_symmetry_group_IT_number 50
_space_group.IT_coordinate_system_code '2'
_symmetry_cell_setting 'orthorhombic'
loop_
_space_group_symop_operation_xyz
x,y,z
1/2-x,1/2-y,z
x,1/2-y,-z
1/2-x,y,-z
-x,-y,-z
1/2+x,1/2+y,-z
-x,1/2+y,z
1/2+x,-y,z
loop_
_atom_site_type_symbol
_atom_site_label
_atom_site_fract_x
_atom_site_fract_y
_atom_site_fract_z
Si Si1 0.269967 0.558990 0.627084
Si Si2 0.620114 0.499313 0.918395
Si Si3 0.911168 0.836074 0.128004
Si Si4 0.722724 0.543591 0.374348
Si Si5 0.410389 0.332062 0.127761
Si Si6 0.950469 0.578623 0.245295
Si Si7 0.408158 0.751969 0.870797
Si Si8 0.969065 0.076722 0.758539
O O1 0.250000 0.568986 0.500000
O O2 0.228790 0.507200 0.653938
O O3 0.422273 0.565928 0.676372
O O4 0.161812 0.592713 0.686066
O O5 0.601078 0.542641 0.843299
O O6 0.605797 0.453908 0.849263
O O7 0.750000 0.500910 0.000000
O O8 0.500000 0.500000 0.000000
O O9 0.751641 0.823931 0.156478
O O10 0.014615 0.797094 0.170486
O O11 0.951031 0.882394 0.186019
O O12 0.928986 0.841529 0.999482
O O13 0.750000 0.551774 0.500000
O O14 0.568036 0.549713 0.325975
O O15 0.817375 0.582209 0.322166
O O16 0.478648 0.374132 0.188621
O O17 0.499332 0.289765 0.170302
O O18 0.250000 0.750000 0.824327
O O19 0.404013 0.750000 0.000000
#
# Coordination Sequence:
#
# PCOD8205309 Si02
#       8
#     8   8   8   8   8   8   8   8
#     4  11  23  39  58  81 112 152 201 255 297 332
#     4  12  24  36  51  78 123 163 192 227 278 347
#     4  10  21  36  58  84 119 155 192 230 278 349
#     4  11  21  39  60  79 109 151 201 253 292 330
#     4  10  21  36  58  84 118 156 192 230 280 345
#     4  12  22  37  56  84 114 155 196 240 288 348
#     4   9  19  37  57  85 116 149 191 238 280 331
#     4  12  22  38  55  86 113 156 197 240 289 345
#
# _framework density 18.251439999999999
#
# number of rings (size 3 to 8) (size 9 to 14) (size 15 to 20)
#    0.000    1.125    3.750    3.375    3.500    3.500 
#    2.250    0.000    0.000    0.000    0.000    5.250 
#    0.000    0.000    0.000    0.000    0.000    0.000 
#
# Total GULP energy -792982.945175 kJ/mol
# GULP energy per Si atom -12390.358518 kJ/mol
# Density = 1.820990 g / cm^3
# Si number density = 18.251440 Si / 1000 Ang^3
#
#
#
# Elastic Constant Matrix: (Units=GPa)
#
#
# Indices 1 2 3 4 5 6 
#
# 1 138.8646 41.0370 60.5506 0.0000 0.0000 0.0000
# 2 41.0370 98.4864 44.1471 0.0000 0.0000 0.0000
# 3 60.5506 44.1471 83.7403 0.0000 0.0000 0.0000
# 4 0.0000 0.0000 0.0000 13.2478 0.0000 0.0000
# 5 0.0000 0.0000 0.0000 0.0000 35.6729 0.0000
# 6 0.0000 0.0000 0.0000 0.0000 0.0000 30.4543
#
#
#
# Elastic Compliance Matrix: (Units=1/GPa)
#
#
# Indices 1 2 3 4 5 6 
#
# 1 0.010641 -0.001290 -0.007014 0.000000 0.000000 0.000000
# 2 -0.001290 0.013452 -0.006159 0.000000 0.000000 0.000000
# 3 -0.007014 -0.006159 0.020261 0.000000 0.000000 0.000000
# 4 0.000000 0.000000 0.000000 0.075484 0.000000 0.000000
# 5 0.000000 0.000000 0.000000 0.000000 0.028032 0.000000
# 6 0.000000 0.000000 0.000000 0.000000 0.000000 0.032836
#
#
# Mechanical properties :
#
#
# Convention : Reuss Voigt Hill
#
# Bulk Modulus (GPa) = 64.82071 68.06229 66.44150
# Shear Modulus (GPa) = 23.28021 27.56546 25.42283
#
# Velocity S-wave (km/s) = 3.57533 3.89050 3.73624
# Velocity P-wave (km/s) = 7.25510 7.58642 7.42261
#
# Compressibility (1/GPa) = 0.01542717
#
# Stress axis : x y z
#
# Youngs Moduli (GPa) = 93.97715 74.33860 49.35670
#
# Poissons Ratio (x) = 0.09587 0.34620
# Poissons Ratio (y) = 0.12119 0.30400
# Poissons Ratio (z) = 0.65918 0.45787
#
# Static dielectric constant tensor:
#      x y z
#    x 3.609380 0.000000 0.000000 
#    y 0.000000 3.288990 0.000000 
#    z 0.000000 0.000000 3.548140 
# 
# 
# High freq. dielectric constant tensor:
#      x y z
#    x 1.731330 0.000000 0.000000 
#    y 0.000000 1.687150 0.000000 
#    z 0.000000 0.000000 1.695190 
# 
# From -- ./inp_files/19557.got.cif
#   From: 2010.03.12/outbox.cif.g09.slc.cpg/sg50_10_cif.got.tgz:19557.got - 2010.04.16 13:23:21.
