data_PCOD8205455
_publ_section_title
;
Structure prediction by ZEFSAII (Michael W. Deem and Ramdas Pophale) SiO2 
 PCOD8205455
Probable space group: P B A N
;
_chemical_formula_sum "Si O2"
_cell_formula_units_Z 58
_cell_length_a 29.157741
_cell_length_b 10.626786
_cell_length_c 9.644848
_cell_angle_alpha 90.000000
_cell_angle_beta 90.000000
_cell_angle_gamma 90.000000
_cell_volume 2988.485800
_symmetry_space_group_name_H-M "P B A N"
_symmetry_group_IT_number 50
_space_group.IT_coordinate_system_code '2'
_symmetry_cell_setting 'orthorhombic'
loop_
_space_group_symop_operation_xyz
x,y,z
1/2-x,1/2-y,z
x,1/2-y,-z
1/2-x,y,-z
-x,-y,-z
1/2+x,1/2+y,-z
-x,1/2+y,z
1/2+x,-y,z
loop_
_atom_site_type_symbol
_atom_site_label
_atom_site_fract_x
_atom_site_fract_y
_atom_site_fract_z
Si Si1 0.199413 0.397661 0.486205
Si Si2 0.195405 0.891697 0.020253
Si Si3 0.679532 0.902337 0.826416
Si Si4 0.907677 0.743690 0.151139
Si Si5 0.750000 0.750000 0.000000
Si Si6 0.041306 0.368134 0.398503
Si Si7 0.062354 0.612297 0.562645
Si Si8 0.362553 0.499308 0.267956
O O1 0.202938 0.250000 0.500000
O O2 0.250000 0.458827 0.500000
O O3 0.180928 0.431842 0.335495
O O4 0.164918 0.445770 0.601670
O O5 0.176153 0.944822 0.165952
O O6 0.179680 0.750000 0.000000
O O7 0.250000 0.906515 0.000000
O O8 0.169609 0.964871 0.898175
O O9 0.641343 0.804767 0.866201
O O10 0.724625 0.841616 0.893337
O O11 0.938302 0.826887 0.252515
O O12 0.897050 0.602692 0.201356
O O13 0.932015 0.750000 0.000000
O O14 0.048691 0.250000 0.500000
O O15 0.066745 0.494513 0.454368
O O16 0.988088 0.398410 0.370863
O O17 0.068810 0.750000 0.500000
O O18 0.102147 0.604926 0.678062
#
# Coordination Sequence:
#
# PCOD8205455 Si02
#       8
#     8   8   8   8   2   8   8   8
#     4  11  23  34  59  97 130 161 214 278 332 371
#     4  11  25  44  63  85 130 186 222 256 327 406
#     4  12  22  36  61  92 126 170 214 269 327 385
#     4  12  23  38  64  99 127 168 215 279 335 378
#     4  12  20  36  60  88 136 164 218 270 324 388
#     4  10  21  43  72  95 131 169 223 273 335 398
#     4  10  23  42  71 100 128 175 216 271 337 401
#     4  12  23  43  64  97 132 172 225 276 320 398
#
# _framework density 19.407821999999999
#
# number of rings (size 3 to 8) (size 9 to 14) (size 15 to 20)
#    0.000    0.828    5.517    2.483    0.000    2.207 
#    0.000    1.379    0.000    2.483    0.000    0.000 
#    0.000    0.000    0.000    0.000    0.000    0.000 
#
# Total GULP energy -718942.626453 kJ/mol
# GULP energy per Si atom -12395.562525 kJ/mol
# Density = 1.936365 g / cm^3
# Si number density = 19.407822 Si / 1000 Ang^3
#
#
#
# Elastic Constant Matrix: (Units=GPa)
#
#
# Indices 1 2 3 4 5 6 
#
# 1 83.2599 32.9595 48.6399 0.0000 0.0000 0.0000
# 2 32.9595 114.9895 47.3033 0.0000 0.0000 0.0000
# 3 48.6399 47.3033 158.4680 0.0000 0.0000 0.0000
# 4 0.0000 0.0000 0.0000 29.7602 0.0000 0.0000
# 5 0.0000 0.0000 0.0000 0.0000 1345.0844 0.0000
# 6 0.0000 0.0000 0.0000 0.0000 0.0000 32.1242
#
#
#
# Elastic Compliance Matrix: (Units=1/GPa)
#
#
# Indices 1 2 3 4 5 6 
#
# 1 0.015394 -0.002814 -0.003885 0.000000 0.000000 0.000000
# 2 -0.002814 0.010428 -0.002249 0.000000 0.000000 0.000000
# 3 -0.003885 -0.002249 0.008174 0.000000 0.000000 0.000000
# 4 0.000000 0.000000 0.000000 0.033602 0.000000 0.000000
# 5 0.000000 0.000000 0.000000 0.000000 0.000743 0.000000
# 6 0.000000 0.000000 0.000000 0.000000 0.000000 0.031129
#
#
# Mechanical properties :
#
#
# Convention : Reuss Voigt Hill
#
# Bulk Modulus (GPa) = 62.11159 68.28032 65.19595
# Shear Modulus (GPa) = 40.73826 296.58141 168.65984
#
# Velocity S-wave (km/s) = 4.58652 12.37526 9.33229
# Velocity P-wave (km/s) = 7.75378 15.47431 12.23878
#
# Compressibility (1/GPa) = 0.01610005
#
# Stress axis : x y z
#
# Youngs Moduli (GPa) = 64.95933 95.89287 122.33550
#
# Poissons Ratio (x) = 0.26987 0.47528
# Poissons Ratio (y) = 0.18281 0.27514
# Poissons Ratio (z) = 0.25237 0.21567
#
# Static dielectric constant tensor:
#      x y z
#    x 3.695440 0.000000 0.000000 
#    y 0.000000 1.599040 0.000000 
#    z 0.000000 0.000000 3.600290 
# 
# 
# High freq. dielectric constant tensor:
#      x y z
#    x 1.754830 0.000000 0.000000 
#    y 0.000000 1.756110 0.000000 
#    z 0.000000 0.000000 1.759100 
# 
# From -- ./inp_files/17076.got.cif
#   From: 2010.03.12/outbox.cif.g09.slc.cpg/sg50_9_cif.got.tgz:17076.got - 2010.04.16 13:23:21.
