data_PCOD8205165
_publ_section_title
;
Structure prediction by ZEFSAII (Michael W. Deem and Ramdas Pophale) SiO2 
 PCOD8205165
Probable space group: P B A N
;
_chemical_formula_sum "Si O2"
_cell_formula_units_Z 64
_cell_length_a 22.162466
_cell_length_b 16.625728
_cell_length_c 9.042628
_cell_angle_alpha 90.000000
_cell_angle_beta 90.000000
_cell_angle_gamma 90.000000
_cell_volume 3331.911201
_symmetry_space_group_name_H-M "P B A N"
_symmetry_group_IT_number 50
_space_group.IT_coordinate_system_code '2'
_symmetry_cell_setting 'orthorhombic'
loop_
_space_group_symop_operation_xyz
x,y,z
1/2-x,1/2-y,z
x,1/2-y,-z
1/2-x,y,-z
-x,-y,-z
1/2+x,1/2+y,-z
-x,1/2+y,z
1/2+x,-y,z
loop_
_atom_site_type_symbol
_atom_site_label
_atom_site_fract_x
_atom_site_fract_y
_atom_site_fract_z
Si Si1 0.023077 0.343811 0.330447
Si Si2 0.391195 0.903693 0.673254
Si Si3 0.891195 0.096307 0.326746
Si Si4 0.750000 0.840201 0.175700
Si Si5 0.681758 0.250000 0.324055
Si Si6 0.130880 0.430080 0.824967
Si Si7 0.630880 0.569920 0.175033
Si Si8 0.523077 0.656189 0.669553
O O1 0.073798 0.378234 0.224263
O O2 0.013531 0.250000 0.299485
O O3 0.041900 0.359445 0.500000
O O4 0.961336 0.389375 0.293171
O O5 0.380081 0.916187 0.500000
O O6 0.352403 0.828965 0.734932
O O7 0.369027 0.981588 0.758221
O O8 0.852403 0.171035 0.265068
O O9 0.961336 0.110625 0.293171
O O10 0.869027 0.018412 0.241779
O O11 0.750000 0.750000 0.241294
O O12 0.690814 0.885919 0.233786
O O13 0.809186 0.885919 0.233786
O O14 0.750000 0.836965 0.000000
O O15 0.750000 0.250000 0.263596
O O16 0.679762 0.250000 0.500000
O O17 0.073798 0.378234 0.775737
O O18 0.130070 0.436927 1.000000
#
# Coordination Sequence:
#
# PCOD8205165 Si02
#       8
#     8   8   8   8   8   8   8   8
#     4  10  20  37  59  83 113 148 187 231 280 330
#     4  10  20  37  59  85 115 148 186 230 280 330
#     4  10  20  37  59  85 115 148 186 230 280 330
#     4   9  20  40  59  76 107 150 188 225 275 333
#     4   9  18  34  59  87 113 148 191 230 272 331
#     4  11  23  37  57  84 113 147 189 232 281 336
#     4  11  23  37  57  84 113 147 189 232 281 336
#     4  10  20  37  59  83 113 148 187 231 280 330
#
# _framework density 19.208193999999999
#
# number of rings (size 3 to 8) (size 9 to 14) (size 15 to 20)
#    0.000    2.000    1.250    2.250    1.750    5.500 
#    0.000    2.500    0.000    5.250    0.000    0.000 
#    0.000    0.000    0.000    0.000    0.000    0.000 
#
# Total GULP energy -793828.701785 kJ/mol
# GULP energy per Si atom -12403.573465 kJ/mol
# Density = 1.916448 g / cm^3
# Si number density = 19.208194 Si / 1000 Ang^3
#
#
#
# Elastic Constant Matrix: (Units=GPa)
#
#
# Indices 1 2 3 4 5 6 
#
# 1 150.8684 85.0952 50.6226 0.0000 0.0000 0.0000
# 2 85.0952 167.0446 49.7101 0.0000 0.0000 0.0000
# 3 50.6226 49.7101 50.9891 0.0000 0.0000 0.0000
# 4 0.0000 0.0000 0.0000 24.0888 0.0000 0.0000
# 5 0.0000 0.0000 0.0000 0.0000 23.5107 0.0000
# 6 0.0000 0.0000 0.0000 0.0000 0.0000 34.7598
#
#
#
# Elastic Compliance Matrix: (Units=1/GPa)
#
#
# Indices 1 2 3 4 5 6 
#
# 1 0.011131 -0.003355 -0.007780 0.000000 0.000000 0.000000
# 2 -0.003355 0.009444 -0.005876 0.000000 0.000000 0.000000
# 3 -0.007780 -0.005876 0.033065 0.000000 0.000000 0.000000
# 4 0.000000 0.000000 0.000000 0.041513 0.000000 0.000000
# 5 0.000000 0.000000 0.000000 0.000000 0.042534 0.000000
# 6 0.000000 0.000000 0.000000 0.000000 0.000000 0.028769
#
#
# Mechanical properties :
#
#
# Convention : Reuss Voigt Hill
#
# Bulk Modulus (GPa) = 50.97532 82.19531 66.58531
# Shear Modulus (GPa) = 24.15229 28.70346 26.42788
#
# Velocity S-wave (km/s) = 3.54982 3.86986 3.71329
# Velocity P-wave (km/s) = 6.58769 7.92795 7.28869
#
# Compressibility (1/GPa) = 0.01961733
#
# Stress axis : x y z
#
# Youngs Moduli (GPa) = 89.83630 105.88360 30.24313
#
# Poissons Ratio (x) = 0.35526 0.23530
# Poissons Ratio (y) = 0.30142 0.17772
# Poissons Ratio (z) = 0.69895 0.62221
#
# Static dielectric constant tensor:
#      x y z
#    x 3.699520 0.000000 0.000000 
#    y 0.000000 3.690310 0.000000 
#    z 0.000000 0.000000 3.208600 
# 
# 
# High freq. dielectric constant tensor:
#      x y z
#    x 1.761100 0.000000 0.000000 
#    y 0.000000 1.767520 0.000000 
#    z 0.000000 0.000000 1.715360 
# 
# From -- ./inp_files/16138.got.cif
#   From: 2010.03.12/outbox.cif.g09.slc.cpg/sg50_9_cif.got.tgz:16138.got - 2010.04.16 13:23:21.
