data_PCOD8205440
_publ_section_title
;
Structure prediction by ZEFSAII (Michael W. Deem and Ramdas Pophale) SiO2 
 PCOD8205440
Probable space group: P B A N
;
_chemical_formula_sum "Si O2"
_cell_formula_units_Z 50
_cell_length_a 13.695814
_cell_length_b 8.751903
_cell_length_c 18.867004
_cell_angle_alpha 90.000000
_cell_angle_beta 90.000000
_cell_angle_gamma 90.000000
_cell_volume 2261.482787
_symmetry_space_group_name_H-M "P B A N"
_symmetry_group_IT_number 50
_space_group.IT_coordinate_system_code '2'
_symmetry_cell_setting 'orthorhombic'
loop_
_space_group_symop_operation_xyz
x,y,z
1/2-x,1/2-y,z
x,1/2-y,-z
1/2-x,y,-z
-x,-y,-z
1/2+x,1/2+y,-z
-x,1/2+y,z
1/2+x,-y,z
loop_
_atom_site_type_symbol
_atom_site_label
_atom_site_fract_x
_atom_site_fract_y
_atom_site_fract_z
Si Si1 0.147715 0.794549 0.112934
Si Si2 0.250000 0.250000 0.000000
Si Si3 0.766356 0.426023 0.377069
Si Si4 0.426770 0.101271 0.544241
Si Si5 0.562410 0.054212 0.668274
Si Si6 0.388202 0.518205 0.978860
Si Si7 0.911405 0.143149 0.739465
O O1 0.250000 0.750000 0.148194
O O2 0.166373 0.909712 0.047392
O O3 0.087781 0.878755 0.175376
O O4 0.101971 0.635514 0.086183
O O5 0.173059 0.362973 0.041958
O O6 0.750000 0.250000 0.399391
O O7 0.827841 0.508789 0.438608
O O8 0.660097 0.507331 0.371651
O O9 0.823222 0.441570 0.301746
O O10 0.398122 0.250000 0.500000
O O11 0.486521 0.139913 0.615821
O O12 0.500000 0.000000 0.500000
O O13 0.598026 0.177187 0.725396
O O14 0.514636 0.914759 0.710006
O O15 0.500000 0.500000 0.000000
#
# Coordination Sequence:
#
# PCOD8205440 Si02
#       7
#     8   2   8   8   8   8   8
#     4  11  21  43  65  90 133 177 219 274 345 399
#     4  12  20  46  68  90 144 174 216 288 342 408
#     4   9  19  40  64  91 131 176 217 272 331 392
#     4  11  22  39  66 100 133 171 218 271 331 401
#     4  10  21  42  62  90 131 168 214 276 327 389
#     4  11  24  41  65  99 136 176 221 283 343 408
#     4  10  22  39  66  90 123 173 220 267 331 395
#
# _framework density 22.109389
#
# number of rings (size 3 to 8) (size 9 to 14) (size 15 to 20)
#    0.000    1.600    1.600    5.760    2.240    0.640 
#    0.000   12.800    0.000    0.000    0.000    0.000 
#    0.000    0.000    0.000    0.000    0.000    0.000 
#
# Total GULP energy -619634.549845 kJ/mol
# GULP energy per Si atom -12392.690997 kJ/mol
# Density = 2.205907 g / cm^3
# Si number density = 22.109389 Si / 1000 Ang^3
#
#
#
# Elastic Constant Matrix: (Units=GPa)
#
#
# Indices 1 2 3 4 5 6 
#
# 1 166.0795 56.5677 44.4551 0.0000 0.0000 0.0000
# 2 56.5677 101.7503 52.7470 0.0000 0.0000 0.0000
# 3 44.4551 52.7470 119.2075 0.0000 0.0000 0.0000
# 4 0.0000 0.0000 0.0000 31.6702 0.0000 0.0000
# 5 0.0000 0.0000 0.0000 0.0000 22.9917 0.0000
# 6 0.0000 0.0000 0.0000 0.0000 0.0000 39.7280
#
#
#
# Elastic Compliance Matrix: (Units=1/GPa)
#
#
# Indices 1 2 3 4 5 6 
#
# 1 0.007568 -0.003561 -0.001246 0.000000 0.000000 0.000000
# 2 -0.003561 0.014429 -0.005057 0.000000 0.000000 0.000000
# 3 -0.001246 -0.005057 0.011091 0.000000 0.000000 0.000000
# 4 0.000000 0.000000 0.000000 0.031575 0.000000 0.000000
# 5 0.000000 0.000000 0.000000 0.000000 0.043494 0.000000
# 6 0.000000 0.000000 0.000000 0.000000 0.000000 0.025171
#
#
# Mechanical properties :
#
#
# Convention : Reuss Voigt Hill
#
# Bulk Modulus (GPa) = 74.85273 77.17519 76.01396
# Shear Modulus (GPa) = 31.74402 34.42914 33.08658
#
# Velocity S-wave (km/s) = 3.79327 3.95044 3.87265
# Velocity P-wave (km/s) = 7.28796 7.46926 7.37916
#
# Compressibility (1/GPa) = 0.01335957
#
# Stress axis : x y z
#
# Youngs Moduli (GPa) = 132.13875 69.30445 90.16319
#
# Poissons Ratio (x) = 0.24680 0.11239
# Poissons Ratio (y) = 0.47056 0.45592
# Poissons Ratio (z) = 0.16471 0.35044
#
# Static dielectric constant tensor:
#      x y z
#    x 4.321440 0.000000 0.000000 
#    y 0.000000 4.833950 0.000000 
#    z 0.000000 0.000000 3.821820 
# 
# 
# High freq. dielectric constant tensor:
#      x y z
#    x 1.888840 0.000000 0.000000 
#    y 0.000000 1.855540 0.000000 
#    z 0.000000 0.000000 1.852980 
# 
# From -- ./inp_files/29482.got.cif
#   From: 2010.03.12/outbox.cif.g09.slc.cpg/sg50_15_cif.got.tgz:29482.got - 2010.04.16 13:23:21.
