data_PCOD8205824
_publ_section_title
;
Structure prediction by ZEFSAII (Michael W. Deem and Ramdas Pophale) SiO2 
 PCOD8205824
Probable space group: P B A N
;
_chemical_formula_sum "Si O2"
_cell_formula_units_Z 40
_cell_length_a 19.508188
_cell_length_b 8.778872
_cell_length_c 10.769161
_cell_angle_alpha 90.000000
_cell_angle_beta 90.000000
_cell_angle_gamma 90.000000
_cell_volume 1844.325279
_symmetry_space_group_name_H-M "P B A N"
_symmetry_group_IT_number 50
_space_group.IT_coordinate_system_code '2'
_symmetry_cell_setting 'orthorhombic'
loop_
_space_group_symop_operation_xyz
x,y,z
1/2-x,1/2-y,z
x,1/2-y,-z
1/2-x,y,-z
-x,-y,-z
1/2+x,1/2+y,-z
-x,1/2+y,z
1/2+x,-y,z
loop_
_atom_site_type_symbol
_atom_site_label
_atom_site_fract_x
_atom_site_fract_y
_atom_site_fract_z
Si Si1 0.596669 0.378408 0.751192
Si Si2 0.268142 0.574488 0.129879
Si Si3 0.859098 0.039677 0.275832
Si Si4 0.464436 0.114260 0.090810
Si Si5 0.573359 0.927920 0.485171
O O1 0.650593 0.447497 0.850026
O O2 0.624946 0.217724 0.703689
O O3 0.522203 0.340316 0.807836
O O4 0.598452 0.510098 0.647100
O O5 0.250000 0.750000 0.116508
O O6 0.220528 0.509506 0.241226
O O7 0.250000 0.491469 0.000000
O O8 0.902620 0.962634 0.165222
O O9 0.872115 0.968192 0.409201
O O10 0.439025 0.250000 0.000000
O O11 0.500000 0.000000 0.000000
O O12 0.562800 0.750000 0.500000
O O13 0.500000 0.000000 0.500000
#
# Coordination Sequence:
#
# PCOD8205824 Si02
#       5
#     8   8   8   8   8
#     4  11  23  42  69  97 130 176 221 274 327 394
#     4   9  20  40  68  98 133 172 219 266 323 398
#     4  11  23  43  67  98 132 172 223 273 328 395
#     4  12  24  37  64  99 134 168 217 271 333 392
#     4  12  26  43  66  94 132 170 225 281 336 395
#
# _framework density 21.688148000000002
#
# number of rings (size 3 to 8) (size 9 to 14) (size 15 to 20)
#    0.000    1.000    4.000    3.000    5.600    0.800 
#    0.000    5.000    0.000    0.000    0.000    0.000 
#    0.000    0.000    0.000    0.000    0.000    0.000 
#
# Total GULP energy -495705.146482 kJ/mol
# GULP energy per Si atom -12392.628662 kJ/mol
# Density = 2.163878 g / cm^3
# Si number density = 21.688148 Si / 1000 Ang^3
#
#
#
# Elastic Constant Matrix: (Units=GPa)
#
#
# Indices 1 2 3 4 5 6 
#
# 1 89.6848 10.6542 16.3183 0.0000 0.0000 0.0000
# 2 10.6542 113.3090 33.9807 0.0000 0.0000 0.0000
# 3 16.3183 33.9807 114.0357 0.0000 0.0000 0.0000
# 4 0.0000 0.0000 0.0000 45.0915 0.0000 0.0000
# 5 0.0000 0.0000 0.0000 0.0000 26.1093 0.0000
# 6 0.0000 0.0000 0.0000 0.0000 0.0000 23.9939
#
#
#
# Elastic Compliance Matrix: (Units=1/GPa)
#
#
# Indices 1 2 3 4 5 6 
#
# 1 0.011491 -0.000645 -0.001452 0.000000 0.000000 0.000000
# 2 -0.000645 0.009728 -0.002806 0.000000 0.000000 0.000000
# 3 -0.001452 -0.002806 0.009813 0.000000 0.000000 0.000000
# 4 0.000000 0.000000 0.000000 0.022177 0.000000 0.000000
# 5 0.000000 0.000000 0.000000 0.000000 0.038301 0.000000
# 6 0.000000 0.000000 0.000000 0.000000 0.000000 0.041677
#
#
# Mechanical properties :
#
#
# Convention : Reuss Voigt Hill
#
# Bulk Modulus (GPa) = 47.11447 48.77063 47.94255
# Shear Modulus (GPa) = 33.31802 36.11067 34.71435
#
# Velocity S-wave (km/s) = 3.92373 4.08486 4.00511
# Velocity P-wave (km/s) = 6.50372 6.69210 6.59858
#
# Compressibility (1/GPa) = 0.02122490
#
# Stress axis : x y z
#
# Youngs Moduli (GPa) = 87.02457 102.79929 101.90317
#
# Poissons Ratio (x) = 0.06630 0.14798
# Poissons Ratio (y) = 0.05613 0.28598
# Poissons Ratio (z) = 0.12637 0.28849
#
# Static dielectric constant tensor:
#      x y z
#    x 4.102540 0.000000 0.000000 
#    y 0.000000 3.935060 0.000000 
#    z 0.000000 0.000000 4.492150 
# 
# 
# High freq. dielectric constant tensor:
#      x y z
#    x 1.852030 0.000000 0.000000 
#    y 0.000000 1.839720 0.000000 
#    z 0.000000 0.000000 1.863070 
# 
# From -- ./inp_files/21634.got.cif
#   From: 2010.03.12/outbox.cif.g09.slc.cpg/sg50_11_cif.got.tgz:21634.got - 2010.04.16 13:23:21.
