data_PCOD8205353
_publ_section_title
;
Structure prediction by ZEFSAII (Michael W. Deem and Ramdas Pophale) SiO2 
 PCOD8205353
Probable space group: P B A N
;
_chemical_formula_sum "Si O2"
_cell_formula_units_Z 54
_cell_length_a 16.984879
_cell_length_b 5.348029
_cell_length_c 25.213669
_cell_angle_alpha 90.000000
_cell_angle_beta 90.000000
_cell_angle_gamma 90.000000
_cell_volume 2290.299394
_symmetry_space_group_name_H-M "P B A N"
_symmetry_group_IT_number 50
_space_group.IT_coordinate_system_code '2'
_symmetry_cell_setting 'orthorhombic'
loop_
_space_group_symop_operation_xyz
x,y,z
1/2-x,1/2-y,z
x,1/2-y,-z
1/2-x,y,-z
-x,-y,-z
1/2+x,1/2+y,-z
-x,1/2+y,z
1/2+x,-y,z
loop_
_atom_site_type_symbol
_atom_site_label
_atom_site_fract_x
_atom_site_fract_y
_atom_site_fract_z
Si Si1 0.447971 0.750000 0.500000
Si Si2 0.296197 0.000362 0.906346
Si Si3 0.038392 0.453994 0.351903
Si Si4 0.671826 0.106936 0.581225
Si Si5 0.296953 0.499983 0.217934
Si Si6 0.031933 0.499338 0.940530
Si Si7 0.473063 0.977495 0.764367
Si Si8 0.750000 0.750000 0.500000
O O1 0.500000 0.500000 0.500000
O O2 0.392719 0.720112 0.447754
O O3 0.250000 0.250000 0.922521
O O4 0.316876 0.002541 0.844262
O O5 0.374420 0.999533 0.941011
O O6 0.250000 0.750000 0.921927
O O7 0.130912 0.482509 0.366894
O O8 0.008264 0.192438 0.376601
O O9 0.025689 0.449275 0.288807
O O10 0.750000 0.250000 0.600865
O O11 0.693053 0.906549 0.537035
O O12 0.250000 0.250000 0.234599
O O13 0.380364 0.503517 0.248334
O O14 0.250000 0.750000 0.233923
O O15 0.999751 0.748999 0.911062
O O16 0.000000 0.500000 0.000000
O O17 0.505428 0.221347 0.796249
#
# Coordination Sequence:
#
# PCOD8205353 Si02
#       8
#     4   8   8   8   8   8   8   2
#     4  12  24  40  65  93 122 160 198 244 300 352
#     4  10  21  38  60  90 126 163 210 266 330 382
#     4  10  24  45  66  92 130 167 208 247 301 371
#     4  12  25  43  66  96 129 164 206 256 303 364
#     4  10  21  38  65  98 128 163 206 264 324 381
#     4  10  21  38  56  83 123 168 220 268 317 384
#     4  10  21  41  66  93 130 166 210 249 309 383
#     4  12  24  44  68  96 132 154 210 250 314 346
#
# _framework density 23.577701999999999
#
# number of rings (size 3 to 8) (size 9 to 14) (size 15 to 20)
#    0.000    1.481    1.481    3.111    2.074    1.185 
#    0.000   17.778    0.000    0.000    0.000    0.000 
#    0.000    0.000    0.000    0.000    0.000    0.000 
#
# Total GULP energy -669320.114094 kJ/mol
# GULP energy per Si atom -12394.816928 kJ/mol
# Density = 2.352404 g / cm^3
# Si number density = 23.577702 Si / 1000 Ang^3
#
#
#
# Elastic Constant Matrix: (Units=GPa)
#
#
# Indices 1 2 3 4 5 6 
#
# 1 164.3913 74.0281 30.0988 0.0000 0.0000 0.0000
# 2 74.0281 238.0574 4.8130 0.0000 0.0000 0.0000
# 3 30.0988 4.8130 52.3666 0.0000 0.0000 0.0000
# 4 0.0000 0.0000 0.0000 60.9475 0.0000 0.0000
# 5 0.0000 0.0000 0.0000 0.0000 16.4057 0.0000
# 6 0.0000 0.0000 0.0000 0.0000 0.0000 44.9847
#
#
#
# Elastic Compliance Matrix: (Units=1/GPa)
#
#
# Indices 1 2 3 4 5 6 
#
# 1 0.007954 -0.002385 -0.004353 0.000000 0.000000 0.000000
# 2 -0.002385 0.004924 0.000919 0.000000 0.000000 0.000000
# 3 -0.004353 0.000919 0.021513 0.000000 0.000000 0.000000
# 4 0.000000 0.000000 0.000000 0.016408 0.000000 0.000000
# 5 0.000000 0.000000 0.000000 0.000000 0.060954 0.000000
# 6 0.000000 0.000000 0.000000 0.000000 0.000000 0.022230
#
#
# Mechanical properties :
#
#
# Convention : Reuss Voigt Hill
#
# Bulk Modulus (GPa) = 43.95121 74.74390 59.34755
# Shear Modulus (GPa) = 32.63571 47.52594 40.08083
#
# Velocity S-wave (km/s) = 3.72449 4.49454 4.12751
# Velocity P-wave (km/s) = 6.09731 7.66188 6.92393
#
# Compressibility (1/GPa) = 0.02275250
#
# Stress axis : x y z
#
# Youngs Moduli (GPa) = 125.71970 203.09074 46.48252
#
# Poissons Ratio (x) = 0.48447 0.20232
# Poissons Ratio (y) = 0.29990 -0.04270
# Poissons Ratio (z) = 0.54721 -0.18655
#
# Static dielectric constant tensor:
#      x y z
#    x 4.171410 0.000000 0.000000 
#    y 0.000000 4.700060 0.000000 
#    z 0.000000 0.000000 3.572860 
# 
# 
# High freq. dielectric constant tensor:
#      x y z
#    x 1.939740 0.000000 0.000000 
#    y 0.000000 1.964760 0.000000 
#    z 0.000000 0.000000 1.899140 
# 
# From -- ./inp_files/32543.got.cif
#   From: 2010.03.12/outbox.cif.g09.slc.cpg/sg50_17_cif.got.tgz:32543.got - 2010.04.16 13:23:21.
