data_PCOD8205139
_publ_section_title
;
Structure prediction by ZEFSAII (Michael W. Deem and Ramdas Pophale) SiO2 
 PCOD8205139
Probable space group: P B A N
;
_chemical_formula_sum "Si O2"
_cell_formula_units_Z 56
_cell_length_a 15.528464
_cell_length_b 20.030610
_cell_length_c 9.146471
_cell_angle_alpha 90.000000
_cell_angle_beta 90.000000
_cell_angle_gamma 90.000000
_cell_volume 2844.960471
_symmetry_space_group_name_H-M "P B A N"
_symmetry_group_IT_number 50
_space_group.IT_coordinate_system_code '2'
_symmetry_cell_setting 'orthorhombic'
loop_
_space_group_symop_operation_xyz
x,y,z
1/2-x,1/2-y,z
x,1/2-y,-z
1/2-x,y,-z
-x,-y,-z
1/2+x,1/2+y,-z
-x,1/2+y,z
1/2+x,-y,z
loop_
_atom_site_type_symbol
_atom_site_label
_atom_site_fract_x
_atom_site_fract_y
_atom_site_fract_z
Si Si1 0.983537 0.739901 0.162639
Si Si2 0.290399 0.185321 0.838710
Si Si3 0.925746 0.116134 0.176258
Si Si4 0.533203 0.513669 0.338181
Si Si5 0.728707 0.945001 0.667632
Si Si6 0.238689 0.924769 0.165054
Si Si7 0.942784 0.123844 0.837740
O O1 0.890116 0.705839 0.156365
O O2 0.043615 0.686483 0.245213
O O3 0.001382 0.813783 0.229888
O O4 0.019846 0.750000 0.000000
O O5 0.250000 0.250000 0.759026
O O6 0.268217 0.119127 0.749493
O O7 0.250000 0.176540 0.000000
O O8 0.824211 0.115601 0.204383
O O9 0.971445 0.057192 0.260953
O O10 0.959512 0.111317 0.009198
O O11 0.500000 0.500000 0.500000
O O12 0.625975 0.548753 0.319833
O O13 0.466809 0.559556 0.254268
O O14 0.750000 0.937126 0.500000
O O15 0.774319 0.010783 0.732101
O O16 0.160897 0.871741 0.183340
O O17 0.250000 0.952356 0.000000
#
# Coordination Sequence:
#
# PCOD8205139 Si02
#       7
#     8   8   8   8   8   8   8
#     4  10  20  36  60  90 117 153 195 242 299 349
#     4  11  22  38  60  84 119 156 197 240 296 363
#     4   9  21  36  60  87 119 150 196 243 294 356
#     4  11  23  38  58  86 118 158 201 248 297 347
#     4  11  24  38  58  86 120 158 197 246 299 352
#     4   9  19  38  59  90 117 152 193 241 298 350
#     4  10  20  37  62  86 118 153 197 243 296 358
#
# _framework density 19.683928000000002
#
# number of rings (size 3 to 8) (size 9 to 14) (size 15 to 20)
#    0.000    1.857    1.429    2.571    6.000    0.857 
#    0.000    3.571    0.000    0.000    0.000    3.000 
#    0.000    0.000    0.000    0.000    0.000    0.000 
#
# Total GULP energy -693807.269779 kJ/mol
# GULP energy per Si atom -12389.415532 kJ/mol
# Density = 1.963913 g / cm^3
# Si number density = 19.683928 Si / 1000 Ang^3
#
#
#
# Elastic Constant Matrix: (Units=GPa)
#
#
# Indices 1 2 3 4 5 6 
#
# 1 109.3094 79.9812 40.6306 0.0000 0.0000 0.0000
# 2 79.9812 139.0239 55.4823 0.0000 0.0000 0.0000
# 3 40.6306 55.4823 80.6668 0.0000 0.0000 0.0000
# 4 0.0000 0.0000 0.0000 -6.8976 0.0000 0.0000
# 5 0.0000 0.0000 0.0000 0.0000 21.1286 0.0000
# 6 0.0000 0.0000 0.0000 0.0000 0.0000 39.5107
#
#
#
# Elastic Compliance Matrix: (Units=1/GPa)
#
#
# Indices 1 2 3 4 5 6 
#
# 1 0.016129 -0.008321 -0.002401 0.000000 0.000000 0.000000
# 2 -0.008321 0.014207 -0.005580 0.000000 0.000000 0.000000
# 3 -0.002401 -0.005580 0.017444 0.000000 0.000000 0.000000
# 4 0.000000 0.000000 0.000000 -0.144978 0.000000 0.000000
# 5 0.000000 0.000000 0.000000 0.000000 0.047329 0.000000
# 6 0.000000 0.000000 0.000000 0.000000 0.000000 0.025310
#
#
# Mechanical properties :
#
#
# Convention : Reuss Voigt Hill
#
# Bulk Modulus (GPa) = 65.89417 75.68757 70.79087
# Shear Modulus (GPa) = 381.51338 20.94205 201.22772
#
# Velocity S-wave (km/s) = 13.93702 3.26531 10.12183
# Velocity P-wave (km/s) = 17.10369 7.26301 13.13940
#
# Compressibility (1/GPa) = 0.01517585
#
# Stress axis : x y z
#
# Youngs Moduli (GPa) = 61.99901 70.38635 57.32574
#
# Poissons Ratio (x) = 0.58570 0.13763
# Poissons Ratio (y) = 0.51590 0.31991
# Poissons Ratio (z) = 0.14885 0.39279
#
# Static dielectric constant tensor:
#      x y z
#    x 6.817370 0.000000 0.000000 
#    y 0.000000 3.868230 0.000000 
#    z 0.000000 0.000000 13.439300 
# 
# 
# High freq. dielectric constant tensor:
#      x y z
#    x 1.782540 0.000000 0.000000 
#    y 0.000000 1.775460 0.000000 
#    z 0.000000 0.000000 1.739790 
# 
# From -- ./inp_files/13269.got.cif
#   From: 2010.03.12/outbox.cif.g09.slc.cpg/sg50_7_cif.got.tgz:13269.got - 2010.04.16 13:23:21.
