data_PCOD8205723
_publ_section_title
;
Structure prediction by ZEFSAII (Michael W. Deem and Ramdas Pophale) SiO2 
 PCOD8205723
Probable space group: P B A N
;
_chemical_formula_sum "Si O2"
_cell_formula_units_Z 58
_cell_length_a 26.536697
_cell_length_b 8.551388
_cell_length_c 10.564979
_cell_angle_alpha 90.000000
_cell_angle_beta 90.000000
_cell_angle_gamma 90.000000
_cell_volume 2397.464117
_symmetry_space_group_name_H-M "P B A N"
_symmetry_group_IT_number 50
_space_group.IT_coordinate_system_code '2'
_symmetry_cell_setting 'orthorhombic'
loop_
_space_group_symop_operation_xyz
x,y,z
1/2-x,1/2-y,z
x,1/2-y,-z
1/2-x,y,-z
-x,-y,-z
1/2+x,1/2+y,-z
-x,1/2+y,z
1/2+x,-y,z
loop_
_atom_site_type_symbol
_atom_site_label
_atom_site_fract_x
_atom_site_fract_y
_atom_site_fract_z
Si Si1 0.417586 0.421877 0.980199
Si Si2 0.891200 0.622598 0.592853
Si Si3 0.433358 0.919553 0.757935
Si Si4 0.826702 0.674252 0.825945
Si Si5 0.337667 0.904567 0.579782
Si Si6 0.532621 0.424466 0.255212
Si Si7 0.250000 0.750000 0.000000
Si Si8 0.274992 0.003728 0.809965
O O1 0.359702 0.401704 0.936797
O O2 0.454148 0.502393 0.880246
O O3 0.441485 0.250000 0.000000
O O4 0.412946 0.525855 0.106176
O O5 0.917030 0.750000 0.500000
O O6 0.865425 0.708589 0.711323
O O7 0.844672 0.542620 0.520358
O O8 0.931905 0.493499 0.634503
O O9 0.388287 0.893158 0.661618
O O10 0.463035 0.758376 0.763098
O O11 0.474289 0.045333 0.708729
O O12 0.783833 0.547463 0.794984
O O13 0.804085 0.843363 0.862057
O O14 0.325731 0.750000 0.500000
O O15 0.291464 0.945006 0.671868
O O16 0.216473 0.636811 0.910351
#
# Coordination Sequence:
#
# PCOD8205723 Si02
#       8
#     8   8   8   8   8   8   2   8
#     4  11  24  44  75 105 146 194 250 311 373 451
#     4  11  24  48  76 107 144 194 253 306 369 444
#     4  12  26  45  73 108 150 202 246 313 375 449
#     4  10  25  49  77 109 141 200 248 307 369 446
#     4  12  27  50  72 109 152 195 251 310 377 440
#     4  11  26  46  72 109 150 194 253 306 379 446
#     4  12  32  46  74 112 144 190 244 306 380 442
#     4  11  27  51  75 108 149 191 249 305 376 447
#
# _framework density 24.192231
#
# number of rings (size 3 to 8) (size 9 to 14) (size 15 to 20)
#    0.000    0.828    2.759    2.483    9.655    2.207 
#    0.000    0.000    0.000    0.000    0.000    0.000 
#    0.000    0.000    0.000    0.000    0.000    0.000 
#
# Total GULP energy -719311.035953 kJ/mol
# GULP energy per Si atom -12401.914413 kJ/mol
# Density = 2.413717 g / cm^3
# Si number density = 24.192231 Si / 1000 Ang^3
#
#
#
# Elastic Constant Matrix: (Units=GPa)
#
#
# Indices 1 2 3 4 5 6 
#
# 1 93.8793 25.1670 31.1075 0.0000 0.0000 0.0000
# 2 25.1670 138.0277 48.2348 0.0000 0.0000 0.0000
# 3 31.1075 48.2348 113.1461 0.0000 0.0000 0.0000
# 4 0.0000 0.0000 0.0000 43.2919 0.0000 0.0000
# 5 0.0000 0.0000 0.0000 0.0000 20.8827 0.0000
# 6 0.0000 0.0000 0.0000 0.0000 0.0000 37.4541
#
#
#
# Elastic Compliance Matrix: (Units=1/GPa)
#
#
# Indices 1 2 3 4 5 6 
#
# 1 0.011888 -0.001205 -0.002755 0.000000 0.000000 0.000000
# 2 -0.001205 0.008635 -0.003350 0.000000 0.000000 0.000000
# 3 -0.002755 -0.003350 0.011024 0.000000 0.000000 0.000000
# 4 0.000000 0.000000 0.000000 0.023099 0.000000 0.000000
# 5 0.000000 0.000000 0.000000 0.000000 0.047887 0.000000
# 6 0.000000 0.000000 0.000000 0.000000 0.000000 0.026699
#
#
# Mechanical properties :
#
#
# Convention : Reuss Voigt Hill
#
# Bulk Modulus (GPa) = 59.07543 61.56351 60.31947
# Shear Modulus (GPa) = 33.44631 36.36199 34.90415
#
# Velocity S-wave (km/s) = 3.72226 3.88112 3.80252
# Velocity P-wave (km/s) = 6.55331 6.75181 6.65330
#
# Compressibility (1/GPa) = 0.01692751
#
# Stress axis : x y z
#
# Youngs Moduli (GPa) = 84.12019 115.80382 90.71444
#
# Poissons Ratio (x) = 0.13953 0.24989
# Poissons Ratio (y) = 0.10136 0.30389
# Poissons Ratio (z) = 0.23172 0.38794
#
# Static dielectric constant tensor:
#      x y z
#    x 4.260190 0.000000 0.000000 
#    y 0.000000 4.576250 0.000000 
#    z 0.000000 0.000000 4.571890 
# 
# 
# High freq. dielectric constant tensor:
#      x y z
#    x 1.957020 0.000000 0.000000 
#    y 0.000000 1.971970 0.000000 
#    z 0.000000 0.000000 1.973410 
# 
# From -- ./inp_files/23176.got.cif
#   From: 2010.03.12/outbox.cif.g09.slc.cpg/sg50_12_cif.got.tgz:23176.got - 2010.04.16 13:23:21.
