data_PCOD8205120
_publ_section_title
;
Structure prediction by ZEFSAII (Michael W. Deem and Ramdas Pophale) SiO2 
 PCOD8205120
Probable space group: P B A N
;
_chemical_formula_sum "Si O2"
_cell_formula_units_Z 64
_cell_length_a 9.691597
_cell_length_b 14.424807
_cell_length_c 21.885243
_cell_angle_alpha 90.000000
_cell_angle_beta 90.000000
_cell_angle_gamma 90.000000
_cell_volume 3059.544196
_symmetry_space_group_name_H-M "P B A N"
_symmetry_group_IT_number 50
_space_group.IT_coordinate_system_code '2'
_symmetry_cell_setting 'orthorhombic'
loop_
_space_group_symop_operation_xyz
x,y,z
1/2-x,1/2-y,z
x,1/2-y,-z
1/2-x,y,-z
-x,-y,-z
1/2+x,1/2+y,-z
-x,1/2+y,z
1/2+x,-y,z
loop_
_atom_site_type_symbol
_atom_site_label
_atom_site_fract_x
_atom_site_fract_y
_atom_site_fract_z
Si Si1 0.401503 0.721936 0.930512
Si Si2 0.159040 0.163491 0.741692
Si Si3 0.630779 0.324122 0.682781
Si Si4 0.735767 0.985180 0.647763
Si Si5 0.591463 0.267578 0.435951
Si Si6 0.352582 0.170382 0.117490
Si Si7 0.995378 0.967844 0.570151
Si Si8 0.124870 0.981099 0.956716
O O1 0.250000 0.750000 0.911068
O O2 0.497693 0.782972 0.886698
O O3 0.415591 0.610903 0.917728
O O4 0.437442 0.750000 0.000000
O O5 0.250000 0.250000 0.719629
O O6 0.231825 0.080050 0.706260
O O7 0.182844 0.145979 0.813096
O O8 0.993224 0.172586 0.731711
O O9 0.750000 0.250000 0.700193
O O10 0.717352 0.417476 0.675682
O O11 0.548728 0.299471 0.619484
O O12 0.839928 0.957843 0.593231
O O13 0.585294 0.970287 0.616664
O O14 0.750000 0.250000 0.448054
O O15 0.509343 0.250000 0.500000
O O16 0.573600 0.372692 0.418595
O O17 0.250000 0.250000 0.090834
O O18 0.338847 0.072545 0.082241
O O19 0.000000 0.000000 0.500000
O O20 0.250000 0.951294 0.000000
O O21 0.000000 0.000000 0.000000
#
# Coordination Sequence:
#
# PCOD8205120 Si02
#       8
#     8   8   8   8   8   8   8   8
#     4  11  21  42  67 101 143 177 225 287 348 406
#     4  11  27  49  68  97 141 187 238 291 344 413
#     4  11  22  44  72  95 126 185 231 279 354 412
#     4  12  24  46  69  98 137 178 231 288 349 423
#     4  10  20  35  63  95 128 164 216 274 342 419
#     4  11  26  46  67 102 141 189 233 286 348 421
#     4  12  24  40  68 104 135 173 224 291 359 420
#     4  12  22  39  69 103 136 181 225 278 350 413
#
# _framework density 20.918147000000001
#
# number of rings (size 3 to 8) (size 9 to 14) (size 15 to 20)
#    0.000    0.750    6.250    2.625    1.750    0.500 
#   11.250    0.000    0.000    0.000    0.000    0.000 
#    0.000    0.000    0.000    0.000    0.000    0.000 
#
# Total GULP energy -793131.622591 kJ/mol
# GULP energy per Si atom -12392.681603 kJ/mol
# Density = 2.087054 g / cm^3
# Si number density = 20.918147 Si / 1000 Ang^3
#
#
#
# Elastic Constant Matrix: (Units=GPa)
#
#
# Indices 1 2 3 4 5 6 
#
# 1 86.1277 23.6487 20.7390 0.0000 0.0000 0.0000
# 2 23.6487 156.3522 45.3264 0.0000 0.0000 0.0000
# 3 20.7390 45.3264 80.1336 0.0000 0.0000 0.0000
# 4 0.0000 0.0000 0.0000 32.9585 0.0000 0.0000
# 5 0.0000 0.0000 0.0000 0.0000 31.4599 0.0000
# 6 0.0000 0.0000 0.0000 0.0000 0.0000 33.8291
#
#
#
# Elastic Compliance Matrix: (Units=1/GPa)
#
#
# Indices 1 2 3 4 5 6 
#
# 1 0.012551 -0.001144 -0.002601 0.000000 0.000000 0.000000
# 2 -0.001144 0.007755 -0.004090 0.000000 0.000000 0.000000
# 3 -0.002601 -0.004090 0.015466 0.000000 0.000000 0.000000
# 4 0.000000 0.000000 0.000000 0.030341 0.000000 0.000000
# 5 0.000000 0.000000 0.000000 0.000000 0.031787 0.000000
# 6 0.000000 0.000000 0.000000 0.000000 0.000000 0.029560
#
#
# Mechanical properties :
#
#
# Convention : Reuss Voigt Hill
#
# Bulk Modulus (GPa) = 49.74965 55.78239 52.76602
# Shear Modulus (GPa) = 33.37095 35.17613 34.27354
#
# Velocity S-wave (km/s) = 3.99847 4.10519 4.05218
# Velocity P-wave (km/s) = 6.71950 7.01391 6.86828
#
# Compressibility (1/GPa) = 0.02010064
#
# Stress axis : x y z
#
# Youngs Moduli (GPa) = 79.67368 128.95524 64.65861
#
# Poissons Ratio (x) = 0.14757 0.16818
# Poissons Ratio (y) = 0.09118 0.26446
# Poissons Ratio (z) = 0.20723 0.52744
#
# Static dielectric constant tensor:
#      x y z
#    x 3.769250 0.000000 0.000000 
#    y 0.000000 4.024430 0.000000 
#    z 0.000000 0.000000 3.839670 
# 
# 
# High freq. dielectric constant tensor:
#      x y z
#    x 1.823770 0.000000 0.000000 
#    y 0.000000 1.836750 0.000000 
#    z 0.000000 0.000000 1.804860 
# 
# From -- ./inp_files/31624.got.cif
#   From: 2010.03.12/outbox.cif.g09.slc.cpg/sg50_16_cif.got.tgz:31624.got - 2010.04.16 13:23:21.
