data_PCOD8205856
_publ_section_title
;
Structure prediction by ZEFSAII (Michael W. Deem and Ramdas Pophale) SiO2 
 PCOD8205856
Probable space group: P B A N
;
_chemical_formula_sum "Si O2"
_cell_formula_units_Z 24
_cell_length_a 10.455882
_cell_length_b 8.567119
_cell_length_c 12.256746
_cell_angle_alpha 90.000000
_cell_angle_beta 90.000000
_cell_angle_gamma 90.000000
_cell_volume 1097.919905
_symmetry_space_group_name_H-M "P B A N"
_symmetry_group_IT_number 50
_space_group.IT_coordinate_system_code '2'
_symmetry_cell_setting 'orthorhombic'
loop_
_space_group_symop_operation_xyz
x,y,z
1/2-x,1/2-y,z
x,1/2-y,-z
1/2-x,y,-z
-x,-y,-z
1/2+x,1/2+y,-z
-x,1/2+y,z
1/2+x,-y,z
loop_
_atom_site_type_symbol
_atom_site_label
_atom_site_fract_x
_atom_site_fract_y
_atom_site_fract_z
Si Si1 0.125560 0.853021 0.203885
Si Si2 0.384087 0.186103 0.879050
Si Si3 0.123914 0.578354 0.546440
O O1 0.250000 0.750000 0.177451
O O2 0.129796 0.926209 0.323598
O O3 0.000495 0.745059 0.195411
O O4 0.119022 0.997520 0.119457
O O5 0.250000 0.250000 0.830957
O O6 0.405472 0.250000 0.000000
O O7 0.125081 0.750000 0.500000
O O8 0.250000 0.490171 0.500000
O O9 0.000000 0.500000 0.500000
#
# Coordination Sequence:
#
# PCOD8205856 Si02
#       3
#     8   8   8
#     4  12  24  45  73 101 144 187 234 295 354 422
#     4  11  26  45  69 103 139 184 242 290 356 420
#     4  11  24  44  66 103 144 178 234 282 347 423
#
# _framework density 21.859515999999999
#
# number of rings (size 3 to 8) (size 9 to 14) (size 15 to 20)
#    0.000    0.667    3.333    5.000    4.667    4.000 
#    0.000    0.000    0.000    0.000    0.000    0.000 
#    0.000    0.000    0.000    0.000    0.000    0.000 
#
# Total GULP energy -297685.881016 kJ/mol
# GULP energy per Si atom -12403.578376 kJ/mol
# Density = 2.180976 g / cm^3
# Si number density = 21.859516 Si / 1000 Ang^3
#
#
#
# Elastic Constant Matrix: (Units=GPa)
#
#
# Indices 1 2 3 4 5 6 
#
# 1 237.8902 67.9683 45.4538 0.0000 0.0000 0.0000
# 2 67.9683 129.9085 38.0902 0.0000 0.0000 0.0000
# 3 45.4538 38.0902 119.9797 0.0000 0.0000 0.0000
# 4 0.0000 0.0000 0.0000 32.4672 0.0000 0.0000
# 5 0.0000 0.0000 0.0000 0.0000 15.6291 0.0000
# 6 0.0000 0.0000 0.0000 0.0000 0.0000 37.6056
#
#
#
# Elastic Compliance Matrix: (Units=1/GPa)
#
#
# Indices 1 2 3 4 5 6 
#
# 1 0.005093 -0.002314 -0.001195 0.000000 0.000000 0.000000
# 2 -0.002314 0.009540 -0.002152 0.000000 0.000000 0.000000
# 3 -0.001195 -0.002152 0.009470 0.000000 0.000000 0.000000
# 4 0.000000 0.000000 0.000000 0.030800 0.000000 0.000000
# 5 0.000000 0.000000 0.000000 0.000000 0.063983 0.000000
# 6 0.000000 0.000000 0.000000 0.000000 0.000000 0.026592
#
#
# Mechanical properties :
#
#
# Convention : Reuss Voigt Hill
#
# Bulk Modulus (GPa) = 78.23892 87.86699 83.05296
# Shear Modulus (GPa) = 31.04419 39.55813 35.30116
#
# Velocity S-wave (km/s) = 3.77260 4.25862 4.02295
# Velocity P-wave (km/s) = 7.40581 8.02898 7.72369
#
# Compressibility (1/GPa) = 0.01278136
#
# Stress axis : x y z
#
# Youngs Moduli (GPa) = 196.34148 104.82684 105.59122
#
# Poissons Ratio (x) = 0.24262 0.12616
# Poissons Ratio (y) = 0.45442 0.22720
# Poissons Ratio (z) = 0.23458 0.22556
#
# Static dielectric constant tensor:
#      x y z
#    x 4.710890 0.000000 0.000000 
#    y 0.000000 3.963290 0.000000 
#    z 0.000000 0.000000 3.858170 
# 
# 
# High freq. dielectric constant tensor:
#      x y z
#    x 1.889800 0.000000 0.000000 
#    y 0.000000 1.858700 0.000000 
#    z 0.000000 0.000000 1.858030 
# 
# From -- ./inp_files/19607.got.cif
#   From: 2010.03.12/outbox.cif.g09.slc.cpg/sg50_10_cif.got.tgz:19607.got - 2010.04.16 13:23:21.
