data_PCOD8205505
_publ_section_title
;
Structure prediction by ZEFSAII (Michael W. Deem and Ramdas Pophale) SiO2 
 PCOD8205505
Probable space group: P B A N
;
_chemical_formula_sum "Si O2"
_cell_formula_units_Z 36
_cell_length_a 8.505099
_cell_length_b 13.006093
_cell_length_c 14.067782
_cell_angle_alpha 90.000000
_cell_angle_beta 90.000000
_cell_angle_gamma 90.000000
_cell_volume 1556.151437
_symmetry_space_group_name_H-M "P B A N"
_symmetry_group_IT_number 50
_space_group.IT_coordinate_system_code '2'
_symmetry_cell_setting 'orthorhombic'
loop_
_space_group_symop_operation_xyz
x,y,z
1/2-x,1/2-y,z
x,1/2-y,-z
1/2-x,y,-z
-x,-y,-z
1/2+x,1/2+y,-z
-x,1/2+y,z
1/2+x,-y,z
loop_
_atom_site_type_symbol
_atom_site_label
_atom_site_fract_x
_atom_site_fract_y
_atom_site_fract_z
Si Si1 0.400067 0.909878 0.123704
Si Si2 0.547286 0.378273 0.913876
Si Si3 0.750000 0.992676 0.500000
Si Si4 0.009930 0.653624 0.572969
Si Si5 0.431412 0.239881 0.759709
O O1 0.214480 0.895159 0.138007
O O2 0.498223 0.874129 0.218540
O O3 0.431172 0.028304 0.106521
O O4 0.443639 0.851842 0.025213
O O5 0.462104 0.285104 0.863159
O O6 0.648470 0.070080 0.435714
O O7 0.648266 0.914202 0.563854
O O8 0.017751 0.750000 0.500000
O O9 0.026680 0.703772 0.676494
O O10 0.250000 0.250000 0.731105
#
# Coordination Sequence:
#
# PCOD8205505 Si02
#       5
#     8   8   4   8   8
#     4  10  22  41  62  90 127 170 218 273 329 394
#     4  10  22  40  63  90 127 170 218 271 330 397
#     4  10  24  46  72  94 130 176 218 274 342 404
#     4  11  25  46  69  98 132 171 220 277 337 405
#     4  12  25  39  63  94 129 170 214 268 329 396
#
# _framework density 23.133994000000001
#
# number of rings (size 3 to 8) (size 9 to 14) (size 15 to 20)
#    0.000    1.333    0.000    4.667    0.000   16.000 
#    0.000    0.000    0.000    0.000    0.000    0.000 
#    0.000    0.000    0.000    0.000    0.000    0.000 
#
# Total GULP energy -446085.310727 kJ/mol
# GULP energy per Si atom -12391.258631 kJ/mol
# Density = 2.308134 g / cm^3
# Si number density = 23.133994 Si / 1000 Ang^3
#
#
#
# Elastic Constant Matrix: (Units=GPa)
#
#
# Indices 1 2 3 4 5 6 
#
# 1 78.6213 19.8319 24.2011 0.0000 0.0000 0.0000
# 2 19.8319 82.2829 36.4247 0.0000 0.0000 0.0000
# 3 24.2011 36.4247 92.4648 0.0000 0.0000 0.0000
# 4 0.0000 0.0000 0.0000 47.1656 0.0000 0.0000
# 5 0.0000 0.0000 0.0000 0.0000 19.2661 0.0000
# 6 0.0000 0.0000 0.0000 0.0000 0.0000 39.8694
#
#
#
# Elastic Compliance Matrix: (Units=1/GPa)
#
#
# Indices 1 2 3 4 5 6 
#
# 1 0.014139 -0.002143 -0.002856 0.000000 0.000000 0.000000
# 2 -0.002143 0.015045 -0.005366 0.000000 0.000000 0.000000
# 3 -0.002856 -0.005366 0.013676 0.000000 0.000000 0.000000
# 4 0.000000 0.000000 0.000000 0.021202 0.000000 0.000000
# 5 0.000000 0.000000 0.000000 0.000000 0.051905 0.000000
# 6 0.000000 0.000000 0.000000 0.000000 0.000000 0.025082
#
#
# Mechanical properties :
#
#
# Convention : Reuss Voigt Hill
#
# Bulk Modulus (GPa) = 45.18847 46.03162 45.61004
# Shear Modulus (GPa) = 29.55847 32.78763 31.17305
#
# Velocity S-wave (km/s) = 3.57838 3.76878 3.67481
# Velocity P-wave (km/s) = 6.05383 6.23532 6.14525
#
# Compressibility (1/GPa) = 0.02212954
#
# Stress axis : x y z
#
# Youngs Moduli (GPa) = 70.72593 66.46696 73.11948
#
# Poissons Ratio (x) = 0.14246 0.20885
# Poissons Ratio (y) = 0.15159 0.39234
# Poissons Ratio (z) = 0.20202 0.35664
#
# Static dielectric constant tensor:
#      x y z
#    x 4.328830 0.000000 0.000000 
#    y 0.000000 4.393640 0.000000 
#    z 0.000000 0.000000 5.724350 
# 
# 
# High freq. dielectric constant tensor:
#      x y z
#    x 1.916410 0.000000 0.000000 
#    y 0.000000 1.934660 0.000000 
#    z 0.000000 0.000000 1.901510 
# 
# From -- ./inp_files/24561.got.cif
#   From: 2010.03.12/outbox.cif.g09.slc.cpg/sg50_13_cif.got.tgz:24561.got - 2010.04.16 13:23:21.
