data_PCOD8205181
_publ_section_title
;
Structure prediction by ZEFSAII (Michael W. Deem and Ramdas Pophale) SiO2 
 PCOD8205181
Probable space group: P B A N
;
_chemical_formula_sum "Si O2"
_cell_formula_units_Z 30
_cell_length_a 7.145990
_cell_length_b 28.830034
_cell_length_c 6.344849
_cell_angle_alpha 90.000000
_cell_angle_beta 90.000000
_cell_angle_gamma 90.000000
_cell_volume 1307.160301
_symmetry_space_group_name_H-M "P B A N"
_symmetry_group_IT_number 50
_space_group.IT_coordinate_system_code '2'
_symmetry_cell_setting 'orthorhombic'
loop_
_space_group_symop_operation_xyz
x,y,z
1/2-x,1/2-y,z
x,1/2-y,-z
1/2-x,y,-z
-x,-y,-z
1/2+x,1/2+y,-z
-x,1/2+y,z
1/2+x,-y,z
loop_
_atom_site_type_symbol
_atom_site_label
_atom_site_fract_x
_atom_site_fract_y
_atom_site_fract_z
Si Si1 0.945116 0.938920 0.775527
Si Si2 0.750000 0.250000 0.500000
Si Si3 0.615285 0.175975 0.193169
Si Si4 0.250000 0.988724 0.000000
Si Si5 0.750000 0.401781 0.500000
Si Si6 0.750000 0.641027 0.000000
O O1 0.071604 0.934065 0.565112
O O2 0.785080 0.979224 0.787455
O O3 0.852511 0.889430 0.821599
O O4 0.076038 0.954426 0.970453
O O5 0.616144 0.218024 0.358330
O O6 0.687560 0.128583 0.300406
O O7 0.750000 0.188029 0.000000
O O8 0.402068 0.172734 0.115920
#
# Coordination Sequence:
#
# PCOD8205181 Si02
#       6
#     8   2   8   4   4   4
#     4  10  20  37  62  99 134 188 232 289 331 409
#     4  10  26  48  78 102 140 166 222 272 350 418
#     4  11  23  47  73 103 138 179 213 285 343 411
#     4   9  20  38  60  91 150 186 228 293 368 360
#     4  11  22  39  72 100 134 182 246 278 330 407
#     4  11  22  42  77  97 138 186 226 271 352 401
#
# _framework density 22.950513999999998
#
# number of rings (size 3 to 8) (size 9 to 14) (size 15 to 20)
#    0.000    1.600    2.667    2.000    0.000    2.133 
#    0.000    4.000    0.000    0.000    0.000    0.000 
#    0.000    0.000    0.000    0.000    0.000    0.000 
#
# Total GULP energy -371805.317668 kJ/mol
# GULP energy per Si atom -12393.510589 kJ/mol
# Density = 2.289828 g / cm^3
# Si number density = 22.950514 Si / 1000 Ang^3
#
#
#
# Elastic Constant Matrix: (Units=GPa)
#
#
# Indices 1 2 3 4 5 6 
#
# 1 159.1528 57.5987 57.7358 0.0000 0.0000 0.0000
# 2 57.5987 90.2405 48.9034 0.0000 0.0000 0.0000
# 3 57.7358 48.9034 106.0399 0.0000 0.0000 0.0000
# 4 0.0000 0.0000 0.0000 23.9836 0.0000 0.0000
# 5 0.0000 0.0000 0.0000 0.0000 54.4008 0.0000
# 6 0.0000 0.0000 0.0000 0.0000 0.0000 12.2499
#
#
#
# Elastic Compliance Matrix: (Units=1/GPa)
#
#
# Indices 1 2 3 4 5 6 
#
# 1 0.008807 -0.004030 -0.002937 0.000000 0.000000 0.000000
# 2 -0.004030 0.016618 -0.005470 0.000000 0.000000 0.000000
# 3 -0.002937 -0.005470 0.013552 0.000000 0.000000 0.000000
# 4 0.000000 0.000000 0.000000 0.041695 0.000000 0.000000
# 5 0.000000 0.000000 0.000000 0.000000 0.018382 0.000000
# 6 0.000000 0.000000 0.000000 0.000000 0.000000 0.081633
#
#
# Mechanical properties :
#
#
# Convention : Reuss Voigt Hill
#
# Bulk Modulus (GPa) = 70.90045 75.98986 73.44516
# Shear Modulus (GPa) = 23.77994 30.87322 27.32658
#
# Velocity S-wave (km/s) = 3.22240 3.67169 3.45436
# Velocity P-wave (km/s) = 6.69365 7.15243 6.92684
#
# Compressibility (1/GPa) = 0.01410428
#
# Stress axis : x y z
#
# Youngs Moduli (GPa) = 113.54517 60.17634 73.79075
#
# Poissons Ratio (x) = 0.24251 0.21670
# Poissons Ratio (y) = 0.45758 0.40361
# Poissons Ratio (z) = 0.33345 0.32914
#
# Static dielectric constant tensor:
#      x y z
#    x 4.376710 0.000000 0.000000 
#    y 0.000000 4.153900 0.000000 
#    z 0.000000 0.000000 3.893740 
# 
# 
# High freq. dielectric constant tensor:
#      x y z
#    x 1.916280 0.000000 0.000000 
#    y 0.000000 1.901380 0.000000 
#    z 0.000000 0.000000 1.885840 
# 
# From -- ./inp_files/1193.got.cif
#   From: 2010.03.12/outbox.cif.g09.slc.cpg/sg50_1_cif.got.tgz:1193.got - 2010.04.16 13:23:21.
