data_PCOD8205904
_publ_section_title
;
Structure prediction by ZEFSAII (Michael W. Deem and Ramdas Pophale) SiO2 
 PCOD8205904
Probable space group: P B A N
;
_chemical_formula_sum "Si O2"
_cell_formula_units_Z 26
_cell_length_a 15.752201
_cell_length_b 14.477599
_cell_length_c 4.901259
_cell_angle_alpha 90.000000
_cell_angle_beta 90.000000
_cell_angle_gamma 90.000000
_cell_volume 1117.751962
_symmetry_space_group_name_H-M "P B A N"
_symmetry_group_IT_number 50
_space_group.IT_coordinate_system_code '2'
_symmetry_cell_setting 'orthorhombic'
loop_
_space_group_symop_operation_xyz
x,y,z
1/2-x,1/2-y,z
x,1/2-y,-z
1/2-x,y,-z
-x,-y,-z
1/2+x,1/2+y,-z
-x,1/2+y,z
1/2+x,-y,z
loop_
_atom_site_type_symbol
_atom_site_label
_atom_site_fract_x
_atom_site_fract_y
_atom_site_fract_z
Si Si1 0.342349 0.012540 0.630784
Si Si2 0.554119 0.690091 0.761368
Si Si3 0.750000 0.250000 0.000000
Si Si4 0.120240 0.606413 0.149901
O O1 0.250000 0.021854 0.500000
O O2 0.380198 0.113786 0.660848
O O3 0.396903 0.950064 0.426013
O O4 0.343488 0.961552 0.919643
O O5 0.526531 0.750000 0.500000
O O6 0.471754 0.648150 0.915777
O O7 0.599380 0.750000 0.000000
O O8 0.810249 0.312514 0.806723
#
# Coordination Sequence:
#
# PCOD8205904 Si02
#       4
#     8   8   2   8
#     4  12  25  46  69 102 142 191 235 299 360 426
#     4  12  26  45  72 103 143 193 245 293 353 434
#     4  12  24  42  76 106 142 180 236 314 356 438
#     4  12  25  44  70 104 145 181 237 298 372 424
#
# _framework density 23.260974000000001
#
# number of rings (size 3 to 8) (size 9 to 14) (size 15 to 20)
#    0.000    0.000    4.615    5.538    0.000    1.846 
#    0.000    1.538    0.000    0.000    0.000    0.000 
#    0.000    0.000    0.000    0.000    0.000    0.000 
#
# Total GULP energy -322494.599115 kJ/mol
# GULP energy per Si atom -12403.638428 kJ/mol
# Density = 2.320803 g / cm^3
# Si number density = 23.260974 Si / 1000 Ang^3
#
#
#
# Elastic Constant Matrix: (Units=GPa)
#
#
# Indices 1 2 3 4 5 6 
#
# 1 77.7138 50.5143 18.2164 0.0000 0.0000 0.0000
# 2 50.5143 146.3373 46.6559 0.0000 0.0000 0.0000
# 3 18.2164 46.6559 94.1476 0.0000 0.0000 0.0000
# 4 0.0000 0.0000 0.0000 45.4594 0.0000 0.0000
# 5 0.0000 0.0000 0.0000 0.0000 30.1832 0.0000
# 6 0.0000 0.0000 0.0000 0.0000 0.0000 81.6789
#
#
#
# Elastic Compliance Matrix: (Units=1/GPa)
#
#
# Indices 1 2 3 4 5 6 
#
# 1 0.016606 -0.005591 -0.000442 0.000000 0.000000 0.000000
# 2 -0.005591 0.009998 -0.003873 0.000000 0.000000 0.000000
# 3 -0.000442 -0.003873 0.012626 0.000000 0.000000 0.000000
# 4 0.000000 0.000000 0.000000 0.021998 0.000000 0.000000
# 5 0.000000 0.000000 0.000000 0.000000 0.033131 0.000000
# 6 0.000000 0.000000 0.000000 0.000000 0.000000 0.012243
#
#
# Mechanical properties :
#
#
# Convention : Reuss Voigt Hill
#
# Bulk Modulus (GPa) = 51.49914 60.99686 56.24800
# Shear Modulus (GPa) = 37.62583 44.98511 41.30547
#
# Velocity S-wave (km/s) = 4.02624 4.40242 4.21853
# Velocity P-wave (km/s) = 6.61831 7.21952 6.92544
#
# Compressibility (1/GPa) = 0.01941780
#
# Stress axis : x y z
#
# Youngs Moduli (GPa) = 60.22050 100.01670 79.19857
#
# Poissons Ratio (x) = 0.55920 0.03502
# Poissons Ratio (y) = 0.33670 0.30673
# Poissons Ratio (z) = 0.02663 0.38736
#
# Static dielectric constant tensor:
#      x y z
#    x 4.087130 0.000000 0.000000 
#    y 0.000000 4.510130 0.000000 
#    z 0.000000 0.000000 -7.422730 
# 
# 
# High freq. dielectric constant tensor:
#      x y z
#    x 1.915250 0.000000 0.000000 
#    y 0.000000 1.936810 0.000000 
#    z 0.000000 0.000000 1.925970 
# 
# From -- ./inp_files/3901.got.cif
#   From: 2010.03.12/outbox.cif.g09.slc.cpg/sg50_2_cif.got.tgz:3901.got - 2010.04.16 13:23:21.
