data_PCOD8205022
_publ_section_title
;
Structure prediction by ZEFSAII (Michael W. Deem and Ramdas Pophale) SiO2 
 PCOD8205022
Probable space group: P B A N
;
_chemical_formula_sum "Si O2"
_cell_formula_units_Z 56
_cell_length_a 15.616083
_cell_length_b 19.749061
_cell_length_c 8.359134
_cell_angle_alpha 90.000000
_cell_angle_beta 90.000000
_cell_angle_gamma 90.000000
_cell_volume 2577.981800
_symmetry_space_group_name_H-M "P B A N"
_symmetry_group_IT_number 50
_space_group.IT_coordinate_system_code '2'
_symmetry_cell_setting 'orthorhombic'
loop_
_space_group_symop_operation_xyz
x,y,z
1/2-x,1/2-y,z
x,1/2-y,-z
1/2-x,y,-z
-x,-y,-z
1/2+x,1/2+y,-z
-x,1/2+y,z
1/2+x,-y,z
loop_
_atom_site_type_symbol
_atom_site_label
_atom_site_fract_x
_atom_site_fract_y
_atom_site_fract_z
Si Si1 0.018632 0.016615 0.820131
Si Si2 0.289196 0.044763 0.173937
Si Si3 0.594256 0.133160 0.159431
Si Si4 0.265011 0.600365 0.683476
Si Si5 0.789555 0.814958 0.321790
Si Si6 0.541976 0.758073 0.814386
Si Si7 0.554723 0.127022 0.788008
O O1 0.109453 0.054164 0.821900
O O2 0.948815 0.068716 0.747909
O O3 0.017680 0.945321 0.724110
O O4 0.000000 0.000000 0.000000
O O5 0.255045 0.115540 0.245120
O O6 0.264219 0.979521 0.277019
O O7 0.250000 0.033738 0.000000
O O8 0.693186 0.137633 0.208972
O O9 0.547680 0.202754 0.202172
O O10 0.580182 0.120334 0.973004
O O11 0.250000 0.610271 0.500000
O O12 0.354165 0.639693 0.706397
O O13 0.750000 0.750000 0.229172
O O14 0.750000 0.815159 0.500000
O O15 0.891144 0.798754 0.299157
O O16 0.517503 0.683127 0.748755
O O17 0.572623 0.750000 0.000000
#
# Coordination Sequence:
#
# PCOD8205022 Si02
#       7
#     8   8   8   8   8   8   8
#     4   9  17  33  60  93 123 159 213 277 327 370
#     4  11  22  39  68  95 129 170 222 278 324 391
#     4  10  19  38  65  91 128 165 221 280 326 384
#     4  11  23  41  61  97 134 174 214 268 337 408
#     4  11  26  44  61  95 139 174 209 268 336 399
#     4  10  22  41  69  97 128 172 227 279 323 388
#     4   9  20  38  63  96 127 169 223 275 328 382
#
# _framework density 21.72242
#
# number of rings (size 3 to 8) (size 9 to 14) (size 15 to 20)
#    0.000    1.857    1.429    3.429    2.000    1.714 
#    5.143    5.714    0.000    0.000    0.000    0.000 
#    0.000    0.000    0.000    0.000    0.000    0.000 
#
# Total GULP energy -693761.015076 kJ/mol
# GULP energy per Si atom -12388.589555 kJ/mol
# Density = 2.167298 g / cm^3
# Si number density = 21.722420 Si / 1000 Ang^3
#
#
#
# Elastic Constant Matrix: (Units=GPa)
#
#
# Indices 1 2 3 4 5 6 
#
# 1 77.8634 16.0947 20.5360 0.0000 0.0000 0.0000
# 2 16.0947 90.8224 21.0742 0.0000 0.0000 0.0000
# 3 20.5360 21.0742 50.4520 0.0000 0.0000 0.0000
# 4 0.0000 0.0000 0.0000 21.5297 0.0000 0.0000
# 5 0.0000 0.0000 0.0000 0.0000 25.1910 0.0000
# 6 0.0000 0.0000 0.0000 0.0000 0.0000 32.5796
#
#
#
# Elastic Compliance Matrix: (Units=1/GPa)
#
#
# Indices 1 2 3 4 5 6 
#
# 1 0.014532 -0.001332 -0.005359 0.000000 0.000000 0.000000
# 2 -0.001332 0.012314 -0.004602 0.000000 0.000000 0.000000
# 3 -0.005359 -0.004602 0.023924 0.000000 0.000000 0.000000
# 4 0.000000 0.000000 0.000000 0.046448 0.000000 0.000000
# 5 0.000000 0.000000 0.000000 0.000000 0.039697 0.000000
# 6 0.000000 0.000000 0.000000 0.000000 0.000000 0.030694
#
#
# Mechanical properties :
#
#
# Convention : Reuss Voigt Hill
#
# Bulk Modulus (GPa) = 35.47882 37.17197 36.32539
# Shear Modulus (GPa) = 25.05161 26.62223 25.83692
#
# Velocity S-wave (km/s) = 3.39965 3.50460 3.45253
# Velocity P-wave (km/s) = 5.63724 5.79014 5.71420
#
# Compressibility (1/GPa) = 0.02818583
#
# Stress axis : x y z
#
# Youngs Moduli (GPa) = 68.81552 81.20662 41.79867
#
# Poissons Ratio (x) = 0.10815 0.22399
# Poissons Ratio (y) = 0.09164 0.19234
# Poissons Ratio (z) = 0.36876 0.37369
#
# Static dielectric constant tensor:
#      x y z
#    x 4.483250 0.000000 0.000000 
#    y 0.000000 4.467370 0.000000 
#    z 0.000000 0.000000 3.604660 
# 
# 
# High freq. dielectric constant tensor:
#      x y z
#    x 1.857320 0.000000 0.000000 
#    y 0.000000 1.871150 0.000000 
#    z 0.000000 0.000000 1.815500 
# 
# From -- ./inp_files/13274.got.cif
#   From: 2010.03.12/outbox.cif.g09.slc.cpg/sg50_7_cif.got.tgz:13274.got - 2010.04.16 13:23:21.
