data_PCOD8205538
_publ_section_title
;
Structure prediction by ZEFSAII (Michael W. Deem and Ramdas Pophale) SiO2 
 PCOD8205538
Probable space group: P B A N
;
_chemical_formula_sum "Si O2"
_cell_formula_units_Z 40
_cell_length_a 24.855437
_cell_length_b 9.078812
_cell_length_c 8.439652
_cell_angle_alpha 90.000000
_cell_angle_beta 90.000000
_cell_angle_gamma 90.000000
_cell_volume 1904.473638
_symmetry_space_group_name_H-M "P B A N"
_symmetry_group_IT_number 50
_space_group.IT_coordinate_system_code '2'
_symmetry_cell_setting 'orthorhombic'
loop_
_space_group_symop_operation_xyz
x,y,z
1/2-x,1/2-y,z
x,1/2-y,-z
1/2-x,y,-z
-x,-y,-z
1/2+x,1/2+y,-z
-x,1/2+y,z
1/2+x,-y,z
loop_
_atom_site_type_symbol
_atom_site_label
_atom_site_fract_x
_atom_site_fract_y
_atom_site_fract_z
Si Si1 0.254073 0.588681 0.684226
Si Si2 0.842800 0.606140 0.203727
Si Si3 0.148789 0.053230 0.851972
Si Si4 0.044672 0.164821 0.333742
Si Si5 0.972937 0.545601 0.832383
O O1 0.250000 0.750000 0.765465
O O2 0.250000 0.610577 0.500000
O O3 0.208407 0.468234 0.717404
O O4 0.312024 0.538087 0.742100
O O5 0.835280 0.779036 0.181654
O O6 0.896939 0.589612 0.308066
O O7 0.846344 0.521299 0.037687
O O8 0.088946 0.999691 0.811574
O O9 0.042248 0.250000 0.500000
O O10 0.027862 0.277352 0.191702
O O11 0.002772 0.030970 0.316461
O O12 0.000000 0.500000 0.000000
#
# Coordination Sequence:
#
# PCOD8205538 Si02
#       5
#     8   8   8   8   8
#     4  11  26  44  62  96 135 170 215 274 340 398
#     4  10  22  41  69  93 127 170 224 270 324 398
#     4  10  22  42  67  96 126 171 224 271 322 398
#     4  11  24  41  66 101 135 177 223 280 337 401
#     4  11  22  43  66  97 136 174 225 273 334 405
#
# _framework density 21.003178999999999
#
# number of rings (size 3 to 8) (size 9 to 14) (size 15 to 20)
#    0.000    1.400    2.000    2.400    5.600    5.600 
#    7.200    0.000    0.000    0.000    0.000    0.000 
#    0.000    0.000    0.000    0.000    0.000    0.000 
#
# Total GULP energy -495635.608407 kJ/mol
# GULP energy per Si atom -12390.890210 kJ/mol
# Density = 2.095537 g / cm^3
# Si number density = 21.003179 Si / 1000 Ang^3
#
#
#
# Elastic Constant Matrix: (Units=GPa)
#
#
# Indices 1 2 3 4 5 6 
#
# 1 171.2970 60.5593 39.6760 0.0000 0.0000 0.0000
# 2 60.5593 48.3512 15.0689 0.0000 0.0000 0.0000
# 3 39.6760 15.0689 79.3385 0.0000 0.0000 0.0000
# 4 0.0000 0.0000 0.0000 85.5060 0.0000 0.0000
# 5 0.0000 0.0000 0.0000 0.0000 33.8883 0.0000
# 6 0.0000 0.0000 0.0000 0.0000 0.0000 64.5022
#
#
#
# Elastic Compliance Matrix: (Units=1/GPa)
#
#
# Indices 1 2 3 4 5 6 
#
# 1 0.011155 -0.013002 -0.003109 0.000000 0.000000 0.000000
# 2 -0.013002 0.037139 -0.000552 0.000000 0.000000 0.000000
# 3 -0.003109 -0.000552 0.014264 0.000000 0.000000 0.000000
# 4 0.000000 0.000000 0.000000 0.011695 0.000000 0.000000
# 5 0.000000 0.000000 0.000000 0.000000 0.029509 0.000000
# 6 0.000000 0.000000 0.000000 0.000000 0.000000 0.015503
#
#
# Mechanical properties :
#
#
# Convention : Reuss Voigt Hill
#
# Bulk Modulus (GPa) = 34.20903 58.84393 46.52648
# Shear Modulus (GPa) = 30.80084 49.02482 39.91283
#
# Velocity S-wave (km/s) = 3.83363 4.83656 4.36400
# Velocity P-wave (km/s) = 5.99320 7.69852 6.89876
#
# Compressibility (1/GPa) = 0.02923205
#
# Stress axis : x y z
#
# Youngs Moduli (GPa) = 89.64966 26.92594 70.10839
#
# Poissons Ratio (x) = 0.35009 0.21795
# Poissons Ratio (y) = 1.16563 0.03868
# Poissons Ratio (z) = 0.27869 0.01486
#
# Static dielectric constant tensor:
#      x y z
#    x 3.830710 0.000000 0.000000 
#    y 0.000000 4.186960 0.000000 
#    z 0.000000 0.000000 3.732120 
# 
# 
# High freq. dielectric constant tensor:
#      x y z
#    x 1.833020 0.000000 0.000000 
#    y 0.000000 1.821580 0.000000 
#    z 0.000000 0.000000 1.826230 
# 
# From -- ./inp_files/9547.got.cif
#   From: 2010.03.12/outbox.cif.g09.slc.cpg/sg50_5_cif.got.tgz:9547.got - 2010.04.16 13:23:21.
