data_PCOD8205699
_publ_section_title
;
Structure prediction by ZEFSAII (Michael W. Deem and Ramdas Pophale) SiO2 
 PCOD8205699
Probable space group: P B A N
;
_chemical_formula_sum "Si O2"
_cell_formula_units_Z 32
_cell_length_a 11.141979
_cell_length_b 9.279686
_cell_length_c 15.089032
_cell_angle_alpha 90.000000
_cell_angle_beta 90.000000
_cell_angle_gamma 90.000000
_cell_volume 1560.116379
_symmetry_space_group_name_H-M "P B A N"
_symmetry_group_IT_number 50
_space_group.IT_coordinate_system_code '2'
_symmetry_cell_setting 'orthorhombic'
loop_
_space_group_symop_operation_xyz
x,y,z
1/2-x,1/2-y,z
x,1/2-y,-z
1/2-x,y,-z
-x,-y,-z
1/2+x,1/2+y,-z
-x,1/2+y,z
1/2+x,-y,z
loop_
_atom_site_type_symbol
_atom_site_label
_atom_site_fract_x
_atom_site_fract_y
_atom_site_fract_z
Si Si1 0.954379 0.100383 0.757926
Si Si2 0.368575 0.318003 0.329743
Si Si3 0.750000 0.750000 0.000000
Si Si4 0.750000 0.250000 0.869931
Si Si5 0.597940 0.508458 0.076760
Si Si6 0.250000 0.250000 0.500000
O O1 0.852614 0.184420 0.809569
O O2 0.022212 0.210296 0.692514
O O3 0.039959 0.016635 0.826564
O O4 0.891518 0.979088 0.700302
O O5 0.250000 0.250000 0.282585
O O6 0.340851 0.337309 0.435197
O O7 0.670467 0.844835 0.934670
O O8 0.812747 0.371994 0.930803
O O9 0.500000 0.500000 0.000000
#
# Coordination Sequence:
#
# PCOD8205699 Si02
#       6
#     8   8   2   4   8   2
#     4  12  24  44  73 101 143 188 236 293 360 424
#     4  10  24  46  70 106 140 180 236 291 361 431
#     4  12  28  40  68  90 144 180 240 296 336 402
#     4  12  26  45  68 103 140 192 242 293 350 424
#     4  12  27  46  65 101 140 194 237 294 346 415
#     4   8  24  46  76 104 146 180 228 310 356 452
#
# _framework density 20.511289999999999
#
# number of rings (size 3 to 8) (size 9 to 14) (size 15 to 20)
#    0.750    0.000    2.500    4.500    5.250    4.500 
#    0.000    0.000    0.000    1.500    0.000    0.000 
#    0.000    0.000    0.000    0.000    0.000    0.000 
#
# Total GULP energy -396685.304010 kJ/mol
# GULP energy per Si atom -12396.415750 kJ/mol
# Density = 2.046461 g / cm^3
# Si number density = 20.511290 Si / 1000 Ang^3
#
#
#
# Elastic Constant Matrix: (Units=GPa)
#
#
# Indices 1 2 3 4 5 6 
#
# 1 130.8623 69.9541 48.0184 0.0000 0.0000 0.0000
# 2 69.9541 152.4887 47.4648 0.0000 0.0000 0.0000
# 3 48.0184 47.4648 119.6329 0.0000 0.0000 0.0000
# 4 0.0000 0.0000 0.0000 5.9417 0.0000 0.0000
# 5 0.0000 0.0000 0.0000 0.0000 53.5969 0.0000
# 6 0.0000 0.0000 0.0000 0.0000 0.0000 50.5574
#
#
#
# Elastic Compliance Matrix: (Units=1/GPa)
#
#
# Indices 1 2 3 4 5 6 
#
# 1 0.010846 -0.004131 -0.002714 0.000000 0.000000 0.000000
# 2 -0.004131 0.009055 -0.001935 0.000000 0.000000 0.000000
# 3 -0.002714 -0.001935 0.010216 0.000000 0.000000 0.000000
# 4 0.000000 0.000000 0.000000 0.168302 0.000000 0.000000
# 5 0.000000 0.000000 0.000000 0.000000 0.018658 0.000000
# 6 0.000000 0.000000 0.000000 0.000000 0.000000 0.019779
#
#
# Mechanical properties :
#
#
# Convention : Reuss Voigt Hill
#
# Bulk Modulus (GPa) = 79.63462 81.53983 80.58723
# Shear Modulus (GPa) = 19.33479 37.85564 28.59522
#
# Velocity S-wave (km/s) = 3.07358 4.30071 3.73784
# Velocity P-wave (km/s) = 7.17669 8.03127 7.61598
#
# Compressibility (1/GPa) = 0.01255735
#
# Stress axis : x y z
#
# Youngs Moduli (GPa) = 92.20253 110.43694 97.88551
#
# Poissons Ratio (x) = 0.45616 0.26571
# Poissons Ratio (y) = 0.38085 0.18937
# Poissons Ratio (z) = 0.25028 0.21366
#
# Static dielectric constant tensor:
#      x y z
#    x 4.138770 0.000000 0.000000 
#    y 0.000000 3.804490 0.000000 
#    z 0.000000 0.000000 3.076170 
# 
# 
# High freq. dielectric constant tensor:
#      x y z
#    x 1.821800 0.000000 0.000000 
#    y 0.000000 1.811440 0.000000 
#    z 0.000000 0.000000 1.790530 
# 
# From -- ./inp_files/24379.got.cif
#   From: 2010.03.12/outbox.cif.g09.slc.cpg/sg50_13_cif.got.tgz:24379.got - 2010.04.16 13:23:21.
