data_PCOD8205513
_publ_section_title
;
Structure prediction by ZEFSAII (Michael W. Deem and Ramdas Pophale) SiO2 
 PCOD8205513
Probable space group: P B A N
;
_chemical_formula_sum "Si O2"
_cell_formula_units_Z 40
_cell_length_a 7.698292
_cell_length_b 15.808367
_cell_length_c 14.285241
_cell_angle_alpha 90.000000
_cell_angle_beta 90.000000
_cell_angle_gamma 90.000000
_cell_volume 1738.477048
_symmetry_space_group_name_H-M "P B A N"
_symmetry_group_IT_number 50
_space_group.IT_coordinate_system_code '2'
_symmetry_cell_setting 'orthorhombic'
loop_
_space_group_symop_operation_xyz
x,y,z
1/2-x,1/2-y,z
x,1/2-y,-z
1/2-x,y,-z
-x,-y,-z
1/2+x,1/2+y,-z
-x,1/2+y,z
1/2+x,-y,z
loop_
_atom_site_type_symbol
_atom_site_label
_atom_site_fract_x
_atom_site_fract_y
_atom_site_fract_z
Si Si1 0.527288 0.418285 0.675244
Si Si2 0.750000 0.051834 0.000000
Si Si3 0.952849 0.234970 0.314242
Si Si4 0.363700 0.926222 0.407793
Si Si5 0.067048 0.090280 0.886921
Si Si6 0.750000 0.750000 0.832248
O O1 0.483099 0.323351 0.638243
O O2 0.466215 0.485242 0.595241
O O3 0.734274 0.430725 0.681113
O O4 0.454788 0.431395 0.777985
O O5 0.613216 0.109371 0.057859
O O6 0.847524 0.993640 0.074120
O O7 0.750000 0.250000 0.283200
O O8 0.979526 0.157783 0.387910
O O9 0.081192 0.218974 0.226721
O O10 0.250000 0.913188 0.500000
O O11 0.191888 0.171694 0.897670
#
# Coordination Sequence:
#
# PCOD8205513 Si02
#       6
#     8   4   8   8   8   4
#     4  10  22  40  65  96 128 186 222 276 345 412
#     4  10  22  41  70 105 130 178 224 288 356 402
#     4   9  22  41  64  96 134 184 229 283 346 407
#     4  11  23  40  66  99 136 176 232 286 337 403
#     4  10  22  42  68  98 139 176 227 285 346 423
#     4  10  22  43  70  99 134 184 234 276 353 423
#
# _framework density 23.008645000000001
#
# number of rings (size 3 to 8) (size 9 to 14) (size 15 to 20)
#    0.000    2.000    0.000    1.800    8.400    4.000 
#    7.200    0.000    8.800    0.000    0.000    0.000 
#    0.000    0.000    0.000    0.000    0.000    0.000 
#
# Total GULP energy -495544.938056 kJ/mol
# GULP energy per Si atom -12388.623451 kJ/mol
# Density = 2.295628 g / cm^3
# Si number density = 23.008645 Si / 1000 Ang^3
#
#
#
# Elastic Constant Matrix: (Units=GPa)
#
#
# Indices 1 2 3 4 5 6 
#
# 1 98.1178 50.5112 29.8836 0.0000 0.0000 0.0000
# 2 50.5112 180.4852 52.5474 0.0000 0.0000 0.0000
# 3 29.8836 52.5474 80.3036 0.0000 0.0000 0.0000
# 4 0.0000 0.0000 0.0000 -8.1187 0.0000 0.0000
# 5 0.0000 0.0000 0.0000 0.0000 33.9706 0.0000
# 6 0.0000 0.0000 0.0000 0.0000 0.0000 39.6091
#
#
#
# Elastic Compliance Matrix: (Units=1/GPa)
#
#
# Indices 1 2 3 4 5 6 
#
# 1 0.012432 -0.002634 -0.002903 0.000000 0.000000 0.000000
# 2 -0.002634 0.007403 -0.003864 0.000000 0.000000 0.000000
# 3 -0.002903 -0.003864 0.016061 0.000000 0.000000 0.000000
# 4 0.000000 0.000000 0.000000 -0.123172 0.000000 0.000000
# 5 0.000000 0.000000 0.000000 0.000000 0.029437 0.000000
# 6 0.000000 0.000000 0.000000 0.000000 0.000000 0.025247
#
#
# Mechanical properties :
#
#
# Convention : Reuss Voigt Hill
#
# Bulk Modulus (GPa) = 58.49763 69.42121 63.95942
# Shear Modulus (GPa) = -617.81325 28.15649 -294.82838
#
# Velocity S-wave (km/s) = -16.40416 3.50199 -11.33209
# Velocity P-wave (km/s) = 18.25694 6.82563 11.97344
#
# Compressibility (1/GPa) = 0.01709471
#
# Stress axis : x y z
#
# Youngs Moduli (GPa) = 80.43785 135.08495 62.26169
#
# Poissons Ratio (x) = 0.35583 0.18073
# Poissons Ratio (y) = 0.21189 0.24057
# Poissons Ratio (z) = 0.23348 0.52194
#
# Static dielectric constant tensor:
#      x y z
#    x 4.655600 0.000000 0.000000 
#    y 0.000000 4.464630 0.000000 
#    z 0.000000 0.000000 3.881060 
# 
# 
# High freq. dielectric constant tensor:
#      x y z
#    x 1.913260 0.000000 0.000000 
#    y 0.000000 1.915790 0.000000 
#    z 0.000000 0.000000 1.890240 
# 
# From -- ./inp_files/24719.got.cif
#   From: 2010.03.12/outbox.cif.g09.slc.cpg/sg50_13_cif.got.tgz:24719.got - 2010.04.16 13:23:21.
