data_PCOD8205448
_publ_section_title
;
Structure prediction by ZEFSAII (Michael W. Deem and Ramdas Pophale) SiO2 
 PCOD8205448
Probable space group: P B A N
;
_chemical_formula_sum "Si O2"
_cell_formula_units_Z 48
_cell_length_a 30.879739
_cell_length_b 12.970668
_cell_length_c 5.261967
_cell_angle_alpha 90.000000
_cell_angle_beta 90.000000
_cell_angle_gamma 90.000000
_cell_volume 2107.580076
_symmetry_space_group_name_H-M "P B A N"
_symmetry_group_IT_number 50
_space_group.IT_coordinate_system_code '2'
_symmetry_cell_setting 'orthorhombic'
loop_
_space_group_symop_operation_xyz
x,y,z
1/2-x,1/2-y,z
x,1/2-y,-z
1/2-x,y,-z
-x,-y,-z
1/2+x,1/2+y,-z
-x,1/2+y,z
1/2+x,-y,z
loop_
_atom_site_type_symbol
_atom_site_label
_atom_site_fract_x
_atom_site_fract_y
_atom_site_fract_z
Si Si1 0.606021 0.588024 0.849635
Si Si2 0.041692 0.250000 0.000000
Si Si3 0.161465 0.545398 0.201427
Si Si4 0.861830 0.250000 0.000000
Si Si5 0.722145 0.877239 0.743983
Si Si6 0.015745 0.750000 0.500000
Si Si7 0.590565 0.386808 0.604458
Si Si8 0.347444 0.250000 0.500000
O O1 0.572651 0.650895 0.022622
O O2 0.578935 0.486580 0.769820
O O3 0.623027 0.659168 0.618317
O O4 0.646285 0.544351 0.008689
O O5 0.013087 0.250358 0.250603
O O6 0.169724 0.654799 0.065355
O O7 0.206671 0.496734 0.295219
O O8 0.126818 0.569687 0.416379
O O9 0.892342 0.212384 0.767056
O O10 0.750000 0.849125 0.500000
O O11 0.681028 0.799554 0.728512
O O12 0.750000 0.859850 0.000000
O O13 0.045941 0.851538 0.523928
#
# Coordination Sequence:
#
# PCOD8205448 Si02
#       8
#     8   4   8   4   8   4   8   4
#     4  11  26  45  74 102 142 193 249 290 349 439
#     4  12  29  46  66 110 154 186 237 309 374 422
#     4  11  23  45  76 102 135 193 244 296 344 446
#     4  10  21  42  79 100 131 180 256 295 342 420
#     4  12  28  46  71 110 154 182 231 297 366 420
#     4  12  27  46  72 103 147 188 237 313 376 422
#     4  11  23  45  75 104 133 190 250 294 355 433
#     4  12  24  50  76 105 144 208 240 287 350 454
#
# _framework density 22.774934999999999
#
# number of rings (size 3 to 8) (size 9 to 14) (size 15 to 20)
#    0.000    0.667    3.333    3.250    7.000    5.333 
#    0.000    0.417    0.000    0.000    0.000    0.000 
#    0.000    0.000    0.000    0.000    0.000    0.000 
#
# Total GULP energy -594969.215296 kJ/mol
# GULP energy per Si atom -12395.191985 kJ/mol
# Density = 2.272310 g / cm^3
# Si number density = 22.774935 Si / 1000 Ang^3
#
#
#
# Elastic Constant Matrix: (Units=GPa)
#
#
# Indices 1 2 3 4 5 6 
#
# 1 77.3786 58.3984 28.4218 0.0000 0.0000 0.0000
# 2 58.3984 157.0958 37.1964 0.0000 0.0000 0.0000
# 3 28.4218 37.1964 114.1416 0.0000 0.0000 0.0000
# 4 0.0000 0.0000 0.0000 48.7746 0.0000 0.0000
# 5 0.0000 0.0000 0.0000 0.0000 3.5549 0.0000
# 6 0.0000 0.0000 0.0000 0.0000 0.0000 6.6009
#
#
#
# Elastic Compliance Matrix: (Units=1/GPa)
#
#
# Indices 1 2 3 4 5 6 
#
# 1 0.018640 -0.006318 -0.002583 0.000000 0.000000 0.000000
# 2 -0.006318 0.009039 -0.001372 0.000000 0.000000 0.000000
# 3 -0.002583 -0.001372 0.009851 0.000000 0.000000 0.000000
# 4 0.000000 0.000000 0.000000 0.020502 0.000000 0.000000
# 5 0.000000 0.000000 0.000000 0.000000 0.281304 0.000000
# 6 0.000000 0.000000 0.000000 0.000000 0.000000 0.151496
#
#
# Mechanical properties :
#
#
# Convention : Reuss Voigt Hill
#
# Bulk Modulus (GPa) = 58.87609 66.29436 62.58523
# Shear Modulus (GPa) = 9.67043 26.75935 18.21489
#
# Velocity S-wave (km/s) = 2.06284 3.43147 2.83110
# Velocity P-wave (km/s) = 5.61971 6.69863 6.18275
#
# Compressibility (1/GPa) = 0.01698482
#
# Stress axis : x y z
#
# Youngs Moduli (GPa) = 53.64760 110.63105 101.50823
#
# Poissons Ratio (x) = 0.69894 0.26216
# Poissons Ratio (y) = 0.33893 0.13932
# Poissons Ratio (z) = 0.13855 0.15184
#
# Static dielectric constant tensor:
#      x y z
#    x 3.879630 0.000000 0.000000 
#    y 0.000000 4.679420 0.000000 
#    z 0.000000 0.000000 4.293910 
# 
# 
# High freq. dielectric constant tensor:
#      x y z
#    x 1.876930 0.000000 0.000000 
#    y 0.000000 1.926860 0.000000 
#    z 0.000000 0.000000 1.907250 
# 
# From -- ./inp_files/6662.got.cif
#   From: 2010.03.12/outbox.cif.g09.slc.cpg/sg50_4_cif.got.tgz:6662.got - 2010.04.16 13:23:21.
