data_PCOD8205093
_publ_section_title
;
Structure prediction by ZEFSAII (Michael W. Deem and Ramdas Pophale) SiO2 
 PCOD8205093
Probable space group: P B A N
;
_chemical_formula_sum "Si O2"
_cell_formula_units_Z 56
_cell_length_a 9.965704
_cell_length_b 19.172678
_cell_length_c 15.605398
_cell_angle_alpha 90.000000
_cell_angle_beta 90.000000
_cell_angle_gamma 90.000000
_cell_volume 2981.711440
_symmetry_space_group_name_H-M "P B A N"
_symmetry_group_IT_number 50
_space_group.IT_coordinate_system_code '2'
_symmetry_cell_setting 'orthorhombic'
loop_
_space_group_symop_operation_xyz
x,y,z
1/2-x,1/2-y,z
x,1/2-y,-z
1/2-x,y,-z
-x,-y,-z
1/2+x,1/2+y,-z
-x,1/2+y,z
1/2+x,-y,z
loop_
_atom_site_type_symbol
_atom_site_label
_atom_site_fract_x
_atom_site_fract_y
_atom_site_fract_z
Si Si1 0.968174 0.992957 0.797914
Si Si2 0.895917 0.255367 0.135108
Si Si3 0.383831 0.630091 0.281524
Si Si4 0.832505 0.808385 0.087402
Si Si5 0.409915 0.744984 0.403748
Si Si6 0.790902 0.963196 0.099145
Si Si7 0.080576 0.641021 0.271099
O O1 0.826602 0.992779 0.843801
O O2 0.984024 0.925789 0.737062
O O3 0.972367 0.061819 0.738367
O O4 0.079238 0.991962 0.874022
O O5 0.750000 0.250000 0.087653
O O6 0.887426 0.314283 0.206176
O O7 0.926639 0.181570 0.180157
O O8 0.015333 0.280260 0.071693
O O9 0.447539 0.668952 0.364667
O O10 0.227678 0.611184 0.294537
O O11 0.750000 0.750000 0.143578
O O12 0.827958 0.884457 0.128514
O O13 0.750000 0.814937 0.000000
O O14 0.250000 0.750000 0.399950
O O15 0.466569 0.750000 0.500000
O O16 0.471254 0.808247 0.347255
O O17 0.750000 0.971957 0.000000
#
# Coordination Sequence:
#
# PCOD8205093 Si02
#       7
#     8   8   8   8   8   8   8
#     4  12  20  36  54  80 112 147 191 236 270 336
#     4   9  17  33  54  73  98 139 183 230 270 323
#     4   9  17  31  53  79 108 140 181 227 264 318
#     4  10  20  35  50  72 104 134 177 237 283 329
#     4   8  15  31  56  85 112 140 178 223 272 329
#     4  11  24  37  54  76 110 154 189 238 289 325
#     4   9  18  31  54  83 106 140 188 223 270 324
#
# _framework density 18.781161000000001
#
# number of rings (size 3 to 8) (size 9 to 14) (size 15 to 20)
#    0.000    2.286    2.857    3.000    0.000    0.000 
#    0.000    2.143    0.000    0.000    0.000    4.000 
#    0.000    0.000    0.000    0.000    0.000    0.000 
#
# Total GULP energy -693809.360497 kJ/mol
# GULP energy per Si atom -12389.452866 kJ/mol
# Density = 1.873841 g / cm^3
# Si number density = 18.781161 Si / 1000 Ang^3
#
#
#
# Elastic Constant Matrix: (Units=GPa)
#
#
# Indices 1 2 3 4 5 6 
#
# 1 94.9975 24.3677 22.8411 0.0000 0.0000 0.0000
# 2 24.3677 115.7642 38.6736 0.0000 0.0000 0.0000
# 3 22.8411 38.6736 82.7468 0.0000 0.0000 0.0000
# 4 0.0000 0.0000 0.0000 20.9186 0.0000 0.0000
# 5 0.0000 0.0000 0.0000 0.0000 7.2079 0.0000
# 6 0.0000 0.0000 0.0000 0.0000 0.0000 25.0153
#
#
#
# Elastic Compliance Matrix: (Units=1/GPa)
#
#
# Indices 1 2 3 4 5 6 
#
# 1 0.011524 -0.001615 -0.002426 0.000000 0.000000 0.000000
# 2 -0.001615 0.010463 -0.004444 0.000000 0.000000 0.000000
# 3 -0.002426 -0.004444 0.014832 0.000000 0.000000 0.000000
# 4 0.000000 0.000000 0.000000 0.047804 0.000000 0.000000
# 5 0.000000 0.000000 0.000000 0.000000 0.138737 0.000000
# 6 0.000000 0.000000 0.000000 0.000000 0.000000 0.039976
#
#
# Mechanical properties :
#
#
# Convention : Reuss Voigt Hill
#
# Bulk Modulus (GPa) = 50.38355 51.69704 51.04029
# Shear Modulus (GPa) = 17.42627 24.47010 20.94819
#
# Velocity S-wave (km/s) = 3.04938 3.61350 3.34336
# Velocity P-wave (km/s) = 6.26763 6.70787 6.49149
#
# Compressibility (1/GPa) = 0.01984775
#
# Stress axis : x y z
#
# Youngs Moduli (GPa) = 86.77343 95.57536 67.42235
#
# Poissons Ratio (x) = 0.15438 0.16358
# Poissons Ratio (y) = 0.14016 0.29964
# Poissons Ratio (z) = 0.21053 0.42476
#
# Static dielectric constant tensor:
#      x y z
#    x 3.581490 0.000000 0.000000 
#    y 0.000000 4.204360 0.000000 
#    z 0.000000 0.000000 3.317270 
# 
# 
# High freq. dielectric constant tensor:
#      x y z
#    x 1.715320 0.000000 0.000000 
#    y 0.000000 1.742040 0.000000 
#    z 0.000000 0.000000 1.685740 
# 
# From -- ./inp_files/28925.got.cif
#   From: 2010.03.12/outbox.cif.g09.slc.cpg/sg50_15_cif.got.tgz:28925.got - 2010.04.16 13:23:21.
