data_PCOD8205767
_publ_section_title
;
Structure prediction by ZEFSAII (Michael W. Deem and Ramdas Pophale) SiO2 
 PCOD8205767
Probable space group: P B A N
;
_chemical_formula_sum "Si O2"
_cell_formula_units_Z 64
_cell_length_a 29.355794
_cell_length_b 12.135639
_cell_length_c 8.447955
_cell_angle_alpha 90.000000
_cell_angle_beta 90.000000
_cell_angle_gamma 90.000000
_cell_volume 3009.595108
_symmetry_space_group_name_H-M "P B A N"
_symmetry_group_IT_number 50
_space_group.IT_coordinate_system_code '2'
_symmetry_cell_setting 'orthorhombic'
loop_
_space_group_symop_operation_xyz
x,y,z
1/2-x,1/2-y,z
x,1/2-y,-z
1/2-x,y,-z
-x,-y,-z
1/2+x,1/2+y,-z
-x,1/2+y,z
1/2+x,-y,z
loop_
_atom_site_type_symbol
_atom_site_label
_atom_site_fract_x
_atom_site_fract_y
_atom_site_fract_z
Si Si1 0.430486 0.531577 0.669815
Si Si2 0.663394 0.026201 0.823451
Si Si3 0.255868 0.373364 0.812655
Si Si4 0.327178 0.980488 0.806975
Si Si5 0.199201 0.750258 0.314060
Si Si6 0.001655 0.291140 0.679316
Si Si7 0.079993 0.467672 0.683360
Si Si8 0.506962 0.420559 0.846303
O O1 0.389614 0.502919 0.790174
O O2 0.451595 0.653174 0.689075
O O3 0.413200 0.506016 0.495318
O O4 0.472862 0.453766 0.706245
O O5 0.673456 0.141800 0.741292
O O6 0.695534 0.926146 0.760182
O O7 0.673086 0.035856 0.006997
O O8 0.250000 0.250000 0.740894
O O9 0.216967 0.453947 0.744392
O O10 0.250000 0.366323 0.000000
O O11 0.328673 0.858542 0.734829
O O12 0.370064 0.054793 0.753057
O O13 0.250000 0.750000 0.239014
O O14 0.202242 0.750000 0.500000
O O15 0.007178 0.250000 0.500000
O O16 0.045844 0.366244 0.709844
O O17 0.001719 0.210887 0.835771
O O18 0.058584 0.566940 0.786000
O O19 0.500000 0.500000 0.000000
#
# Coordination Sequence:
#
# PCOD8205767 Si02
#       8
#     8   8   8   8   8   8   8   8
#     4  11  23  39  63  95 127 171 220 273 334 408
#     4  11  23  40  65 100 130 169 223 280 336 401
#     4   9  20  41  65  90 129 175 215 270 334 393
#     4  11  23  41  65  96 133 169 224 278 336 400
#     4  11  23  40  65  93 131 172 216 275 339 404
#     4  11  21  43  69  89 130 184 221 272 347 411
#     4  11  23  40  64  95 131 174 220 270 337 413
#     4  11  23  42  64  94 128 164 222 283 330 398
#
# _framework density 21.265319999999999
#
# number of rings (size 3 to 8) (size 9 to 14) (size 15 to 20)
#    0.000    1.250    3.750    2.625    1.750    4.000 
#    2.250    2.500    0.000    3.000    0.000    0.000 
#    0.000    0.000    0.000    0.000    0.000    0.000 
#
# Total GULP energy -792918.073786 kJ/mol
# GULP energy per Si atom -12389.344903 kJ/mol
# Density = 2.121692 g / cm^3
# Si number density = 21.265320 Si / 1000 Ang^3
#
#
#
# Elastic Constant Matrix: (Units=GPa)
#
#
# Indices 1 2 3 4 5 6 
#
# 1 109.6087 30.9963 17.9149 0.0000 0.0000 0.0000
# 2 30.9963 136.4616 26.7979 0.0000 0.0000 0.0000
# 3 17.9149 26.7979 70.1462 0.0000 0.0000 0.0000
# 4 0.0000 0.0000 0.0000 27.0787 0.0000 0.0000
# 5 0.0000 0.0000 0.0000 0.0000 31.4901 0.0000
# 6 0.0000 0.0000 0.0000 0.0000 0.0000 26.6342
#
#
#
# Elastic Compliance Matrix: (Units=1/GPa)
#
#
# Indices 1 2 3 4 5 6 
#
# 1 0.009959 -0.001906 -0.001815 0.000000 0.000000 0.000000
# 2 -0.001906 0.008287 -0.002679 0.000000 0.000000 0.000000
# 3 -0.001815 -0.002679 0.015743 0.000000 0.000000 0.000000
# 4 0.000000 0.000000 0.000000 0.036929 0.000000 0.000000
# 5 0.000000 0.000000 0.000000 0.000000 0.031756 0.000000
# 6 0.000000 0.000000 0.000000 0.000000 0.000000 0.037546
#
#
# Mechanical properties :
#
#
# Convention : Reuss Voigt Hill
#
# Bulk Modulus (GPa) = 47.19517 51.95940 49.57729
# Shear Modulus (GPa) = 31.23365 33.07442 32.15404
#
# Velocity S-wave (km/s) = 3.83660 3.94804 3.89272
# Velocity P-wave (km/s) = 6.47052 6.72827 6.60065
#
# Compressibility (1/GPa) = 0.02118861
#
# Stress axis : x y z
#
# Youngs Moduli (GPa) = 100.41190 120.67017 63.51969
#
# Poissons Ratio (x) = 0.22995 0.11532
# Poissons Ratio (y) = 0.19134 0.17018
# Poissons Ratio (z) = 0.18229 0.32330
#
# Static dielectric constant tensor:
#      x y z
#    x 4.002000 0.000000 0.000000 
#    y 0.000000 4.445230 0.000000 
#    z 0.000000 0.000000 3.667610 
# 
# 
# High freq. dielectric constant tensor:
#      x y z
#    x 1.841930 0.000000 0.000000 
#    y 0.000000 1.835070 0.000000 
#    z 0.000000 0.000000 1.826440 
# 
# From -- ./inp_files/17099.got.cif
#   From: 2010.03.12/outbox.cif.g09.slc.cpg/sg50_9_cif.got.tgz:17099.got - 2010.04.16 13:23:21.
