data_PCOD8205320
_publ_section_title
;
Structure prediction by ZEFSAII (Michael W. Deem and Ramdas Pophale) SiO2 
 PCOD8205320
Probable space group: P B A N
;
_chemical_formula_sum "Si O2"
_cell_formula_units_Z 48
_cell_length_a 29.193835
_cell_length_b 9.033769
_cell_length_c 8.483209
_cell_angle_alpha 90.000000
_cell_angle_beta 90.000000
_cell_angle_gamma 90.000000
_cell_volume 2237.279777
_symmetry_space_group_name_H-M "P B A N"
_symmetry_group_IT_number 50
_space_group.IT_coordinate_system_code '2'
_symmetry_cell_setting 'orthorhombic'
loop_
_space_group_symop_operation_xyz
x,y,z
1/2-x,1/2-y,z
x,1/2-y,-z
1/2-x,y,-z
-x,-y,-z
1/2+x,1/2+y,-z
-x,1/2+y,z
1/2+x,-y,z
loop_
_atom_site_type_symbol
_atom_site_label
_atom_site_fract_x
_atom_site_fract_y
_atom_site_fract_z
Si Si1 0.834597 0.920020 0.181772
Si Si2 0.480270 0.115698 0.116214
Si Si3 0.412394 0.940830 0.337398
Si Si4 0.070366 0.612674 0.688950
Si Si5 0.149962 0.072005 0.167133
Si Si6 0.242619 0.424851 0.671932
O O1 0.846486 0.747371 0.182424
O O2 0.782086 0.968653 0.204643
O O3 0.861590 0.992160 0.329500
O O4 0.848186 0.985010 0.011996
O O5 0.520315 0.148307 0.241205
O O6 0.438802 0.044218 0.212098
O O7 0.464442 0.250000 0.000000
O O8 0.500000 0.000000 0.000000
O O9 0.435523 0.945051 0.509474
O O10 0.405199 0.770037 0.290511
O O11 0.101022 0.487191 0.771509
O O12 0.193868 0.014462 0.265313
O O13 0.250000 0.250000 0.656411
O O14 0.250000 0.497294 0.500000
#
# Coordination Sequence:
#
# PCOD8205320 Si02
#       6
#     8   8   8   8   8   8
#     4  10  21  36  61  92 124 161 211 257 306 372
#     4  12  25  44  67  90 123 161 208 258 313 375
#     4  11  25  43  64  90 125 164 207 257 315 376
#     4  11  25  44  62  90 127 165 204 257 316 378
#     4  10  21  36  62  91 124 164 207 257 313 365
#     4   9  17  33  56  88 126 162 204 256 308 364
#
# _framework density 21.454626000000001
#
# number of rings (size 3 to 8) (size 9 to 14) (size 15 to 20)
#    0.000    1.500    1.667    3.000    4.667    4.000 
#    0.000    0.833    0.000    5.000    0.000    0.000 
#    0.000    0.000    0.000    0.000    0.000    0.000 
#
# Total GULP energy -594668.175651 kJ/mol
# GULP energy per Si atom -12388.920326 kJ/mol
# Density = 2.140579 g / cm^3
# Si number density = 21.454626 Si / 1000 Ang^3
#
#
#
# Elastic Constant Matrix: (Units=GPa)
#
#
# Indices 1 2 3 4 5 6 
#
# 1 74.8793 10.9290 26.2286 0.0000 0.0000 0.0000
# 2 10.9290 56.8709 33.7881 0.0000 0.0000 0.0000
# 3 26.2286 33.7881 127.2889 0.0000 0.0000 0.0000
# 4 0.0000 0.0000 0.0000 34.3000 0.0000 0.0000
# 5 0.0000 0.0000 0.0000 0.0000 35.3284 0.0000
# 6 0.0000 0.0000 0.0000 0.0000 0.0000 22.2862
#
#
#
# Elastic Compliance Matrix: (Units=1/GPa)
#
#
# Indices 1 2 3 4 5 6 
#
# 1 0.014462 -0.001198 -0.002662 0.000000 0.000000 0.000000
# 2 -0.001198 0.020975 -0.005321 0.000000 0.000000 0.000000
# 3 -0.002662 -0.005321 0.009817 0.000000 0.000000 0.000000
# 4 0.000000 0.000000 0.000000 0.029155 0.000000 0.000000
# 5 0.000000 0.000000 0.000000 0.000000 0.028306 0.000000
# 6 0.000000 0.000000 0.000000 0.000000 0.000000 0.044871
#
#
# Mechanical properties :
#
#
# Convention : Reuss Voigt Hill
#
# Bulk Modulus (GPa) = 37.18439 44.54782 40.86610
# Shear Modulus (GPa) = 28.58594 30.92248 29.75421
#
# Velocity S-wave (km/s) = 3.65415 3.80056 3.72807
# Velocity P-wave (km/s) = 5.93069 6.32991 6.13355
#
# Compressibility (1/GPa) = 0.02689301
#
# Stress axis : x y z
#
# Youngs Moduli (GPa) = 69.14622 47.67559 101.86312
#
# Poissons Ratio (x) = 0.05710 0.27117
# Poissons Ratio (y) = 0.08281 0.54201
# Poissons Ratio (z) = 0.18407 0.25368
#
# Static dielectric constant tensor:
#      x y z
#    x 4.595500 0.000000 0.000000 
#    y 0.000000 3.570750 0.000000 
#    z 0.000000 0.000000 4.086060 
# 
# 
# High freq. dielectric constant tensor:
#      x y z
#    x 1.850340 0.000000 0.000000 
#    y 0.000000 1.814400 0.000000 
#    z 0.000000 0.000000 1.858230 
# 
# From -- ./inp_files/16934.got.cif
#   From: 2010.03.12/outbox.cif.g09.slc.cpg/sg50_9_cif.got.tgz:16934.got - 2010.04.16 13:23:21.
