data_PCOD8205657
_publ_section_title
;
Structure prediction by ZEFSAII (Michael W. Deem and Ramdas Pophale) SiO2 
 PCOD8205657
Probable space group: P B A N
;
_chemical_formula_sum "Si O2"
_cell_formula_units_Z 36
_cell_length_a 21.362822
_cell_length_b 8.693673
_cell_length_c 9.112769
_cell_angle_alpha 90.000000
_cell_angle_beta 90.000000
_cell_angle_gamma 90.000000
_cell_volume 1692.436115
_symmetry_space_group_name_H-M "P B A N"
_symmetry_group_IT_number 50
_space_group.IT_coordinate_system_code '2'
_symmetry_cell_setting 'orthorhombic'
loop_
_space_group_symop_operation_xyz
x,y,z
1/2-x,1/2-y,z
x,1/2-y,-z
1/2-x,y,-z
-x,-y,-z
1/2+x,1/2+y,-z
-x,1/2+y,z
1/2+x,-y,z
loop_
_atom_site_type_symbol
_atom_site_label
_atom_site_fract_x
_atom_site_fract_y
_atom_site_fract_z
Si Si1 0.750000 0.250000 0.000000
Si Si2 0.331611 0.881673 0.752980
Si Si3 0.679137 0.720998 0.828172
Si Si4 0.071426 0.333543 0.346413
Si Si5 0.750000 0.250000 0.500000
Si Si6 0.445915 0.808603 0.337316
O O1 0.709446 0.140488 0.102087
O O2 0.292874 0.857269 0.602818
O O3 0.390555 0.765697 0.760587
O O4 0.349311 0.059989 0.768254
O O5 0.750000 0.750000 0.773956
O O6 0.633241 0.842242 0.752845
O O7 0.674046 0.750000 0.000000
O O8 0.086437 0.250000 0.500000
O O9 0.053222 0.510277 0.357397
O O10 0.012611 0.245863 0.270885
O O11 0.436954 0.750000 0.500000
#
# Coordination Sequence:
#
# PCOD8205657 Si02
#       6
#     2   8   8   8   2   8
#     4  10  24  38  66  94 136 178 216 262 332 386
#     4  11  23  42  67  97 135 174 225 270 332 400
#     4  11  26  44  65  94 139 175 219 267 331 395
#     4  11  24  42  68  97 129 173 221 277 333 391
#     4  10  24  38  70  98 132 170 224 274 336 386
#     4  11  22  42  69  96 131 169 224 277 333 390
#
# _framework density 21.271114000000001
#
# number of rings (size 3 to 8) (size 9 to 14) (size 15 to 20)
#    0.000    1.111    1.111    6.667    9.333    0.444 
#    2.000    2.222    0.000    0.000    0.000    0.000 
#    0.000    0.000    0.000    0.000    0.000    0.000 
#
# Total GULP energy -446301.155726 kJ/mol
# GULP energy per Si atom -12397.254326 kJ/mol
# Density = 2.122270 g / cm^3
# Si number density = 21.271114 Si / 1000 Ang^3
#
#
#
# Elastic Constant Matrix: (Units=GPa)
#
#
# Indices 1 2 3 4 5 6 
#
# 1 163.2215 45.3515 60.1684 0.0000 0.0000 0.0000
# 2 45.3515 155.7668 32.5453 0.0000 0.0000 0.0000
# 3 60.1684 32.5453 92.4231 0.0000 0.0000 0.0000
# 4 0.0000 0.0000 0.0000 25.6420 0.0000 0.0000
# 5 0.0000 0.0000 0.0000 0.0000 0.7325 0.0000
# 6 0.0000 0.0000 0.0000 0.0000 0.0000 37.3919
#
#
#
# Elastic Compliance Matrix: (Units=1/GPa)
#
#
# Indices 1 2 3 4 5 6 
#
# 1 0.008333 -0.001395 -0.004934 0.000000 0.000000 0.000000
# 2 -0.001395 0.007163 -0.001614 0.000000 0.000000 0.000000
# 3 -0.004934 -0.001614 0.014600 0.000000 0.000000 0.000000
# 4 0.000000 0.000000 0.000000 0.038998 0.000000 0.000000
# 5 0.000000 0.000000 0.000000 0.000000 1.365155 0.000000
# 6 0.000000 0.000000 0.000000 0.000000 0.000000 0.026744
#
#
# Mechanical properties :
#
#
# Convention : Reuss Voigt Hill
#
# Bulk Modulus (GPa) = 70.37095 76.39354 73.38225
# Shear Modulus (GPa) = 3.37469 30.97636 17.17553
#
# Velocity S-wave (km/s) = 1.26094 3.82024 2.84466
# Velocity P-wave (km/s) = 5.93925 7.44656 6.73520
#
# Compressibility (1/GPa) = 0.01421041
#
# Stress axis : x y z
#
# Youngs Moduli (GPa) = 120.00494 139.59952 68.49338
#
# Poissons Ratio (x) = 0.19479 0.33791
# Poissons Ratio (y) = 0.16745 0.11055
# Poissons Ratio (z) = 0.59205 0.22532
#
# Static dielectric constant tensor:
#      x y z
#    x 4.311360 0.000000 0.000000 
#    y 0.000000 3.930010 0.000000 
#    z 0.000000 0.000000 3.723560 
# 
# 
# High freq. dielectric constant tensor:
#      x y z
#    x 1.850680 0.000000 0.000000 
#    y 0.000000 1.847880 0.000000 
#    z 0.000000 0.000000 1.817670 
# 
# From -- ./inp_files/14970.got.cif
#   From: 2010.03.12/outbox.cif.g09.slc.cpg/sg50_8_cif.got.tgz:14970.got - 2010.04.16 13:23:21.
