data_PCOD8205075
_publ_section_title
;
Structure prediction by ZEFSAII (Michael W. Deem and Ramdas Pophale) SiO2 
 PCOD8205075
Probable space group: P B A N
;
_chemical_formula_sum "Si O2"
_cell_formula_units_Z 32
_cell_length_a 23.138350
_cell_length_b 7.939431
_cell_length_c 8.225055
_cell_angle_alpha 90.000000
_cell_angle_beta 90.000000
_cell_angle_gamma 90.000000
_cell_volume 1510.986470
_symmetry_space_group_name_H-M "P B A N"
_symmetry_group_IT_number 50
_space_group.IT_coordinate_system_code '2'
_symmetry_cell_setting 'orthorhombic'
loop_
_space_group_symop_operation_xyz
x,y,z
1/2-x,1/2-y,z
x,1/2-y,-z
1/2-x,y,-z
-x,-y,-z
1/2+x,1/2+y,-z
-x,1/2+y,z
1/2+x,-y,z
loop_
_atom_site_type_symbol
_atom_site_label
_atom_site_fract_x
_atom_site_fract_y
_atom_site_fract_z
Si Si1 0.422972 0.386235 0.189819
Si Si2 0.529215 0.222617 0.314110
Si Si3 0.381860 0.911150 0.108432
Si Si4 0.310826 0.203124 0.185676
O O1 0.472122 0.241654 0.201499
O O2 0.444499 0.537479 0.302128
O O3 0.362943 0.313228 0.262706
O O4 0.414051 0.448398 0.003883
O O5 0.512669 0.250000 0.500000
O O6 0.576135 0.357693 0.253234
O O7 0.326412 0.002616 0.191672
O O8 0.362682 0.750000 0.000000
O O9 0.250000 0.250000 0.275506
O O10 0.303417 0.250000 0.000000
#
# Coordination Sequence:
#
# PCOD8205075 Si02
#       4
#     8   8   8   8
#     4  10  20  34  54  80 107 141 179 224 276 327
#     4  11  21  34  54  80 111 142 179 226 276 332
#     4   9  19  35  56  80 108 141 178 223 274 326
#     4   9  18  35  57  81 106 137 181 226 266 318
#
# _framework density 21.178218000000001
#
# number of rings (size 3 to 8) (size 9 to 14) (size 15 to 20)
#    0.000    2.250    0.000    3.000    0.000    7.000 
#    0.000   21.250    0.000    8.250    0.000    0.000 
#    0.000    0.000    0.000    0.000    0.000    0.000 
#
# Total GULP energy -396592.482581 kJ/mol
# GULP energy per Si atom -12393.515081 kJ/mol
# Density = 2.113002 g / cm^3
# Si number density = 21.178218 Si / 1000 Ang^3
#
#
#
# Elastic Constant Matrix: (Units=GPa)
#
#
# Indices 1 2 3 4 5 6 
#
# 1 184.4033 92.4226 19.5943 0.0000 0.0000 0.0000
# 2 92.4226 119.7960 22.8971 0.0000 0.0000 0.0000
# 3 19.5943 22.8971 47.0801 0.0000 0.0000 0.0000
# 4 0.0000 0.0000 0.0000 16.5396 0.0000 0.0000
# 5 0.0000 0.0000 0.0000 0.0000 4.1316 0.0000
# 6 0.0000 0.0000 0.0000 0.0000 0.0000 31.5770
#
#
#
# Elastic Compliance Matrix: (Units=1/GPa)
#
#
# Indices 1 2 3 4 5 6 
#
# 1 0.008849 -0.006750 -0.000400 0.000000 0.000000 0.000000
# 2 -0.006750 0.014353 -0.004171 0.000000 0.000000 0.000000
# 3 -0.000400 -0.004171 0.023435 0.000000 0.000000 0.000000
# 4 0.000000 0.000000 0.000000 0.060461 0.000000 0.000000
# 5 0.000000 0.000000 0.000000 0.000000 0.242035 0.000000
# 6 0.000000 0.000000 0.000000 0.000000 0.000000 0.031669
#
#
# Mechanical properties :
#
#
# Convention : Reuss Voigt Hill
#
# Bulk Modulus (GPa) = 41.67605 69.01193 55.34399
# Shear Modulus (GPa) = 12.15243 24.87402 18.51323
#
# Velocity S-wave (km/s) = 2.39805 3.43083 2.95983
# Velocity P-wave (km/s) = 5.23345 6.95350 6.15386
#
# Compressibility (1/GPa) = 0.02399460
#
# Stress axis : x y z
#
# Youngs Moduli (GPa) = 113.01206 69.67385 42.67082
#
# Poissons Ratio (x) = 0.47032 0.01706
# Poissons Ratio (y) = 0.76287 0.17797
# Poissons Ratio (z) = 0.04518 0.29060
#
# Static dielectric constant tensor:
#      x y z
#    x 4.584190 0.000000 0.000000 
#    y 0.000000 4.298260 0.000000 
#    z 0.000000 0.000000 3.264150 
# 
# 
# High freq. dielectric constant tensor:
#      x y z
#    x 1.822480 0.000000 0.000000 
#    y 0.000000 1.850060 0.000000 
#    z 0.000000 0.000000 1.783660 
# 
# From -- ./inp_files/9085.got.cif
#   From: 2010.03.12/outbox.cif.g09.slc.cpg/sg50_5_cif.got.tgz:9085.got - 2010.04.16 13:23:21.
