data_PCOD8205397
_publ_section_title
;
Structure prediction by ZEFSAII (Michael W. Deem and Ramdas Pophale) SiO2 
 PCOD8205397
Probable space group: P B A N
;
_chemical_formula_sum "Si O2"
_cell_formula_units_Z 48
_cell_length_a 16.873803
_cell_length_b 9.327069
_cell_length_c 14.351099
_cell_angle_alpha 90.000000
_cell_angle_beta 90.000000
_cell_angle_gamma 90.000000
_cell_volume 2258.620806
_symmetry_space_group_name_H-M "P B A N"
_symmetry_group_IT_number 50
_space_group.IT_coordinate_system_code '2'
_symmetry_cell_setting 'orthorhombic'
loop_
_space_group_symop_operation_xyz
x,y,z
1/2-x,1/2-y,z
x,1/2-y,-z
1/2-x,y,-z
-x,-y,-z
1/2+x,1/2+y,-z
-x,1/2+y,z
1/2+x,-y,z
loop_
_atom_site_type_symbol
_atom_site_label
_atom_site_fract_x
_atom_site_fract_y
_atom_site_fract_z
Si Si1 0.560290 0.711263 0.737090
Si Si2 0.082333 0.777443 0.603731
Si Si3 0.834714 0.040341 0.699248
Si Si4 0.662721 0.241324 0.857596
Si Si5 0.658703 0.991003 0.708472
Si Si6 0.004281 0.639558 0.063928
O O1 0.485136 0.762729 0.678585
O O2 0.603431 0.586581 0.680290
O O3 0.535412 0.636794 0.834733
O O4 0.617232 0.848692 0.749219
O O5 0.050144 0.750000 0.500000
O O6 0.153913 0.665242 0.622420
O O7 0.111822 0.941811 0.619097
O O8 0.847862 0.108228 0.802285
O O9 0.750023 0.963834 0.683481
O O10 0.750000 0.250000 0.905849
O O11 0.657809 0.111418 0.786098
O O12 0.593490 0.206587 0.930201
O O13 0.954935 0.750000 0.000000
O O14 0.000000 0.500000 0.000000
#
# Coordination Sequence:
#
# PCOD8205397 Si02
#       6
#     8   8   8   8   8   8
#     4  12  23  40  63  95 138 165 213 274 329 392
#     4  11  24  41  67  94 126 170 219 269 328 399
#     4  10  21  39  65  91 126 174 211 261 328 388
#     4   9  19  39  62  88 125 170 217 262 316 384
#     4  10  21  39  65  91 126 173 214 261 328 388
#     4  12  24  37  63  96 129 172 221 268 320 382
#
# _framework density 21.251906000000002
#
# number of rings (size 3 to 8) (size 9 to 14) (size 15 to 20)
#    0.000    1.333    3.333    5.000    0.000    4.333 
#    0.000    0.000    0.000   11.000    0.000    0.000 
#    0.000    0.000    0.000    0.000    0.000    0.000 
#
# Total GULP energy -594658.089988 kJ/mol
# GULP energy per Si atom -12388.710208 kJ/mol
# Density = 2.120354 g / cm^3
# Si number density = 21.251906 Si / 1000 Ang^3
#
#
#
# Elastic Constant Matrix: (Units=GPa)
#
#
# Indices 1 2 3 4 5 6 
#
# 1 110.9205 39.0445 25.9367 0.0000 0.0000 0.0000
# 2 39.0445 112.4823 28.6643 0.0000 0.0000 0.0000
# 3 25.9367 28.6643 113.0757 0.0000 0.0000 0.0000
# 4 0.0000 0.0000 0.0000 24.3011 0.0000 0.0000
# 5 0.0000 0.0000 0.0000 0.0000 4.8063 0.0000
# 6 0.0000 0.0000 0.0000 0.0000 0.0000 33.8305
#
#
#
# Elastic Compliance Matrix: (Units=1/GPa)
#
#
# Indices 1 2 3 4 5 6 
#
# 1 0.010532 -0.003250 -0.001592 0.000000 0.000000 0.000000
# 2 -0.003250 0.010507 -0.001918 0.000000 0.000000 0.000000
# 3 -0.001592 -0.001918 0.009695 0.000000 0.000000 0.000000
# 4 0.000000 0.000000 0.000000 0.041150 0.000000 0.000000
# 5 0.000000 0.000000 0.000000 0.000000 0.208060 0.000000
# 6 0.000000 0.000000 0.000000 0.000000 0.000000 0.029559
#
#
# Mechanical properties :
#
#
# Convention : Reuss Voigt Hill
#
# Bulk Modulus (GPa) = 58.09226 58.19660 58.14443
# Shear Modulus (GPa) = 15.20858 28.77645 21.99252
#
# Velocity S-wave (km/s) = 2.67804 3.68375 3.22040
# Velocity P-wave (km/s) = 6.07922 6.74811 6.42238
#
# Compressibility (1/GPa) = 0.01721400
#
# Stress axis : x y z
#
# Youngs Moduli (GPa) = 94.95111 95.17251 103.14615
#
# Poissons Ratio (x) = 0.30932 0.16419
# Poissons Ratio (y) = 0.30860 0.19784
# Poissons Ratio (z) = 0.15115 0.18255
#
# Static dielectric constant tensor:
#      x y z
#    x 4.298920 0.000000 0.000000 
#    y 0.000000 3.799350 0.000000 
#    z 0.000000 0.000000 3.762880 
# 
# 
# High freq. dielectric constant tensor:
#      x y z
#    x 1.837700 0.000000 0.000000 
#    y 0.000000 1.836490 0.000000 
#    z 0.000000 0.000000 1.813760 
# 
# From -- ./inp_files/24975.got.cif
#   From: 2010.03.12/outbox.cif.g09.slc.cpg/sg50_13_cif.got.tgz:24975.got - 2010.04.16 13:23:21.
