data_PCOD8205310
_publ_section_title
;
Structure prediction by ZEFSAII (Michael W. Deem and Ramdas Pophale) SiO2 
 PCOD8205310
Probable space group: P B A N
;
_chemical_formula_sum "Si O2"
_cell_formula_units_Z 56
_cell_length_a 5.271154
_cell_length_b 16.084802
_cell_length_c 32.163404
_cell_angle_alpha 90.000000
_cell_angle_beta 90.000000
_cell_angle_gamma 90.000000
_cell_volume 2726.989274
_symmetry_space_group_name_H-M "P B A N"
_symmetry_group_IT_number 50
_space_group.IT_coordinate_system_code '2'
_symmetry_cell_setting 'orthorhombic'
loop_
_space_group_symop_operation_xyz
x,y,z
1/2-x,1/2-y,z
x,1/2-y,-z
1/2-x,y,-z
-x,-y,-z
1/2+x,1/2+y,-z
-x,1/2+y,z
1/2+x,-y,z
loop_
_atom_site_type_symbol
_atom_site_label
_atom_site_fract_x
_atom_site_fract_y
_atom_site_fract_z
Si Si1 0.499778 0.216441 0.546745
Si Si2 0.999308 0.799796 0.739261
Si Si3 0.949525 0.049899 0.416474
Si Si4 0.499034 0.302307 0.163911
Si Si5 0.500583 0.442460 0.099560
Si Si6 0.999973 0.154493 0.017757
Si Si7 0.513853 0.447226 0.323672
O O1 0.750000 0.250000 0.570388
O O2 0.499588 0.250000 0.500000
O O3 0.499381 0.117252 0.547832
O O4 0.250000 0.250000 0.570284
O O5 0.750000 0.750000 0.726444
O O6 0.250000 0.750000 0.728008
O O7 0.993069 0.823609 0.787582
O O8 0.005675 0.880369 0.711820
O O9 0.983480 0.090023 0.370542
O O10 0.660960 0.020506 0.422813
O O11 0.750000 0.250000 0.151653
O O12 0.501018 0.393374 0.142974
O O13 0.250000 0.250000 0.150466
O O14 0.750596 0.499994 0.095297
O O15 0.500323 0.364507 0.066856
O O16 0.999955 0.250000 0.000000
O O17 0.250000 0.109550 0.000000
O O18 0.750000 0.109526 0.000000
O O19 0.266023 0.501145 0.316834
#
# Coordination Sequence:
#
# PCOD8205310 Si02
#       7
#     8   8   8   8   8   8   8
#     4  10  21  38  56  81 112 145 193 244 294 348
#     4  10  21  38  59  91 119 156 201 239 281 344
#     4  10  21  38  58  83 115 153 196 239 294 359
#     4  10  23  41  65  86 122 165 199 232 285 358
#     4  12  26  41  64  96 122 150 198 253 295 336
#     4  10  23  40  63  88 115 158 197 231 294 364
#     4  10  21  36  58  87 119 156 191 239 300 350
#
# _framework density 20.535468000000002
#
# number of rings (size 3 to 8) (size 9 to 14) (size 15 to 20)
#    0.000    1.714    0.000    3.429    4.000    4.000 
#    0.000    8.571    0.000    0.000    0.000    0.000 
#    0.000    0.000    0.000    0.000    0.000    0.000 
#
# Total GULP energy -693955.315043 kJ/mol
# GULP energy per Si atom -12392.059197 kJ/mol
# Density = 2.048873 g / cm^3
# Si number density = 20.535468 Si / 1000 Ang^3
#
#
#
# Elastic Constant Matrix: (Units=GPa)
#
#
# Indices 1 2 3 4 5 6 
#
# 1 201.0454 47.6962 36.6574 0.0000 0.0000 0.0000
# 2 47.6962 112.0315 67.4709 0.0000 0.0000 0.0000
# 3 36.6574 67.4709 82.6689 0.0000 0.0000 0.0000
# 4 0.0000 0.0000 0.0000 49.0321 0.0000 0.0000
# 5 0.0000 0.0000 0.0000 0.0000 8.4118 0.0000
# 6 0.0000 0.0000 0.0000 0.0000 0.0000 16.4820
#
#
#
# Elastic Compliance Matrix: (Units=1/GPa)
#
#
# Indices 1 2 3 4 5 6 
#
# 1 0.005579 -0.001741 -0.001053 0.000000 0.000000 0.000000
# 2 -0.001741 0.018098 -0.013999 0.000000 0.000000 0.000000
# 3 -0.001053 -0.013999 0.023989 0.000000 0.000000 0.000000
# 4 0.000000 0.000000 0.000000 0.020395 0.000000 0.000000
# 5 0.000000 0.000000 0.000000 0.000000 0.118881 0.000000
# 6 0.000000 0.000000 0.000000 0.000000 0.000000 0.060672
#
#
# Mechanical properties :
#
#
# Convention : Reuss Voigt Hill
#
# Bulk Modulus (GPa) = 71.02238 77.71053 74.36646
# Shear Modulus (GPa) = 17.48906 31.04659 24.26783
#
# Velocity S-wave (km/s) = 2.92147 3.89247 3.44139
# Velocity P-wave (km/s) = 6.78530 7.62404 7.21687
#
# Compressibility (1/GPa) = 0.01408007
#
# Stress axis : x y z
#
# Youngs Moduli (GPa) = 179.24231 55.25421 41.68642
#
# Poissons Ratio (x) = 0.09621 0.04389
# Poissons Ratio (y) = 0.31209 0.58356
# Poissons Ratio (z) = 0.18871 0.77350
#
# Static dielectric constant tensor:
#      x y z
#    x 4.311950 0.000000 0.000000 
#    y 0.000000 3.496800 0.000000 
#    z 0.000000 0.000000 3.666470 
# 
# 
# High freq. dielectric constant tensor:
#      x y z
#    x 1.843210 0.000000 0.000000 
#    y 0.000000 1.787940 0.000000 
#    z 0.000000 0.000000 1.795360 
# 
# From -- ./inp_files/32369.got.cif
#   From: 2010.03.12/outbox.cif.g09.slc.cpg/sg50_17_cif.got.tgz:32369.got - 2010.04.16 13:23:21.
