data_PCOD8205721
_publ_section_title
;
Structure prediction by ZEFSAII (Michael W. Deem and Ramdas Pophale) SiO2 
 PCOD8205721
Probable space group: P B A N
;
_chemical_formula_sum "Si O2"
_cell_formula_units_Z 56
_cell_length_a 16.155653
_cell_length_b 20.584281
_cell_length_c 8.032203
_cell_angle_alpha 90.000000
_cell_angle_beta 90.000000
_cell_angle_gamma 90.000000
_cell_volume 2671.129197
_symmetry_space_group_name_H-M "P B A N"
_symmetry_group_IT_number 50
_space_group.IT_coordinate_system_code '2'
_symmetry_cell_setting 'orthorhombic'
loop_
_space_group_symop_operation_xyz
x,y,z
1/2-x,1/2-y,z
x,1/2-y,-z
1/2-x,y,-z
-x,-y,-z
1/2+x,1/2+y,-z
-x,1/2+y,z
1/2+x,-y,z
loop_
_atom_site_type_symbol
_atom_site_label
_atom_site_fract_x
_atom_site_fract_y
_atom_site_fract_z
Si Si1 0.216075 0.877416 0.819125
Si Si2 0.584706 0.000704 0.179122
Si Si3 0.897732 0.005070 0.194947
Si Si4 0.016903 0.175942 0.439825
Si Si5 0.112295 0.865020 0.315052
Si Si6 0.918813 0.273350 0.828544
Si Si7 0.653602 0.925840 0.488227
O O1 0.157032 0.933789 0.753965
O O2 0.287926 0.871942 0.678289
O O3 0.168930 0.809582 0.842046
O O4 0.250000 0.897435 0.000000
O O5 0.580412 0.079717 0.186610
O O6 0.493081 0.972498 0.203953
O O7 0.640847 0.975440 0.332806
O O8 0.620129 0.980634 0.996246
O O9 0.878921 0.951014 0.333544
O O10 0.026649 0.250000 0.500000
O O11 0.104728 0.140686 0.453533
O O12 0.942068 0.131032 0.516890
O O13 0.989164 0.180528 0.248215
O O14 0.094806 0.791572 0.271246
O O15 0.956129 0.250000 0.000000
O O16 0.750000 0.909276 0.500000
#
# Coordination Sequence:
#
# PCOD8205721 Si02
#       7
#     8   8   8   8   8   8   8
#     4  12  22  36  62  98 139 177 223 270 333 400
#     4  11  23  43  68  97 136 182 230 269 347 407
#     4  11  24  42  67  97 142 181 226 283 331 412
#     4  10  25  47  65  96 129 170 232 273 344 419
#     4  11  22  39  61  88 137 177 213 276 321 402
#     4  11  22  39  66  91 131 179 219 272 330 406
#     4  12  26  43  72  99 132 177 225 296 346 402
#
# _framework density 20.964917
#
# number of rings (size 3 to 8) (size 9 to 14) (size 15 to 20)
#    0.000    0.857    4.286    2.571    2.000    2.000 
#    0.000    2.143    0.000    0.000    0.000    0.000 
#    0.000    0.000    0.000    0.000    0.000    0.000 
#
# Total GULP energy -693895.767635 kJ/mol
# GULP energy per Si atom -12390.995851 kJ/mol
# Density = 2.091720 g / cm^3
# Si number density = 20.964917 Si / 1000 Ang^3
#
#
#
# Elastic Constant Matrix: (Units=GPa)
#
#
# Indices 1 2 3 4 5 6 
#
# 1 148.5020 55.5498 70.4517 0.0000 0.0000 0.0000
# 2 55.5498 86.6345 25.7721 0.0000 0.0000 0.0000
# 3 70.4517 25.7721 107.8817 0.0000 0.0000 0.0000
# 4 0.0000 0.0000 0.0000 26.5291 0.0000 0.0000
# 5 0.0000 0.0000 0.0000 0.0000 26.9675 0.0000
# 6 0.0000 0.0000 0.0000 0.0000 0.0000 49.5990
#
#
#
# Elastic Compliance Matrix: (Units=1/GPa)
#
#
# Indices 1 2 3 4 5 6 
#
# 1 0.011924 -0.005737 -0.006416 0.000000 0.000000 0.000000
# 2 -0.005737 0.015186 0.000119 0.000000 0.000000 0.000000
# 3 -0.006416 0.000119 0.013431 0.000000 0.000000 0.000000
# 4 0.000000 0.000000 0.000000 0.037694 0.000000 0.000000
# 5 0.000000 0.000000 0.000000 0.000000 0.037082 0.000000
# 6 0.000000 0.000000 0.000000 0.000000 0.000000 0.020162
#
#
# Mechanical properties :
#
#
# Convention : Reuss Voigt Hill
#
# Bulk Modulus (GPa) = 60.70944 71.84061 66.27502
# Shear Modulus (GPa) = 30.29593 33.36877 31.83235
#
# Velocity S-wave (km/s) = 3.80554 3.99387 3.90084
# Velocity P-wave (km/s) = 6.95198 7.45718 7.20901
#
# Compressibility (1/GPa) = 0.01647190
#
# Stress axis : x y z
#
# Youngs Moduli (GPa) = 83.86510 65.85053 74.45310
#
# Poissons Ratio (x) = 0.37777 0.47772
# Poissons Ratio (y) = 0.48112 -0.00883
# Poissons Ratio (z) = 0.53811 -0.00781
#
# Static dielectric constant tensor:
#      x y z
#    x 3.906220 0.000000 0.000000 
#    y 0.000000 3.761310 0.000000 
#    z 0.000000 0.000000 4.149370 
# 
# 
# High freq. dielectric constant tensor:
#      x y z
#    x 1.813490 0.000000 0.000000 
#    y 0.000000 1.819780 0.000000 
#    z 0.000000 0.000000 1.828270 
# 
# From -- ./inp_files/13265.got.cif
#   From: 2010.03.12/outbox.cif.g09.slc.cpg/sg50_7_cif.got.tgz:13265.got - 2010.04.16 13:23:21.
