data_PCOD8205704
_publ_section_title
;
Structure prediction by ZEFSAII (Michael W. Deem and Ramdas Pophale) SiO2 
 PCOD8205704
Probable space group: P B A N
;
_chemical_formula_sum "Si O2"
_cell_formula_units_Z 32
_cell_length_a 9.004280
_cell_length_b 18.753866
_cell_length_c 7.986867
_cell_angle_alpha 90.000000
_cell_angle_beta 90.000000
_cell_angle_gamma 90.000000
_cell_volume 1348.702780
_symmetry_space_group_name_H-M "P B A N"
_symmetry_group_IT_number 50
_space_group.IT_coordinate_system_code '2'
_symmetry_cell_setting 'orthorhombic'
loop_
_space_group_symop_operation_xyz
x,y,z
1/2-x,1/2-y,z
x,1/2-y,-z
1/2-x,y,-z
-x,-y,-z
1/2+x,1/2+y,-z
-x,1/2+y,z
1/2+x,-y,z
loop_
_atom_site_type_symbol
_atom_site_label
_atom_site_fract_x
_atom_site_fract_y
_atom_site_fract_z
Si Si1 0.580635 0.237439 0.694679
Si Si2 0.953818 0.083529 0.174047
Si Si3 0.386449 0.353943 0.878607
Si Si4 0.760491 0.977464 0.693217
O O1 0.750000 0.250000 0.752838
O O2 0.557280 0.250000 0.500000
O O3 0.541047 0.156164 0.723096
O O4 0.467457 0.284938 0.803349
O O5 0.068900 0.029161 0.258127
O O6 0.797521 0.043206 0.192820
O O7 0.993393 0.099282 0.981294
O O8 0.325082 0.403266 0.729501
O O9 0.250000 0.330882 0.000000
O O10 0.750000 0.998385 0.500000
#
# Coordination Sequence:
#
# PCOD8205704 Si02
#       4
#     8   8   8   8
#     4  11  26  46  74 105 141 184 240 298 359 421
#     4  11  25  43  69 104 139 189 229 293 356 420
#     4  10  24  47  70 103 141 185 239 293 355 424
#     4  11  24  42  71 101 144 185 237 290 351 424
#
# _framework density 23.726502
#
# number of rings (size 3 to 8) (size 9 to 14) (size 15 to 20)
#    0.000    1.250    0.000    3.750    7.000    9.000 
#    0.000    6.250    0.000    0.000    0.000    0.000 
#    0.000    0.000    0.000    0.000    0.000    0.000 
#
# Total GULP energy -396933.725460 kJ/mol
# GULP energy per Si atom -12404.178921 kJ/mol
# Density = 2.367250 g / cm^3
# Si number density = 23.726502 Si / 1000 Ang^3
#
#
#
# Elastic Constant Matrix: (Units=GPa)
#
#
# Indices 1 2 3 4 5 6 
#
# 1 99.5409 46.1398 50.0949 0.0000 0.0000 0.0000
# 2 46.1398 94.6823 23.5554 0.0000 0.0000 0.0000
# 3 50.0949 23.5554 92.6074 0.0000 0.0000 0.0000
# 4 0.0000 0.0000 0.0000 24.7552 0.0000 0.0000
# 5 0.0000 0.0000 0.0000 0.0000 30.4171 0.0000
# 6 0.0000 0.0000 0.0000 0.0000 0.0000 31.5862
#
#
#
# Elastic Compliance Matrix: (Units=1/GPa)
#
#
# Indices 1 2 3 4 5 6 
#
# 1 0.016704 -0.006290 -0.007436 0.000000 0.000000 0.000000
# 2 -0.006290 0.013644 -0.000068 0.000000 0.000000 0.000000
# 3 -0.007436 -0.000068 0.014838 0.000000 0.000000 0.000000
# 4 0.000000 0.000000 0.000000 0.040396 0.000000 0.000000
# 5 0.000000 0.000000 0.000000 0.000000 0.032876 0.000000
# 6 0.000000 0.000000 0.000000 0.000000 0.000000 0.031659
#
#
# Mechanical properties :
#
#
# Convention : Reuss Voigt Hill
#
# Bulk Modulus (GPa) = 56.82480 58.49010 57.65745
# Shear Modulus (GPa) = 27.23751 28.48772 27.86262
#
# Velocity S-wave (km/s) = 3.39186 3.46883 3.43056
# Velocity P-wave (km/s) = 6.27228 6.38350 6.32813
#
# Compressibility (1/GPa) = 0.01759795
#
# Stress axis : x y z
#
# Youngs Moduli (GPa) = 59.86628 73.29367 67.39513
#
# Poissons Ratio (x) = 0.46102 0.50114
# Poissons Ratio (y) = 0.37656 0.00457
# Poissons Ratio (z) = 0.44516 0.00497
#
# Static dielectric constant tensor:
#      x y z
#    x 4.568360 0.000000 0.000000 
#    y 0.000000 4.210310 0.000000 
#    z 0.000000 0.000000 4.180840 
# 
# 
# High freq. dielectric constant tensor:
#      x y z
#    x 1.952780 0.000000 0.000000 
#    y 0.000000 1.949840 0.000000 
#    z 0.000000 0.000000 1.940410 
# 
# From -- ./inp_files/9038.got.cif
#   From: 2010.03.12/outbox.cif.g09.slc.cpg/sg50_5_cif.got.tgz:9038.got - 2010.04.16 13:23:21.
