data_PCOD8205149
_publ_section_title
;
Structure prediction by ZEFSAII (Michael W. Deem and Ramdas Pophale) SiO2 
 PCOD8205149
Probable space group: P B A N
;
_chemical_formula_sum "Si O2"
_cell_formula_units_Z 64
_cell_length_a 30.579172
_cell_length_b 11.226662
_cell_length_c 9.155000
_cell_angle_alpha 90.000000
_cell_angle_beta 90.000000
_cell_angle_gamma 90.000000
_cell_volume 3142.930069
_symmetry_space_group_name_H-M "P B A N"
_symmetry_group_IT_number 50
_space_group.IT_coordinate_system_code '2'
_symmetry_cell_setting 'orthorhombic'
loop_
_space_group_symop_operation_xyz
x,y,z
1/2-x,1/2-y,z
x,1/2-y,-z
1/2-x,y,-z
-x,-y,-z
1/2+x,1/2+y,-z
-x,1/2+y,z
1/2+x,-y,z
loop_
_atom_site_type_symbol
_atom_site_label
_atom_site_fract_x
_atom_site_fract_y
_atom_site_fract_z
Si Si1 0.619875 0.883940 0.980422
Si Si2 0.574093 0.054359 0.473312
Si Si3 0.987674 0.643894 0.597618
Si Si4 0.702262 0.888289 0.477227
Si Si5 0.855720 0.028356 0.301811
Si Si6 0.979245 0.625286 0.942724
Si Si7 0.150658 0.513614 0.745798
Si Si8 0.300865 0.751217 0.325569
O O1 0.642302 0.975926 0.089839
O O2 0.639481 0.750000 0.000000
O O3 0.568676 0.878425 0.012389
O O4 0.628653 0.940791 0.823705
O O5 0.540989 0.154883 0.413346
O O6 0.603235 0.090439 0.614447
O O7 0.605112 0.011604 0.342062
O O8 0.537499 0.961895 0.520642
O O9 0.967963 0.750000 0.500000
O O10 0.976117 0.638996 0.768636
O O11 0.705882 0.750000 0.500000
O O12 0.750000 0.948201 0.500000
O O13 0.667890 0.941769 0.587178
O O14 0.685145 0.917473 0.316124
O O15 0.822616 0.131986 0.252837
O O16 0.002021 0.750000 0.000000
O O17 0.000000 0.500000 0.000000
O O18 0.173579 0.641537 0.744074
O O19 0.250000 0.750000 0.282760
O O20 0.307611 0.750000 0.500000
#
# Coordination Sequence:
#
# PCOD8205149 Si02
#       8
#     8   8   8   8   8   8   8   8
#     4  11  25  44  65  91 135 175 230 270 340 410
#     4  10  23  39  61  95 126 165 231 273 338 377
#     4  11  25  39  66  93 132 173 231 291 331 399
#     4  10  20  36  62  94 125 163 216 269 324 391
#     4  11  22  41  66  94 130 171 219 270 337 401
#     4  11  26  47  66  95 137 188 227 288 359 418
#     4  11  23  40  66  94 128 174 220 268 336 406
#     4  11  22  41  70 101 132 167 212 279 344 405
#
# _framework density 20.363164000000001
#
# number of rings (size 3 to 8) (size 9 to 14) (size 15 to 20)
#    0.000    1.250    3.750    2.250    8.750    2.500 
#    2.250    3.125    0.000    4.500    0.000    0.000 
#    0.000    0.000    0.000    0.000    0.000    0.000 
#
# Total GULP energy -792968.268643 kJ/mol
# GULP energy per Si atom -12390.129198 kJ/mol
# Density = 2.031682 g / cm^3
# Si number density = 20.363164 Si / 1000 Ang^3
#
#
#
# Elastic Constant Matrix: (Units=GPa)
#
#
# Indices 1 2 3 4 5 6 
#
# 1 111.6506 29.9097 20.3174 0.0000 0.0000 0.0000
# 2 29.9097 105.5410 29.2990 0.0000 0.0000 0.0000
# 3 20.3174 29.2990 85.8109 0.0000 0.0000 0.0000
# 4 0.0000 0.0000 0.0000 34.2841 0.0000 0.0000
# 5 0.0000 0.0000 0.0000 0.0000 22.6157 0.0000
# 6 0.0000 0.0000 0.0000 0.0000 0.0000 24.5478
#
#
#
# Elastic Compliance Matrix: (Units=1/GPa)
#
#
# Indices 1 2 3 4 5 6 
#
# 1 0.009870 -0.002373 -0.001527 0.000000 0.000000 0.000000
# 2 -0.002373 0.011038 -0.003207 0.000000 0.000000 0.000000
# 3 -0.001527 -0.003207 0.013110 0.000000 0.000000 0.000000
# 4 0.000000 0.000000 0.000000 0.029168 0.000000 0.000000
# 5 0.000000 0.000000 0.000000 0.000000 0.044217 0.000000
# 6 0.000000 0.000000 0.000000 0.000000 0.000000 0.040737
#
#
# Mechanical properties :
#
#
# Convention : Reuss Voigt Hill
#
# Bulk Modulus (GPa) = 50.49389 51.33943 50.91666
# Shear Modulus (GPa) = 29.59376 31.18796 30.39086
#
# Velocity S-wave (km/s) = 3.81635 3.91780 3.86741
# Velocity P-wave (km/s) = 6.65356 6.76255 6.70828
#
# Compressibility (1/GPa) = 0.01980437
#
# Stress axis : x y z
#
# Youngs Moduli (GPa) = 101.31614 90.59772 76.27828
#
# Poissons Ratio (x) = 0.21502 0.11645
# Poissons Ratio (y) = 0.24046 0.24461
# Poissons Ratio (z) = 0.15467 0.29053
#
# Static dielectric constant tensor:
#      x y z
#    x 4.199340 0.000000 0.000000 
#    y 0.000000 3.605690 0.000000 
#    z 0.000000 0.000000 3.909310 
# 
# 
# High freq. dielectric constant tensor:
#      x y z
#    x 1.807230 0.000000 0.000000 
#    y 0.000000 1.805090 0.000000 
#    z 0.000000 0.000000 1.781090 
# 
# From -- ./inp_files/17090.got.cif
#   From: 2010.03.12/outbox.cif.g09.slc.cpg/sg50_9_cif.got.tgz:17090.got - 2010.04.16 13:23:21.
