data_PCOD8205965
_publ_section_title
;
Structure prediction by ZEFSAII (Michael W. Deem and Ramdas Pophale) SiO2 
 PCOD8205965
Probable space group: P M M A
;
_chemical_formula_sum "Si O2"
_cell_formula_units_Z 44
_cell_length_a 8.695375
_cell_length_b 17.787693
_cell_length_c 20.447055
_cell_angle_alpha 90.000000
_cell_angle_beta 90.000000
_cell_angle_gamma 90.000000
_cell_volume 3162.559513
_symmetry_space_group_name_H-M "P M M A"
_symmetry_group_IT_number 51
_symmetry_cell_setting 'orthorhombic'
loop_
_space_group_symop_operation_xyz
x,y,z
1/2-x,-y,z
1/2+x,-y,-z
-x,y,-z
-x,-y,-z
1/2+x,y,-z
1/2-x,y,z
x,-y,z
loop_
_atom_site_type_symbol
_atom_site_label
_atom_site_fract_x
_atom_site_fract_y
_atom_site_fract_z
Si Si1 0.567051 0.500000 0.427042
Si Si2 0.923027 0.089669 0.934062
Si Si3 0.432923 0.350081 0.427358
Si Si4 0.073172 0.088336 0.329930
Si Si5 0.922065 0.910691 0.196911
Si Si6 0.568956 0.801347 0.428789
O O1 0.750000 0.500000 0.427865
O O2 0.500000 0.500000 0.500000
O O3 0.502819 0.424403 0.391559
O O4 0.750000 0.119625 0.931541
O O5 0.010396 0.122222 0.870633
O O6 0.928159 0.000000 0.934039
O O7 0.000000 0.121426 0.000000
O O8 0.500000 0.347372 0.500000
O O9 0.250000 0.354426 0.427306
O O10 0.492087 0.272636 0.394734
O O11 0.250000 0.109690 0.341818
O O12 0.025633 0.116128 0.257632
O O13 0.966795 0.127797 0.383401
O O14 0.044178 0.000000 0.337328
O O15 0.750000 0.879464 0.206410
O O16 0.921782 0.000000 0.192823
O O17 0.500000 0.817773 0.500000
O O18 0.750000 0.789072 0.435397
#
# Coordination Sequence:
#
# PCOD8205965 Si02
#       6
#     4   8   8   8   8   8
#     4  10  16  24  38  58  80 100 120 140 169 212
#     4   9  15  22  33  50  71  93 115 141 175 215
#     4  10  17  27  41  58  78  98 119 144 178 219
#     4  10  20  33  46  58  72  93 123 159 198 237
#     4   9  16  26  39  54  71  91 116 147 183 223
#     4  11  21  33  46  59  75  95 121 156 197 236
#
# _framework density 13.912781000000001
#
# number of rings (size 3 to 8) (size 9 to 14) (size 15 to 20)
#    0.000    2.182    0.000    7.909    0.000    5.818 
#    0.000    0.000    0.000    0.000    0.000    0.000 
#    0.000    0.000    0.000    0.000    0.000    0.000 
#
# Total GULP energy -545426.523759 kJ/mol
# GULP energy per Si atom -12396.057358 kJ/mol
# Density = 1.388112 g / cm^3
# Si number density = 13.912781 Si / 1000 Ang^3
#
#
#
# Elastic Constant Matrix: (Units=GPa)
#
#
# Indices 1 2 3 4 5 6 
#
# 1 122.5912 30.1685 29.4312 0.0000 0.0000 0.0000
# 2 30.1685 45.8895 27.8311 0.0000 0.0000 0.0000
# 3 29.4312 27.8311 69.2792 0.0000 0.0000 0.0000
# 4 0.0000 0.0000 0.0000 0.2456 0.0000 0.0000
# 5 0.0000 0.0000 0.0000 0.0000 23.1711 0.0000
# 6 0.0000 0.0000 0.0000 0.0000 0.0000 19.6260
#
#
#
# Elastic Compliance Matrix: (Units=1/GPa)
#
#
# Indices 1 2 3 4 5 6 
#
# 1 0.009961 -0.005265 -0.002117 0.000000 0.000000 0.000000
# 2 -0.005265 0.031594 -0.010455 0.000000 0.000000 0.000000
# 3 -0.002117 -0.010455 0.019534 0.000000 0.000000 0.000000
# 4 0.000000 0.000000 0.000000 4.071266 0.000000 0.000000
# 5 0.000000 0.000000 0.000000 0.000000 0.043157 0.000000
# 6 0.000000 0.000000 0.000000 0.000000 0.000000 0.050953
#
#
# Mechanical properties :
#
#
# Convention : Reuss Voigt Hill
#
# Bulk Modulus (GPa) = 39.34718 45.84680 42.59699
# Shear Modulus (GPa) = 1.17079 18.63048 9.90064
#
# Velocity S-wave (km/s) = 0.91834 3.66333 2.67052
# Velocity P-wave (km/s) = 5.42837 7.13567 6.33976
#
# Compressibility (1/GPa) = 0.02541478
#
# Stress axis : x y z
#
# Youngs Moduli (GPa) = 100.39193 31.65205 51.19368
#
# Poissons Ratio (x) = 0.16664 0.10836
# Poissons Ratio (y) = 0.52854 0.53524
# Poissons Ratio (z) = 0.21249 0.33093
#
# Static dielectric constant tensor:
#      x y z
#    x 2.933370 0.000000 0.000000 
#    y 0.000000 3.037410 0.000000 
#    z 0.000000 0.000000 2.595590 
# 
# 
# High freq. dielectric constant tensor:
#      x y z
#    x 1.557000 0.000000 0.000000 
#    y 0.000000 1.488720 0.000000 
#    z 0.000000 0.000000 1.497290 
# 
# From -- ./inp_files/31628.got.cif
#   From: 2010.03.12/outbox.cif.g09.slc.cpg/sg51_16_cif.got.tgz:31628.got - 2010.04.16 13:43:02.
