data_PCOD8205809
_publ_section_title
;
Structure prediction by ZEFSAII (Michael W. Deem and Ramdas Pophale) SiO2 
 PCOD8205809
Probable space group: P B A N
;
_chemical_formula_sum "Si O2"
_cell_formula_units_Z 24
_cell_length_a 10.017702
_cell_length_b 21.402541
_cell_length_c 4.795810
_cell_angle_alpha 90.000000
_cell_angle_beta 90.000000
_cell_angle_gamma 90.000000
_cell_volume 1028.242179
_symmetry_space_group_name_H-M "P B A N"
_symmetry_group_IT_number 50
_space_group.IT_coordinate_system_code '2'
_symmetry_cell_setting 'orthorhombic'
loop_
_space_group_symop_operation_xyz
x,y,z
1/2-x,1/2-y,z
x,1/2-y,-z
1/2-x,y,-z
-x,-y,-z
1/2+x,1/2+y,-z
-x,1/2+y,z
1/2+x,-y,z
loop_
_atom_site_type_symbol
_atom_site_label
_atom_site_fract_x
_atom_site_fract_y
_atom_site_fract_z
Si Si1 0.472215 0.102439 0.940348
Si Si2 0.905509 0.820455 0.446817
Si Si3 0.374666 0.986358 0.697130
O O1 0.498118 0.134171 0.638330
O O2 0.360351 0.048058 0.892558
O O3 0.421169 0.159631 0.127363
O O4 0.602374 0.071324 0.087511
O O5 0.952980 0.750000 0.500000
O O6 0.750000 0.829467 0.500000
O O7 0.250000 0.972746 0.500000
O O8 0.500000 0.000000 0.500000
#
# Coordination Sequence:
#
# PCOD8205809 Si02
#       3
#     8   8   8
#     4  11  23  40  64  96 138 178 222 285 341 408
#     4  11  23  39  64  99 137 180 230 285 344 405
#     4  11  25  42  67 104 136 181 224 280 347 413
#
# _framework density 23.340805
#
# number of rings (size 3 to 8) (size 9 to 14) (size 15 to 20)
#    0.000    1.000    3.333    3.000    4.667    6.667 
#    0.000    0.000    0.000    1.000    8.667    0.000 
#    0.000    0.000    0.000    0.000    0.000    0.000 
#
# Total GULP energy -297385.036519 kJ/mol
# GULP energy per Si atom -12391.043188 kJ/mol
# Density = 2.328768 g / cm^3
# Si number density = 23.340805 Si / 1000 Ang^3
#
#
#
# Elastic Constant Matrix: (Units=GPa)
#
#
# Indices 1 2 3 4 5 6 
#
# 1 91.8467 20.8154 33.5466 0.0000 0.0000 0.0000
# 2 20.8154 147.7111 36.9595 0.0000 0.0000 0.0000
# 3 33.5466 36.9595 118.1759 0.0000 0.0000 0.0000
# 4 0.0000 0.0000 0.0000 48.0111 0.0000 0.0000
# 5 0.0000 0.0000 0.0000 0.0000 45.9647 0.0000
# 6 0.0000 0.0000 0.0000 0.0000 0.0000 4.3581
#
#
#
# Elastic Compliance Matrix: (Units=1/GPa)
#
#
# Indices 1 2 3 4 5 6 
#
# 1 0.012264 -0.000930 -0.003190 0.000000 0.000000 0.000000
# 2 -0.000930 0.007415 -0.002055 0.000000 0.000000 0.000000
# 3 -0.003190 -0.002055 0.010010 0.000000 0.000000 0.000000
# 4 0.000000 0.000000 0.000000 0.020829 0.000000 0.000000
# 5 0.000000 0.000000 0.000000 0.000000 0.021756 0.000000
# 6 0.000000 0.000000 0.000000 0.000000 0.000000 0.229459
#
#
# Mechanical properties :
#
#
# Convention : Reuss Voigt Hill
#
# Bulk Modulus (GPa) = 57.67569 60.04187 58.85878
# Shear Modulus (GPa) = 15.63170 37.42760 26.52965
#
# Velocity S-wave (km/s) = 2.59069 4.00875 3.37504
# Velocity P-wave (km/s) = 5.80627 6.87071 6.36079
#
# Compressibility (1/GPa) = 0.01733833
#
# Stress axis : x y z
#
# Youngs Moduli (GPa) = 81.54106 134.85740 99.89611
#
# Poissons Ratio (x) = 0.12540 0.31872
# Poissons Ratio (y) = 0.07582 0.20530
# Poissons Ratio (z) = 0.26016 0.27715
#
# Static dielectric constant tensor:
#      x y z
#    x 3.883130 0.000000 0.000000 
#    y 0.000000 4.539380 0.000000 
#    z 0.000000 0.000000 4.819930 
# 
# 
# High freq. dielectric constant tensor:
#      x y z
#    x 1.869270 0.000000 0.000000 
#    y 0.000000 1.928160 0.000000 
#    z 0.000000 0.000000 1.961540 
# 
# From -- ./inp_files/797.got.cif
#   From: 2010.03.12/outbox.cif.g09.slc.cpg/sg50_1_cif.got.tgz:797.got - 2010.04.16 13:23:21.
