data_PCOD8205361
_publ_section_title
;
Structure prediction by ZEFSAII (Michael W. Deem and Ramdas Pophale) SiO2 
 PCOD8205361
Probable space group: P B A N
;
_chemical_formula_sum "Si O2"
_cell_formula_units_Z 58
_cell_length_a 24.607666
_cell_length_b 13.165169
_cell_length_c 8.847772
_cell_angle_alpha 90.000000
_cell_angle_beta 90.000000
_cell_angle_gamma 90.000000
_cell_volume 2866.360330
_symmetry_space_group_name_H-M "P B A N"
_symmetry_group_IT_number 50
_space_group.IT_coordinate_system_code '2'
_symmetry_cell_setting 'orthorhombic'
loop_
_space_group_symop_operation_xyz
x,y,z
1/2-x,1/2-y,z
x,1/2-y,-z
1/2-x,y,-z
-x,-y,-z
1/2+x,1/2+y,-z
-x,1/2+y,z
1/2+x,-y,z
loop_
_atom_site_type_symbol
_atom_site_label
_atom_site_fract_x
_atom_site_fract_y
_atom_site_fract_z
Si Si1 0.266432 0.552937 0.158109
Si Si2 0.958571 0.442055 0.332685
Si Si3 0.376127 0.271050 0.821393
Si Si4 0.837296 0.974452 0.318477
Si Si5 0.999059 0.736376 0.826324
Si Si6 0.250000 0.750000 0.000000
Si Si7 0.354872 0.433150 0.331315
Si Si8 0.444262 0.915808 0.343502
O O1 0.217613 0.534781 0.277408
O O2 0.280573 0.672086 0.116437
O O3 0.320409 0.508185 0.227983
O O4 0.250000 0.497530 0.000000
O O5 0.961562 0.359651 0.199762
O O6 0.917058 0.533569 0.300590
O O7 0.940281 0.379319 0.482328
O O8 0.019442 0.483135 0.348629
O O9 0.343975 0.374084 0.783574
O O10 0.438272 0.279069 0.760624
O O11 0.347204 0.181325 0.726643
O O12 0.372108 0.250000 0.000000
O O13 0.837397 0.941976 0.494353
O O14 0.885342 0.053644 0.280596
O O15 0.028299 0.833979 0.761106
O O16 0.991473 0.750000 0.000000
#
# Coordination Sequence:
#
# PCOD8205361 Si02
#       8
#     8   8   8   8   8   2   8   8
#     4  10  23  46  70  94 125 165 206 259 324 377
#     4  10  21  38  60  87 125 170 212 258 317 377
#     4  11  23  38  61  96 135 175 207 257 324 385
#     4  11  23  41  67  96 128 168 218 268 312 379
#     4  11  23  36  57  90 128 169 217 261 316 383
#     4   8  24  48  74  86 124 172 202 260 328 372
#     4  11  23  41  67  96 128 168 218 268 312 379
#     4  10  21  38  60  87 125 170 212 258 317 377
#
# _framework density 20.234719999999999
#
# number of rings (size 3 to 8) (size 9 to 14) (size 15 to 20)
#    0.414    1.103    2.759    2.069    0.000    5.517 
#    2.483    5.517    0.000    0.000    0.000    0.000 
#    0.000    0.000    0.000    0.000    0.000    0.000 
#
# Total GULP energy -718831.017749 kJ/mol
# GULP energy per Si atom -12393.638237 kJ/mol
# Density = 2.018866 g / cm^3
# Si number density = 20.234720 Si / 1000 Ang^3
#
#
#
# Elastic Constant Matrix: (Units=GPa)
#
#
# Indices 1 2 3 4 5 6 
#
# 1 68.5712 13.1159 16.2814 0.0000 0.0000 0.0000
# 2 13.1159 83.9125 20.9556 0.0000 0.0000 0.0000
# 3 16.2814 20.9556 69.7206 0.0000 0.0000 0.0000
# 4 0.0000 0.0000 0.0000 36.6086 0.0000 0.0000
# 5 0.0000 0.0000 0.0000 0.0000 29.2255 0.0000
# 6 0.0000 0.0000 0.0000 0.0000 0.0000 25.4403
#
#
#
# Elastic Compliance Matrix: (Units=1/GPa)
#
#
# Indices 1 2 3 4 5 6 
#
# 1 0.015650 -0.001658 -0.003156 0.000000 0.000000 0.000000
# 2 -0.001658 0.013060 -0.003538 0.000000 0.000000 0.000000
# 3 -0.003156 -0.003538 0.016143 0.000000 0.000000 0.000000
# 4 0.000000 0.000000 0.000000 0.027316 0.000000 0.000000
# 5 0.000000 0.000000 0.000000 0.000000 0.034217 0.000000
# 6 0.000000 0.000000 0.000000 0.000000 0.000000 0.039308
#
#
# Mechanical properties :
#
#
# Convention : Reuss Voigt Hill
#
# Bulk Modulus (GPa) = 35.52590 35.87890 35.70240
# Shear Modulus (GPa) = 29.10675 29.71163 29.40919
#
# Velocity S-wave (km/s) = 3.79681 3.83606 3.81649
# Velocity P-wave (km/s) = 6.06762 6.11476 6.09124
#
# Compressibility (1/GPa) = 0.02814848
#
# Stress axis : x y z
#
# Youngs Moduli (GPa) = 63.89804 76.57015 61.94449
#
# Poissons Ratio (x) = 0.12695 0.19552
# Poissons Ratio (y) = 0.10594 0.21917
# Poissons Ratio (z) = 0.20168 0.27092
#
# Static dielectric constant tensor:
#      x y z
#    x 3.591690 0.000000 0.000000 
#    y 0.000000 3.532370 0.000000 
#    z 0.000000 0.000000 3.766220 
# 
# 
# High freq. dielectric constant tensor:
#      x y z
#    x 1.779990 0.000000 0.000000 
#    y 0.000000 1.787230 0.000000 
#    z 0.000000 0.000000 1.796280 
# 
# From -- ./inp_files/16559.got.cif
#   From: 2010.03.12/outbox.cif.g09.slc.cpg/sg50_9_cif.got.tgz:16559.got - 2010.04.16 13:23:21.
