data_PCOD8205756
_publ_section_title
;
Structure prediction by ZEFSAII (Michael W. Deem and Ramdas Pophale) SiO2 
 PCOD8205756
Probable space group: P B A N
;
_chemical_formula_sum "Si O2"
_cell_formula_units_Z 50
_cell_length_a 17.618696
_cell_length_b 14.838329
_cell_length_c 9.122328
_cell_angle_alpha 90.000000
_cell_angle_beta 90.000000
_cell_angle_gamma 90.000000
_cell_volume 2384.868525
_symmetry_space_group_name_H-M "P B A N"
_symmetry_group_IT_number 50
_space_group.IT_coordinate_system_code '2'
_symmetry_cell_setting 'orthorhombic'
loop_
_space_group_symop_operation_xyz
x,y,z
1/2-x,1/2-y,z
x,1/2-y,-z
1/2-x,y,-z
-x,-y,-z
1/2+x,1/2+y,-z
-x,1/2+y,z
1/2+x,-y,z
loop_
_atom_site_type_symbol
_atom_site_label
_atom_site_fract_x
_atom_site_fract_y
_atom_site_fract_z
Si Si1 0.834788 0.492335 0.446452
Si Si2 0.518000 0.717391 0.168455
Si Si3 0.839940 0.517169 0.998469
Si Si4 0.250000 0.750000 0.000000
Si Si5 0.140738 0.641522 0.796085
Si Si6 0.431079 0.477940 0.730744
Si Si7 0.922098 0.899186 0.772352
O O1 0.750000 0.509375 0.500000
O O2 0.838402 0.393249 0.368342
O O3 0.899451 0.501343 0.570104
O O4 0.853437 0.573061 0.334722
O O5 0.429412 0.709292 0.208123
O O6 0.559310 0.627028 0.225036
O O7 0.550196 0.799042 0.267089
O O8 0.526008 0.750000 0.000000
O O9 0.877536 0.446775 0.110947
O O10 0.885348 0.604637 0.061527
O O11 0.750000 0.528518 0.000000
O O12 0.864736 0.486372 0.837560
O O13 0.207504 0.687292 0.885776
O O14 0.508876 0.530221 0.755096
#
# Coordination Sequence:
#
# PCOD8205756 Si02
#       7
#     8   8   8   2   8   8   8
#     4  11  26  48  68 100 141 191 238 292 369 434
#     4  12  23  41  69 108 135 175 248 300 350 429
#     4  11  21  40  68 100 137 187 230 289 361 424
#     4  12  24  40  70 112 140 182 232 300 392 440
#     4  11  24  41  70 102 141 180 231 300 365 441
#     4  12  23  43  70  97 140 183 238 294 354 434
#     4  11  24  42  69 102 137 188 239 292 360 432
#
# _framework density 20.965516000000001
#
# number of rings (size 3 to 8) (size 9 to 14) (size 15 to 20)
#    0.000    0.640    6.400    3.840    0.000    0.640 
#    0.000    6.800    0.000    0.000    0.000    0.000 
#    0.000    0.000    0.000    0.000    0.000    0.000 
#
# Total GULP energy -619477.847374 kJ/mol
# GULP energy per Si atom -12389.556947 kJ/mol
# Density = 2.091780 g / cm^3
# Si number density = 20.965516 Si / 1000 Ang^3
#
#
#
# Elastic Constant Matrix: (Units=GPa)
#
#
# Indices 1 2 3 4 5 6 
#
# 1 131.8416 55.5610 49.0050 0.0000 0.0000 0.0000
# 2 55.5610 117.5569 46.9568 0.0000 0.0000 0.0000
# 3 49.0050 46.9568 123.1377 0.0000 0.0000 0.0000
# 4 0.0000 0.0000 0.0000 31.3682 0.0000 0.0000
# 5 0.0000 0.0000 0.0000 0.0000 46.9070 0.0000
# 6 0.0000 0.0000 0.0000 0.0000 0.0000 6.2654
#
#
#
# Elastic Compliance Matrix: (Units=1/GPa)
#
#
# Indices 1 2 3 4 5 6 
#
# 1 0.010132 -0.003749 -0.002603 0.000000 0.000000 0.000000
# 2 -0.003749 0.011422 -0.002864 0.000000 0.000000 0.000000
# 3 -0.002603 -0.002864 0.010249 0.000000 0.000000 0.000000
# 4 0.000000 0.000000 0.000000 0.031879 0.000000 0.000000
# 5 0.000000 0.000000 0.000000 0.000000 0.021319 0.000000
# 6 0.000000 0.000000 0.000000 0.000000 0.000000 0.159606
#
#
# Mechanical properties :
#
#
# Convention : Reuss Voigt Hill
#
# Bulk Modulus (GPa) = 74.78108 75.06462 74.92285
# Shear Modulus (GPa) = 18.69188 31.64236 25.16712
#
# Velocity S-wave (km/s) = 2.98913 3.88913 3.46845
# Velocity P-wave (km/s) = 6.90357 7.48657 7.20097
#
# Compressibility (1/GPa) = 0.01337237
#
# Stress axis : x y z
#
# Youngs Moduli (GPa) = 98.69478 87.54737 97.57272
#
# Poissons Ratio (x) = 0.32824 0.25394
# Poissons Ratio (y) = 0.37003 0.27942
# Poissons Ratio (z) = 0.25686 0.25071
#
# Static dielectric constant tensor:
#      x y z
#    x 3.727670 0.000000 0.000000 
#    y 0.000000 4.318850 0.000000 
#    z 0.000000 0.000000 4.078180 
# 
# 
# High freq. dielectric constant tensor:
#      x y z
#    x 1.832690 0.000000 0.000000 
#    y 0.000000 1.813610 0.000000 
#    z 0.000000 0.000000 1.825600 
# 
# From -- ./inp_files/14272.got.cif
#   From: 2010.03.12/outbox.cif.g09.slc.cpg/sg50_8_cif.got.tgz:14272.got - 2010.04.16 13:23:21.
