data_PCOD8205815
_publ_section_title
;
Structure prediction by ZEFSAII (Michael W. Deem and Ramdas Pophale) SiO2 
 PCOD8205815
Probable space group: P B A N
;
_chemical_formula_sum "Si O2"
_cell_formula_units_Z 32
_cell_length_a 24.061853
_cell_length_b 4.884246
_cell_length_c 12.123030
_cell_angle_alpha 90.000000
_cell_angle_beta 90.000000
_cell_angle_gamma 90.000000
_cell_volume 1424.747090
_symmetry_space_group_name_H-M "P B A N"
_symmetry_group_IT_number 50
_space_group.IT_coordinate_system_code '2'
_symmetry_cell_setting 'orthorhombic'
loop_
_space_group_symop_operation_xyz
x,y,z
1/2-x,1/2-y,z
x,1/2-y,-z
1/2-x,y,-z
-x,-y,-z
1/2+x,1/2+y,-z
-x,1/2+y,z
1/2+x,-y,z
loop_
_atom_site_type_symbol
_atom_site_label
_atom_site_fract_x
_atom_site_fract_y
_atom_site_fract_z
Si Si1 0.599521 0.505839 0.071908
Si Si2 0.848968 0.209107 0.625871
Si Si3 0.463550 0.611612 0.715865
Si Si4 0.812099 0.688874 0.757964
O O1 0.555122 0.377559 0.156455
O O2 0.650439 0.655816 0.133670
O O3 0.621527 0.250000 0.000000
O O4 0.571689 0.750000 0.000000
O O5 0.831269 0.250000 0.500000
O O6 0.912695 0.307130 0.637694
O O7 0.808511 0.401395 0.695626
O O8 0.839761 0.595580 0.327400
O O9 0.516025 0.805169 0.691094
O O10 0.750000 0.750000 0.797096
#
# Coordination Sequence:
#
# PCOD8205815 Si02
#       4
#     8   8   8   8
#     4  11  23  41  63  90 123 161 207 256 307 367
#     4  11  24  42  65  94 127 163 207 257 309 372
#     4  11  23  40  62  90 124 162 206 255 307 366
#     4  11  24  43  65  93 128 163 206 259 311 370
#
# _framework density 22.460127
#
# number of rings (size 3 to 8) (size 9 to 14) (size 15 to 20)
#    0.000    1.000    0.000    9.000    0.000    7.500 
#    0.000    3.750    0.000    0.000    0.000    0.000 
#    0.000    0.000    0.000    0.000    0.000    0.000 
#
# Total GULP energy -396834.078341 kJ/mol
# GULP energy per Si atom -12401.064948 kJ/mol
# Density = 2.240901 g / cm^3
# Si number density = 22.460127 Si / 1000 Ang^3
#
#
#
# Elastic Constant Matrix: (Units=GPa)
#
#
# Indices 1 2 3 4 5 6 
#
# 1 77.4580 8.7066 -25.9363 0.0000 0.0000 0.0000
# 2 8.7066 87.8650 13.6706 0.0000 0.0000 0.0000
# 3 -25.9363 13.6706 47.7222 0.0000 0.0000 0.0000
# 4 0.0000 0.0000 0.0000 39.9266 0.0000 0.0000
# 5 0.0000 0.0000 0.0000 0.0000 4.4860 0.0000
# 6 0.0000 0.0000 0.0000 0.0000 0.0000 42.0911
#
#
#
# Elastic Compliance Matrix: (Units=1/GPa)
#
#
# Indices 1 2 3 4 5 6 
#
# 1 0.016595 -0.003190 0.009933 0.000000 0.000000 0.000000
# 2 -0.003190 0.012525 -0.005322 0.000000 0.000000 0.000000
# 3 0.009933 -0.005322 0.027877 0.000000 0.000000 0.000000
# 4 0.000000 0.000000 0.000000 0.025046 0.000000 0.000000
# 5 0.000000 0.000000 0.000000 0.000000 0.222917 0.000000
# 6 0.000000 0.000000 0.000000 0.000000 0.000000 0.023758
#
#
# Mechanical properties :
#
#
# Convention : Reuss Voigt Hill
#
# Bulk Modulus (GPa) = 16.71125 22.88078 19.79601
# Shear Modulus (GPa) = 14.45829 31.74102 23.09965
#
# Velocity S-wave (km/s) = 2.53994 3.76336 3.21046
# Velocity P-wave (km/s) = 4.00728 5.39381 4.75139
#
# Compressibility (1/GPa) = 0.05983993
#
# Stress axis : x y z
#
# Youngs Moduli (GPa) = 60.26022 79.83936 35.87138
#
# Poissons Ratio (x) = 0.25467 -0.35630
# Poissons Ratio (y) = 0.19222 0.19089
# Poissons Ratio (z) = -0.59855 0.42487
#
# Static dielectric constant tensor:
#      x y z
#    x 3.865120 0.000000 0.000000 
#    y 0.000000 4.279250 0.000000 
#    z 0.000000 0.000000 4.018620 
# 
# 
# High freq. dielectric constant tensor:
#      x y z
#    x 1.878700 0.000000 0.000000 
#    y 0.000000 1.907410 0.000000 
#    z 0.000000 0.000000 1.877670 
# 
# From -- ./inp_files/22107.got.cif
#   From: 2010.03.12/outbox.cif.g09.slc.cpg/sg50_12_cif.got.tgz:22107.got - 2010.04.16 13:23:21.
