data_PCOD8205625
_publ_section_title
;
Structure prediction by ZEFSAII (Michael W. Deem and Ramdas Pophale) SiO2 
 PCOD8205625
Probable space group: P B A N
;
_chemical_formula_sum "Si O2"
_cell_formula_units_Z 56
_cell_length_a 20.154329
_cell_length_b 14.372525
_cell_length_c 8.138031
_cell_angle_alpha 90.000000
_cell_angle_beta 90.000000
_cell_angle_gamma 90.000000
_cell_volume 2357.332025
_symmetry_space_group_name_H-M "P B A N"
_symmetry_group_IT_number 50
_space_group.IT_coordinate_system_code '2'
_symmetry_cell_setting 'orthorhombic'
loop_
_space_group_symop_operation_xyz
x,y,z
1/2-x,1/2-y,z
x,1/2-y,-z
1/2-x,y,-z
-x,-y,-z
1/2+x,1/2+y,-z
-x,1/2+y,z
1/2+x,-y,z
loop_
_atom_site_type_symbol
_atom_site_label
_atom_site_fract_x
_atom_site_fract_y
_atom_site_fract_z
Si Si1 0.456269 0.289486 0.182756
Si Si2 0.907794 0.227394 0.319446
Si Si3 0.754046 0.535989 0.188491
Si Si4 0.480431 0.002405 0.690925
Si Si5 0.815640 0.710184 0.317196
Si Si6 0.637743 0.398197 0.832169
Si Si7 0.386275 0.528597 0.807452
O O1 0.514528 0.245277 0.293497
O O2 0.459949 0.400271 0.219319
O O3 0.382694 0.255856 0.230975
O O4 0.469439 0.250000 0.000000
O O5 0.883638 0.250000 0.500000
O O6 0.863290 0.286373 0.188529
O O7 0.895303 0.118552 0.304637
O O8 0.801861 0.599680 0.302708
O O9 0.788046 0.434532 0.204120
O O10 0.678258 0.529207 0.252578
O O11 0.750000 0.571229 0.000000
O O12 0.547338 0.965885 0.785368
O O13 0.500000 0.000000 0.500000
O O14 0.418495 0.933875 0.706121
O O15 0.750000 0.750000 0.224951
O O16 0.817872 0.750000 0.500000
O O17 0.617995 0.435333 0.008923
#
# Coordination Sequence:
#
# PCOD8205625 Si02
#       7
#     8   8   8   8   8   8   8
#     4  11  24  43  70  99 138 181 235 290 350 427
#     4  11  23  43  66 103 139 179 225 288 351 416
#     4  10  24  45  71  98 137 180 233 286 344 419
#     4  11  23  41  67 101 136 184 229 295 357 413
#     4  11  26  44  65  99 137 183 226 288 358 417
#     4  11  21  42  71  96 136 178 233 285 344 421
#     4  10  23  42  69 100 133 182 234 286 343 416
#
# _framework density 23.755669000000001
#
# number of rings (size 3 to 8) (size 9 to 14) (size 15 to 20)
#    0.000    1.286    1.429    4.714    2.000    4.000 
#    5.143    2.857    0.000    0.000    0.000    0.000 
#    0.000    0.000    0.000    0.000    0.000    0.000 
#
# Total GULP energy -693839.992788 kJ/mol
# GULP energy per Si atom -12389.999871 kJ/mol
# Density = 2.370160 g / cm^3
# Si number density = 23.755669 Si / 1000 Ang^3
#
#
#
# Elastic Constant Matrix: (Units=GPa)
#
#
# Indices 1 2 3 4 5 6 
#
# 1 129.7346 9.6407 27.2351 0.0000 0.0000 0.0000
# 2 9.6407 49.2764 14.1538 0.0000 0.0000 0.0000
# 3 27.2351 14.1538 87.8778 0.0000 0.0000 0.0000
# 4 0.0000 0.0000 0.0000 34.8951 0.0000 0.0000
# 5 0.0000 0.0000 0.0000 0.0000 25.1285 0.0000
# 6 0.0000 0.0000 0.0000 0.0000 0.0000 38.9734
#
#
#
# Elastic Compliance Matrix: (Units=1/GPa)
#
#
# Indices 1 2 3 4 5 6 
#
# 1 0.008285 -0.000926 -0.002418 0.000000 0.000000 0.000000
# 2 -0.000926 0.021382 -0.003157 0.000000 0.000000 0.000000
# 3 -0.002418 -0.003157 0.012637 0.000000 0.000000 0.000000
# 4 0.000000 0.000000 0.000000 0.028657 0.000000 0.000000
# 5 0.000000 0.000000 0.000000 0.000000 0.039796 0.000000
# 6 0.000000 0.000000 0.000000 0.000000 0.000000 0.025659
#
#
# Mechanical properties :
#
#
# Convention : Reuss Voigt Hill
#
# Bulk Modulus (GPa) = 34.12860 40.99423 37.56142
# Shear Modulus (GPa) = 31.41009 34.18999 32.80004
#
# Velocity S-wave (km/s) = 3.64017 3.79784 3.71984
# Velocity P-wave (km/s) = 5.66264 6.04364 5.85624
#
# Compressibility (1/GPa) = 0.02930094
#
# Stress axis : x y z
#
# Youngs Moduli (GPa) = 120.70646 46.76920 79.13042
#
# Poissons Ratio (x) = 0.04332 0.19137
# Poissons Ratio (y) = 0.11180 0.24979
# Poissons Ratio (z) = 0.29191 0.14764
#
# Static dielectric constant tensor:
#      x y z
#    x 4.827850 0.000000 0.000000 
#    y 0.000000 4.443780 0.000000 
#    z 0.000000 0.000000 4.056850 
# 
# 
# High freq. dielectric constant tensor:
#      x y z
#    x 1.955470 0.000000 0.000000 
#    y 0.000000 1.934250 0.000000 
#    z 0.000000 0.000000 1.931810 
# 
# From -- ./inp_files/15362.got.cif
#   From: 2010.03.12/outbox.cif.g09.slc.cpg/sg50_8_cif.got.tgz:15362.got - 2010.04.16 13:23:21.
