data_PCOD8205250
_publ_section_title
;
Structure prediction by ZEFSAII (Michael W. Deem and Ramdas Pophale) SiO2 
 PCOD8205250
Probable space group: P B A N
;
_chemical_formula_sum "Si O2"
_cell_formula_units_Z 64
_cell_length_a 11.151458
_cell_length_b 23.303138
_cell_length_c 10.998239
_cell_angle_alpha 90.000000
_cell_angle_beta 90.000000
_cell_angle_gamma 90.000000
_cell_volume 2858.045991
_symmetry_space_group_name_H-M "P B A N"
_symmetry_group_IT_number 50
_space_group.IT_coordinate_system_code '2'
_symmetry_cell_setting 'orthorhombic'
loop_
_space_group_symop_operation_xyz
x,y,z
1/2-x,1/2-y,z
x,1/2-y,-z
1/2-x,y,-z
-x,-y,-z
1/2+x,1/2+y,-z
-x,1/2+y,z
1/2+x,-y,z
loop_
_atom_site_type_symbol
_atom_site_label
_atom_site_fract_x
_atom_site_fract_y
_atom_site_fract_z
Si Si1 0.601740 0.838146 0.392969
Si Si2 0.944300 0.412702 0.764454
Si Si3 0.880862 0.404734 0.030516
Si Si4 0.378906 0.236808 0.226664
Si Si5 0.207211 0.882037 0.363980
Si Si6 0.977453 0.462460 0.267938
Si Si7 0.357441 0.125577 0.354480
Si Si8 0.864316 0.208995 0.825882
O O1 0.502474 0.857957 0.298653
O O2 0.630185 0.772516 0.354368
O O3 0.563161 0.847972 0.532667
O O4 0.717915 0.878331 0.382235
O O5 0.806439 0.408741 0.725877
O O6 0.011841 0.469635 0.717525
O O7 0.960811 0.408225 0.909028
O O8 0.942800 0.444471 0.131433
O O9 0.869023 0.338473 0.068973
O O10 0.750000 0.430401 0.000000
O O11 0.250000 0.250000 0.155799
O O12 0.381823 0.168946 0.244775
O O13 0.510994 0.246933 0.165589
O O14 0.250000 0.867634 0.500000
O O15 0.111220 0.933773 0.367078
O O16 0.151885 0.824047 0.304158
O O17 0.106321 0.436804 0.306228
O O18 0.750000 0.250000 0.847753
#
# Coordination Sequence:
#
# PCOD8205250 Si02
#       8
#     8   8   8   8   8   8   8   8
#     4  10  23  37  65  98 133 175 222 268 335 416
#     4  12  25  43  66  99 130 173 234 284 347 410
#     4  11  23  47  68  92 129 174 232 290 344 410
#     4  10  20  40  68  97 138 178 223 279 341 418
#     4  11  24  43  65 100 144 176 226 287 347 428
#     4  11  24  43  68  94 131 177 226 286 347 402
#     4  10  20  42  64  94 133 179 217 268 337 413
#     4  11  23  43  71 103 137 187 233 285 352 422
#
# _framework density 22.392921000000001
#
# number of rings (size 3 to 8) (size 9 to 14) (size 15 to 20)
#    0.000    1.250    5.000    2.250    1.750    4.000 
#    2.250    0.625    0.000    0.750    0.000    0.000 
#    0.000    0.000    0.000    0.000    0.000    0.000 
#
# Total GULP energy -792969.602361 kJ/mol
# GULP energy per Si atom -12390.150037 kJ/mol
# Density = 2.234195 g / cm^3
# Si number density = 22.392921 Si / 1000 Ang^3
#
#
#
# Elastic Constant Matrix: (Units=GPa)
#
#
# Indices 1 2 3 4 5 6 
#
# 1 117.6434 23.9462 8.0924 0.0000 0.0000 0.0000
# 2 23.9462 85.7045 6.4925 0.0000 0.0000 0.0000
# 3 8.0924 6.4925 58.1908 0.0000 0.0000 0.0000
# 4 0.0000 0.0000 0.0000 19.2450 0.0000 0.0000
# 5 0.0000 0.0000 0.0000 0.0000 26.0965 0.0000
# 6 0.0000 0.0000 0.0000 0.0000 0.0000 31.0429
#
#
#
# Elastic Compliance Matrix: (Units=1/GPa)
#
#
# Indices 1 2 3 4 5 6 
#
# 1 0.009069 -0.002459 -0.000987 0.000000 0.000000 0.000000
# 2 -0.002459 0.012434 -0.001045 0.000000 0.000000 0.000000
# 3 -0.000987 -0.001045 0.017439 0.000000 0.000000 0.000000
# 4 0.000000 0.000000 0.000000 0.051962 0.000000 0.000000
# 5 0.000000 0.000000 0.000000 0.000000 0.038319 0.000000
# 6 0.000000 0.000000 0.000000 0.000000 0.000000 0.032213
#
#
# Mechanical properties :
#
#
# Convention : Reuss Voigt Hill
#
# Bulk Modulus (GPa) = 33.37867 37.62231 35.50049
# Shear Modulus (GPa) = 27.71545 30.14407 28.92976
#
# Velocity S-wave (km/s) = 3.52190 3.67296 3.59822
# Velocity P-wave (km/s) = 5.61040 5.90127 5.75767
#
# Compressibility (1/GPa) = 0.02995925
#
# Stress axis : x y z
#
# Youngs Moduli (GPa) = 110.26955 80.42295 57.34371
#
# Poissons Ratio (x) = 0.19777 0.05659
# Poissons Ratio (y) = 0.27116 0.05994
# Poissons Ratio (z) = 0.10881 0.08407
#
# Static dielectric constant tensor:
#      x y z
#    x 4.342500 0.000000 0.000000 
#    y 0.000000 3.779100 0.000000 
#    z 0.000000 0.000000 3.879350 
# 
# 
# High freq. dielectric constant tensor:
#      x y z
#    x 1.896440 0.000000 0.000000 
#    y 0.000000 1.868530 0.000000 
#    z 0.000000 0.000000 1.866470 
# 
# From -- ./inp_files/20532.got.cif
#   From: 2010.03.12/outbox.cif.g09.slc.cpg/sg50_11_cif.got.tgz:20532.got - 2010.04.16 13:23:21.
