data_PCOD8205000
_publ_section_title
;
Structure prediction by ZEFSAII (Michael W. Deem and Ramdas Pophale) SiO2 
 PCOD8205000
Probable space group: P B A N
;
_chemical_formula_sum "Si O2"
_cell_formula_units_Z 52
_cell_length_a 9.728633
_cell_length_b 19.583515
_cell_length_c 13.199925
_cell_angle_alpha 90.000000
_cell_angle_beta 90.000000
_cell_angle_gamma 90.000000
_cell_volume 2514.860671
_symmetry_space_group_name_H-M "P B A N"
_symmetry_group_IT_number 50
_space_group.IT_coordinate_system_code '2'
_symmetry_cell_setting 'orthorhombic'
loop_
_space_group_symop_operation_xyz
x,y,z
1/2-x,1/2-y,z
x,1/2-y,-z
1/2-x,y,-z
-x,-y,-z
1/2+x,1/2+y,-z
-x,1/2+y,z
1/2+x,-y,z
loop_
_atom_site_type_symbol
_atom_site_label
_atom_site_fract_x
_atom_site_fract_y
_atom_site_fract_z
Si Si1 0.171171 0.813174 0.395584
Si Si2 0.215908 0.457653 0.885086
Si Si3 0.053993 0.250000 0.000000
Si Si4 0.080866 0.148897 0.845701
Si Si5 0.198340 0.599729 0.790430
Si Si6 0.100446 0.244906 0.664639
Si Si7 0.505089 0.154748 0.828620
O O1 0.250000 0.750000 0.339247
O O2 0.250000 0.828609 0.500000
O O3 0.174475 0.881688 0.328329
O O4 0.014438 0.785868 0.412424
O O5 0.357160 0.426652 0.842001
O O6 0.173260 0.520272 0.813233
O O7 0.099337 0.399929 0.876544
O O8 0.250000 0.481622 0.000000
O O9 0.140429 0.309968 0.055927
O O10 0.967929 0.216089 0.091807
O O11 0.914736 0.143143 0.852912
O O12 0.131965 0.187874 0.747783
O O13 0.351546 0.617233 0.819637
O O14 0.250000 0.250000 0.608977
O O15 0.047844 0.314505 0.720754
#
# Coordination Sequence:
#
# PCOD8205000 Si02
#       7
#     8   8   4   8   8   8   8
#     4  10  21  43  70  96 119 155 204 266 340 381
#     4  12  24  39  57  85 134 185 217 251 306 378
#     4  10  22  34  56  82 126 164 222 264 304 350
#     4  10  22  36  57  86 124 171 217 257 306 361
#     4  11  25  39  58  90 124 167 211 262 318 384
#     4  10  19  36  66  98 124 158 206 269 315 375
#     4  11  22  37  60  87 125 169 219 259 311 363
#
# _framework density 20.677088999999999
#
# number of rings (size 3 to 8) (size 9 to 14) (size 15 to 20)
#    0.000    1.385    4.615    0.923    2.154    2.462 
#    0.000    1.538    0.000    8.308    0.000    0.000 
#    0.000    0.000    0.000    0.000    0.000    0.000 
#
# Total GULP energy -644182.610644 kJ/mol
# GULP energy per Si atom -12388.127128 kJ/mol
# Density = 2.063003 g / cm^3
# Si number density = 20.677089 Si / 1000 Ang^3
#
#
#
# Elastic Constant Matrix: (Units=GPa)
#
#
# Indices 1 2 3 4 5 6 
#
# 1 146.0464 30.0673 37.4302 0.0000 0.0000 0.0000
# 2 30.0673 114.3268 45.7703 0.0000 0.0000 0.0000
# 3 37.4302 45.7703 87.1611 0.0000 0.0000 0.0000
# 4 0.0000 0.0000 0.0000 23.8158 0.0000 0.0000
# 5 0.0000 0.0000 0.0000 0.0000 20.4454 0.0000
# 6 0.0000 0.0000 0.0000 0.0000 0.0000 26.2444
#
#
#
# Elastic Compliance Matrix: (Units=1/GPa)
#
#
# Indices 1 2 3 4 5 6 
#
# 1 0.007766 -0.000895 -0.002865 0.000000 0.000000 0.000000
# 2 -0.000895 0.011178 -0.005486 0.000000 0.000000 0.000000
# 3 -0.002865 -0.005486 0.015584 0.000000 0.000000 0.000000
# 4 0.000000 0.000000 0.000000 0.041989 0.000000 0.000000
# 5 0.000000 0.000000 0.000000 0.000000 0.048911 0.000000
# 6 0.000000 0.000000 0.000000 0.000000 0.000000 0.038103
#
#
# Mechanical properties :
#
#
# Convention : Reuss Voigt Hill
#
# Bulk Modulus (GPa) = 62.35721 63.78555 63.07138
# Shear Modulus (GPa) = 26.68546 29.71886 28.20216
#
# Velocity S-wave (km/s) = 3.59636 3.79527 3.69715
# Velocity P-wave (km/s) = 6.88972 7.07960 6.98531
#
# Compressibility (1/GPa) = 0.01603664
#
# Stress axis : x y z
#
# Youngs Moduli (GPa) = 128.77182 89.45764 64.16936
#
# Poissons Ratio (x) = 0.08011 0.18382
# Poissons Ratio (y) = 0.11531 0.35200
# Poissons Ratio (z) = 0.36888 0.49072
#
# Static dielectric constant tensor:
#      x y z
#    x 3.907280 0.000000 0.000000 
#    y 0.000000 3.794440 0.000000 
#    z 0.000000 0.000000 3.455460 
# 
# 
# High freq. dielectric constant tensor:
#      x y z
#    x 1.824520 0.000000 0.000000 
#    y 0.000000 1.801350 0.000000 
#    z 0.000000 0.000000 1.781740 
# 
# From -- ./inp_files/25175.got.cif
#   From: 2010.03.12/outbox.cif.g09.slc.cpg/sg50_13_cif.got.tgz:25175.got - 2010.04.16 13:23:21.
