data_PCOD8205557
_publ_section_title
;
Structure prediction by ZEFSAII (Michael W. Deem and Ramdas Pophale) SiO2 
 PCOD8205557
Probable space group: P B A N
;
_chemical_formula_sum "Si O2"
_cell_formula_units_Z 34
_cell_length_a 4.867112
_cell_length_b 17.617366
_cell_length_c 18.455092
_cell_angle_alpha 90.000000
_cell_angle_beta 90.000000
_cell_angle_gamma 90.000000
_cell_volume 1582.444662
_symmetry_space_group_name_H-M "P B A N"
_symmetry_group_IT_number 50
_space_group.IT_coordinate_system_code '2'
_symmetry_cell_setting 'orthorhombic'
loop_
_space_group_symop_operation_xyz
x,y,z
1/2-x,1/2-y,z
x,1/2-y,-z
1/2-x,y,-z
-x,-y,-z
1/2+x,1/2+y,-z
-x,1/2+y,z
1/2+x,-y,z
loop_
_atom_site_type_symbol
_atom_site_label
_atom_site_fract_x
_atom_site_fract_y
_atom_site_fract_z
Si Si1 0.750000 0.147599 0.500000
Si Si2 0.852239 0.448295 0.359986
Si Si3 0.299838 0.834676 0.768273
Si Si4 0.702090 0.665424 0.866676
Si Si5 0.250000 0.055400 0.000000
Si Si6 0.750000 0.750000 0.500000
O O1 0.647864 0.095628 0.435368
O O2 0.484745 0.194163 0.535107
O O3 0.662210 0.522250 0.354561
O O4 0.757423 0.392977 0.296095
O O5 0.250000 0.750000 0.737298
O O6 0.606864 0.846258 0.796874
O O7 0.104479 0.848715 0.837587
O O8 0.750000 0.750000 0.898263
O O9 0.765842 0.606754 0.929281
O O10 0.500000 0.000000 0.000000
#
# Coordination Sequence:
#
# PCOD8205557 Si02
#       6
#     4   8   8   8   4   2
#     4  11  24  45  64  99 129 170 220 260 333 373
#     4  12  25  42  66  95 133 173 209 265 329 390
#     4  10  23  41  64  93 124 166 217 262 309 377
#     4  10  22  43  63  88 126 167 209 257 315 377
#     4  12  25  38  63  96 124 162 206 262 311 376
#     4  10  24  40  68  96 120 162 214 276 312 356
#
# _framework density 21.485742999999999
#
# number of rings (size 3 to 8) (size 9 to 14) (size 15 to 20)
#    0.000    1.176    0.000    5.294    3.294    5.647 
#    4.235    4.706    0.000    0.000    0.000    0.000 
#    0.000    0.000    0.000    0.000    0.000    0.000 
#
# Total GULP energy -421246.099212 kJ/mol
# GULP energy per Si atom -12389.591153 kJ/mol
# Density = 2.143684 g / cm^3
# Si number density = 21.485743 Si / 1000 Ang^3
#
#
#
# Elastic Constant Matrix: (Units=GPa)
#
#
# Indices 1 2 3 4 5 6 
#
# 1 104.2522 35.3617 6.2140 0.0000 0.0000 0.0000
# 2 35.3617 138.1181 75.1962 0.0000 0.0000 0.0000
# 3 6.2140 75.1962 91.1576 0.0000 0.0000 0.0000
# 4 0.0000 0.0000 0.0000 8.4176 0.0000 0.0000
# 5 0.0000 0.0000 0.0000 0.0000 15.8706 0.0000
# 6 0.0000 0.0000 0.0000 0.0000 0.0000 38.2426
#
#
#
# Elastic Compliance Matrix: (Units=1/GPa)
#
#
# Indices 1 2 3 4 5 6 
#
# 1 0.010892 -0.004328 0.002828 0.000000 0.000000 0.000000
# 2 -0.004328 0.014862 -0.011965 0.000000 0.000000 0.000000
# 3 0.002828 -0.011965 0.020647 0.000000 0.000000 0.000000
# 4 0.000000 0.000000 0.000000 0.118799 0.000000 0.000000
# 5 0.000000 0.000000 0.000000 0.000000 0.063010 0.000000
# 6 0.000000 0.000000 0.000000 0.000000 0.000000 0.026149
#
#
# Mechanical properties :
#
#
# Convention : Reuss Voigt Hill
#
# Bulk Modulus (GPa) = 51.35928 63.00795 57.18362
# Shear Modulus (GPa) = 17.37440 26.95655 22.16547
#
# Velocity S-wave (km/s) = 2.84676 3.54591 3.21539
# Velocity P-wave (km/s) = 5.89586 6.79366 6.36062
#
# Compressibility (1/GPa) = 0.01947068
#
# Stress axis : x y z
#
# Youngs Moduli (GPa) = 91.81356 67.28353 48.43251
#
# Poissons Ratio (x) = 0.29121 -0.13696
# Poissons Ratio (y) = 0.39738 0.57950
# Poissons Ratio (z) = -0.25963 0.80505
#
# Static dielectric constant tensor:
#      x y z
#    x 4.127310 0.000000 0.000000 
#    y 0.000000 4.171690 0.000000 
#    z 0.000000 0.000000 3.600510 
# 
# 
# High freq. dielectric constant tensor:
#      x y z
#    x 1.866620 0.000000 0.000000 
#    y 0.000000 1.864120 0.000000 
#    z 0.000000 0.000000 1.823040 
# 
# From -- ./inp_files/23734.got.cif
#   From: 2010.03.12/outbox.cif.g09.slc.cpg/sg50_12_cif.got.tgz:23734.got - 2010.04.16 13:23:21.
