data_PCOD8205750
_publ_section_title
;
Structure prediction by ZEFSAII (Michael W. Deem and Ramdas Pophale) SiO2 
 PCOD8205750
Probable space group: P B A N
;
_chemical_formula_sum "Si O2"
_cell_formula_units_Z 48
_cell_length_a 16.546839
_cell_length_b 13.648371
_cell_length_c 10.107988
_cell_angle_alpha 90.000000
_cell_angle_beta 90.000000
_cell_angle_gamma 90.000000
_cell_volume 2282.761704
_symmetry_space_group_name_H-M "P B A N"
_symmetry_group_IT_number 50
_space_group.IT_coordinate_system_code '2'
_symmetry_cell_setting 'orthorhombic'
loop_
_space_group_symop_operation_xyz
x,y,z
1/2-x,1/2-y,z
x,1/2-y,-z
1/2-x,y,-z
-x,-y,-z
1/2+x,1/2+y,-z
-x,1/2+y,z
1/2+x,-y,z
loop_
_atom_site_type_symbol
_atom_site_label
_atom_site_fract_x
_atom_site_fract_y
_atom_site_fract_z
Si Si1 0.864004 0.544276 0.748745
Si Si2 0.845503 0.638831 0.485028
Si Si3 0.598049 0.145303 0.879211
Si Si4 0.177841 0.826378 0.144070
Si Si5 0.320312 0.459257 0.221182
Si Si6 0.575168 0.637036 0.998764
O O1 0.887673 0.575366 0.600359
O O2 0.877488 0.427697 0.761541
O O3 0.772185 0.575935 0.780240
O O4 0.922610 0.598458 0.851673
O O5 0.877016 0.750000 0.500000
O O6 0.750000 0.633795 0.500000
O O7 0.868444 0.591392 0.343331
O O8 0.597217 0.258607 0.828328
O O9 0.513135 0.116025 0.941687
O O10 0.670712 0.138705 0.989873
O O11 0.250000 0.750000 0.175914
O O12 0.177763 0.922132 0.236728
O O13 0.360889 0.424872 0.085868
O O14 0.599772 0.750000 0.000000
#
# Coordination Sequence:
#
# PCOD8205750 Si02
#       6
#     8   8   8   8   8   8
#     4  11  22  38  63  89 120 160 212 255 309 369
#     4   9  20  41  62  85 126 167 202 255 315 365
#     4  11  22  37  59  91 128 166 196 254 320 361
#     4  11  21  38  66  90 126 163 202 251 313 366
#     4  11  23  38  65  94 117 164 215 252 309 369
#     4  12  24  36  58  93 126 159 206 259 305 368
#
# _framework density 21.027162000000001
#
# number of rings (size 3 to 8) (size 9 to 14) (size 15 to 20)
#    0.000    1.167    5.000    3.000    0.000    2.667 
#    0.000    1.667    0.000    2.000    0.000    0.000 
#    0.000    0.000    0.000    0.000    0.000    0.000 
#
# Total GULP energy -595026.719782 kJ/mol
# GULP energy per Si atom -12396.389995 kJ/mol
# Density = 2.097930 g / cm^3
# Si number density = 21.027162 Si / 1000 Ang^3
#
#
#
# Elastic Constant Matrix: (Units=GPa)
#
#
# Indices 1 2 3 4 5 6 
#
# 1 62.3365 6.8056 8.3580 0.0000 0.0000 0.0000
# 2 6.8056 160.6322 58.8356 0.0000 0.0000 0.0000
# 3 8.3580 58.8356 100.9386 0.0000 0.0000 0.0000
# 4 0.0000 0.0000 0.0000 42.4545 0.0000 0.0000
# 5 0.0000 0.0000 0.0000 0.0000 14.5968 0.0000
# 6 0.0000 0.0000 0.0000 0.0000 0.0000 26.8741
#
#
#
# Elastic Compliance Matrix: (Units=1/GPa)
#
#
# Indices 1 2 3 4 5 6 
#
# 1 0.016230 -0.000248 -0.001199 0.000000 0.000000 0.000000
# 2 -0.000248 0.007919 -0.004595 0.000000 0.000000 0.000000
# 3 -0.001199 -0.004595 0.012685 0.000000 0.000000 0.000000
# 4 0.000000 0.000000 0.000000 0.023555 0.000000 0.000000
# 5 0.000000 0.000000 0.000000 0.000000 0.068508 0.000000
# 6 0.000000 0.000000 0.000000 0.000000 0.000000 0.037211
#
#
# Mechanical properties :
#
#
# Convention : Reuss Voigt Hill
#
# Bulk Modulus (GPa) = 40.40712 52.43395 46.42054
# Shear Modulus (GPa) = 26.81794 33.44561 30.13178
#
# Velocity S-wave (km/s) = 3.57514 3.99255 3.78960
# Velocity P-wave (km/s) = 6.02499 6.80032 6.42436
#
# Compressibility (1/GPa) = 0.02474811
#
# Stress axis : x y z
#
# Youngs Moduli (GPa) = 61.61487 126.27719 78.83416
#
# Poissons Ratio (x) = 0.03137 0.09453
# Poissons Ratio (y) = 0.01531 0.36227
# Poissons Ratio (z) = 0.07388 0.58029
#
# Static dielectric constant tensor:
#      x y z
#    x 3.737900 0.000000 0.000000 
#    y 0.000000 4.242950 0.000000 
#    z 0.000000 0.000000 3.681780 
# 
# 
# High freq. dielectric constant tensor:
#      x y z
#    x 1.807820 0.000000 0.000000 
#    y 0.000000 1.845450 0.000000 
#    z 0.000000 0.000000 1.788080 
# 
# From -- ./inp_files/14253.got.cif
#   From: 2010.03.12/outbox.cif.g09.slc.cpg/sg50_8_cif.got.tgz:14253.got - 2010.04.16 13:23:21.
