data_PCOD8205001
_publ_section_title
;
Structure prediction by ZEFSAII (Michael W. Deem and Ramdas Pophale) SiO2 
 PCOD8205001
Probable space group: P B A N
;
_chemical_formula_sum "Si O2"
_cell_formula_units_Z 64
_cell_length_a 18.090970
_cell_length_b 15.814614
_cell_length_c 11.955028
_cell_angle_alpha 90.000000
_cell_angle_beta 90.000000
_cell_angle_gamma 90.000000
_cell_volume 3420.353923
_symmetry_space_group_name_H-M "P B A N"
_symmetry_group_IT_number 50
_space_group.IT_coordinate_system_code '2'
_symmetry_cell_setting 'orthorhombic'
loop_
_space_group_symop_operation_xyz
x,y,z
1/2-x,1/2-y,z
x,1/2-y,-z
1/2-x,y,-z
-x,-y,-z
1/2+x,1/2+y,-z
-x,1/2+y,z
1/2+x,-y,z
loop_
_atom_site_type_symbol
_atom_site_label
_atom_site_fract_x
_atom_site_fract_y
_atom_site_fract_z
Si Si1 0.527979 0.705450 0.879671
Si Si2 0.172170 0.280454 0.126343
Si Si3 0.557777 0.988851 0.123278
Si Si4 0.899254 0.961111 0.110758
Si Si5 0.131214 0.753478 0.134097
Si Si6 0.837903 0.343831 0.502740
Si Si7 0.174277 0.904697 0.738613
Si Si8 0.340254 0.918063 0.729180
O O1 0.602453 0.733892 0.813014
O O2 0.524638 0.604782 0.883755
O O3 0.452403 0.735942 0.823732
O O4 0.534640 0.750000 0.000000
O O5 0.250000 0.250000 0.184508
O O6 0.154038 0.380530 0.129440
O O7 0.177959 0.250000 0.000000
O O8 0.488344 0.055142 0.124037
O O9 0.608818 0.003930 0.231375
O O10 0.610361 0.000077 0.013916
O O11 0.878699 0.030563 0.200855
O O12 0.182777 0.682960 0.192338
O O13 0.152629 0.844723 0.178830
O O14 0.140095 0.750000 0.000000
O O15 0.872096 0.250000 0.500000
O O16 0.750000 0.337544 0.500000
O O17 0.862355 0.389491 0.616921
O O18 0.868174 0.392703 0.394173
O O19 0.255076 0.946034 0.725322
#
# Coordination Sequence:
#
# PCOD8205001 Si02
#       8
#     8   8   8   8   8   8   8   8
#     4  10  19  37  53  74 114 160 190 216 276 355
#     4  10  20  33  53  75 108 153 194 227 264 334
#     4  11  22  36  54  84 119 153 187 231 292 348
#     4  11  22  37  54  83 122 151 186 234 292 345
#     4  11  21  34  53  84 119 151 177 215 290 361
#     4   9  18  38  58  77 110 151 192 223 287 357
#     4  11  22  36  57  84 115 148 183 242 289 333
#     4  11  23  34  59  84 110 149 190 235 279 343
#
# _framework density 18.711514000000001
#
# number of rings (size 3 to 8) (size 9 to 14) (size 15 to 20)
#    0.000    1.500    5.000    1.875    5.250    2.500 
#    0.000    0.625    0.000    0.000    0.000    0.000 
#    0.000    0.000    0.000    0.000    0.000    0.000 
#
# Total GULP energy -793110.734504 kJ/mol
# GULP energy per Si atom -12392.355227 kJ/mol
# Density = 1.866893 g / cm^3
# Si number density = 18.711514 Si / 1000 Ang^3
#
#
#
# Elastic Constant Matrix: (Units=GPa)
#
#
# Indices 1 2 3 4 5 6 
#
# 1 82.1390 24.1407 21.3638 0.0000 0.0000 0.0000
# 2 24.1407 81.4008 34.6987 0.0000 0.0000 0.0000
# 3 21.3638 34.6987 110.8870 0.0000 0.0000 0.0000
# 4 0.0000 0.0000 0.0000 22.1867 0.0000 0.0000
# 5 0.0000 0.0000 0.0000 0.0000 8.7492 0.0000
# 6 0.0000 0.0000 0.0000 0.0000 0.0000 31.8831
#
#
#
# Elastic Compliance Matrix: (Units=1/GPa)
#
#
# Indices 1 2 3 4 5 6 
#
# 1 0.013568 -0.003357 -0.001563 0.000000 0.000000 0.000000
# 2 -0.003357 0.015007 -0.004049 0.000000 0.000000 0.000000
# 3 -0.001563 -0.004049 0.010586 0.000000 0.000000 0.000000
# 4 0.000000 0.000000 0.000000 0.045072 0.000000 0.000000
# 5 0.000000 0.000000 0.000000 0.000000 0.114296 0.000000
# 6 0.000000 0.000000 0.000000 0.000000 0.000000 0.031365
#
#
# Mechanical properties :
#
#
# Convention : Reuss Voigt Hill
#
# Bulk Modulus (GPa) = 47.12255 48.31480 47.71868
# Shear Modulus (GPa) = 19.61502 25.51203 22.56353
#
# Velocity S-wave (km/s) = 3.24124 3.69649 3.47632
# Velocity P-wave (km/s) = 6.26465 6.64045 6.45529
#
# Compressibility (1/GPa) = 0.02122126
#
# Stress axis : x y z
#
# Youngs Moduli (GPa) = 73.70367 66.63771 94.46064
#
# Poissons Ratio (x) = 0.22372 0.14768
# Poissons Ratio (y) = 0.24745 0.38247
# Poissons Ratio (z) = 0.11523 0.26982
#
# Static dielectric constant tensor:
#      x y z
#    x 4.156480 0.000000 0.000000 
#    y 0.000000 3.426920 0.000000 
#    z 0.000000 0.000000 3.295330 
# 
# 
# High freq. dielectric constant tensor:
#      x y z
#    x 1.729470 0.000000 0.000000 
#    y 0.000000 1.722190 0.000000 
#    z 0.000000 0.000000 1.686010 
# 
# From -- ./inp_files/21939.got.cif
#   From: 2010.03.12/outbox.cif.g09.slc.cpg/sg50_11_cif.got.tgz:21939.got - 2010.04.16 13:23:21.
