data_PCOD8205560
_publ_section_title
;
Structure prediction by ZEFSAII (Michael W. Deem and Ramdas Pophale) SiO2 
 PCOD8205560
Probable space group: P B A N
;
_chemical_formula_sum "Si O2"
_cell_formula_units_Z 34
_cell_length_a 8.719258
_cell_length_b 11.729667
_cell_length_c 16.252675
_cell_angle_alpha 90.000000
_cell_angle_beta 90.000000
_cell_angle_gamma 90.000000
_cell_volume 1662.225966
_symmetry_space_group_name_H-M "P B A N"
_symmetry_group_IT_number 50
_space_group.IT_coordinate_system_code '2'
_symmetry_cell_setting 'orthorhombic'
loop_
_space_group_symop_operation_xyz
x,y,z
1/2-x,1/2-y,z
x,1/2-y,-z
1/2-x,y,-z
-x,-y,-z
1/2+x,1/2+y,-z
-x,1/2+y,z
1/2+x,-y,z
loop_
_atom_site_type_symbol
_atom_site_label
_atom_site_fract_x
_atom_site_fract_y
_atom_site_fract_z
Si Si1 0.180876 0.863052 0.657672
Si Si2 0.980542 0.601190 0.893033
Si Si3 0.250000 0.750000 0.500000
Si Si4 0.250000 0.250000 0.822464
Si Si5 0.610684 0.960459 0.259787
Si Si6 0.250000 0.954683 0.000000
O O1 0.250000 0.750000 0.702054
O O2 0.154092 0.834618 0.560312
O O3 0.018230 0.889921 0.694570
O O4 0.301557 0.964182 0.672695
O O5 0.906025 0.725646 0.874443
O O6 0.038513 0.535291 0.812494
O O7 0.127121 0.622871 0.951430
O O8 0.843957 0.531125 0.935813
O O9 0.269367 0.133600 0.771936
#
# Coordination Sequence:
#
# PCOD8205560 Si02
#       6
#     8   8   2   4   8   4
#     4  10  23  43  67  99 136 174 220 284 332 411
#     4  11  22  42  64  98 133 177 230 282 337 409
#     4   8  24  44  64 104 140 170 220 282 350 404
#     4  12  24  39  70  99 132 178 236 282 330 411
#     4  12  22  42  71  97 135 179 232 274 339 409
#     4  10  22  43  65  88 142 174 221 291 350 378
#
# _framework density 20.454498999999998
#
# number of rings (size 3 to 8) (size 9 to 14) (size 15 to 20)
#    0.706    0.471    4.706    1.412    0.000    1.412 
#    0.000    1.176    0.000    1.412    0.000    0.000 
#    0.000    0.000    0.000    0.000    0.000    0.000 
#
# Total GULP energy -421340.465252 kJ/mol
# GULP energy per Si atom -12392.366625 kJ/mol
# Density = 2.040794 g / cm^3
# Si number density = 20.454499 Si / 1000 Ang^3
#
#
#
# Elastic Constant Matrix: (Units=GPa)
#
#
# Indices 1 2 3 4 5 6 
#
# 1 126.7412 50.2443 44.7806 0.0000 0.0000 0.0000
# 2 50.2443 110.1633 40.5899 0.0000 0.0000 0.0000
# 3 44.7806 40.5899 113.4557 0.0000 0.0000 0.0000
# 4 0.0000 0.0000 0.0000 18.8737 0.0000 0.0000
# 5 0.0000 0.0000 0.0000 0.0000 18.5168 0.0000
# 6 0.0000 0.0000 0.0000 0.0000 0.0000 42.9922
#
#
#
# Elastic Compliance Matrix: (Units=1/GPa)
#
#
# Indices 1 2 3 4 5 6 
#
# 1 0.010328 -0.003696 -0.002754 0.000000 0.000000 0.000000
# 2 -0.003696 0.011778 -0.002755 0.000000 0.000000 0.000000
# 3 -0.002754 -0.002755 0.010887 0.000000 0.000000 0.000000
# 4 0.000000 0.000000 0.000000 0.052984 0.000000 0.000000
# 5 0.000000 0.000000 0.000000 0.000000 0.054005 0.000000
# 6 0.000000 0.000000 0.000000 0.000000 0.000000 0.023260
#
#
# Mechanical properties :
#
#
# Convention : Reuss Voigt Hill
#
# Bulk Modulus (GPa) = 68.57334 69.06551 68.81942
# Shear Modulus (GPa) = 26.80770 30.39290 28.60030
#
# Velocity S-wave (km/s) = 3.62415 3.85889 3.74336
# Velocity P-wave (km/s) = 7.14914 7.32758 7.23891
#
# Compressibility (1/GPa) = 0.01458293
#
# Stress axis : x y z
#
# Youngs Moduli (GPa) = 96.82018 84.90298 91.85443
#
# Poissons Ratio (x) = 0.31379 0.25300
# Poissons Ratio (y) = 0.35783 0.25306
# Poissons Ratio (z) = 0.26668 0.23391
#
# Static dielectric constant tensor:
#      x y z
#    x 3.944720 0.000000 0.000000 
#    y 0.000000 3.632390 0.000000 
#    z 0.000000 0.000000 3.709980 
# 
# 
# High freq. dielectric constant tensor:
#      x y z
#    x 1.812160 0.000000 0.000000 
#    y 0.000000 1.796330 0.000000 
#    z 0.000000 0.000000 1.787300 
# 
# From -- ./inp_files/28473.got.cif
#   From: 2010.03.12/outbox.cif.g09.slc.cpg/sg50_15_cif.got.tgz:28473.got - 2010.04.16 13:23:21.
