data_PCOD8205606
_publ_section_title
;
Structure prediction by ZEFSAII (Michael W. Deem and Ramdas Pophale) SiO2 
 PCOD8205606
Probable space group: P B A N
;
_chemical_formula_sum "Si O2"
_cell_formula_units_Z 64
_cell_length_a 30.969605
_cell_length_b 18.518991
_cell_length_c 5.091693
_cell_angle_alpha 90.000000
_cell_angle_beta 90.000000
_cell_angle_gamma 90.000000
_cell_volume 2920.217486
_symmetry_space_group_name_H-M "P B A N"
_symmetry_group_IT_number 50
_space_group.IT_coordinate_system_code '2'
_symmetry_cell_setting 'orthorhombic'
loop_
_space_group_symop_operation_xyz
x,y,z
1/2-x,1/2-y,z
x,1/2-y,-z
1/2-x,y,-z
-x,-y,-z
1/2+x,1/2+y,-z
-x,1/2+y,z
1/2+x,-y,z
loop_
_atom_site_type_symbol
_atom_site_label
_atom_site_fract_x
_atom_site_fract_y
_atom_site_fract_z
Si Si1 0.626863 0.977795 0.612626
Si Si2 0.460114 0.000393 0.698611
Si Si3 0.899046 0.669344 0.535258
Si Si4 0.175960 0.665792 0.950368
Si Si5 0.038301 0.794078 0.762412
Si Si6 0.297489 0.582584 0.533895
Si Si7 0.952444 0.641344 0.041629
Si Si8 0.590703 0.092563 0.969452
O O1 0.636209 0.891017 0.639115
O O2 0.583584 0.976775 0.444177
O O3 0.667339 0.019131 0.481852
O O4 0.614465 0.018065 0.884613
O O5 0.500000 0.000000 0.500000
O O6 0.468752 0.057565 0.937756
O O7 0.448621 0.922606 0.825595
O O8 0.879317 0.750000 0.500000
O O9 0.912847 0.650937 0.239711
O O10 0.939029 0.664541 0.745552
O O11 0.199405 0.645852 0.680466
O O12 0.182721 0.750000 0.000000
O O13 0.196278 0.618595 0.183612
O O14 0.125787 0.646400 0.907907
O O15 0.039712 0.750000 0.500000
O O16 0.067078 0.867062 0.724879
O O17 0.989615 0.807575 0.849801
O O18 0.060819 0.750000 0.000000
O O19 0.250000 0.547528 0.500000
#
# Coordination Sequence:
#
# PCOD8205606 Si02
#       8
#     8   8   8   8   8   8   8   8
#     4  10  23  41  63  93 132 161 221 270 331 401
#     4  11  23  38  65  92 127 174 225 280 329 393
#     4  11  22  39  64  90 120 164 209 270 332 393
#     4  11  24  43  66  96 134 174 219 275 329 394
#     4  12  27  39  56  82 121 171 224 271 325 384
#     4  11  24  43  70  98 131 173 216 272 336 401
#     4  11  23  40  59  86 122 161 223 274 325 382
#     4  11  24  41  62  88 132 174 225 275 337 397
#
# _framework density 21.916177000000001
#
# number of rings (size 3 to 8) (size 9 to 14) (size 15 to 20)
#    0.000    1.000    2.500    4.125    7.000    4.500 
#    0.000    0.000    0.000    0.375    0.000    0.000 
#    0.000    4.500    0.000    0.000    0.000    1.000 
#
# Total GULP energy -792967.651463 kJ/mol
# GULP energy per Si atom -12390.119554 kJ/mol
# Density = 2.186629 g / cm^3
# Si number density = 21.916177 Si / 1000 Ang^3
#
#
#
# Elastic Constant Matrix: (Units=GPa)
#
#
# Indices 1 2 3 4 5 6 
#
# 1 115.3702 43.3202 23.0685 0.0000 0.0000 0.0000
# 2 43.3202 134.8703 20.9831 0.0000 0.0000 0.0000
# 3 23.0685 20.9831 91.2026 0.0000 0.0000 0.0000
# 4 0.0000 0.0000 0.0000 35.0114 0.0000 0.0000
# 5 0.0000 0.0000 0.0000 0.0000 18.4227 0.0000
# 6 0.0000 0.0000 0.0000 0.0000 0.0000 19.6987
#
#
#
# Elastic Compliance Matrix: (Units=1/GPa)
#
#
# Indices 1 2 3 4 5 6 
#
# 1 0.010160 -0.002970 -0.001887 0.000000 0.000000 0.000000
# 2 -0.002970 0.008558 -0.001218 0.000000 0.000000 0.000000
# 3 -0.001887 -0.001218 0.011722 0.000000 0.000000 0.000000
# 4 0.000000 0.000000 0.000000 0.028562 0.000000 0.000000
# 5 0.000000 0.000000 0.000000 0.000000 0.054281 0.000000
# 6 0.000000 0.000000 0.000000 0.000000 0.000000 0.050765
#
#
# Mechanical properties :
#
#
# Convention : Reuss Voigt Hill
#
# Bulk Modulus (GPa) = 54.67004 57.35409 56.01207
# Shear Modulus (GPa) = 27.42829 31.56464 29.49646
#
# Velocity S-wave (km/s) = 3.54151 3.79917 3.67260
# Velocity P-wave (km/s) = 6.45927 6.74326 6.60279
#
# Compressibility (1/GPa) = 0.01829155
#
# Stress axis : x y z
#
# Youngs Moduli (GPa) = 98.42377 116.85090 85.31000
#
# Poissons Ratio (x) = 0.34704 0.16094
# Poissons Ratio (y) = 0.29231 0.10388
# Poissons Ratio (z) = 0.18569 0.14229
#
# Static dielectric constant tensor:
#      x y z
#    x 3.795190 0.000000 0.000000 
#    y 0.000000 4.705240 0.000000 
#    z 0.000000 0.000000 4.151980 
# 
# 
# High freq. dielectric constant tensor:
#      x y z
#    x 1.815770 0.000000 0.000000 
#    y 0.000000 1.874340 0.000000 
#    z 0.000000 0.000000 1.869810 
# 
# From -- ./inp_files/7300.got.cif
#   From: 2010.03.12/outbox.cif.g09.slc.cpg/sg50_4_cif.got.tgz:7300.got - 2010.04.16 13:23:21.
