data_PCOD8205570
_publ_section_title
;
Structure prediction by ZEFSAII (Michael W. Deem and Ramdas Pophale) SiO2 
 PCOD8205570
Probable space group: P B A N
;
_chemical_formula_sum "Si O2"
_cell_formula_units_Z 56
_cell_length_a 12.702359
_cell_length_b 15.772798
_cell_length_c 12.840232
_cell_angle_alpha 90.000000
_cell_angle_beta 90.000000
_cell_angle_gamma 90.000000
_cell_volume 2572.562857
_symmetry_space_group_name_H-M "P B A N"
_symmetry_group_IT_number 50
_space_group.IT_coordinate_system_code '2'
_symmetry_cell_setting 'orthorhombic'
loop_
_space_group_symop_operation_xyz
x,y,z
1/2-x,1/2-y,z
x,1/2-y,-z
1/2-x,y,-z
-x,-y,-z
1/2+x,1/2+y,-z
-x,1/2+y,z
1/2+x,-y,z
loop_
_atom_site_type_symbol
_atom_site_label
_atom_site_fract_x
_atom_site_fract_y
_atom_site_fract_z
Si Si1 0.472158 0.880540 0.328157
Si Si2 0.398309 0.063763 0.303624
Si Si3 0.027303 0.838181 0.453392
Si Si4 0.367967 0.723064 0.249817
Si Si5 0.030811 0.901275 0.113356
Si Si6 0.639140 0.575230 0.942660
Si Si7 0.803602 0.842971 0.736122
O O1 0.420045 0.880286 0.444139
O O2 0.435483 0.808520 0.248719
O O3 0.597646 0.863697 0.338473
O O4 0.433302 0.968073 0.280239
O O5 0.433030 0.101041 0.415172
O O6 0.455782 0.113825 0.212210
O O7 0.274890 0.079975 0.291093
O O8 0.981589 0.750000 0.500000
O O9 0.108864 0.828292 0.357899
O O10 0.250000 0.750000 0.255144
O O11 0.385741 0.673319 0.140077
O O12 0.954595 0.887940 0.014779
O O13 0.096636 0.988158 0.107706
O O14 0.658712 0.646548 0.855519
O O15 0.750000 0.556615 0.000000
O O16 0.750000 0.750000 0.718580
#
# Coordination Sequence:
#
# PCOD8205570 Si02
#       7
#     8   8   8   8   8   8   8
#     4  11  24  41  65 101 136 175 229 284 338 424
#     4  11  22  41  66  93 135 178 223 278 349 415
#     4   9  20  40  63  97 135 176 224 277 336 410
#     4  10  23  42  70  94 135 175 223 279 344 415
#     4  10  22  44  65  97 132 174 218 288 346 414
#     4  11  23  41  72  95 131 174 228 281 354 423
#     4  12  25  43  67 100 132 180 228 284 351 413
#
# _framework density 21.768177000000001
#
# number of rings (size 3 to 8) (size 9 to 14) (size 15 to 20)
#    0.000    1.429    2.857    3.000    2.000    3.429 
#    0.000    4.286    0.000    0.000    0.000    0.000 
#    0.000    0.000    0.000    0.000    0.000    0.000 
#
# Total GULP energy -693780.499433 kJ/mol
# GULP energy per Si atom -12388.937490 kJ/mol
# Density = 2.171863 g / cm^3
# Si number density = 21.768177 Si / 1000 Ang^3
#
#
#
# Elastic Constant Matrix: (Units=GPa)
#
#
# Indices 1 2 3 4 5 6 
#
# 1 135.3451 50.5497 35.1183 0.0000 0.0000 0.0000
# 2 50.5497 104.9296 44.1566 0.0000 0.0000 0.0000
# 3 35.1183 44.1566 90.6209 0.0000 0.0000 0.0000
# 4 0.0000 0.0000 0.0000 51.6089 0.0000 0.0000
# 5 0.0000 0.0000 0.0000 0.0000 26.4787 0.0000
# 6 0.0000 0.0000 0.0000 0.0000 0.0000 38.6685
#
#
#
# Elastic Compliance Matrix: (Units=1/GPa)
#
#
# Indices 1 2 3 4 5 6 
#
# 1 0.009231 -0.003700 -0.001774 0.000000 0.000000 0.000000
# 2 -0.003700 0.013472 -0.005130 0.000000 0.000000 0.000000
# 3 -0.001774 -0.005130 0.014222 0.000000 0.000000 0.000000
# 4 0.000000 0.000000 0.000000 0.019376 0.000000 0.000000
# 5 0.000000 0.000000 0.000000 0.000000 0.037766 0.000000
# 6 0.000000 0.000000 0.000000 0.000000 0.000000 0.025861
#
#
# Mechanical properties :
#
#
# Convention : Reuss Voigt Hill
#
# Bulk Modulus (GPa) = 63.63236 65.61609 64.62423
# Shear Modulus (GPa) = 34.15840 36.75596 35.45718
#
# Velocity S-wave (km/s) = 3.96560 4.11362 4.04028
# Velocity P-wave (km/s) = 7.08966 7.26437 7.17754
#
# Compressibility (1/GPa) = 0.01571527
#
# Stress axis : x y z
#
# Youngs Moduli (GPa) = 108.33162 74.22906 70.31169
#
# Poissons Ratio (x) = 0.27467 0.12475
# Poissons Ratio (y) = 0.40087 0.36072
# Poissons Ratio (z) = 0.19220 0.38082
#
# Static dielectric constant tensor:
#      x y z
#    x 3.729530 0.000000 0.000000 
#    y 0.000000 3.813080 0.000000 
#    z 0.000000 0.000000 4.113550 
# 
# 
# High freq. dielectric constant tensor:
#      x y z
#    x 1.850710 0.000000 0.000000 
#    y 0.000000 1.853090 0.000000 
#    z 0.000000 0.000000 1.858200 
# 
# From -- ./inp_files/25964.got.cif
#   From: 2010.03.12/outbox.cif.g09.slc.cpg/sg50_13_cif.got.tgz:25964.got - 2010.04.16 13:23:21.
