data_PCOD8205796
_publ_section_title
;
Structure prediction by ZEFSAII (Michael W. Deem and Ramdas Pophale) SiO2 
 PCOD8205796
Probable space group: P B A N
;
_chemical_formula_sum "Si O2"
_cell_formula_units_Z 40
_cell_length_a 13.698971
_cell_length_b 14.876417
_cell_length_c 8.569633
_cell_angle_alpha 90.000000
_cell_angle_beta 90.000000
_cell_angle_gamma 90.000000
_cell_volume 1746.419264
_symmetry_space_group_name_H-M "P B A N"
_symmetry_group_IT_number 50
_space_group.IT_coordinate_system_code '2'
_symmetry_cell_setting 'orthorhombic'
loop_
_space_group_symop_operation_xyz
x,y,z
1/2-x,1/2-y,z
x,1/2-y,-z
1/2-x,y,-z
-x,-y,-z
1/2+x,1/2+y,-z
-x,1/2+y,z
1/2+x,-y,z
loop_
_atom_site_type_symbol
_atom_site_label
_atom_site_fract_x
_atom_site_fract_y
_atom_site_fract_z
Si Si1 0.807385 0.834891 0.843366
Si Si2 0.028424 0.815188 0.831161
Si Si3 0.750676 0.492688 0.317869
Si Si4 0.466459 0.509350 0.675252
Si Si5 0.396750 0.873669 0.843712
O O1 0.750000 0.750000 0.767498
O O2 0.916687 0.803610 0.888000
O O3 0.814114 0.918295 0.722260
O O4 0.750000 0.864989 0.000000
O O5 0.030578 0.883419 0.689924
O O6 0.072371 0.721379 0.766531
O O7 0.094925 0.856777 0.971065
O O8 0.750000 0.466915 0.500000
O O9 0.641345 0.521963 0.277899
O O10 0.789562 0.406718 0.216098
O O11 0.500000 0.500000 0.500000
O O12 0.533477 0.454915 0.793405
#
# Coordination Sequence:
#
# PCOD8205796 Si02
#       5
#     8   8   8   8   8
#     4  11  22  41  71 104 137 178 238 297 352 415
#     4  11  24  44  70 101 140 187 236 293 358 425
#     4  12  25  43  67 102 139 186 232 289 358 421
#     4  12  24  44  68 100 143 184 230 294 359 422
#     4  11  24  45  69 103 141 181 239 290 352 427
#
# _framework density 22.904008000000001
#
# number of rings (size 3 to 8) (size 9 to 14) (size 15 to 20)
#    0.000    0.600    4.000    5.400    2.800    2.000 
#    0.000    7.000    0.000    0.000    0.000    0.000 
#    0.000    0.000    0.000    0.000    0.000    0.000 
#
# Total GULP energy -495679.236292 kJ/mol
# GULP energy per Si atom -12391.980907 kJ/mol
# Density = 2.285188 g / cm^3
# Si number density = 22.904008 Si / 1000 Ang^3
#
#
#
# Elastic Constant Matrix: (Units=GPa)
#
#
# Indices 1 2 3 4 5 6 
#
# 1 101.2479 25.3196 33.2890 0.0000 0.0000 0.0000
# 2 25.3196 167.4385 50.6198 0.0000 0.0000 0.0000
# 3 33.2890 50.6198 77.2956 0.0000 0.0000 0.0000
# 4 0.0000 0.0000 0.0000 40.4504 0.0000 0.0000
# 5 0.0000 0.0000 0.0000 0.0000 28.5791 0.0000
# 6 0.0000 0.0000 0.0000 0.0000 0.0000 41.4865
#
#
#
# Elastic Compliance Matrix: (Units=1/GPa)
#
#
# Indices 1 2 3 4 5 6 
#
# 1 0.011518 -0.000302 -0.004763 0.000000 0.000000 0.000000
# 2 -0.000302 0.007455 -0.004752 0.000000 0.000000 0.000000
# 3 -0.004763 -0.004752 0.018101 0.000000 0.000000 0.000000
# 4 0.000000 0.000000 0.000000 0.024722 0.000000 0.000000
# 5 0.000000 0.000000 0.000000 0.000000 0.034991 0.000000
# 6 0.000000 0.000000 0.000000 0.000000 0.000000 0.024104
#
#
# Mechanical properties :
#
#
# Convention : Reuss Voigt Hill
#
# Bulk Modulus (GPa) = 57.33925 62.71542 60.02734
# Shear Modulus (GPa) = 34.16785 37.88678 36.02732
#
# Velocity S-wave (km/s) = 3.86655 4.07154 3.97037
# Velocity P-wave (km/s) = 6.70989 7.03879 6.87631
#
# Compressibility (1/GPa) = 0.01744006
#
# Stress axis : x y z
#
# Youngs Moduli (GPa) = 86.81911 134.14577 55.24694
#
# Poissons Ratio (x) = 0.04049 0.26313
# Poissons Ratio (y) = 0.02621 0.26253
# Poissons Ratio (z) = 0.41351 0.63745
#
# Static dielectric constant tensor:
#      x y z
#    x 9.230680 0.000000 0.000000 
#    y 0.000000 4.244110 0.000000 
#    z 0.000000 0.000000 3.740400 
# 
# 
# High freq. dielectric constant tensor:
#      x y z
#    x 1.921900 0.000000 0.000000 
#    y 0.000000 1.914850 0.000000 
#    z 0.000000 0.000000 1.881570 
# 
# From -- ./inp_files/12535.got.cif
#   From: 2010.03.12/outbox.cif.g09.slc.cpg/sg50_7_cif.got.tgz:12535.got - 2010.04.16 13:23:21.
