data_PCOD8205851
_publ_section_title
;
Structure prediction by ZEFSAII (Michael W. Deem and Ramdas Pophale) SiO2 
 PCOD8205851
Probable space group: P B A N
;
_chemical_formula_sum "Si O2"
_cell_formula_units_Z 40
_cell_length_a 9.544752
_cell_length_b 9.380769
_cell_length_c 20.322950
_cell_angle_alpha 90.000000
_cell_angle_beta 90.000000
_cell_angle_gamma 90.000000
_cell_volume 1819.658284
_symmetry_space_group_name_H-M "P B A N"
_symmetry_group_IT_number 50
_space_group.IT_coordinate_system_code '2'
_symmetry_cell_setting 'orthorhombic'
loop_
_space_group_symop_operation_xyz
x,y,z
1/2-x,1/2-y,z
x,1/2-y,-z
1/2-x,y,-z
-x,-y,-z
1/2+x,1/2+y,-z
-x,1/2+y,z
1/2+x,-y,z
loop_
_atom_site_type_symbol
_atom_site_label
_atom_site_fract_x
_atom_site_fract_y
_atom_site_fract_z
Si Si1 0.833234 0.544530 0.618316
Si Si2 0.086930 0.722238 0.927960
Si Si3 0.443833 0.322062 0.428979
Si Si4 0.000850 0.524252 0.155990
Si Si5 0.746771 0.583010 0.239621
O O1 0.692233 0.574694 0.575855
O O2 0.927451 0.689102 0.621167
O O3 0.793859 0.502788 0.692934
O O4 0.916819 0.412654 0.586132
O O5 0.250000 0.750000 0.931584
O O6 0.058141 0.561155 0.906599
O O7 0.019757 0.750000 0.000000
O O8 0.018712 0.816912 0.870801
O O9 0.454561 0.250000 0.500000
O O10 0.898821 0.526260 0.218698
O O11 0.145307 0.456391 0.179918
O O12 0.750000 0.750000 0.252957
#
# Coordination Sequence:
#
# PCOD8205851 Si02
#       5
#     8   8   8   8   8
#     4  11  24  45  68 104 136 182 223 280 339 398
#     4  11  24  43  65  97 136 178 233 288 339 411
#     4  11  24  45  71  99 141 177 226 276 330 404
#     4  12  24  43  67  99 132 184 224 285 351 402
#     4  12  24  42  69  98 143 172 226 284 341 413
#
# _framework density 21.982147999999999
#
# number of rings (size 3 to 8) (size 9 to 14) (size 15 to 20)
#    0.000    0.600    6.000    3.600    0.000    0.800 
#    0.000    3.000    0.000    0.000    0.000    0.000 
#    0.000    0.000    0.000    0.000    0.000    0.000 
#
# Total GULP energy -496109.466294 kJ/mol
# GULP energy per Si atom -12402.736657 kJ/mol
# Density = 2.193212 g / cm^3
# Si number density = 21.982148 Si / 1000 Ang^3
#
#
#
# Elastic Constant Matrix: (Units=GPa)
#
#
# Indices 1 2 3 4 5 6 
#
# 1 90.0544 33.7450 47.9251 0.0000 0.0000 0.0000
# 2 33.7450 76.1393 37.8672 0.0000 0.0000 0.0000
# 3 47.9251 37.8672 137.5588 0.0000 0.0000 0.0000
# 4 0.0000 0.0000 0.0000 4.2369 0.0000 0.0000
# 5 0.0000 0.0000 0.0000 0.0000 0.4054 0.0000
# 6 0.0000 0.0000 0.0000 0.0000 0.0000 36.3766
#
#
#
# Elastic Compliance Matrix: (Units=1/GPa)
#
#
# Indices 1 2 3 4 5 6 
#
# 1 0.014941 -0.004673 -0.003919 0.000000 0.000000 0.000000
# 2 -0.004673 0.016679 -0.002963 0.000000 0.000000 0.000000
# 3 -0.003919 -0.002963 0.009451 0.000000 0.000000 0.000000
# 4 0.000000 0.000000 0.000000 0.236023 0.000000 0.000000
# 5 0.000000 0.000000 0.000000 0.000000 2.466459 0.000000
# 6 0.000000 0.000000 0.000000 0.000000 0.000000 0.027490
#
#
# Mechanical properties :
#
#
# Convention : Reuss Voigt Hill
#
# Bulk Modulus (GPa) = 55.67912 60.31411 57.99661
# Shear Modulus (GPa) = 1.78563 20.48480 11.13521
#
# Velocity S-wave (km/s) = 0.90226 3.05599 2.25312
# Velocity P-wave (km/s) = 5.14487 6.32056 5.76277
#
# Compressibility (1/GPa) = 0.01796006
#
# Stress axis : x y z
#
# Youngs Moduli (GPa) = 66.92981 59.95718 105.81162
#
# Poissons Ratio (x) = 0.28016 0.41469
# Poissons Ratio (y) = 0.31275 0.31355
# Poissons Ratio (z) = 0.26230 0.17767
#
# Static dielectric constant tensor:
#      x y z
#    x 3.949300 0.000000 0.000000 
#    y 0.000000 3.962900 0.000000 
#    z 0.000000 0.000000 4.014910 
# 
# 
# High freq. dielectric constant tensor:
#      x y z
#    x 1.863230 0.000000 0.000000 
#    y 0.000000 1.861290 0.000000 
#    z 0.000000 0.000000 1.874680 
# 
# From -- ./inp_files/31569.got.cif
#   From: 2010.03.12/outbox.cif.g09.slc.cpg/sg50_16_cif.got.tgz:31569.got - 2010.04.16 13:23:21.
