data_PCOD8205979
_publ_section_title
;
Structure prediction by ZEFSAII (Michael W. Deem and Ramdas Pophale) SiO2 
 PCOD8205979
Probable space group: P M M A
;
_chemical_formula_sum "Si O2"
_cell_formula_units_Z 40
_cell_length_a 15.616143
_cell_length_b 9.762603
_cell_length_c 14.056549
_cell_angle_alpha 90.000000
_cell_angle_beta 90.000000
_cell_angle_gamma 90.000000
_cell_volume 2142.979996
_symmetry_space_group_name_H-M "P M M A"
_symmetry_group_IT_number 51
_symmetry_cell_setting 'orthorhombic'
loop_
_space_group_symop_operation_xyz
x,y,z
1/2-x,-y,z
1/2+x,-y,-z
-x,y,-z
-x,-y,-z
1/2+x,y,-z
1/2-x,y,z
x,-y,z
loop_
_atom_site_type_symbol
_atom_site_label
_atom_site_fract_x
_atom_site_fract_y
_atom_site_fract_z
Si Si1 0.847166 0.500000 0.790201
Si Si2 0.646119 0.500000 0.100672
Si Si3 0.032109 0.500000 0.712268
Si Si4 0.151931 0.282177 0.049601
Si Si5 0.964332 0.230560 0.399226
Si Si6 0.844820 0.000000 0.465161
Si Si7 0.148659 0.000000 0.119173
Si Si8 0.415288 0.000000 0.331307
O O1 0.750000 0.500000 0.743244
O O2 0.857758 0.365635 0.853354
O O3 0.927508 0.500000 0.717696
O O4 0.750000 0.500000 0.120261
O O5 0.585490 0.500000 0.190967
O O6 0.615828 0.633650 0.040403
O O7 0.062863 0.364647 0.658124
O O8 0.250000 0.257368 0.026064
O O9 0.107871 0.133851 0.067121
O O10 0.000000 0.280866 0.500000
O O11 0.883329 0.136494 0.420205
O O12 0.030082 0.139137 0.338424
O O13 0.850531 0.000000 0.579651
O O14 0.750000 0.000000 0.429310
O O15 0.132191 0.000000 0.231526
O O16 0.250000 0.000000 0.107314
#
# Coordination Sequence:
#
# PCOD8205979 Si02
#       8
#     4   4   4   8   8   4   4   4
#     4   9  18  33  51  74 105 137 171 216 276 336
#     4   9  20  37  51  68 101 145 185 214 252 312
#     4  12  21  33  58  80 102 144 190 225 261 310
#     4   8  16  31  48  70 104 137 168 218 273 314
#     4   9  20  36  53  76 109 140 170 218 276 320
#     4   9  18  36  58  77 105 143 176 213 269 328
#     4  10  16  25  50  81 103 129 170 218 267 316
#     4   9  17  33  53  76 104 133 170 213 263 333
#
# _framework density 18.665596000000001
#
# number of rings (size 3 to 8) (size 9 to 14) (size 15 to 20)
#    0.000    2.800    0.000    4.200    0.000    2.400 
#    0.000    6.000    0.000    4.800    0.000    0.000 
#    0.000    0.000    0.000    0.000    0.000    0.000 
#
# Total GULP energy -495559.278495 kJ/mol
# GULP energy per Si atom -12388.981962 kJ/mol
# Density = 1.862311 g / cm^3
# Si number density = 18.665596 Si / 1000 Ang^3
#
#
#
# Elastic Constant Matrix: (Units=GPa)
#
#
# Indices 1 2 3 4 5 6 
#
# 1 78.0737 32.6093 36.4020 0.0000 0.0000 0.0000
# 2 32.6093 174.4914 73.8381 0.0000 0.0000 0.0000
# 3 36.4020 73.8381 99.7353 0.0000 0.0000 0.0000
# 4 0.0000 0.0000 0.0000 10.0514 0.0000 0.0000
# 5 0.0000 0.0000 0.0000 0.0000 20.0458 0.0000
# 6 0.0000 0.0000 0.0000 0.0000 0.0000 6.6890
#
#
#
# Elastic Compliance Matrix: (Units=1/GPa)
#
#
# Indices 1 2 3 4 5 6 
#
# 1 0.015499 -0.000732 -0.005115 0.000000 0.000000 0.000000
# 2 -0.000732 0.008380 -0.005937 0.000000 0.000000 0.000000
# 3 -0.005115 -0.005937 0.016289 0.000000 0.000000 0.000000
# 4 0.000000 0.000000 0.000000 0.099489 0.000000 0.000000
# 5 0.000000 0.000000 0.000000 0.000000 0.049886 0.000000
# 6 0.000000 0.000000 0.000000 0.000000 0.000000 0.149500
#
#
# Mechanical properties :
#
#
# Convention : Reuss Voigt Hill
#
# Bulk Modulus (GPa) = 60.24095 70.88882 65.56488
# Shear Modulus (GPa) = 13.58167 21.32063 17.45115
#
# Velocity S-wave (km/s) = 2.70039 3.38337 3.06099
# Velocity P-wave (km/s) = 6.48588 7.30231 6.90617
#
# Compressibility (1/GPa) = 0.01660001
#
# Stress axis : x y z
#
# Youngs Moduli (GPa) = 64.52019 119.33178 61.39211
#
# Poissons Ratio (x) = 0.08735 0.31402
# Poissons Ratio (y) = 0.04723 0.36448
# Poissons Ratio (z) = 0.33002 0.70846
#
# Static dielectric constant tensor:
#      x y z
#    x 3.194680 0.000000 0.000000 
#    y 0.000000 3.686100 0.000000 
#    z 0.000000 0.000000 3.214420 
# 
# 
# High freq. dielectric constant tensor:
#      x y z
#    x 1.701000 0.000000 0.000000 
#    y 0.000000 1.740340 0.000000 
#    z 0.000000 0.000000 1.708070 
# 
# From -- ./inp_files/23891.got.cif
#   From: 2010.03.12/outbox.cif.g09.slc.cpg/sg51_12_cif.got.tgz:23891.got - 2010.04.16 13:43:02.
