data_PCOD8205292
_publ_section_title
;
Structure prediction by ZEFSAII (Michael W. Deem and Ramdas Pophale) SiO2 
 PCOD8205292
Probable space group: P B A N
;
_chemical_formula_sum "Si O2"
_cell_formula_units_Z 64
_cell_length_a 22.442769
_cell_length_b 9.300089
_cell_length_c 15.854387
_cell_angle_alpha 90.000000
_cell_angle_beta 90.000000
_cell_angle_gamma 90.000000
_cell_volume 3309.123677
_symmetry_space_group_name_H-M "P B A N"
_symmetry_group_IT_number 50
_space_group.IT_coordinate_system_code '2'
_symmetry_cell_setting 'orthorhombic'
loop_
_space_group_symop_operation_xyz
x,y,z
1/2-x,1/2-y,z
x,1/2-y,-z
1/2-x,y,-z
-x,-y,-z
1/2+x,1/2+y,-z
-x,1/2+y,z
1/2+x,-y,z
loop_
_atom_site_type_symbol
_atom_site_label
_atom_site_fract_x
_atom_site_fract_y
_atom_site_fract_z
Si Si1 0.999984 0.999995 0.806388
Si Si2 0.683765 0.250034 0.807972
Si Si3 0.353546 0.249940 0.400075
Si Si4 0.088961 0.750050 0.408515
Si Si5 0.816618 0.451537 0.343721
Si Si6 0.530020 0.749996 0.693657
Si Si7 0.816556 0.451377 0.656211
Si Si8 0.567150 0.249988 0.901696
O O1 0.959374 0.895210 0.748068
O O2 0.040374 0.896170 0.863202
O O3 0.959599 0.103822 0.863207
O O4 0.040586 0.104772 0.748056
O O5 0.750000 0.250000 0.847109
O O6 0.673147 0.392213 0.750877
O O7 0.673164 0.107950 0.750797
O O8 0.637739 0.249952 0.884873
O O9 0.340655 0.250000 0.500000
O O10 0.321989 0.378903 0.351052
O O11 0.424635 0.249942 0.384371
O O12 0.321990 0.120923 0.351114
O O13 0.057751 0.750000 0.500000
O O14 0.131740 0.888052 0.402894
O O15 0.131864 0.612255 0.403007
O O16 0.038399 0.749888 0.337445
O O17 0.750048 0.404481 0.373059
O O18 0.553920 0.250000 0.000000
#
# Coordination Sequence:
#
# PCOD8205292 Si02
#       8
#     8   8   8   8   8   8   8   8
#     4  10  21  36  57  78 106 142 172 206 253 316
#     4   9  19  38  59  77 102 139 178 210 250 313
#     4  12  23  33  49  77 110 139 176 227 271 299
#     4  11  21  34  53  75 101 137 183 230 266 293
#     4  10  21  36  53  73 101 140 182 218 258 309
#     4  11  21  37  55  75 105 142 181 212 255 313
#     4  10  21  36  53  73 101 140 182 218 258 309
#     4  11  21  36  58  87 112 129 162 210 263 314
#
# _framework density 19.340468999999999
#
# number of rings (size 3 to 8) (size 9 to 14) (size 15 to 20)
#    0.000    1.500    0.000    9.000    0.000    3.250 
#    0.000    3.750    0.000    0.000    0.000    0.000 
#    0.000   17.000    0.000    0.000    0.000    0.000 
#
# Total GULP energy -793338.431615 kJ/mol
# GULP energy per Si atom -12395.912994 kJ/mol
# Density = 1.929645 g / cm^3
# Si number density = 19.340469 Si / 1000 Ang^3
#
#
#
# Elastic Constant Matrix: (Units=GPa)
#
#
# Indices 1 2 3 4 5 6 
#
# 1 109.7364 32.2347 35.2698 0.0000 0.0000 0.0000
# 2 32.2347 146.3431 34.7212 0.0000 0.0000 0.0000
# 3 35.2698 34.7212 80.4043 0.0000 0.0000 0.0000
# 4 0.0000 0.0000 0.0000 9.3622 0.0000 0.0000
# 5 0.0000 0.0000 0.0000 0.0000 23.1217 0.0000
# 6 0.0000 0.0000 0.0000 0.0000 0.0000 10.7767
#
#
#
# Elastic Compliance Matrix: (Units=1/GPa)
#
#
# Indices 1 2 3 4 5 6 
#
# 1 0.010862 -0.001406 -0.004157 0.000000 0.000000 0.000000
# 2 -0.001406 0.007795 -0.002749 0.000000 0.000000 0.000000
# 3 -0.004157 -0.002749 0.015448 0.000000 0.000000 0.000000
# 4 0.000000 0.000000 0.000000 0.106813 0.000000 0.000000
# 5 0.000000 0.000000 0.000000 0.000000 0.043249 0.000000
# 6 0.000000 0.000000 0.000000 0.000000 0.000000 0.092793
#
#
# Mechanical properties :
#
#
# Convention : Reuss Voigt Hill
#
# Bulk Modulus (GPa) = 57.21038 60.10389 58.65713
# Shear Modulus (GPa) = 16.69931 24.26932 20.48432
#
# Velocity S-wave (km/s) = 2.94162 3.54622 3.25798
# Velocity P-wave (km/s) = 6.41735 6.92184 6.67436
#
# Compressibility (1/GPa) = 0.01747935
#
# Stress axis : x y z
#
# Youngs Moduli (GPa) = 92.06383 128.28210 64.73267
#
# Poissons Ratio (x) = 0.18039 0.26912
# Poissons Ratio (y) = 0.12946 0.17798
# Poissons Ratio (z) = 0.38275 0.35271
#
# Static dielectric constant tensor:
#      x y z
#    x 3.547770 0.000000 0.000000 
#    y 0.000000 3.745370 0.000000 
#    z 0.000000 0.000000 3.200400 
# 
# 
# High freq. dielectric constant tensor:
#      x y z
#    x 1.760930 0.000000 0.000000 
#    y 0.000000 1.766560 0.000000 
#    z 0.000000 0.000000 1.720000 
# 
# From -- ./inp_files/29864.got.cif
#   From: 2010.03.12/outbox.cif.g09.slc.cpg/sg50_15_cif.got.tgz:29864.got - 2010.04.16 13:23:21.
