data_PCOD8205896
_publ_section_title
;
Structure prediction by ZEFSAII (Michael W. Deem and Ramdas Pophale) SiO2 
 PCOD8205896
Probable space group: P B A N
;
_chemical_formula_sum "Si O2"
_cell_formula_units_Z 30
_cell_length_a 11.700930
_cell_length_b 18.840560
_cell_length_c 5.638752
_cell_angle_alpha 90.000000
_cell_angle_beta 90.000000
_cell_angle_gamma 90.000000
_cell_volume 1243.074572
_symmetry_space_group_name_H-M "P B A N"
_symmetry_group_IT_number 50
_space_group.IT_coordinate_system_code '2'
_symmetry_cell_setting 'orthorhombic'
loop_
_space_group_symop_operation_xyz
x,y,z
1/2-x,1/2-y,z
x,1/2-y,-z
1/2-x,y,-z
-x,-y,-z
1/2+x,1/2+y,-z
-x,1/2+y,z
1/2+x,-y,z
loop_
_atom_site_type_symbol
_atom_site_label
_atom_site_fract_x
_atom_site_fract_y
_atom_site_fract_z
Si Si1 0.054719 0.655121 0.185548
Si Si2 0.597202 0.750000 0.500000
Si Si3 0.142711 0.136172 0.833605
Si Si4 0.750000 0.250000 0.000000
Si Si5 0.316190 0.982027 0.255623
O O1 0.080233 0.573654 0.246835
O O2 0.982438 0.688886 0.394119
O O3 0.171610 0.699046 0.158934
O O4 0.977893 0.657398 0.949576
O O5 0.677008 0.703648 0.327237
O O6 0.130278 0.060253 0.704287
O O7 0.250000 0.126613 0.000000
O O8 0.250000 0.963573 0.500000
O O9 0.250000 0.975720 0.000000
#
# Coordination Sequence:
#
# PCOD8205896 Si02
#       5
#     8   4   8   2   8
#     4  12  27  49  79 111 161 205 262 333 398 476
#     4  12  28  46  82 114 152 215 257 336 394 480
#     4  11  28  53  74 116 156 209 268 326 399 474
#     4  12  24  50  70 120 154 200 268 330 414 456
#     4  11  28  51  82 116 160 212 266 331 394 479
#
# _framework density 24.133709
#
# number of rings (size 3 to 8) (size 9 to 14) (size 15 to 20)
#    0.000    0.533    4.000    0.800   14.933    4.267 
#    0.000    0.000    0.000    0.000    0.000    0.000 
#    0.000    0.000    0.000    0.000    0.000    0.000 
#
# Total GULP energy -371869.857633 kJ/mol
# GULP energy per Si atom -12395.661921 kJ/mol
# Density = 2.407878 g / cm^3
# Si number density = 24.133709 Si / 1000 Ang^3
#
#
#
# Elastic Constant Matrix: (Units=GPa)
#
#
# Indices 1 2 3 4 5 6 
#
# 1 76.7537 40.0811 8.0425 0.0000 0.0000 0.0000
# 2 40.0811 211.9324 41.0371 0.0000 0.0000 0.0000
# 3 8.0425 41.0371 107.4077 0.0000 0.0000 0.0000
# 4 0.0000 0.0000 0.0000 38.4578 0.0000 0.0000
# 5 0.0000 0.0000 0.0000 0.0000 9.2816 0.0000
# 6 0.0000 0.0000 0.0000 0.0000 0.0000 54.0389
#
#
#
# Elastic Compliance Matrix: (Units=1/GPa)
#
#
# Indices 1 2 3 4 5 6 
#
# 1 0.014457 -0.002726 -0.000041 0.000000 0.000000 0.000000
# 2 -0.002726 0.005610 -0.001939 0.000000 0.000000 0.000000
# 3 -0.000041 -0.001939 0.010054 0.000000 0.000000 0.000000
# 4 0.000000 0.000000 0.000000 0.026003 0.000000 0.000000
# 5 0.000000 0.000000 0.000000 0.000000 0.107740 0.000000
# 6 0.000000 0.000000 0.000000 0.000000 0.000000 0.018505
#
#
# Mechanical properties :
#
#
# Convention : Reuss Voigt Hill
#
# Bulk Modulus (GPa) = 48.29037 63.82392 56.05714
# Shear Modulus (GPa) = 25.16572 40.81787 32.99179
#
# Velocity S-wave (km/s) = 3.23269 4.11703 3.70136
# Velocity P-wave (km/s) = 5.82981 7.00737 6.44554
#
# Compressibility (1/GPa) = 0.02070806
#
# Stress axis : x y z
#
# Youngs Moduli (GPa) = 69.17265 178.26809 99.46045
#
# Poissons Ratio (x) = 0.48598 0.00407
# Poissons Ratio (y) = 0.18857 0.19286
# Poissons Ratio (z) = 0.00283 0.34568
#
# Static dielectric constant tensor:
#      x y z
#    x 4.233780 0.000000 0.000000 
#    y 0.000000 4.868130 0.000000 
#    z 0.000000 0.000000 4.290390 
# 
# 
# High freq. dielectric constant tensor:
#      x y z
#    x 1.958470 0.000000 0.000000 
#    y 0.000000 1.996110 0.000000 
#    z 0.000000 0.000000 1.955190 
# 
# From -- ./inp_files/2028.got.cif
#   From: 2010.03.12/outbox.cif.g09.slc.cpg/sg50_2_cif.got.tgz:2028.got - 2010.04.16 13:23:21.
