data_PCOD8205106
_publ_section_title
;
Structure prediction by ZEFSAII (Michael W. Deem and Ramdas Pophale) SiO2 
 PCOD8205106
Probable space group: P B A N
;
_chemical_formula_sum "Si O2"
_cell_formula_units_Z 22
_cell_length_a 5.486780
_cell_length_b 16.758030
_cell_length_c 11.052516
_cell_angle_alpha 90.000000
_cell_angle_beta 90.000000
_cell_angle_gamma 90.000000
_cell_volume 1016.252584
_symmetry_space_group_name_H-M "P B A N"
_symmetry_group_IT_number 50
_space_group.IT_coordinate_system_code '2'
_symmetry_cell_setting 'orthorhombic'
loop_
_space_group_symop_operation_xyz
x,y,z
1/2-x,1/2-y,z
x,1/2-y,-z
1/2-x,y,-z
-x,-y,-z
1/2+x,1/2+y,-z
-x,1/2+y,z
1/2+x,-y,z
loop_
_atom_site_type_symbol
_atom_site_label
_atom_site_fract_x
_atom_site_fract_y
_atom_site_fract_z
Si Si1 0.750000 0.750000 0.000000
Si Si2 0.250000 0.950623 0.000000
Si Si3 0.001819 0.340672 0.451924
Si Si4 0.900376 0.171595 0.818131
O O1 0.600474 0.689609 0.081706
O O2 0.264690 0.897705 0.123085
O O3 0.500000 0.000000 0.000000
O O4 0.002736 0.250000 0.500000
O O5 0.250000 0.382992 0.500000
O O6 0.750000 0.381405 0.500000
O O7 0.020673 0.352808 0.308077
O O8 0.750000 0.250000 0.788337
#
# Coordination Sequence:
#
# PCOD8205106 Si02
#       4
#     2   4   8   8
#     4  12  20  36  66 104 128 162 230 292 338 386
#     4  12  28  46  63  97 144 190 224 272 344 412
#     4  10  20  35  59 101 128 157 206 285 340 381
#     4  12  23  40  70  99 133 174 228 291 333 401
#
# _framework density 21.648161999999999
#
# number of rings (size 3 to 8) (size 9 to 14) (size 15 to 20)
#    0.000    0.727    7.273    3.273    0.000    0.000 
#    0.000    0.000    0.000    6.545    0.000    0.000 
#    0.000    0.000    0.000    0.000    0.000    0.000 
#
# Total GULP energy -272678.764296 kJ/mol
# GULP energy per Si atom -12394.489286 kJ/mol
# Density = 2.159889 g / cm^3
# Si number density = 21.648162 Si / 1000 Ang^3
#
#
#
# Elastic Constant Matrix: (Units=GPa)
#
#
# Indices 1 2 3 4 5 6 
#
# 1 200.1861 32.4145 77.8026 0.0000 0.0000 0.0000
# 2 32.4145 63.1737 33.2427 0.0000 0.0000 0.0000
# 3 77.8026 33.2427 216.7683 0.0000 0.0000 0.0000
# 4 0.0000 0.0000 0.0000 -5.8613 0.0000 0.0000
# 5 0.0000 0.0000 0.0000 0.0000 58.9888 0.0000
# 6 0.0000 0.0000 0.0000 0.0000 0.0000 18.5336
#
#
#
# Elastic Compliance Matrix: (Units=1/GPa)
#
#
# Indices 1 2 3 4 5 6 
#
# 1 0.006059 -0.002137 -0.001847 0.000000 0.000000 0.000000
# 2 -0.002137 0.017973 -0.001989 0.000000 0.000000 0.000000
# 3 -0.001847 -0.001989 0.005581 0.000000 0.000000 0.000000
# 4 0.000000 0.000000 0.000000 -0.170611 0.000000 0.000000
# 5 0.000000 0.000000 0.000000 0.000000 0.016952 0.000000
# 6 0.000000 0.000000 0.000000 0.000000 0.000000 0.053956
#
#
# Mechanical properties :
#
#
# Convention : Reuss Voigt Hill
#
# Bulk Modulus (GPa) = 56.60427 85.22751 70.91589
# Shear Modulus (GPa) = -95.68523 36.77679 -29.45422
#
# Velocity S-wave (km/s) = -6.65553 4.12617 -3.69262
# Velocity P-wave (km/s) = 5.73213 7.88386 3.82740
#
# Compressibility (1/GPa) = 0.01766651
#
# Stress axis : x y z
#
# Youngs Moduli (GPa) = 165.03694 55.64015 179.17237
#
# Poissons Ratio (x) = 0.11891 0.33094
# Poissons Ratio (y) = 0.35270 0.35640
# Poissons Ratio (z) = 0.30483 0.11068
#
# Static dielectric constant tensor:
#      x y z
#    x 4.858500 0.000000 0.000000 
#    y 0.000000 3.582010 0.000000 
#    z 0.000000 0.000000 6.114810 
# 
# 
# High freq. dielectric constant tensor:
#      x y z
#    x 1.874240 0.000000 0.000000 
#    y 0.000000 1.793110 0.000000 
#    z 0.000000 0.000000 1.866160 
# 
# From -- ./inp_files/17298.got.cif
#   From: 2010.03.12/outbox.cif.g09.slc.cpg/sg50_9_cif.got.tgz:17298.got - 2010.04.16 13:23:21.
