data_PCOD8205725
_publ_section_title
;
Structure prediction by ZEFSAII (Michael W. Deem and Ramdas Pophale) SiO2 
 PCOD8205725
Probable space group: P B A N
;
_chemical_formula_sum "Si O2"
_cell_formula_units_Z 46
_cell_length_a 22.854611
_cell_length_b 7.788126
_cell_length_c 11.731704
_cell_angle_alpha 90.000000
_cell_angle_beta 90.000000
_cell_angle_gamma 90.000000
_cell_volume 2088.179845
_symmetry_space_group_name_H-M "P B A N"
_symmetry_group_IT_number 50
_space_group.IT_coordinate_system_code '2'
_symmetry_cell_setting 'orthorhombic'
loop_
_space_group_symop_operation_xyz
x,y,z
1/2-x,1/2-y,z
x,1/2-y,-z
1/2-x,y,-z
-x,-y,-z
1/2+x,1/2+y,-z
-x,1/2+y,z
1/2+x,-y,z
loop_
_atom_site_type_symbol
_atom_site_label
_atom_site_fract_x
_atom_site_fract_y
_atom_site_fract_z
Si Si1 0.365100 0.610212 0.412205
Si Si2 0.068171 0.333450 0.259482
Si Si3 0.601983 0.750000 0.500000
Si Si4 0.394605 0.750000 0.000000
Si Si5 0.945537 0.039006 0.800083
Si Si6 0.750000 0.750000 0.000000
Si Si7 0.750000 0.250000 0.305387
Si Si8 0.822134 0.498175 0.845001
O O1 0.391867 0.750000 0.500000
O O2 0.360189 0.419371 0.467264
O O3 0.405922 0.618626 0.300376
O O4 0.299797 0.667849 0.383216
O O5 0.060511 0.290983 0.393027
O O6 0.129804 0.426188 0.241092
O O7 0.014440 0.454200 0.226261
O O8 0.068748 0.161050 0.183692
O O9 0.435123 0.636446 0.081809
O O10 0.352332 0.868715 0.070445
O O11 0.708322 0.642739 0.081226
O O12 0.773132 0.095929 0.228001
#
# Coordination Sequence:
#
# PCOD8205725 Si02
#       8
#     8   8   4   4   8   2   4   8
#     4  11  25  47  73 108 143 194 244 305 367 443
#     4  11  26  46  70 109 140 188 240 300 363 442
#     4  10  26  44  75 106 148 187 244 302 368 442
#     4  12  24  48  72 102 143 193 234 298 362 434
#     4  11  26  44  73 106 145 186 242 294 371 436
#     4  12  28  40  72 102 142 194 244 302 360 440
#     4  12  25  47  74 102 146 191 245 302 368 442
#     4  12  26  45  73 103 144 191 242 299 362 437
#
# _framework density 22.028752000000001
#
# number of rings (size 3 to 8) (size 9 to 14) (size 15 to 20)
#    0.000    0.696    1.739    4.435    8.522    4.870 
#    0.000    5.217    0.000    0.000    0.000    0.000 
#    0.000    0.000    0.000    0.000    0.000    0.000 
#
# Total GULP energy -570622.435469 kJ/mol
# GULP energy per Si atom -12404.835554 kJ/mol
# Density = 2.197861 g / cm^3
# Si number density = 22.028752 Si / 1000 Ang^3
#
#
#
# Elastic Constant Matrix: (Units=GPa)
#
#
# Indices 1 2 3 4 5 6 
#
# 1 48.5719 -11.6087 -16.2630 0.0000 0.0000 0.0000
# 2 -11.6087 94.3832 15.9467 0.0000 0.0000 0.0000
# 3 -16.2630 15.9467 72.0714 0.0000 0.0000 0.0000
# 4 0.0000 0.0000 0.0000 51.8307 0.0000 0.0000
# 5 0.0000 0.0000 0.0000 0.0000 140.3171 0.0000
# 6 0.0000 0.0000 0.0000 0.0000 0.0000 42.9185
#
#
#
# Elastic Compliance Matrix: (Units=1/GPa)
#
#
# Indices 1 2 3 4 5 6 
#
# 1 0.022627 0.001995 0.004664 0.000000 0.000000 0.000000
# 2 0.001995 0.011182 -0.002024 0.000000 0.000000 0.000000
# 3 0.004664 -0.002024 0.015375 0.000000 0.000000 0.000000
# 4 0.000000 0.000000 0.000000 0.019294 0.000000 0.000000
# 5 0.000000 0.000000 0.000000 0.000000 0.007127 0.000000
# 6 0.000000 0.000000 0.000000 0.000000 0.000000 0.023300
#
#
# Mechanical properties :
#
#
# Convention : Reuss Voigt Hill
#
# Bulk Modulus (GPa) = 17.10726 21.24182 19.17454
# Shear Modulus (GPa) = 45.82133 62.14335 53.98234
#
# Velocity S-wave (km/s) = 4.56573 5.31708 4.95566
# Velocity P-wave (km/s) = 5.96466 6.88178 6.43957
#
# Compressibility (1/GPa) = 0.05845472
#
# Stress axis : x y z
#
# Youngs Moduli (GPa) = 44.19585 89.42578 65.03855
#
# Poissons Ratio (x) = -0.17839 -0.30336
# Poissons Ratio (y) = -0.08817 0.13164
# Poissons Ratio (z) = -0.20614 0.18101
#
# Static dielectric constant tensor:
#      x y z
#    x 3.866560 0.000000 0.000000 
#    y 0.000000 3.103490 0.000000 
#    z 0.000000 0.000000 4.386170 
# 
# 
# High freq. dielectric constant tensor:
#      x y z
#    x 1.864840 0.000000 0.000000 
#    y 0.000000 1.886910 0.000000 
#    z 0.000000 0.000000 1.882220 
# 
# From -- ./inp_files/22811.got.cif
#   From: 2010.03.12/outbox.cif.g09.slc.cpg/sg50_12_cif.got.tgz:22811.got - 2010.04.16 13:23:21.
