data_PCOD8205123
_publ_section_title
;
Structure prediction by ZEFSAII (Michael W. Deem and Ramdas Pophale) SiO2 
 PCOD8205123
Probable space group: P B A N
;
_chemical_formula_sum "Si O2"
_cell_formula_units_Z 56
_cell_length_a 11.865197
_cell_length_b 22.423230
_cell_length_c 11.736067
_cell_angle_alpha 90.000000
_cell_angle_beta 90.000000
_cell_angle_gamma 90.000000
_cell_volume 3122.451527
_symmetry_space_group_name_H-M "P B A N"
_symmetry_group_IT_number 50
_space_group.IT_coordinate_system_code '2'
_symmetry_cell_setting 'orthorhombic'
loop_
_space_group_symop_operation_xyz
x,y,z
1/2-x,1/2-y,z
x,1/2-y,-z
1/2-x,y,-z
-x,-y,-z
1/2+x,1/2+y,-z
-x,1/2+y,z
1/2+x,-y,z
loop_
_atom_site_type_symbol
_atom_site_label
_atom_site_fract_x
_atom_site_fract_y
_atom_site_fract_z
Si Si1 0.442840 0.835169 0.762008
Si Si2 0.888474 0.882394 0.629421
Si Si3 0.764052 0.122878 0.375125
Si Si4 0.876250 0.320370 0.995123
Si Si5 0.869662 0.895317 0.360805
Si Si6 0.058064 0.978550 0.615837
Si Si7 0.946548 0.195299 0.247847
O O1 0.355676 0.877625 0.691598
O O2 0.567810 0.847831 0.717581
O O3 0.422460 0.765241 0.745857
O O4 0.440067 0.849178 0.896878
O O5 0.897078 0.880597 0.492458
O O6 0.761351 0.890109 0.668279
O O7 0.965096 0.937068 0.678126
O O8 0.938269 0.822023 0.685775
O O9 0.750000 0.150453 0.500000
O O10 0.824051 0.058177 0.393582
O O11 0.839661 0.168358 0.308329
O O12 0.945929 0.333465 0.879442
O O13 0.866545 0.250000 0.000000
O O14 0.750000 0.347686 0.000000
O O15 0.910220 0.960764 0.319558
O O16 0.000000 0.000000 0.500000
#
# Coordination Sequence:
#
# PCOD8205123 Si02
#       7
#     8   8   8   8   8   8   8
#     4  11  21  33  55  86 109 140 191 225 273 334
#     4   9  20  36  53  77 113 152 180 215 288 326
#     4  11  21  30  53  85 110 142 175 228 280 320
#     4   9  17  34  56  77 107 146 181 224 273 323
#     4  10  21  34  54  81 109 150 185 225 267 331
#     4   9  19  34  53  74 110 144 184 227 262 327
#     4  10  20  36  53  80 116 145 179 226 278 333
#
# _framework density 17.934625
#
# number of rings (size 3 to 8) (size 9 to 14) (size 15 to 20)
#    0.000    2.143    1.429    3.000    6.000    3.429 
#    0.000    2.143    0.000    6.000    7.429    0.000 
#    0.000    0.000    0.000    0.000    0.000    0.000 
#
# Total GULP energy -693858.188924 kJ/mol
# GULP energy per Si atom -12390.324802 kJ/mol
# Density = 1.789380 g / cm^3
# Si number density = 17.934625 Si / 1000 Ang^3
#
#
#
# Elastic Constant Matrix: (Units=GPa)
#
#
# Indices 1 2 3 4 5 6 
#
# 1 115.2004 26.3846 48.0718 0.0000 0.0000 0.0000
# 2 26.3846 57.6172 29.8588 0.0000 0.0000 0.0000
# 3 48.0718 29.8588 100.2121 0.0000 0.0000 0.0000
# 4 0.0000 0.0000 0.0000 7.5169 0.0000 0.0000
# 5 0.0000 0.0000 0.0000 0.0000 12.3502 0.0000
# 6 0.0000 0.0000 0.0000 0.0000 0.0000 17.8140
#
#
#
# Elastic Compliance Matrix: (Units=1/GPa)
#
#
# Indices 1 2 3 4 5 6 
#
# 1 0.011216 -0.002777 -0.004553 0.000000 0.000000 0.000000
# 2 -0.002777 0.021213 -0.004988 0.000000 0.000000 0.000000
# 3 -0.004553 -0.004988 0.013649 0.000000 0.000000 0.000000
# 4 0.000000 0.000000 0.000000 0.133034 0.000000 0.000000
# 5 0.000000 0.000000 0.000000 0.000000 0.080970 0.000000
# 6 0.000000 0.000000 0.000000 0.000000 0.000000 0.056135
#
#
# Mechanical properties :
#
#
# Convention : Reuss Voigt Hill
#
# Bulk Modulus (GPa) = 46.63812 53.51779 50.07795
# Shear Modulus (GPa) = 14.36772 18.78386 16.57579
#
# Velocity S-wave (km/s) = 2.83347 3.23979 3.04342
# Velocity P-wave (km/s) = 6.06347 6.62573 6.35083
#
# Compressibility (1/GPa) = 0.02144169
#
# Stress axis : x y z
#
# Youngs Moduli (GPa) = 89.15447 47.14173 73.26364
#
# Poissons Ratio (x) = 0.13090 0.33358
# Poissons Ratio (y) = 0.24756 0.36547
# Poissons Ratio (z) = 0.40594 0.23516
#
# Static dielectric constant tensor:
#      x y z
#    x 3.808730 0.000000 0.000000 
#    y 0.000000 3.355670 0.000000 
#    z 0.000000 0.000000 3.903620 
# 
# 
# High freq. dielectric constant tensor:
#      x y z
#    x 1.699350 0.000000 0.000000 
#    y 0.000000 1.680510 0.000000 
#    z 0.000000 0.000000 1.673530 
# 
# From -- ./inp_files/20373.got.cif
#   From: 2010.03.12/outbox.cif.g09.slc.cpg/sg50_11_cif.got.tgz:20373.got - 2010.04.16 13:23:21.
