data_PCOD8205199
_publ_section_title
;
Structure prediction by ZEFSAII (Michael W. Deem and Ramdas Pophale) SiO2 
 PCOD8205199
Probable space group: P B A N
;
_chemical_formula_sum "Si O2"
_cell_formula_units_Z 48
_cell_length_a 13.600702
_cell_length_b 11.876821
_cell_length_c 15.752926
_cell_angle_alpha 90.000000
_cell_angle_beta 90.000000
_cell_angle_gamma 90.000000
_cell_volume 2544.619020
_symmetry_space_group_name_H-M "P B A N"
_symmetry_group_IT_number 50
_space_group.IT_coordinate_system_code '2'
_symmetry_cell_setting 'orthorhombic'
loop_
_space_group_symop_operation_xyz
x,y,z
1/2-x,1/2-y,z
x,1/2-y,-z
1/2-x,y,-z
-x,-y,-z
1/2+x,1/2+y,-z
-x,1/2+y,z
1/2+x,-y,z
loop_
_atom_site_type_symbol
_atom_site_label
_atom_site_fract_x
_atom_site_fract_y
_atom_site_fract_z
Si Si1 0.975855 0.469408 0.721255
Si Si2 0.354746 0.386152 0.595319
Si Si3 0.471991 0.899140 0.883293
Si Si4 0.148438 0.491860 0.031777
Si Si5 0.364978 0.379473 0.407115
Si Si6 0.351377 0.812653 0.165280
O O1 0.919287 0.563544 0.669386
O O2 0.899390 0.374022 0.753348
O O3 0.032954 0.530336 0.796975
O O4 0.057815 0.417827 0.661713
O O5 0.393688 0.422296 0.501786
O O6 0.360699 0.253374 0.598998
O O7 0.243456 0.428191 0.611781
O O8 0.432779 0.773482 0.870841
O O9 0.584866 0.897910 0.917807
O O10 0.407497 0.967460 0.949088
O O11 0.172683 0.598335 0.091806
O O12 0.250000 0.436196 0.000000
O O13 0.250000 0.750000 0.191680
#
# Coordination Sequence:
#
# PCOD8205199 Si02
#       6
#     8   8   8   8   8   8
#     4  11  22  34  57  87 120 147 186 252 290 332
#     4   9  19  37  59  82 109 159 197 226 285 355
#     4  10  22  34  55  88 112 142 200 236 288 346
#     4  10  20  38  60  79 108 157 197 235 286 357
#     4   9  19  37  59  81 113 153 200 230 279 352
#     4  11  22  36  58  85 116 156 194 235 303 356
#
# _framework density 18.863334999999999
#
# number of rings (size 3 to 8) (size 9 to 14) (size 15 to 20)
#    0.000    2.000    1.667    3.000    2.333    0.000 
#    0.000    0.000    0.000   17.000    0.000    0.000 
#    0.000    0.000    0.000    0.000    0.000    0.000 
#
# Total GULP energy -595055.878264 kJ/mol
# GULP energy per Si atom -12396.997464 kJ/mol
# Density = 1.882040 g / cm^3
# Si number density = 18.863335 Si / 1000 Ang^3
#
#
#
# Elastic Constant Matrix: (Units=GPa)
#
#
# Indices 1 2 3 4 5 6 
#
# 1 115.2331 30.3841 54.1693 0.0000 0.0000 0.0000
# 2 30.3841 42.7280 18.8446 0.0000 0.0000 0.0000
# 3 54.1693 18.8446 119.9154 0.0000 0.0000 0.0000
# 4 0.0000 0.0000 0.0000 27.5696 0.0000 0.0000
# 5 0.0000 0.0000 0.0000 0.0000 30.9516 0.0000
# 6 0.0000 0.0000 0.0000 0.0000 0.0000 34.7345
#
#
#
# Elastic Compliance Matrix: (Units=1/GPa)
#
#
# Indices 1 2 3 4 5 6 
#
# 1 0.012701 -0.006985 -0.004640 0.000000 0.000000 0.000000
# 2 -0.006985 0.028989 -0.001400 0.000000 0.000000 0.000000
# 3 -0.004640 -0.001400 0.010655 0.000000 0.000000 0.000000
# 4 0.000000 0.000000 0.000000 0.036272 0.000000 0.000000
# 5 0.000000 0.000000 0.000000 0.000000 0.032308 0.000000
# 6 0.000000 0.000000 0.000000 0.000000 0.000000 0.028790
#
#
# Mechanical properties :
#
#
# Convention : Reuss Voigt Hill
#
# Bulk Modulus (GPa) = 38.03075 53.85251 45.94163
# Shear Modulus (GPa) = 27.09586 30.28304 28.68945
#
# Velocity S-wave (km/s) = 3.79414 4.01108 3.90412
# Velocity P-wave (km/s) = 6.27686 7.07548 6.68810
#
# Compressibility (1/GPa) = 0.02629452
#
# Stress axis : x y z
#
# Youngs Moduli (GPa) = 78.73400 34.49620 93.85191
#
# Poissons Ratio (x) = 0.24097 0.43544
# Poissons Ratio (y) = 0.55000 0.13139
# Poissons Ratio (z) = 0.36530 0.04829
#
# Static dielectric constant tensor:
#      x y z
#    x 3.934570 0.000000 0.000000 
#    y 0.000000 3.261400 0.000000 
#    z 0.000000 0.000000 3.721020 
# 
# 
# High freq. dielectric constant tensor:
#      x y z
#    x 1.742220 0.000000 0.000000 
#    y 0.000000 1.712020 0.000000 
#    z 0.000000 0.000000 1.746110 
# 
# From -- ./inp_files/26415.got.cif
#   From: 2010.03.12/outbox.cif.g09.slc.cpg/sg50_14_cif.got.tgz:26415.got - 2010.04.16 13:23:21.
