data_PCOD8205622
_publ_section_title
;
Structure prediction by ZEFSAII (Michael W. Deem and Ramdas Pophale) SiO2 
 PCOD8205622
Probable space group: P B A N
;
_chemical_formula_sum "Si O2"
_cell_formula_units_Z 32
_cell_length_a 19.890235
_cell_length_b 14.281041
_cell_length_c 4.878169
_cell_angle_alpha 90.000000
_cell_angle_beta 90.000000
_cell_angle_gamma 90.000000
_cell_volume 1385.659815
_symmetry_space_group_name_H-M "P B A N"
_symmetry_group_IT_number 50
_space_group.IT_coordinate_system_code '2'
_symmetry_cell_setting 'orthorhombic'
loop_
_space_group_symop_operation_xyz
x,y,z
1/2-x,1/2-y,z
x,1/2-y,-z
1/2-x,y,-z
-x,-y,-z
1/2+x,1/2+y,-z
-x,1/2+y,z
1/2+x,-y,z
loop_
_atom_site_type_symbol
_atom_site_label
_atom_site_fract_x
_atom_site_fract_y
_atom_site_fract_z
Si Si1 0.936936 0.146756 0.988325
Si Si2 0.566941 0.841447 0.323001
Si Si3 0.399325 0.532710 0.510523
Si Si4 0.705102 0.911927 0.263765
O O1 0.896388 0.426287 0.817871
O O2 0.014897 0.153722 0.073981
O O3 0.903698 0.250000 0.000000
O O4 0.934127 0.111412 0.677543
O O5 0.552426 0.750000 0.500000
O O6 0.642645 0.842161 0.193156
O O7 0.557718 0.935660 0.507725
O O8 0.324585 0.509120 0.393648
O O9 0.750000 0.863568 0.500000
O O10 0.750000 0.932981 0.000000
#
# Coordination Sequence:
#
# PCOD8205622 Si02
#       4
#     8   8   8   8
#     4  12  23  42  66 102 132 170 219 281 336 397
#     4  10  24  41  68 100 140 172 216 265 337 406
#     4  10  24  41  70  92 141 169 221 272 338 377
#     4  10  23  42  67  94 133 177 226 264 321 394
#
# _framework density 23.093692999999998
#
# number of rings (size 3 to 8) (size 9 to 14) (size 15 to 20)
#    1.500    0.000    0.000    5.250    0.000    6.500 
#    0.000    1.250    0.000   11.250    0.000    0.000 
#    0.000    0.000    0.000    0.000    0.000    0.000 
#
# Total GULP energy -396634.511812 kJ/mol
# GULP energy per Si atom -12394.828494 kJ/mol
# Density = 2.304113 g / cm^3
# Si number density = 23.093693 Si / 1000 Ang^3
#
#
#
# Elastic Constant Matrix: (Units=GPa)
#
#
# Indices 1 2 3 4 5 6 
#
# 1 80.7209 -15.7924 7.0184 0.0000 0.0000 0.0000
# 2 -15.7924 125.5039 0.0154 0.0000 0.0000 0.0000
# 3 7.0184 0.0154 63.3358 0.0000 0.0000 0.0000
# 4 0.0000 0.0000 0.0000 29.9212 0.0000 0.0000
# 5 0.0000 0.0000 0.0000 0.0000 11.9070 0.0000
# 6 0.0000 0.0000 0.0000 0.0000 0.0000 5.5885
#
#
#
# Elastic Compliance Matrix: (Units=1/GPa)
#
#
# Indices 1 2 3 4 5 6 
#
# 1 0.012828 0.001614 -0.001422 0.000000 0.000000 0.000000
# 2 0.001614 0.008171 -0.000181 0.000000 0.000000 0.000000
# 3 -0.001422 -0.000181 0.015946 0.000000 0.000000 0.000000
# 4 0.000000 0.000000 0.000000 0.033421 0.000000 0.000000
# 5 0.000000 0.000000 0.000000 0.000000 0.083984 0.000000
# 6 0.000000 0.000000 0.000000 0.000000 0.000000 0.178938
#
#
# Mechanical properties :
#
#
# Convention : Reuss Voigt Hill
#
# Bulk Modulus (GPa) = 27.05008 28.00483 27.52745
# Shear Modulus (GPa) = 14.46809 28.03795 21.25302
#
# Velocity S-wave (km/s) = 2.50570 3.48817 3.03693
# Velocity P-wave (km/s) = 4.48442 5.32692 4.92372
#
# Compressibility (1/GPa) = 0.03696847
#
# Stress axis : x y z
#
# Youngs Moduli (GPa) = 77.95552 122.38353 62.70978
#
# Poissons Ratio (x) = -0.19757 0.08917
# Poissons Ratio (y) = -0.12585 0.01134
# Poissons Ratio (z) = 0.11084 0.02214
#
# Static dielectric constant tensor:
#      x y z
#    x 4.090200 0.000000 0.000000 
#    y 0.000000 4.180900 0.000000 
#    z 0.000000 0.000000 3.917840 
# 
# 
# High freq. dielectric constant tensor:
#      x y z
#    x 1.900530 0.000000 0.000000 
#    y 0.000000 1.905840 0.000000 
#    z 0.000000 0.000000 1.913850 
# 
# From -- ./inp_files/4040.got.cif
#   From: 2010.03.12/outbox.cif.g09.slc.cpg/sg50_3_cif.got.tgz:4040.got - 2010.04.16 13:23:21.
