data_PCOD8205668
_publ_section_title
;
Structure prediction by ZEFSAII (Michael W. Deem and Ramdas Pophale) SiO2 
 PCOD8205668
Probable space group: P B A N
;
_chemical_formula_sum "Si O2"
_cell_formula_units_Z 36
_cell_length_a 8.868828
_cell_length_b 14.814484
_cell_length_c 12.746982
_cell_angle_alpha 90.000000
_cell_angle_beta 90.000000
_cell_angle_gamma 90.000000
_cell_volume 1674.789133
_symmetry_space_group_name_H-M "P B A N"
_symmetry_group_IT_number 50
_space_group.IT_coordinate_system_code '2'
_symmetry_cell_setting 'orthorhombic'
loop_
_space_group_symop_operation_xyz
x,y,z
1/2-x,1/2-y,z
x,1/2-y,-z
1/2-x,y,-z
-x,-y,-z
1/2+x,1/2+y,-z
-x,1/2+y,z
1/2+x,-y,z
loop_
_atom_site_type_symbol
_atom_site_label
_atom_site_fract_x
_atom_site_fract_y
_atom_site_fract_z
Si Si1 0.928405 0.597195 0.513467
Si Si2 0.996754 0.971503 0.852473
Si Si3 0.250000 0.493083 0.000000
Si Si4 0.920340 0.359165 0.277343
Si Si5 0.580785 0.158883 0.685598
O O1 0.750000 0.596330 0.500000
O O2 0.000000 0.500000 0.500000
O O3 0.959218 0.627972 0.630981
O O4 0.008688 0.665281 0.430432
O O5 0.981102 0.913822 0.747873
O O6 0.156742 0.952170 0.910341
O O7 0.966739 0.077205 0.821454
O O8 0.871995 0.935591 0.935194
O O9 0.751698 0.379095 0.320061
O O10 0.928125 0.252701 0.250055
#
# Coordination Sequence:
#
# PCOD8205668 Si02
#       5
#     8   8   4   8   8
#     4  12  25  40  65 100 136 174 213 259 318 387
#     4  11  22  45  66  98 124 173 212 275 326 382
#     4  10  24  42  70  90 130 164 220 276 332 372
#     4  11  24  43  68  98 134 174 214 261 321 391
#     4  11  24  43  68  98 134 174 214 261 321 391
#
# _framework density 21.495245000000001
#
# number of rings (size 3 to 8) (size 9 to 14) (size 15 to 20)
#    0.000    0.889    4.444    2.667    3.111    3.556 
#    0.000    6.667    0.000    0.000    0.000    0.000 
#    0.000    0.000    0.000    0.000    0.000    0.000 
#
# Total GULP energy -446158.938017 kJ/mol
# GULP energy per Si atom -12393.303834 kJ/mol
# Density = 2.144632 g / cm^3
# Si number density = 21.495245 Si / 1000 Ang^3
#
#
#
# Elastic Constant Matrix: (Units=GPa)
#
#
# Indices 1 2 3 4 5 6 
#
# 1 140.0845 27.8621 47.0284 0.0000 0.0000 0.0000
# 2 27.8621 89.3393 21.6320 0.0000 0.0000 0.0000
# 3 47.0284 21.6320 101.2627 0.0000 0.0000 0.0000
# 4 0.0000 0.0000 0.0000 13.4131 0.0000 0.0000
# 5 0.0000 0.0000 0.0000 0.0000 41.8570 0.0000
# 6 0.0000 0.0000 0.0000 0.0000 0.0000 23.7616
#
#
#
# Elastic Compliance Matrix: (Units=1/GPa)
#
#
# Indices 1 2 3 4 5 6 
#
# 1 0.008734 -0.001837 -0.003664 0.000000 0.000000 0.000000
# 2 -0.001837 0.012190 -0.001751 0.000000 0.000000 0.000000
# 3 -0.003664 -0.001751 0.011951 0.000000 0.000000 0.000000
# 4 0.000000 0.000000 0.000000 0.074554 0.000000 0.000000
# 5 0.000000 0.000000 0.000000 0.000000 0.023891 0.000000
# 6 0.000000 0.000000 0.000000 0.000000 0.000000 0.042085
#
#
# Mechanical properties :
#
#
# Convention : Reuss Voigt Hill
#
# Bulk Modulus (GPa) = 54.43157 58.19240 56.31198
# Shear Modulus (GPa) = 25.76902 31.41727 28.59314
#
# Velocity S-wave (km/s) = 3.46616 3.82722 3.65116
# Velocity P-wave (km/s) = 6.43402 6.83090 6.63543
#
# Compressibility (1/GPa) = 0.01837169
#
# Stress axis : x y z
#
# Youngs Moduli (GPa) = 114.49697 82.03395 83.67554
#
# Poissons Ratio (x) = 0.15067 0.30657
# Poissons Ratio (y) = 0.21029 0.14652
# Poissons Ratio (z) = 0.41950 0.14365
#
# Static dielectric constant tensor:
#      x y z
#    x 4.216910 0.000000 0.000000 
#    y 0.000000 3.909360 0.000000 
#    z 0.000000 0.000000 4.053470 
# 
# 
# High freq. dielectric constant tensor:
#      x y z
#    x 1.861560 0.000000 0.000000 
#    y 0.000000 1.815160 0.000000 
#    z 0.000000 0.000000 1.847920 
# 
# From -- ./inp_files/24567.got.cif
#   From: 2010.03.12/outbox.cif.g09.slc.cpg/sg50_13_cif.got.tgz:24567.got - 2010.04.16 13:23:21.
