data_PCOD8205392
_publ_section_title
;
Structure prediction by ZEFSAII (Michael W. Deem and Ramdas Pophale) SiO2 
 PCOD8205392
Probable space group: P B A N
;
_chemical_formula_sum "Si O2"
_cell_formula_units_Z 34
_cell_length_a 8.476796
_cell_length_b 10.348064
_cell_length_c 18.119973
_cell_angle_alpha 90.000000
_cell_angle_beta 90.000000
_cell_angle_gamma 90.000000
_cell_volume 1589.455538
_symmetry_space_group_name_H-M "P B A N"
_symmetry_group_IT_number 50
_space_group.IT_coordinate_system_code '2'
_symmetry_cell_setting 'orthorhombic'
loop_
_space_group_symop_operation_xyz
x,y,z
1/2-x,1/2-y,z
x,1/2-y,-z
1/2-x,y,-z
-x,-y,-z
1/2+x,1/2+y,-z
-x,1/2+y,z
1/2+x,-y,z
loop_
_atom_site_type_symbol
_atom_site_label
_atom_site_fract_x
_atom_site_fract_y
_atom_site_fract_z
Si Si1 0.592504 0.595774 0.806741
Si Si2 0.818596 0.381534 0.581604
Si Si3 0.576494 0.642148 0.133216
Si Si4 0.250000 0.250000 0.000000
Si Si5 0.852715 0.879762 0.643408
O O1 0.503594 0.719344 0.842655
O O2 0.780164 0.610093 0.812149
O O3 0.549945 0.469861 0.855072
O O4 0.554840 0.591064 0.719981
O O5 0.750000 0.250000 0.617552
O O6 0.750000 0.396659 0.500000
O O7 0.766193 0.503736 0.628979
O O8 0.009828 0.372654 0.581318
O O9 0.640344 0.655611 0.049406
O O10 0.750000 0.750000 0.644640
#
# Coordination Sequence:
#
# PCOD8205392 Si02
#       5
#     8   8   8   2   8
#     4  10  22  39  60  97 126 164 213 270 315 379
#     4  11  26  43  63  96 130 169 221 269 330 400
#     4  10  21  39  62  91 135 159 219 257 316 386
#     4   8  20  40  64  92 128 184 198 268 320 376
#     4  12  23  43  69  94 131 174 217 274 338 388
#
# _framework density 21.390972999999999
#
# number of rings (size 3 to 8) (size 9 to 14) (size 15 to 20)
#    0.000    1.647    2.353    3.529    3.294    7.059 
#    0.000    0.000    0.000   11.294    0.000    0.000 
#    0.000    0.000    0.000    0.000    0.000    0.000 
#
# Total GULP energy -421527.784292 kJ/mol
# GULP energy per Si atom -12397.876009 kJ/mol
# Density = 2.134229 g / cm^3
# Si number density = 21.390973 Si / 1000 Ang^3
#
#
#
# Elastic Constant Matrix: (Units=GPa)
#
#
# Indices 1 2 3 4 5 6 
#
# 1 82.0492 40.9654 28.4675 0.0000 0.0000 0.0000
# 2 40.9654 185.2661 44.0926 0.0000 0.0000 0.0000
# 3 28.4675 44.0926 125.1998 0.0000 0.0000 0.0000
# 4 0.0000 0.0000 0.0000 24.9557 0.0000 0.0000
# 5 0.0000 0.0000 0.0000 0.0000 24.4993 0.0000
# 6 0.0000 0.0000 0.0000 0.0000 0.0000 34.9078
#
#
#
# Elastic Compliance Matrix: (Units=1/GPa)
#
#
# Indices 1 2 3 4 5 6 
#
# 1 0.014299 -0.002606 -0.002333 0.000000 0.000000 0.000000
# 2 -0.002606 0.006367 -0.001650 0.000000 0.000000 0.000000
# 3 -0.002333 -0.001650 0.009099 0.000000 0.000000 0.000000
# 4 0.000000 0.000000 0.000000 0.040071 0.000000 0.000000
# 5 0.000000 0.000000 0.000000 0.000000 0.040818 0.000000
# 6 0.000000 0.000000 0.000000 0.000000 0.000000 0.028647
#
#
# Mechanical properties :
#
#
# Convention : Reuss Voigt Hill
#
# Bulk Modulus (GPa) = 60.29345 68.84069 64.56707
# Shear Modulus (GPa) = 31.64432 35.47185 33.55809
#
# Velocity S-wave (km/s) = 3.85038 4.07659 3.96510
# Velocity P-wave (km/s) = 6.92927 7.37632 7.15629
#
# Compressibility (1/GPa) = 0.01658555
#
# Stress axis : x y z
#
# Youngs Moduli (GPa) = 69.93671 157.07139 109.90587
#
# Poissons Ratio (x) = 0.40938 0.25644
# Poissons Ratio (y) = 0.18228 0.18129
# Poissons Ratio (z) = 0.16318 0.25909
#
# Static dielectric constant tensor:
#      x y z
#    x 3.589400 0.000000 0.000000 
#    y 0.000000 4.366120 0.000000 
#    z 0.000000 0.000000 3.734030 
# 
# 
# High freq. dielectric constant tensor:
#      x y z
#    x 1.820200 0.000000 0.000000 
#    y 0.000000 1.856980 0.000000 
#    z 0.000000 0.000000 1.837000 
# 
# From -- ./inp_files/30538.got.cif
#   From: 2010.03.12/outbox.cif.g09.slc.cpg/sg50_16_cif.got.tgz:30538.got - 2010.04.16 13:23:21.
