data_PCOD8205348
_publ_section_title
;
Structure prediction by ZEFSAII (Michael W. Deem and Ramdas Pophale) SiO2 
 PCOD8205348
Probable space group: P B A N
;
_chemical_formula_sum "Si O2"
_cell_formula_units_Z 32
_cell_length_a 5.176946
_cell_length_b 14.174745
_cell_length_c 18.267417
_cell_angle_alpha 90.000000
_cell_angle_beta 90.000000
_cell_angle_gamma 90.000000
_cell_volume 1340.497574
_symmetry_space_group_name_H-M "P B A N"
_symmetry_group_IT_number 50
_space_group.IT_coordinate_system_code '2'
_symmetry_cell_setting 'orthorhombic'
loop_
_space_group_symop_operation_xyz
x,y,z
1/2-x,1/2-y,z
x,1/2-y,-z
1/2-x,y,-z
-x,-y,-z
1/2+x,1/2+y,-z
-x,1/2+y,z
1/2+x,-y,z
loop_
_atom_site_type_symbol
_atom_site_label
_atom_site_fract_x
_atom_site_fract_y
_atom_site_fract_z
Si Si1 0.747984 0.862274 0.582138
Si Si2 0.744535 0.361760 0.667798
Si Si3 0.158146 0.558646 0.826676
Si Si4 0.995547 0.355294 0.032203
O O1 0.750000 0.750000 0.579668
O O2 0.750000 0.903421 0.500000
O O3 0.478943 0.898245 0.614420
O O4 0.985026 0.898629 0.633341
O O5 0.750000 0.250000 0.675693
O O6 0.661856 0.403850 0.744982
O O7 0.452373 0.525614 0.840962
O O8 0.051427 0.642184 0.880076
O O9 0.998441 0.250000 0.000000
O O10 0.250000 0.406825 0.000000
O O11 0.750000 0.411619 0.000000
#
# Coordination Sequence:
#
# PCOD8205348 Si02
#       4
#     8   8   8   8
#     4   9  17  33  59  94 127 160 214 272 312 355
#     4  10  21  37  62  93 123 171 213 259 316 378
#     4  12  26  43  65  94 131 169 205 261 322 382
#     4  10  23  43  67  94 121 165 208 266 308 380
#
# _framework density 23.871731
#
# number of rings (size 3 to 8) (size 9 to 14) (size 15 to 20)
#    0.000    1.750    0.000    3.750    3.500    6.000 
#    9.000    0.000    0.000   15.000    0.000    0.000 
#    0.000    0.000    0.000    0.000    0.000    0.000 
#
# Total GULP energy -396423.455583 kJ/mol
# GULP energy per Si atom -12388.232987 kJ/mol
# Density = 2.381740 g / cm^3
# Si number density = 23.871731 Si / 1000 Ang^3
#
#
#
# Elastic Constant Matrix: (Units=GPa)
#
#
# Indices 1 2 3 4 5 6 
#
# 1 212.5327 9.2399 64.5655 0.0000 0.0000 0.0000
# 2 9.2399 47.9678 35.2249 0.0000 0.0000 0.0000
# 3 64.5655 35.2249 198.9407 0.0000 0.0000 0.0000
# 4 0.0000 0.0000 0.0000 125.1189 0.0000 0.0000
# 5 0.0000 0.0000 0.0000 0.0000 47.8406 0.0000
# 6 0.0000 0.0000 0.0000 0.0000 0.0000 -0.2524
#
#
#
# Elastic Compliance Matrix: (Units=1/GPa)
#
#
# Indices 1 2 3 4 5 6 
#
# 1 0.005223 0.000274 -0.001744 0.000000 0.000000 0.000000
# 2 0.000274 0.023978 -0.004335 0.000000 0.000000 0.000000
# 3 -0.001744 -0.004335 0.006360 0.000000 0.000000 0.000000
# 4 0.000000 0.000000 0.000000 0.007992 0.000000 0.000000
# 5 0.000000 0.000000 0.000000 0.000000 0.020903 0.000000
# 6 0.000000 0.000000 0.000000 0.000000 0.000000 -3.962038
#
#
# Mechanical properties :
#
#
# Convention : Reuss Voigt Hill
#
# Bulk Modulus (GPa) = 41.74886 75.27798 58.51342
# Shear Modulus (GPa) = -1.28933 57.90216 28.30642
#
# Velocity S-wave (km/s) = -0.73572 4.93033 3.44724
# Velocity P-wave (km/s) = 4.09940 8.00086 6.35684
#
# Compressibility (1/GPa) = 0.02395275
#
# Stress axis : x y z
#
# Youngs Moduli (GPa) = 191.46310 41.70574 157.23234
#
# Poissons Ratio (x) = -0.01144 0.27416
# Poissons Ratio (y) = -0.05253 0.68153
# Poissons Ratio (z) = 0.33385 0.18078
#
# Static dielectric constant tensor:
#      x y z
#    x 8.335190 0.000000 0.000000 
#    y 0.000000 3.739560 0.000000 
#    z 0.000000 0.000000 4.494800 
# 
# 
# High freq. dielectric constant tensor:
#      x y z
#    x 1.973560 0.000000 0.000000 
#    y 0.000000 1.923430 0.000000 
#    z 0.000000 0.000000 1.957780 
# 
# From -- ./inp_files/23712.got.cif
#   From: 2010.03.12/outbox.cif.g09.slc.cpg/sg50_12_cif.got.tgz:23712.got - 2010.04.16 13:23:21.
