data_PCOD8205859
_publ_section_title
;
Structure prediction by ZEFSAII (Michael W. Deem and Ramdas Pophale) SiO2 
 PCOD8205859
Probable space group: P B A N
;
_chemical_formula_sum "Si O2"
_cell_formula_units_Z 24
_cell_length_a 7.374394
_cell_length_b 15.776482
_cell_length_c 8.577967
_cell_angle_alpha 90.000000
_cell_angle_beta 90.000000
_cell_angle_gamma 90.000000
_cell_volume 997.977787
_symmetry_space_group_name_H-M "P B A N"
_symmetry_group_IT_number 50
_space_group.IT_coordinate_system_code '2'
_symmetry_cell_setting 'orthorhombic'
loop_
_space_group_symop_operation_xyz
x,y,z
1/2-x,1/2-y,z
x,1/2-y,-z
1/2-x,y,-z
-x,-y,-z
1/2+x,1/2+y,-z
-x,1/2+y,z
1/2+x,-y,z
loop_
_atom_site_type_symbol
_atom_site_label
_atom_site_fract_x
_atom_site_fract_y
_atom_site_fract_z
Si Si1 0.659187 0.160793 0.307377
Si Si2 0.992281 0.414637 0.598543
Si Si3 0.211017 0.348897 0.172052
O O1 0.750000 0.250000 0.264506
O O2 0.560170 0.161713 0.478160
O O3 0.815076 0.087561 0.288631
O O4 0.503079 0.135492 0.186874
O O5 0.000000 0.500000 0.500000
O O6 0.177119 0.398228 0.692939
O O7 0.250000 0.250000 0.189451
O O8 0.250000 0.383844 0.000000
#
# Coordination Sequence:
#
# PCOD8205859 Si02
#       3
#     8   8   8
#     4  11  24  44  72 106 138 191 248 298 358 431
#     4  11  25  43  73 107 141 188 247 305 362 430
#     4  11  25  45  71 107 151 193 240 301 371 446
#
# _framework density 24.048632000000001
#
# number of rings (size 3 to 8) (size 9 to 14) (size 15 to 20)
#    0.000    1.000    3.333    3.000    9.333    2.667 
#    0.000    1.667    0.000    0.000    0.000    0.000 
#    0.000    0.000    0.000    0.000    0.000    0.000 
#
# Total GULP energy -297404.146995 kJ/mol
# GULP energy per Si atom -12391.839458 kJ/mol
# Density = 2.399390 g / cm^3
# Si number density = 24.048632 Si / 1000 Ang^3
#
#
#
# Elastic Constant Matrix: (Units=GPa)
#
#
# Indices 1 2 3 4 5 6 
#
# 1 229.7743 72.4732 65.5955 0.0000 0.0000 0.0000
# 2 72.4732 110.3340 49.4700 0.0000 0.0000 0.0000
# 3 65.5955 49.4700 104.3936 0.0000 0.0000 0.0000
# 4 0.0000 0.0000 0.0000 21.8414 0.0000 0.0000
# 5 0.0000 0.0000 0.0000 0.0000 42.2884 0.0000
# 6 0.0000 0.0000 0.0000 0.0000 0.0000 30.5526
#
#
#
# Elastic Compliance Matrix: (Units=1/GPa)
#
#
# Indices 1 2 3 4 5 6 
#
# 1 0.005923 -0.002821 -0.002385 0.000000 0.000000 0.000000
# 2 -0.002821 0.012852 -0.004318 0.000000 0.000000 0.000000
# 3 -0.002385 -0.004318 0.013124 0.000000 0.000000 0.000000
# 4 0.000000 0.000000 0.000000 0.045785 0.000000 0.000000
# 5 0.000000 0.000000 0.000000 0.000000 0.023647 0.000000
# 6 0.000000 0.000000 0.000000 0.000000 0.000000 0.032730
#
#
# Mechanical properties :
#
#
# Convention : Reuss Voigt Hill
#
# Bulk Modulus (GPa) = 77.81170 91.06436 84.43803
# Shear Modulus (GPa) = 31.76780 36.06736 33.91758
#
# Velocity S-wave (km/s) = 3.63847 3.87688 3.75957
# Velocity P-wave (km/s) = 7.07655 7.61507 7.35074
#
# Compressibility (1/GPa) = 0.01285154
#
# Stress axis : x y z
#
# Youngs Moduli (GPa) = 168.84274 77.80623 76.19840
#
# Poissons Ratio (x) = 0.21950 0.18170
# Poissons Ratio (y) = 0.47633 0.32901
# Poissons Ratio (z) = 0.40263 0.33596
#
# Static dielectric constant tensor:
#      x y z
#    x 5.182900 0.000000 0.000000 
#    y 0.000000 4.154420 0.000000 
#    z 0.000000 0.000000 4.242710 
# 
# 
# High freq. dielectric constant tensor:
#      x y z
#    x 1.986340 0.000000 0.000000 
#    y 0.000000 1.938250 0.000000 
#    z 0.000000 0.000000 1.922810 
# 
# From -- ./inp_files/8496.got.cif
#   From: 2010.03.12/outbox.cif.g09.slc.cpg/sg50_5_cif.got.tgz:8496.got - 2010.04.16 13:23:21.
