data_PCOD8205270
_publ_section_title
;
Structure prediction by ZEFSAII (Michael W. Deem and Ramdas Pophale) SiO2 
 PCOD8205270
Probable space group: P B A N
;
_chemical_formula_sum "Si O2"
_cell_formula_units_Z 48
_cell_length_a 13.157633
_cell_length_b 19.986389
_cell_length_c 8.601494
_cell_angle_alpha 90.000000
_cell_angle_beta 90.000000
_cell_angle_gamma 90.000000
_cell_volume 2261.965597
_symmetry_space_group_name_H-M "P B A N"
_symmetry_group_IT_number 50
_space_group.IT_coordinate_system_code '2'
_symmetry_cell_setting 'orthorhombic'
loop_
_space_group_symop_operation_xyz
x,y,z
1/2-x,1/2-y,z
x,1/2-y,-z
1/2-x,y,-z
-x,-y,-z
1/2+x,1/2+y,-z
-x,1/2+y,z
1/2+x,-y,z
loop_
_atom_site_type_symbol
_atom_site_label
_atom_site_fract_x
_atom_site_fract_y
_atom_site_fract_z
Si Si1 0.803009 0.070501 0.720483
Si Si2 0.750000 0.956362 0.500000
Si Si3 0.876040 0.357427 0.833685
Si Si4 0.750000 0.750000 0.500000
Si Si5 0.250000 0.750000 0.000000
Si Si6 0.498649 0.926923 0.920677
Si Si7 0.104668 0.674449 0.509959
Si Si8 0.892435 0.642565 0.652088
O O1 0.712790 0.086351 0.841707
O O2 0.911187 0.065595 0.796319
O O3 0.807965 0.130494 0.593481
O O4 0.779416 0.999424 0.647957
O O5 0.649095 0.914398 0.537486
O O6 0.824545 0.289184 0.886575
O O7 0.919706 0.353791 0.660600
O O8 0.969864 0.374487 0.945087
O O9 0.815183 0.705261 0.624579
O O10 0.595416 0.893587 0.825678
O O11 0.500000 0.000000 0.000000
O O12 0.144572 0.750000 0.500000
O O13 0.001331 0.670845 0.606528
#
# Coordination Sequence:
#
# PCOD8205270 Si02
#       8
#     8   4   8   2   2   8   8   8
#     4  11  22  41  64  94 126 173 215 266 323 396
#     4  11  22  41  67  90 123 164 232 262 327 372
#     4  12  23  39  61  93 130 171 197 266 319 401
#     4  10  20  48  76  90 132 168 248 272 326 380
#     4  12  24  36  58  88 132 166 202 234 340 380
#     4  11  25  41  63  95 138 166 216 263 344 393
#     4  11  23  39  66  94 125 163 227 264 321 382
#     4  10  24  41  69  95 123 176 215 286 318 391
#
# _framework density 21.220482000000001
#
# number of rings (size 3 to 8) (size 9 to 14) (size 15 to 20)
#    0.000    1.000    4.167    2.000    4.667    2.000 
#    0.000    0.000    0.000    1.000    0.000    0.000 
#    0.000    0.000    0.000    0.000    0.000    0.000 
#
# Total GULP energy -594674.669590 kJ/mol
# GULP energy per Si atom -12389.055616 kJ/mol
# Density = 2.117218 g / cm^3
# Si number density = 21.220482 Si / 1000 Ang^3
#
#
#
# Elastic Constant Matrix: (Units=GPa)
#
#
# Indices 1 2 3 4 5 6 
#
# 1 63.4733 26.1427 24.3653 0.0000 0.0000 0.0000
# 2 26.1427 126.6265 38.6970 0.0000 0.0000 0.0000
# 3 24.3653 38.6970 99.5620 0.0000 0.0000 0.0000
# 4 0.0000 0.0000 0.0000 43.5886 0.0000 0.0000
# 5 0.0000 0.0000 0.0000 0.0000 -137.1962 0.0000
# 6 0.0000 0.0000 0.0000 0.0000 0.0000 24.9251
#
#
#
# Elastic Compliance Matrix: (Units=1/GPa)
#
#
# Indices 1 2 3 4 5 6 
#
# 1 0.018175 -0.002716 -0.003392 0.000000 0.000000 0.000000
# 2 -0.002716 0.009367 -0.002976 0.000000 0.000000 0.000000
# 3 -0.003392 -0.002976 0.012031 0.000000 0.000000 0.000000
# 4 0.000000 0.000000 0.000000 0.022942 0.000000 0.000000
# 5 0.000000 0.000000 0.000000 0.000000 -0.007289 0.000000
# 6 0.000000 0.000000 0.000000 0.000000 0.000000 0.040120
#
#
# Mechanical properties :
#
#
# Convention : Reuss Voigt Hill
#
# Bulk Modulus (GPa) = 46.71796 52.00796 49.36296
# Shear Modulus (GPa) = 41.44191 -0.37271 20.53460
#
# Velocity S-wave (km/s) = 4.42398 -0.41954 3.11413
# Velocity P-wave (km/s) = 6.93965 4.93223 6.02020
#
# Compressibility (1/GPa) = 0.02140505
#
# Stress axis : x y z
#
# Youngs Moduli (GPa) = 55.01937 106.75258 83.11854
#
# Poissons Ratio (x) = 0.28990 0.28198
# Poissons Ratio (y) = 0.14941 0.24738
# Poissons Ratio (z) = 0.18665 0.31773
#
# Static dielectric constant tensor:
#      x y z
#    x 3.749220 0.000000 0.000000 
#    y 0.000000 4.067190 0.000000 
#    z 0.000000 0.000000 4.488330 
# 
# 
# High freq. dielectric constant tensor:
#      x y z
#    x 1.825100 0.000000 0.000000 
#    y 0.000000 1.840810 0.000000 
#    z 0.000000 0.000000 1.836660 
# 
# From -- ./inp_files/13051.got.cif
#   From: 2010.03.12/outbox.cif.g09.slc.cpg/sg50_7_cif.got.tgz:13051.got - 2010.04.16 13:23:21.
