data_PCOD8205410
_publ_section_title
;
Structure prediction by ZEFSAII (Michael W. Deem and Ramdas Pophale) SiO2 
 PCOD8205410
Probable space group: P B A N
;
_chemical_formula_sum "Si O2"
_cell_formula_units_Z 40
_cell_length_a 30.586883
_cell_length_b 7.091843
_cell_length_c 8.572734
_cell_angle_alpha 90.000000
_cell_angle_beta 90.000000
_cell_angle_gamma 90.000000
_cell_volume 1859.574931
_symmetry_space_group_name_H-M "P B A N"
_symmetry_group_IT_number 50
_space_group.IT_coordinate_system_code '2'
_symmetry_cell_setting 'orthorhombic'
loop_
_space_group_symop_operation_xyz
x,y,z
1/2-x,1/2-y,z
x,1/2-y,-z
1/2-x,y,-z
-x,-y,-z
1/2+x,1/2+y,-z
-x,1/2+y,z
1/2+x,-y,z
loop_
_atom_site_type_symbol
_atom_site_label
_atom_site_fract_x
_atom_site_fract_y
_atom_site_fract_z
Si Si1 0.091461 0.659052 0.153990
Si Si2 0.838679 0.650280 0.847075
Si Si3 0.375096 0.492554 0.351287
Si Si4 0.951334 0.455059 0.552710
Si Si5 0.295254 0.037849 0.446257
O O1 0.126830 0.506525 0.097001
O O2 0.055378 0.546513 0.259262
O O3 0.114928 0.827865 0.245205
O O4 0.068796 0.750000 0.000000
O O5 0.862903 0.809480 0.746989
O O6 0.801950 0.543511 0.742171
O O7 0.817599 0.750000 0.000000
O O8 0.416317 0.420274 0.457084
O O9 0.336108 0.559550 0.466939
O O10 0.938136 0.250000 0.500000
O O11 0.000000 0.500000 0.500000
O O12 0.292678 0.250000 0.500000
O O13 0.250000 0.935433 0.500000
#
# Coordination Sequence:
#
# PCOD8205410 Si02
#       5
#     8   8   8   8   8
#     4  11  22  40  62  92 129 159 209 266 318 368
#     4  11  21  37  67  91 124 169 205 258 322 369
#     4  10  21  40  62  91 122 170 214 254 310 370
#     4  10  23  39  63  92 123 164 216 259 308 382
#     4   9  19  37  63  96 123 164 219 254 304 377
#
# _framework density 21.510293000000001
#
# number of rings (size 3 to 8) (size 9 to 14) (size 15 to 20)
#    0.000    1.800    4.000    0.000    2.800    0.000 
#    0.000   15.000    0.000    1.200    0.000    0.000 
#    0.000    0.000    0.000    0.000    0.000    0.000 
#
# Total GULP energy -495539.401481 kJ/mol
# GULP energy per Si atom -12388.485037 kJ/mol
# Density = 2.146133 g / cm^3
# Si number density = 21.510293 Si / 1000 Ang^3
#
#
#
# Elastic Constant Matrix: (Units=GPa)
#
#
# Indices 1 2 3 4 5 6 
#
# 1 148.4327 4.3661 67.9152 0.0000 0.0000 0.0000
# 2 4.3661 56.9105 25.3219 0.0000 0.0000 0.0000
# 3 67.9152 25.3219 178.0709 0.0000 0.0000 0.0000
# 4 0.0000 0.0000 0.0000 32.5446 0.0000 0.0000
# 5 0.0000 0.0000 0.0000 0.0000 19.8924 0.0000
# 6 0.0000 0.0000 0.0000 0.0000 0.0000 6.2013
#
#
#
# Elastic Compliance Matrix: (Units=1/GPa)
#
#
# Indices 1 2 3 4 5 6 
#
# 1 0.008196 0.000814 -0.003242 0.000000 0.000000 0.000000
# 2 0.000814 0.018839 -0.002989 0.000000 0.000000 0.000000
# 3 -0.003242 -0.002989 0.007277 0.000000 0.000000 0.000000
# 4 0.000000 0.000000 0.000000 0.030727 0.000000 0.000000
# 5 0.000000 0.000000 0.000000 0.000000 0.050270 0.000000
# 6 0.000000 0.000000 0.000000 0.000000 0.000000 0.161256
#
#
# Mechanical properties :
#
#
# Convention : Reuss Voigt Hill
#
# Bulk Modulus (GPa) = 42.59334 64.29116 53.44225
# Shear Modulus (GPa) = 16.93612 30.78173 23.85892
#
# Velocity S-wave (km/s) = 2.80902 3.78699 3.33406
# Velocity P-wave (km/s) = 5.51046 7.00537 6.30239
#
# Compressibility (1/GPa) = 0.02347785
#
# Stress axis : x y z
#
# Youngs Moduli (GPa) = 122.00503 53.08116 137.41553
#
# Poissons Ratio (x) = -0.04319 0.44547
# Poissons Ratio (y) = -0.09926 0.41077
# Poissons Ratio (z) = 0.39551 0.15867
#
# Static dielectric constant tensor:
#      x y z
#    x 3.389530 0.000000 0.000000 
#    y 0.000000 4.222390 0.000000 
#    z 0.000000 0.000000 4.379740 
# 
# 
# High freq. dielectric constant tensor:
#      x y z
#    x 1.814560 0.000000 0.000000 
#    y 0.000000 1.851550 0.000000 
#    z 0.000000 0.000000 1.850330 
# 
# From -- ./inp_files/16798.got.cif
#   From: 2010.03.12/outbox.cif.g09.slc.cpg/sg50_9_cif.got.tgz:16798.got - 2010.04.16 13:23:21.
