data_PCOD8205772
_publ_section_title
;
Structure prediction by ZEFSAII (Michael W. Deem and Ramdas Pophale) SiO2 
 PCOD8205772
Probable space group: P B A N
;
_chemical_formula_sum "Si O2"
_cell_formula_units_Z 48
_cell_length_a 17.220353
_cell_length_b 9.702295
_cell_length_c 14.231098
_cell_angle_alpha 90.000000
_cell_angle_beta 90.000000
_cell_angle_gamma 90.000000
_cell_volume 2377.688375
_symmetry_space_group_name_H-M "P B A N"
_symmetry_group_IT_number 50
_space_group.IT_coordinate_system_code '2'
_symmetry_cell_setting 'orthorhombic'
loop_
_space_group_symop_operation_xyz
x,y,z
1/2-x,1/2-y,z
x,1/2-y,-z
1/2-x,y,-z
-x,-y,-z
1/2+x,1/2+y,-z
-x,1/2+y,z
1/2+x,-y,z
loop_
_atom_site_type_symbol
_atom_site_label
_atom_site_fract_x
_atom_site_fract_y
_atom_site_fract_z
Si Si1 0.159019 0.773000 0.392773
Si Si2 0.335966 0.276437 0.609062
Si Si3 0.576385 0.907164 0.099700
Si Si4 0.407374 0.520303 0.704350
Si Si5 0.576674 0.586435 0.102757
Si Si6 0.590030 0.970122 0.298504
O O1 0.250000 0.750000 0.383484
O O2 0.130942 0.750000 0.500000
O O3 0.112349 0.677709 0.319346
O O4 0.140453 0.927934 0.361954
O O5 0.250000 0.250000 0.650435
O O6 0.336874 0.250000 0.500000
O O7 0.361549 0.433135 0.626286
O O8 0.399151 0.181220 0.659361
O O9 0.555509 0.746738 0.119615
O O10 0.622259 0.966865 0.190393
O O11 0.498019 0.992199 0.093234
O O12 0.621408 0.924373 0.999153
O O13 0.375591 0.474130 0.808060
O O14 0.499234 0.492315 0.698710
#
# Coordination Sequence:
#
# PCOD8205772 Si02
#       6
#     8   8   8   8   8   8
#     4  11  25  43  60  81 118 164 199 235 296 363
#     4  11  23  39  58  81 114 156 197 235 290 359
#     4   9  18  33  56  88 122 153 188 236 294 350
#     4  11  22  37  61  91 116 148 194 249 293 332
#     4   9  18  33  56  88 122 153 188 236 294 350
#     4  11  22  37  61  91 116 148 194 249 293 332
#
# _framework density 20.187676
#
# number of rings (size 3 to 8) (size 9 to 14) (size 15 to 20)
#    0.000    1.667    1.667    3.000    7.000    6.667 
#    0.000    0.000    0.000    6.000    0.000    0.000 
#    0.000    0.000    0.000    0.000    0.000    0.000 
#
# Total GULP energy -594840.232715 kJ/mol
# GULP energy per Si atom -12392.504848 kJ/mol
# Density = 2.014173 g / cm^3
# Si number density = 20.187676 Si / 1000 Ang^3
#
#
#
# Elastic Constant Matrix: (Units=GPa)
#
#
# Indices 1 2 3 4 5 6 
#
# 1 55.0550 7.0182 27.7090 0.0000 0.0000 0.0000
# 2 7.0182 71.9259 37.1694 0.0000 0.0000 0.0000
# 3 27.7090 37.1694 151.3536 0.0000 0.0000 0.0000
# 4 0.0000 0.0000 0.0000 39.8394 0.0000 0.0000
# 5 0.0000 0.0000 0.0000 0.0000 2.4015 0.0000
# 6 0.0000 0.0000 0.0000 0.0000 0.0000 20.0105
#
#
#
# Elastic Compliance Matrix: (Units=1/GPa)
#
#
# Indices 1 2 3 4 5 6 
#
# 1 0.020007 -0.000068 -0.003646 0.000000 0.000000 0.000000
# 2 -0.000068 0.015924 -0.003898 0.000000 0.000000 0.000000
# 3 -0.003646 -0.003898 0.008232 0.000000 0.000000 0.000000
# 4 0.000000 0.000000 0.000000 0.025101 0.000000 0.000000
# 5 0.000000 0.000000 0.000000 0.000000 0.416404 0.000000
# 6 0.000000 0.000000 0.000000 0.000000 0.000000 0.049974
#
#
# Mechanical properties :
#
#
# Convention : Reuss Voigt Hill
#
# Bulk Modulus (GPa) = 34.55560 46.90307 40.72934
# Shear Modulus (GPa) = 8.92040 26.21281 17.56661
#
# Velocity S-wave (km/s) = 2.10436 3.60732 2.95306
# Velocity P-wave (km/s) = 4.80196 6.37450 5.64327
#
# Compressibility (1/GPa) = 0.02893887
#
# Stress axis : x y z
#
# Youngs Moduli (GPa) = 49.98144 62.79695 121.47876
#
# Poissons Ratio (x) = 0.00427 0.44293
# Poissons Ratio (y) = 0.00340 0.47355
# Poissons Ratio (z) = 0.18224 0.24480
#
# Static dielectric constant tensor:
#      x y z
#    x 3.288490 0.000000 0.000000 
#    y 0.000000 3.803680 0.000000 
#    z 0.000000 0.000000 4.564370 
# 
# 
# High freq. dielectric constant tensor:
#      x y z
#    x 1.738080 0.000000 0.000000 
#    y 0.000000 1.803620 0.000000 
#    z 0.000000 0.000000 1.816360 
# 
# From -- ./inp_files/26837.got.cif
#   From: 2010.03.12/outbox.cif.g09.slc.cpg/sg50_14_cif.got.tgz:26837.got - 2010.04.16 13:23:21.
