data_PCOD8205827
_publ_section_title
;
Structure prediction by ZEFSAII (Michael W. Deem and Ramdas Pophale) SiO2 
 PCOD8205827
Probable space group: P B A N
;
_chemical_formula_sum "Si O2"
_cell_formula_units_Z 24
_cell_length_a 7.634233
_cell_length_b 14.871668
_cell_length_c 8.470149
_cell_angle_alpha 90.000000
_cell_angle_beta 90.000000
_cell_angle_gamma 90.000000
_cell_volume 961.648021
_symmetry_space_group_name_H-M "P B A N"
_symmetry_group_IT_number 50
_space_group.IT_coordinate_system_code '2'
_symmetry_cell_setting 'orthorhombic'
loop_
_space_group_symop_operation_xyz
x,y,z
1/2-x,1/2-y,z
x,1/2-y,-z
1/2-x,y,-z
-x,-y,-z
1/2+x,1/2+y,-z
-x,1/2+y,z
1/2+x,-y,z
loop_
_atom_site_type_symbol
_atom_site_label
_atom_site_fract_x
_atom_site_fract_y
_atom_site_fract_z
Si Si1 0.591029 0.085597 0.831695
Si Si2 0.570862 0.173704 0.131261
Si Si3 0.726289 0.902228 0.685458
O O1 0.732479 0.167506 0.794198
O O2 0.411318 0.122269 0.759707
O O3 0.656691 0.997736 0.743765
O O4 0.566367 0.079905 0.023789
O O5 0.417767 0.172136 0.261694
O O6 0.539389 0.250000 0.000000
O O7 0.750000 0.902195 0.500000
#
# Coordination Sequence:
#
# PCOD8205827 Si02
#       3
#     8   8   8
#     4  11  23  42  73 104 141 193 244 300 358 438
#     4  11  26  45  70 105 144 193 249 304 365 440
#     4  12  25  42  75 109 146 190 245 307 368 441
#
# _framework density 24.957156999999999
#
# number of rings (size 3 to 8) (size 9 to 14) (size 15 to 20)
#    0.000    0.667    3.333    5.000    4.667    4.000 
#    0.000    3.333    7.333    0.000    0.000    0.000 
#    0.000    0.000    0.000    0.000    0.000    0.000 
#
# Total GULP energy -297372.636211 kJ/mol
# GULP energy per Si atom -12390.526509 kJ/mol
# Density = 2.490035 g / cm^3
# Si number density = 24.957157 Si / 1000 Ang^3
#
#
#
# Elastic Constant Matrix: (Units=GPa)
#
#
# Indices 1 2 3 4 5 6 
#
# 1 198.7906 -3.9496 65.2851 0.0000 0.0000 0.0000
# 2 -3.9496 32.4560 -10.1479 0.0000 0.0000 0.0000
# 3 65.2851 -10.1479 124.8891 0.0000 0.0000 0.0000
# 4 0.0000 0.0000 0.0000 19.4178 0.0000 0.0000
# 5 0.0000 0.0000 0.0000 0.0000 22.8047 0.0000
# 6 0.0000 0.0000 0.0000 0.0000 0.0000 12.8686
#
#
#
# Elastic Compliance Matrix: (Units=1/GPa)
#
#
# Indices 1 2 3 4 5 6 
#
# 1 0.006075 -0.000260 -0.003197 0.000000 0.000000 0.000000
# 2 -0.000260 0.031625 0.002706 0.000000 0.000000 0.000000
# 3 -0.003197 0.002706 0.009898 0.000000 0.000000 0.000000
# 4 0.000000 0.000000 0.000000 0.051499 0.000000 0.000000
# 5 0.000000 0.000000 0.000000 0.000000 0.043851 0.000000
# 6 0.000000 0.000000 0.000000 0.000000 0.000000 0.077709
#
#
# Mechanical properties :
#
#
# Convention : Reuss Voigt Hill
#
# Bulk Modulus (GPa) = 21.69400 50.94566 36.31983
# Shear Modulus (GPa) = 21.05041 31.34809 26.19925
#
# Velocity S-wave (km/s) = 2.90739 3.54796 3.24353
# Velocity P-wave (km/s) = 4.47012 6.10259 5.34900
#
# Compressibility (1/GPa) = 0.04609570
#
# Stress axis : x y z
#
# Youngs Moduli (GPa) = 164.60516 31.62032 101.02931
#
# Poissons Ratio (x) = 0.00823 0.32298
# Poissons Ratio (y) = 0.04284 -0.27336
# Poissons Ratio (z) = 0.52623 -0.08556
#
# Static dielectric constant tensor:
#      x y z
#    x 5.239020 0.000000 0.000000 
#    y 0.000000 4.872670 0.000000 
#    z 0.000000 0.000000 4.731310 
# 
# 
# High freq. dielectric constant tensor:
#      x y z
#    x 2.028490 0.000000 0.000000 
#    y 0.000000 2.005410 0.000000 
#    z 0.000000 0.000000 1.961670 
# 
# From -- ./inp_files/8684.got.cif
#   From: 2010.03.12/outbox.cif.g09.slc.cpg/sg50_5_cif.got.tgz:8684.got - 2010.04.16 13:23:21.
