data_PCOD8205107
_publ_section_title
;
Structure prediction by ZEFSAII (Michael W. Deem and Ramdas Pophale) SiO2 
 PCOD8205107
Probable space group: P B A N
;
_chemical_formula_sum "Si O2"
_cell_formula_units_Z 64
_cell_length_a 15.320802
_cell_length_b 8.815563
_cell_length_c 24.150871
_cell_angle_alpha 90.000000
_cell_angle_beta 90.000000
_cell_angle_gamma 90.000000
_cell_volume 3261.852749
_symmetry_space_group_name_H-M "P B A N"
_symmetry_group_IT_number 50
_space_group.IT_coordinate_system_code '2'
_symmetry_cell_setting 'orthorhombic'
loop_
_space_group_symop_operation_xyz
x,y,z
1/2-x,1/2-y,z
x,1/2-y,-z
1/2-x,y,-z
-x,-y,-z
1/2+x,1/2+y,-z
-x,1/2+y,z
1/2+x,-y,z
loop_
_atom_site_type_symbol
_atom_site_label
_atom_site_fract_x
_atom_site_fract_y
_atom_site_fract_z
Si Si1 0.596452 0.570324 0.620259
Si Si2 0.908316 0.924777 0.500000
Si Si3 0.750000 0.928260 0.807286
Si Si4 0.750000 0.428910 0.310825
Si Si5 0.847888 0.930889 1.000000
Si Si6 0.911952 0.928363 0.882996
Si Si7 0.096452 0.429676 0.379741
Si Si8 0.588049 0.571636 0.117004
O O1 0.637572 0.533460 0.558575
O O2 0.662219 0.497903 0.663585
O O3 0.500000 0.500000 0.627624
O O4 0.590516 0.750000 0.630716
O O5 0.928785 0.750000 0.500000
O O6 0.862427 0.966540 0.441425
O O7 0.000000 0.000000 0.500000
O O8 0.750000 0.750000 0.792128
O O9 0.833871 0.974932 0.842812
O O10 0.666130 0.974932 0.842813
O O11 0.750000 0.030771 0.753308
O O12 0.750000 0.250000 0.319802
O O13 0.662220 0.497903 0.336415
O O14 0.895500 0.992513 0.055025
O O15 0.845020 0.750000 0.000000
O O16 0.750000 0.995096 0.000000
O O17 0.895500 0.992512 0.944974
O O18 0.922227 0.750000 0.884979
O O19 0.000000 0.999999 0.858760
#
# Coordination Sequence:
#
# PCOD8205107 Si02
#       8
#     8   8   8   8   8   8   8   8
#     4  10  20  38  62  89 120 153 190 236 289 348
#     4   8  16  31  56  87 118 150 184 227 284 345
#     4  10  22  41  59  77 106 150 196 238 285 340
#     4  12  26  41  58  83 114 154 201 248 293 342
#     4   9  15  30  57  86 115 148 183 219 268 338
#     4  10  20  35  59  86 113 146 185 228 279 339
#     4  10  20  38  62  89 120 153 190 236 289 348
#     4  10  20  35  59  86 113 146 185 228 279 339
#
# _framework density 19.620750999999998
#
# number of rings (size 3 to 8) (size 9 to 14) (size 15 to 20)
#    0.000    2.125    1.250    2.250    0.000    3.500 
#    0.000    5.000    0.000    0.750    0.000    0.000 
#    0.000    0.000    0.000    0.000    0.000    0.000 
#
# Total GULP energy -793199.011164 kJ/mol
# GULP energy per Si atom -12393.734549 kJ/mol
# Density = 1.957609 g / cm^3
# Si number density = 19.620751 Si / 1000 Ang^3
#
#
#
# Elastic Constant Matrix: (Units=GPa)
#
#
# Indices 1 2 3 4 5 6 
#
# 1 152.3656 48.3797 72.0750 0.0000 0.0000 0.0000
# 2 48.3797 67.6574 54.3595 0.0000 0.0000 0.0000
# 3 72.0750 54.3595 145.8178 0.0000 0.0000 0.0000
# 4 0.0000 0.0000 0.0000 24.0637 0.0000 0.0000
# 5 0.0000 0.0000 0.0000 0.0000 -3.7934 0.0000
# 6 0.0000 0.0000 0.0000 0.0000 0.0000 29.8545
#
#
#
# Elastic Compliance Matrix: (Units=1/GPa)
#
#
# Indices 1 2 3 4 5 6 
#
# 1 0.009348 -0.004243 -0.003039 0.000000 0.000000 0.000000
# 2 -0.004243 0.023026 -0.006487 0.000000 0.000000 0.000000
# 3 -0.003039 -0.006487 0.010778 0.000000 0.000000 0.000000
# 4 0.000000 0.000000 0.000000 0.041556 0.000000 0.000000
# 5 0.000000 0.000000 0.000000 0.000000 -0.263615 0.000000
# 6 0.000000 0.000000 0.000000 0.000000 0.000000 0.033496
#
#
# Mechanical properties :
#
#
# Convention : Reuss Voigt Hill
#
# Bulk Modulus (GPa) = 64.03986 79.49656 71.76821
# Shear Modulus (GPa) = -44.37752 22.76008 -10.80872
#
# Velocity S-wave (km/s) = -4.76096 3.40957 -2.34963
# Velocity P-wave (km/s) = 1.57714 7.49031 5.41258
#
# Compressibility (1/GPa) = 0.01561528
#
# Stress axis : x y z
#
# Youngs Moduli (GPa) = 106.97691 43.42907 92.78098
#
# Poissons Ratio (x) = 0.18426 0.28194
# Poissons Ratio (y) = 0.45388 0.60185
# Poissons Ratio (z) = 0.32508 0.28171
#
# Static dielectric constant tensor:
#      x y z
#    x 4.148600 0.000000 0.000000 
#    y 0.000000 3.365120 0.000000 
#    z 0.000000 0.000000 3.630990 
# 
# 
# High freq. dielectric constant tensor:
#      x y z
#    x 1.764670 0.000000 0.000000 
#    y 0.000000 1.748550 0.000000 
#    z 0.000000 0.000000 1.775170 
# 
# From -- ./inp_files/31774.got.cif
#   From: 2010.03.12/outbox.cif.g09.slc.cpg/sg50_16_cif.got.tgz:31774.got - 2010.04.16 13:23:21.
