data_PCOD8205845
_publ_section_title
;
Structure prediction by ZEFSAII (Michael W. Deem and Ramdas Pophale) SiO2 
 PCOD8205845
Probable space group: P B A N
;
_chemical_formula_sum "Si O2"
_cell_formula_units_Z 40
_cell_length_a 9.601899
_cell_length_b 9.439660
_cell_length_c 20.238858
_cell_angle_alpha 90.000000
_cell_angle_beta 90.000000
_cell_angle_gamma 90.000000
_cell_volume 1834.423008
_symmetry_space_group_name_H-M "P B A N"
_symmetry_group_IT_number 50
_space_group.IT_coordinate_system_code '2'
_symmetry_cell_setting 'orthorhombic'
loop_
_space_group_symop_operation_xyz
x,y,z
1/2-x,1/2-y,z
x,1/2-y,-z
1/2-x,y,-z
-x,-y,-z
1/2+x,1/2+y,-z
-x,1/2+y,z
1/2+x,-y,z
loop_
_atom_site_type_symbol
_atom_site_label
_atom_site_fract_x
_atom_site_fract_y
_atom_site_fract_z
Si Si1 0.225995 0.413561 0.741879
Si Si2 0.478231 0.021625 0.342608
Si Si3 0.414118 0.728638 0.573762
Si Si4 0.907832 0.394880 0.958727
Si Si5 0.812999 0.597162 0.107419
O O1 0.250000 0.250000 0.732458
O O2 0.345592 0.493720 0.703494
O O3 0.222057 0.452812 0.818921
O O4 0.088652 0.462229 0.707270
O O5 0.512319 0.175891 0.370648
O O6 0.455902 0.930170 0.408339
O O7 0.250000 0.750000 0.575773
O O8 0.473014 0.750000 0.500000
O O9 0.759604 0.470314 0.937269
O O10 0.018693 0.377600 0.898084
O O11 0.878286 0.250000 0.000000
O O12 0.000000 0.500000 0.000000
O O13 0.750000 0.750000 0.088245
#
# Coordination Sequence:
#
# PCOD8205845 Si02
#       5
#     8   8   8   8   8
#     4  11  24  42  70  97 138 173 225 278 333 397
#     4  12  22  44  66 100 128 182 223 273 339 397
#     4  11  24  41  64  97 137 175 223 282 334 397
#     4  12  25  46  73 101 135 178 221 273 340 407
#     4  11  25  47  68 104 137 177 224 280 334 400
#
# _framework density 21.805222000000001
#
# number of rings (size 3 to 8) (size 9 to 14) (size 15 to 20)
#    0.000    0.600    6.000    2.400    0.000    1.600 
#    0.000    3.000    0.000    0.000    0.000    0.000 
#    0.000    0.000    0.000    0.000    0.000    0.000 
#
# Total GULP energy -495636.481705 kJ/mol
# GULP energy per Si atom -12390.912043 kJ/mol
# Density = 2.175559 g / cm^3
# Si number density = 21.805222 Si / 1000 Ang^3
#
#
#
# Elastic Constant Matrix: (Units=GPa)
#
#
# Indices 1 2 3 4 5 6 
#
# 1 147.0096 13.6756 51.8313 0.0000 0.0000 0.0000
# 2 13.6756 89.3468 54.0829 0.0000 0.0000 0.0000
# 3 51.8313 54.0829 139.0205 0.0000 0.0000 0.0000
# 4 0.0000 0.0000 0.0000 53.3435 0.0000 0.0000
# 5 0.0000 0.0000 0.0000 0.0000 -42.6585 0.0000
# 6 0.0000 0.0000 0.0000 0.0000 0.0000 31.6744
#
#
#
# Elastic Compliance Matrix: (Units=1/GPa)
#
#
# Indices 1 2 3 4 5 6 
#
# 1 0.007870 0.000748 -0.003225 0.000000 0.000000 0.000000
# 2 0.000748 0.014711 -0.006002 0.000000 0.000000 0.000000
# 3 -0.003225 -0.006002 0.010730 0.000000 0.000000 0.000000
# 4 0.000000 0.000000 0.000000 0.018746 0.000000 0.000000
# 5 0.000000 0.000000 0.000000 0.000000 -0.023442 0.000000
# 6 0.000000 0.000000 0.000000 0.000000 0.000000 0.031571
#
#
# Mechanical properties :
#
#
# Convention : Reuss Voigt Hill
#
# Bulk Modulus (GPa) = 61.15132 68.28405 64.71769
# Shear Modulus (GPa) = 60.53597 25.52435 43.03016
#
# Velocity S-wave (km/s) = 5.27470 3.42506 4.44710
# Velocity P-wave (km/s) = 8.07476 6.85746 7.49088
#
# Compressibility (1/GPa) = 0.01635288
#
# Stress axis : x y z
#
# Youngs Moduli (GPa) = 127.06898 67.97729 93.19377
#
# Poissons Ratio (x) = -0.05081 0.30054
# Poissons Ratio (y) = -0.09499 0.55931
# Poissons Ratio (z) = 0.40978 0.40797
#
# Static dielectric constant tensor:
#      x y z
#    x 10.200010 0.000000 0.000000 
#    y 0.000000 3.806860 0.000000 
#    z 0.000000 0.000000 3.788020 
# 
# 
# High freq. dielectric constant tensor:
#      x y z
#    x 1.872840 0.000000 0.000000 
#    y 0.000000 1.862630 0.000000 
#    z 0.000000 0.000000 1.869010 
# 
# From -- ./inp_files/31561.got.cif
#   From: 2010.03.12/outbox.cif.g09.slc.cpg/sg50_16_cif.got.tgz:31561.got - 2010.04.16 13:23:21.
