data_PCOD8205882
_publ_section_title
;
Structure prediction by ZEFSAII (Michael W. Deem and Ramdas Pophale) SiO2 
 PCOD8205882
Probable space group: P B A N
;
_chemical_formula_sum "Si O2"
_cell_formula_units_Z 34
_cell_length_a 19.935574
_cell_length_b 9.870406
_cell_length_c 7.527855
_cell_angle_alpha 90.000000
_cell_angle_beta 90.000000
_cell_angle_gamma 90.000000
_cell_volume 1481.272659
_symmetry_space_group_name_H-M "P B A N"
_symmetry_group_IT_number 50
_space_group.IT_coordinate_system_code '2'
_symmetry_cell_setting 'orthorhombic'
loop_
_space_group_symop_operation_xyz
x,y,z
1/2-x,1/2-y,z
x,1/2-y,-z
1/2-x,y,-z
-x,-y,-z
1/2+x,1/2+y,-z
-x,1/2+y,z
1/2+x,-y,z
loop_
_atom_site_type_symbol
_atom_site_label
_atom_site_fract_x
_atom_site_fract_y
_atom_site_fract_z
Si Si1 0.605537 0.792998 0.306397
Si Si2 0.797957 0.474179 0.253250
Si Si3 0.346623 0.021853 0.145640
Si Si4 0.250000 0.750000 0.500000
Si Si5 0.474883 0.621773 0.882859
O O1 0.586921 0.750000 0.500000
O O2 0.629848 0.678886 0.164120
O O3 0.534819 0.852585 0.249624
O O4 0.662332 0.904603 0.343854
O O5 0.719054 0.507412 0.263304
O O6 0.800662 0.336411 0.370548
O O7 0.828680 0.470911 0.054151
O O8 0.406630 0.926054 0.216905
O O9 0.455801 0.750000 0.000000
O O10 0.500000 0.500000 0.000000
#
# Coordination Sequence:
#
# PCOD8205882 Si02
#       5
#     8   8   8   2   8
#     4  12  25  47  76 114 150 198 266 327 386 454
#     4  11  25  46  73 106 150 199 257 320 389 473
#     4  11  25  46  78 104 144 210 261 310 390 474
#     4  12  28  46  66 124 156 190 252 336 412 450
#     4  12  24  47  74 108 149 203 258 312 387 478
#
# _framework density 22.953233000000001
#
# number of rings (size 3 to 8) (size 9 to 14) (size 15 to 20)
#    0.000    0.471    4.706    2.824    3.294    4.706 
#    2.118    0.000    0.000    0.000    0.000    0.000 
#    0.000    0.000    0.000    0.000    0.000    0.000 
#
# Total GULP energy -421254.293306 kJ/mol
# GULP energy per Si atom -12389.832156 kJ/mol
# Density = 2.290099 g / cm^3
# Si number density = 22.953233 Si / 1000 Ang^3
#
#
#
# Elastic Constant Matrix: (Units=GPa)
#
#
# Indices 1 2 3 4 5 6 
#
# 1 221.4627 87.7251 58.6373 0.0000 0.0000 0.0000
# 2 87.7251 169.9288 62.4525 0.0000 0.0000 0.0000
# 3 58.6373 62.4525 111.3797 0.0000 0.0000 0.0000
# 4 0.0000 0.0000 0.0000 51.7724 0.0000 0.0000
# 5 0.0000 0.0000 0.0000 0.0000 31.6551 0.0000
# 6 0.0000 0.0000 0.0000 0.0000 0.0000 38.6890
#
#
#
# Elastic Compliance Matrix: (Units=1/GPa)
#
#
# Indices 1 2 3 4 5 6 
#
# 1 0.005942 -0.002416 -0.001774 0.000000 0.000000 0.000000
# 2 -0.002416 0.008394 -0.003435 0.000000 0.000000 0.000000
# 3 -0.001774 -0.003435 0.011838 0.000000 0.000000 0.000000
# 4 0.000000 0.000000 0.000000 0.019315 0.000000 0.000000
# 5 0.000000 0.000000 0.000000 0.000000 0.031591 0.000000
# 6 0.000000 0.000000 0.000000 0.000000 0.000000 0.025847
#
#
# Mechanical properties :
#
#
# Convention : Reuss Voigt Hill
#
# Bulk Modulus (GPa) = 91.52834 102.26678 96.89756
# Shear Modulus (GPa) = 41.04475 44.02039 42.53257
#
# Velocity S-wave (km/s) = 4.23329 4.38405 4.30933
# Velocity P-wave (km/s) = 7.99105 8.38318 8.18946
#
# Compressibility (1/GPa) = 0.01092558
#
# Stress axis : x y z
#
# Youngs Moduli (GPa) = 168.29535 119.12778 84.47204
#
# Poissons Ratio (x) = 0.28777 0.14983
# Poissons Ratio (y) = 0.40654 0.29017
# Poissons Ratio (z) = 0.29851 0.40922
#
# Static dielectric constant tensor:
#      x y z
#    x 4.381200 0.000000 0.000000 
#    y 0.000000 2.514010 0.000000 
#    z 0.000000 0.000000 4.062290 
# 
# 
# High freq. dielectric constant tensor:
#      x y z
#    x 1.925960 0.000000 0.000000 
#    y 0.000000 1.914080 0.000000 
#    z 0.000000 0.000000 1.898970 
# 
# From -- ./inp_files/9214.got.cif
#   From: 2010.03.12/outbox.cif.g09.slc.cpg/sg50_5_cif.got.tgz:9214.got - 2010.04.16 13:23:21.
