data_PCOD8205048
_publ_section_title
;
Structure prediction by ZEFSAII (Michael W. Deem and Ramdas Pophale) SiO2 
 PCOD8205048
Probable space group: P B A N
;
_chemical_formula_sum "Si O2"
_cell_formula_units_Z 64
_cell_length_a 17.143156
_cell_length_b 23.147103
_cell_length_c 8.165039
_cell_angle_alpha 90.000000
_cell_angle_beta 90.000000
_cell_angle_gamma 90.000000
_cell_volume 3240.005033
_symmetry_space_group_name_H-M "P B A N"
_symmetry_group_IT_number 50
_space_group.IT_coordinate_system_code '2'
_symmetry_cell_setting 'orthorhombic'
loop_
_space_group_symop_operation_xyz
x,y,z
1/2-x,1/2-y,z
x,1/2-y,-z
1/2-x,y,-z
-x,-y,-z
1/2+x,1/2+y,-z
-x,1/2+y,z
1/2+x,-y,z
loop_
_atom_site_type_symbol
_atom_site_label
_atom_site_fract_x
_atom_site_fract_y
_atom_site_fract_z
Si Si1 0.610844 0.872592 0.707167
Si Si2 0.678800 0.462739 0.387356
Si Si3 0.836514 0.747899 0.808621
Si Si4 0.454046 0.603282 0.755474
Si Si5 0.748899 0.558168 0.809615
Si Si6 0.481366 0.558728 0.094632
Si Si7 0.948260 0.689930 0.407882
Si Si8 0.593602 0.979424 0.327812
O O1 0.612230 0.808176 0.775028
O O2 0.699849 0.895135 0.710349
O O3 0.556683 0.914142 0.816671
O O4 0.577820 0.864067 0.523614
O O5 0.750000 0.440675 0.500000
O O6 0.631517 0.408734 0.317288
O O7 0.714244 0.495783 0.230816
O O8 0.620966 0.506279 0.487069
O O9 0.750000 0.750000 0.731022
O O10 0.879975 0.801612 0.724814
O O11 0.830110 0.750000 0.000000
O O12 0.476801 0.667148 0.692587
O O13 0.512599 0.554925 0.681289
O O14 0.450815 0.602806 0.954578
O O15 0.659283 0.560774 0.754825
O O16 0.750000 0.572604 0.000000
O O17 0.416670 0.541116 0.230848
O O18 0.500000 0.500000 0.000000
O O19 0.968472 0.750000 0.500000
#
# Coordination Sequence:
#
# PCOD8205048 Si02
#       8
#     8   8   8   8   8   8   8   8
#     4  11  22  36  57  78 117 160 201 245 315 343
#     4  10  21  35  51  80 111 144 182 236 295 363
#     4  10  23  40  57  81 117 155 210 263 293 348
#     4  11  19  34  57  74 108 146 191 235 301 351
#     4  11  21  33  51  80 115 152 198 237 291 364
#     4  10  20  35  56  84 110 152 197 246 294 373
#     4  10  23  39  57  85 114 155 205 257 295 353
#     4  10  20  32  51  77 111 145 189 237 287 359
#
# _framework density 19.753053999999999
#
# number of rings (size 3 to 8) (size 9 to 14) (size 15 to 20)
#    0.000    1.625    0.000    6.375    3.500    2.250 
#    0.000    0.000    0.000    0.375    0.000    0.000 
#    0.000    8.000    0.000    0.000    0.000    0.000 
#
# Total GULP energy -793288.963645 kJ/mol
# GULP energy per Si atom -12395.140057 kJ/mol
# Density = 1.970810 g / cm^3
# Si number density = 19.753054 Si / 1000 Ang^3
#
#
#
# Elastic Constant Matrix: (Units=GPa)
#
#
# Indices 1 2 3 4 5 6 
#
# 1 81.8987 31.6687 19.4340 0.0000 0.0000 0.0000
# 2 31.6687 64.2330 23.5053 0.0000 0.0000 0.0000
# 3 19.4340 23.5053 75.3382 0.0000 0.0000 0.0000
# 4 0.0000 0.0000 0.0000 27.5838 0.0000 0.0000
# 5 0.0000 0.0000 0.0000 0.0000 29.5577 0.0000
# 6 0.0000 0.0000 0.0000 0.0000 0.0000 34.8138
#
#
#
# Elastic Compliance Matrix: (Units=1/GPa)
#
#
# Indices 1 2 3 4 5 6 
#
# 1 0.015299 -0.006885 -0.001799 0.000000 0.000000 0.000000
# 2 -0.006885 0.020673 -0.004674 0.000000 0.000000 0.000000
# 3 -0.001799 -0.004674 0.015196 0.000000 0.000000 0.000000
# 4 0.000000 0.000000 0.000000 0.036253 0.000000 0.000000
# 5 0.000000 0.000000 0.000000 0.000000 0.033832 0.000000
# 6 0.000000 0.000000 0.000000 0.000000 0.000000 0.028724
#
#
# Mechanical properties :
#
#
# Convention : Reuss Voigt Hill
#
# Bulk Modulus (GPa) = 40.89402 41.18733 41.04068
# Shear Modulus (GPa) = 27.04996 28.18186 27.61591
#
# Velocity S-wave (km/s) = 3.70456 3.78128 3.74312
# Velocity P-wave (km/s) = 6.24868 6.32143 6.28516
#
# Compressibility (1/GPa) = 0.02445345
#
# Stress axis : x y z
#
# Youngs Moduli (GPa) = 65.36290 48.37205 65.80822
#
# Poissons Ratio (x) = 0.33303 0.11836
# Poissons Ratio (y) = 0.45001 0.30758
# Poissons Ratio (z) = 0.11756 0.22609
#
# Static dielectric constant tensor:
#      x y z
#    x 3.784590 0.000000 0.000000 
#    y 0.000000 3.460130 0.000000 
#    z 0.000000 0.000000 3.604910 
# 
# 
# High freq. dielectric constant tensor:
#      x y z
#    x 1.753840 0.000000 0.000000 
#    y 0.000000 1.740780 0.000000 
#    z 0.000000 0.000000 1.789420 
# 
# From -- ./inp_files/14603.got.cif
#   From: 2010.03.12/outbox.cif.g09.slc.cpg/sg50_8_cif.got.tgz:14603.got - 2010.04.16 13:23:21.
