data_PCOD8205550
_publ_section_title
;
Structure prediction by ZEFSAII (Michael W. Deem and Ramdas Pophale) SiO2 
 PCOD8205550
Probable space group: P B A N
;
_chemical_formula_sum "Si O2"
_cell_formula_units_Z 48
_cell_length_a 14.807196
_cell_length_b 9.258422
_cell_length_c 16.932499
_cell_angle_alpha 90.000000
_cell_angle_beta 90.000000
_cell_angle_gamma 90.000000
_cell_volume 2321.297779
_symmetry_space_group_name_H-M "P B A N"
_symmetry_group_IT_number 50
_space_group.IT_coordinate_system_code '2'
_symmetry_cell_setting 'orthorhombic'
loop_
_space_group_symop_operation_xyz
x,y,z
1/2-x,1/2-y,z
x,1/2-y,-z
1/2-x,y,-z
-x,-y,-z
1/2+x,1/2+y,-z
-x,1/2+y,z
1/2+x,-y,z
loop_
_atom_site_type_symbol
_atom_site_label
_atom_site_fract_x
_atom_site_fract_y
_atom_site_fract_z
Si Si1 0.594628 0.569813 0.079615
Si Si2 0.079122 0.094218 0.101042
Si Si3 0.750000 0.250000 0.299355
Si Si4 0.746827 0.513827 0.191997
Si Si5 0.088886 0.165442 0.420647
Si Si6 0.250000 0.250000 0.689979
Si Si7 0.091730 0.675887 0.581720
O O1 0.518579 0.471389 0.121067
O O2 0.573144 0.733951 0.102125
O O3 0.691279 0.522201 0.111586
O O4 0.604270 0.540666 0.986606
O O5 0.148621 0.035449 0.167133
O O6 0.722584 0.371385 0.238468
O O7 0.832457 0.302151 0.352999
O O8 0.708761 0.631220 0.252691
O O9 0.116906 0.250000 0.500000
O O10 0.170429 0.181191 0.360638
O O11 0.998475 0.242556 0.387885
O O12 0.072763 0.994139 0.434122
O O13 0.123559 0.750000 0.500000
#
# Coordination Sequence:
#
# PCOD8205550 Si02
#       7
#     8   8   4   8   8   4   8
#     4  10  22  42  67  92 125 167 214 265 309 379
#     4  10  22  42  67  93 123 168 216 259 318 371
#     4  12  29  42  63  96 134 168 210 260 323 374
#     4  12  25  43  61  95 129 170 206 260 318 382
#     4  11  25  43  70  96 124 168 215 261 311 375
#     4  12  25  42  65  94 130 166 212 256 321 382
#     4  11  25  45  68  94 126 169 213 262 312 374
#
# _framework density 20.678087999999999
#
# number of rings (size 3 to 8) (size 9 to 14) (size 15 to 20)
#    0.000    1.000    3.333    3.000    7.000    5.333 
#    0.000    0.833    0.000    0.000    0.000    0.000 
#    0.000    0.000    0.000    0.000    0.000    0.000 
#
# Total GULP energy -595111.203919 kJ/mol
# GULP energy per Si atom -12398.150082 kJ/mol
# Density = 2.063102 g / cm^3
# Si number density = 20.678088 Si / 1000 Ang^3
#
#
#
# Elastic Constant Matrix: (Units=GPa)
#
#
# Indices 1 2 3 4 5 6 
#
# 1 81.6972 28.4255 31.9849 0.0000 0.0000 0.0000
# 2 28.4255 148.8452 35.0278 0.0000 0.0000 0.0000
# 3 31.9849 35.0278 64.8250 0.0000 0.0000 0.0000
# 4 0.0000 0.0000 0.0000 36.6436 0.0000 0.0000
# 5 0.0000 0.0000 0.0000 0.0000 10.4007 0.0000
# 6 0.0000 0.0000 0.0000 0.0000 0.0000 23.8156
#
#
#
# Elastic Compliance Matrix: (Units=1/GPa)
#
#
# Indices 1 2 3 4 5 6 
#
# 1 0.015394 -0.001320 -0.006882 0.000000 0.000000 0.000000
# 2 -0.001320 0.007810 -0.003569 0.000000 0.000000 0.000000
# 3 -0.006882 -0.003569 0.020750 0.000000 0.000000 0.000000
# 4 0.000000 0.000000 0.000000 0.027290 0.000000 0.000000
# 5 0.000000 0.000000 0.000000 0.000000 0.096148 0.000000
# 6 0.000000 0.000000 0.000000 0.000000 0.000000 0.041989
#
#
# Mechanical properties :
#
#
# Convention : Reuss Voigt Hill
#
# Bulk Modulus (GPa) = 48.99031 54.02708 51.50869
# Shear Modulus (GPa) = 20.85696 27.50059 24.17878
#
# Velocity S-wave (km/s) = 3.17937 3.65079 3.42320
# Velocity P-wave (km/s) = 6.10092 6.62989 6.37090
#
# Compressibility (1/GPa) = 0.02041220
#
# Stress axis : x y z
#
# Youngs Moduli (GPa) = 64.96009 128.03449 48.19233
#
# Poissons Ratio (x) = 0.16904 0.33166
# Poissons Ratio (y) = 0.08577 0.17199
# Poissons Ratio (z) = 0.44706 0.45694
#
# Static dielectric constant tensor:
#      x y z
#    x 3.716500 0.000000 0.000000 
#    y 0.000000 3.869250 0.000000 
#    z 0.000000 0.000000 3.865450 
# 
# 
# High freq. dielectric constant tensor:
#      x y z
#    x 1.810110 0.000000 0.000000 
#    y 0.000000 1.823990 0.000000 
#    z 0.000000 0.000000 1.814530 
# 
# From -- ./inp_files/29476.got.cif
#   From: 2010.03.12/outbox.cif.g09.slc.cpg/sg50_15_cif.got.tgz:29476.got - 2010.04.16 13:23:21.
