data_PCOD8205039
_publ_section_title
;
Structure prediction by ZEFSAII (Michael W. Deem and Ramdas Pophale) SiO2 
 PCOD8205039
Probable space group: P B A N
;
_chemical_formula_sum "Si O2"
_cell_formula_units_Z 48
_cell_length_a 33.051138
_cell_length_b 16.433054
_cell_length_c 5.146697
_cell_angle_alpha 90.000000
_cell_angle_beta 90.000000
_cell_angle_gamma 90.000000
_cell_volume 2795.331386
_symmetry_space_group_name_H-M "P B A N"
_symmetry_group_IT_number 50
_space_group.IT_coordinate_system_code '2'
_symmetry_cell_setting 'orthorhombic'
loop_
_space_group_symop_operation_xyz
x,y,z
1/2-x,1/2-y,z
x,1/2-y,-z
1/2-x,y,-z
-x,-y,-z
1/2+x,1/2+y,-z
-x,1/2+y,z
1/2+x,-y,z
loop_
_atom_site_type_symbol
_atom_site_label
_atom_site_fract_x
_atom_site_fract_y
_atom_site_fract_z
Si Si1 0.155769 0.346325 0.991100
Si Si2 0.045275 0.524505 0.581429
Si Si3 0.550166 0.290503 0.744904
Si Si4 0.924548 0.946634 0.099745
Si Si5 0.294696 0.154355 0.486672
Si Si6 0.541861 0.787689 0.750198
O O1 0.118049 0.403382 0.059741
O O2 0.187968 0.370276 0.209221
O O3 0.144821 0.250000 0.000000
O O4 0.175176 0.373794 0.717240
O O5 0.050974 0.612691 0.713057
O O6 0.074063 0.518195 0.320850
O O7 0.000000 0.500000 0.500000
O O8 0.058883 0.466271 0.815122
O O9 0.572866 0.250000 0.500000
O O10 0.504221 0.257580 0.746730
O O11 0.571103 0.250000 0.000000
O O12 0.955645 0.884526 0.240266
O O13 0.289679 0.250000 0.500000
O O14 0.250000 0.113834 0.500000
O O15 0.564735 0.750000 0.500000
O O16 0.564527 0.750000 0.000000
#
# Coordination Sequence:
#
# PCOD8205039 Si02
#       6
#     8   8   8   8   8   8
#     4  10  20  33  48  74 104 132 171 211 255 301
#     4  12  24  37  52  71  95 128 170 216 269 318
#     4  10  21  36  52  67  86 117 167 216 254 300
#     4  12  23  34  51  70 102 132 163 215 272 307
#     4   9  17  31  51  71  97 134 174 210 238 283
#     4  10  20  31  47  67  91 122 161 203 258 305
#
# _framework density 17.171486999999999
#
# number of rings (size 3 to 8) (size 9 to 14) (size 15 to 20)
#    0.000    1.500    1.667    4.500    4.667    4.000 
#    0.000    0.000    0.000    0.000    0.000    0.000 
#    0.000    0.000    0.000    0.000    0.000  175.000 
#
# Total GULP energy -594642.591151 kJ/mol
# GULP energy per Si atom -12388.387316 kJ/mol
# Density = 1.713240 g / cm^3
# Si number density = 17.171487 Si / 1000 Ang^3
#
#
#
# Elastic Constant Matrix: (Units=GPa)
#
#
# Indices 1 2 3 4 5 6 
#
# 1 66.3723 24.5578 35.0882 0.0000 0.0000 0.0000
# 2 24.5578 65.5195 33.2606 0.0000 0.0000 0.0000
# 3 35.0882 33.2606 145.2245 0.0000 0.0000 0.0000
# 4 0.0000 0.0000 0.0000 33.5778 0.0000 0.0000
# 5 0.0000 0.0000 0.0000 0.0000 -30.3149 0.0000
# 6 0.0000 0.0000 0.0000 0.0000 0.0000 5.6510
#
#
#
# Elastic Compliance Matrix: (Units=1/GPa)
#
#
# Indices 1 2 3 4 5 6 
#
# 1 0.018804 -0.005365 -0.003314 0.000000 0.000000 0.000000
# 2 -0.005365 0.018802 -0.003010 0.000000 0.000000 0.000000
# 3 -0.003314 -0.003010 0.008376 0.000000 0.000000 0.000000
# 4 0.000000 0.000000 0.000000 0.029782 0.000000 0.000000
# 5 0.000000 0.000000 0.000000 0.000000 -0.032987 0.000000
# 6 0.000000 0.000000 0.000000 0.000000 0.000000 0.176959
#
#
# Mechanical properties :
#
#
# Convention : Reuss Voigt Hill
#
# Bulk Modulus (GPa) = 44.24337 51.43660 47.83998
# Shear Modulus (GPa) = 19.94826 14.06344 17.00585
#
# Velocity S-wave (km/s) = 3.41208 2.86492 3.15040
# Velocity P-wave (km/s) = 6.42998 6.40026 6.41514
#
# Compressibility (1/GPa) = 0.02260226
#
# Stress axis : x y z
#
# Youngs Moduli (GPa) = 53.18032 53.18701 119.38847
#
# Poissons Ratio (x) = 0.28537 0.39571
# Poissons Ratio (y) = 0.28534 0.35933
# Poissons Ratio (z) = 0.17626 0.16008
#
# Static dielectric constant tensor:
#      x y z
#    x 2.965540 0.000000 0.000000 
#    y 0.000000 2.945750 0.000000 
#    z 0.000000 0.000000 4.546130 
# 
# 
# High freq. dielectric constant tensor:
#      x y z
#    x 1.615620 0.000000 0.000000 
#    y 0.000000 1.628420 0.000000 
#    z 0.000000 0.000000 1.701570 
# 
# From -- ./inp_files/7151.got.cif
#   From: 2010.03.12/outbox.cif.g09.slc.cpg/sg50_4_cif.got.tgz:7151.got - 2010.04.16 13:23:21.
