data_PCOD8205269
_publ_section_title
;
Structure prediction by ZEFSAII (Michael W. Deem and Ramdas Pophale) SiO2 
 PCOD8205269
Probable space group: P B A N
;
_chemical_formula_sum "Si O2"
_cell_formula_units_Z 48
_cell_length_a 30.112234
_cell_length_b 8.089762
_cell_length_c 8.611452
_cell_angle_alpha 90.000000
_cell_angle_beta 90.000000
_cell_angle_gamma 90.000000
_cell_volume 2097.756651
_symmetry_space_group_name_H-M "P B A N"
_symmetry_group_IT_number 50
_space_group.IT_coordinate_system_code '2'
_symmetry_cell_setting 'orthorhombic'
loop_
_space_group_symop_operation_xyz
x,y,z
1/2-x,1/2-y,z
x,1/2-y,-z
1/2-x,y,-z
-x,-y,-z
1/2+x,1/2+y,-z
-x,1/2+y,z
1/2+x,-y,z
loop_
_atom_site_type_symbol
_atom_site_label
_atom_site_fract_x
_atom_site_fract_y
_atom_site_fract_z
Si Si1 0.372106 0.538750 0.718424
Si Si2 0.813090 0.352680 0.257562
Si Si3 0.446029 0.428039 0.247625
Si Si4 0.866696 0.582768 0.054398
Si Si5 0.108715 0.250000 0.500000
Si Si6 0.037695 0.788628 0.675093
Si Si7 0.750000 0.250000 0.000000
Si Si8 0.750000 0.250000 0.500000
O O1 0.338155 0.686911 0.682428
O O2 0.361919 0.369604 0.618279
O O3 0.422625 0.579950 0.675419
O O4 0.367111 0.532398 0.904555
O O5 0.846955 0.500232 0.213868
O O6 0.782904 0.356472 0.104251
O O7 0.778936 0.380444 0.398366
O O8 0.416873 0.365928 0.101831
O O9 0.423185 0.370648 0.405860
O O10 0.445929 0.625833 0.238265
O O11 0.495987 0.362418 0.232610
O O12 0.841320 0.750000 0.000000
O O13 0.022695 0.750000 0.500000
#
# Coordination Sequence:
#
# PCOD8205269 Si02
#       8
#     8   8   8   8   4   8   2   2
#     4  12  25  43  72 102 144 192 243 295 373 440
#     4  11  24  48  74 113 140 187 234 297 374 446
#     4  12  25  42  64  98 143 190 257 301 360 420
#     4  12  26  45  70 106 149 194 233 296 373 438
#     4  12  24  42  67 103 138 192 244 310 354 430
#     4  12  24  41  66  95 138 198 246 313 360 416
#     4  10  20  46  82  98 140 170 230 286 352 466
#     4  10  28  42  86 116 140 170 252 306 348 458
#
# _framework density 22.881587
#
# number of rings (size 3 to 8) (size 9 to 14) (size 15 to 20)
#    0.000    0.333    7.500    1.500    3.500    0.667 
#    0.000    0.417    0.000    3.500    0.000    0.000 
#    0.000    0.000    0.000    0.000    0.000    0.000 
#
# Total GULP energy -594758.680854 kJ/mol
# GULP energy per Si atom -12390.805851 kJ/mol
# Density = 2.282951 g / cm^3
# Si number density = 22.881587 Si / 1000 Ang^3
#
#
#
# Elastic Constant Matrix: (Units=GPa)
#
#
# Indices 1 2 3 4 5 6 
#
# 1 111.2967 41.6660 47.2506 0.0000 0.0000 0.0000
# 2 41.6660 121.9909 38.0939 0.0000 0.0000 0.0000
# 3 47.2506 38.0939 115.6137 0.0000 0.0000 0.0000
# 4 0.0000 0.0000 0.0000 36.1127 0.0000 0.0000
# 5 0.0000 0.0000 0.0000 0.0000 35.8192 0.0000
# 6 0.0000 0.0000 0.0000 0.0000 0.0000 16.0663
#
#
#
# Elastic Compliance Matrix: (Units=1/GPa)
#
#
# Indices 1 2 3 4 5 6 
#
# 1 0.011660 -0.002781 -0.003849 0.000000 0.000000 0.000000
# 2 -0.002781 0.009801 -0.002093 0.000000 0.000000 0.000000
# 3 -0.003849 -0.002093 0.010912 0.000000 0.000000 0.000000
# 4 0.000000 0.000000 0.000000 0.027691 0.000000 0.000000
# 5 0.000000 0.000000 0.000000 0.000000 0.027918 0.000000
# 6 0.000000 0.000000 0.000000 0.000000 0.000000 0.062242
#
#
# Mechanical properties :
#
#
# Convention : Reuss Voigt Hill
#
# Bulk Modulus (GPa) = 66.98960 66.99137 66.99049
# Shear Modulus (GPa) = 28.96115 32.39236 30.67676
#
# Velocity S-wave (km/s) = 3.56152 3.76660 3.66549
# Velocity P-wave (km/s) = 6.80094 6.94675 6.87423
#
# Compressibility (1/GPa) = 0.01492769
#
# Stress axis : x y z
#
# Youngs Moduli (GPa) = 85.76245 102.03519 91.64017
#
# Poissons Ratio (x) = 0.28371 0.35275
# Poissons Ratio (y) = 0.23846 0.19179
# Poissons Ratio (z) = 0.33012 0.21354
#
# Static dielectric constant tensor:
#      x y z
#    x 4.177220 0.000000 0.000000 
#    y 0.000000 3.967300 0.000000 
#    z 0.000000 0.000000 4.271220 
# 
# 
# High freq. dielectric constant tensor:
#      x y z
#    x 1.895270 0.000000 0.000000 
#    y 0.000000 1.891730 0.000000 
#    z 0.000000 0.000000 1.915430 
# 
# From -- ./inp_files/17021.got.cif
#   From: 2010.03.12/outbox.cif.g09.slc.cpg/sg50_9_cif.got.tgz:17021.got - 2010.04.16 13:23:21.
