data_PCOD8205614
_publ_section_title
;
Structure prediction by ZEFSAII (Michael W. Deem and Ramdas Pophale) SiO2 
 PCOD8205614
Probable space group: P B A N
;
_chemical_formula_sum "Si O2"
_cell_formula_units_Z 52
_cell_length_a 8.417878
_cell_length_b 17.723320
_cell_length_c 15.560352
_cell_angle_alpha 90.000000
_cell_angle_beta 90.000000
_cell_angle_gamma 90.000000
_cell_volume 2321.491636
_symmetry_space_group_name_H-M "P B A N"
_symmetry_group_IT_number 50
_space_group.IT_coordinate_system_code '2'
_symmetry_cell_setting 'orthorhombic'
loop_
_space_group_symop_operation_xyz
x,y,z
1/2-x,1/2-y,z
x,1/2-y,-z
1/2-x,y,-z
-x,-y,-z
1/2+x,1/2+y,-z
-x,1/2+y,z
1/2+x,-y,z
loop_
_atom_site_type_symbol
_atom_site_label
_atom_site_fract_x
_atom_site_fract_y
_atom_site_fract_z
Si Si1 0.916402 0.263577 0.206301
Si Si2 0.374677 0.964164 0.437435
Si Si3 0.230491 0.440736 0.852281
Si Si4 0.250000 0.250000 0.693018
Si Si5 0.037672 0.322673 0.948834
Si Si6 0.663393 0.589093 0.657697
Si Si7 0.573017 0.410124 0.893418
O O1 0.750000 0.250000 0.259938
O O2 0.878758 0.346552 0.173179
O O3 0.086137 0.258756 0.253454
O O4 0.921168 0.204510 0.127066
O O5 0.250000 0.918932 0.500000
O O6 0.477765 0.912650 0.372755
O O7 0.500000 0.000000 0.500000
O O8 0.277642 0.029235 0.387956
O O9 0.186146 0.368807 0.911182
O O10 0.156699 0.428298 0.758406
O O11 0.416924 0.444172 0.850379
O O12 0.190725 0.519993 0.895659
O O13 0.269517 0.173470 0.637684
O O14 0.104151 0.250000 0.000000
O O15 0.938381 0.378366 0.009930
#
# Coordination Sequence:
#
# PCOD8205614 Si02
#       7
#     8   8   8   4   8   8   8
#     4  11  24  45  68  90 139 189 251 304 374 430
#     4   9  21  45  74 108 141 186 224 269 364 459
#     4  12  23  40  62 100 135 179 243 304 362 421
#     4  12  24  46  68 116 146 186 238 304 360 424
#     4  10  23  42  62  85 133 197 246 302 369 427
#     4  11  22  41  76 106 148 185 232 302 355 430
#     4  11  25  39  62  92 134 185 251 306 364 426
#
# _framework density 22.399393
#
# number of rings (size 3 to 8) (size 9 to 14) (size 15 to 20)
#    0.000    1.231    3.077    1.846    2.154    8.923 
#    2.769    3.462    0.000    2.769    0.000    0.000 
#    0.000    0.000    0.000    0.000    0.000    0.000 
#
# Total GULP energy -644232.426701 kJ/mol
# GULP energy per Si atom -12389.085129 kJ/mol
# Density = 2.234841 g / cm^3
# Si number density = 22.399393 Si / 1000 Ang^3
#
#
#
# Elastic Constant Matrix: (Units=GPa)
#
#
# Indices 1 2 3 4 5 6 
#
# 1 154.9590 40.8467 34.0331 0.0000 0.0000 0.0000
# 2 40.8467 129.8312 33.9767 0.0000 0.0000 0.0000
# 3 34.0331 33.9767 78.8189 0.0000 0.0000 0.0000
# 4 0.0000 0.0000 0.0000 25.3216 0.0000 0.0000
# 5 0.0000 0.0000 0.0000 0.0000 23.1059 0.0000
# 6 0.0000 0.0000 0.0000 0.0000 0.0000 40.6727
#
#
#
# Elastic Compliance Matrix: (Units=1/GPa)
#
#
# Indices 1 2 3 4 5 6 
#
# 1 0.007445 -0.001692 -0.002485 0.000000 0.000000 0.000000
# 2 -0.001692 0.009066 -0.003178 0.000000 0.000000 0.000000
# 3 -0.002485 -0.003178 0.015130 0.000000 0.000000 0.000000
# 4 0.000000 0.000000 0.000000 0.039492 0.000000 0.000000
# 5 0.000000 0.000000 0.000000 0.000000 0.043279 0.000000
# 6 0.000000 0.000000 0.000000 0.000000 0.000000 0.024587
#
#
# Mechanical properties :
#
#
# Convention : Reuss Voigt Hill
#
# Bulk Modulus (GPa) = 59.06074 64.59134 61.82604
# Shear Modulus (GPa) = 31.37686 34.80353 33.09020
#
# Velocity S-wave (km/s) = 3.74677 3.94607 3.84771
# Velocity P-wave (km/s) = 6.71879 7.04704 6.88487
#
# Compressibility (1/GPa) = 0.01693172
#
# Stress axis : x y z
#
# Youngs Moduli (GPa) = 134.31533 110.29985 66.09265
#
# Poissons Ratio (x) = 0.18662 0.16427
# Poissons Ratio (y) = 0.22725 0.21002
# Poissons Ratio (z) = 0.33383 0.35049
#
# Static dielectric constant tensor:
#      x y z
#    x 4.450830 0.000000 0.000000 
#    y 0.000000 4.202970 0.000000 
#    z 0.000000 0.000000 4.349260 
# 
# 
# High freq. dielectric constant tensor:
#      x y z
#    x 1.902860 0.000000 0.000000 
#    y 0.000000 1.884930 0.000000 
#    z 0.000000 0.000000 1.857810 
# 
# From -- ./inp_files/28849.got.cif
#   From: 2010.03.12/outbox.cif.g09.slc.cpg/sg50_15_cif.got.tgz:28849.got - 2010.04.16 13:23:21.
