data_PCOD8205893
_publ_section_title
;
Structure prediction by ZEFSAII (Michael W. Deem and Ramdas Pophale) SiO2 
 PCOD8205893
Probable space group: P B A N
;
_chemical_formula_sum "Si O2"
_cell_formula_units_Z 40
_cell_length_a 9.056156
_cell_length_b 23.646597
_cell_length_c 8.302458
_cell_angle_alpha 90.000000
_cell_angle_beta 90.000000
_cell_angle_gamma 90.000000
_cell_volume 1777.948726
_symmetry_space_group_name_H-M "P B A N"
_symmetry_group_IT_number 50
_space_group.IT_coordinate_system_code '2'
_symmetry_cell_setting 'orthorhombic'
loop_
_space_group_symop_operation_xyz
x,y,z
1/2-x,1/2-y,z
x,1/2-y,-z
1/2-x,y,-z
-x,-y,-z
1/2+x,1/2+y,-z
-x,1/2+y,z
1/2+x,-y,z
loop_
_atom_site_type_symbol
_atom_site_label
_atom_site_fract_x
_atom_site_fract_y
_atom_site_fract_z
Si Si1 0.627663 0.326242 0.380334
Si Si2 0.421418 0.260163 0.813129
Si Si3 0.110252 0.134965 0.606390
Si Si4 0.517601 0.519346 0.320199
Si Si5 0.722645 0.070152 0.815636
O O1 0.750000 0.298778 0.500000
O O2 0.530215 0.277407 0.296343
O O3 0.524796 0.367851 0.482681
O O4 0.705565 0.366465 0.251127
O O5 0.250000 0.250000 0.780634
O O6 0.436832 0.324543 0.754816
O O7 0.463241 0.250000 0.000000
O O8 0.250000 0.155084 0.500000
O O9 0.130984 0.072868 0.683786
O O10 0.500000 0.500000 0.500000
O O11 0.578072 0.468630 0.209986
O O12 0.357752 0.537522 0.262153
O O13 0.750000 0.079668 0.000000
#
# Coordination Sequence:
#
# PCOD8205893 Si02
#       5
#     8   8   8   8   8
#     4  12  25  48  75 107 145 191 249 305 365 439
#     4  11  27  48  73 110 151 196 250 311 375 439
#     4  12  24  45  75 106 142 195 249 297 361 450
#     4  12  24  48  74 105 142 193 246 296 361 446
#     4  12  27  47  71 110 151 187 240 305 374 434
#
# _framework density 22.497834999999998
#
# number of rings (size 3 to 8) (size 9 to 14) (size 15 to 20)
#    0.000    0.200    6.000    3.000    2.800    1.600 
#    3.600    1.000    0.000    0.000    0.000    0.000 
#    0.000    0.000    0.000    0.000    0.000    0.000 
#
# Total GULP energy -495915.106552 kJ/mol
# GULP energy per Si atom -12397.877664 kJ/mol
# Density = 2.244663 g / cm^3
# Si number density = 22.497835 Si / 1000 Ang^3
#
#
#
# Elastic Constant Matrix: (Units=GPa)
#
#
# Indices 1 2 3 4 5 6 
#
# 1 119.1044 31.3365 49.4282 0.0000 0.0000 0.0000
# 2 31.3365 142.5954 60.6059 0.0000 0.0000 0.0000
# 3 49.4282 60.6059 143.2742 0.0000 0.0000 0.0000
# 4 0.0000 0.0000 0.0000 23.9768 0.0000 0.0000
# 5 0.0000 0.0000 0.0000 0.0000 38.0435 0.0000
# 6 0.0000 0.0000 0.0000 0.0000 0.0000 40.4992
#
#
#
# Elastic Compliance Matrix: (Units=1/GPa)
#
#
# Indices 1 2 3 4 5 6 
#
# 1 0.009889 -0.000882 -0.003039 0.000000 0.000000 0.000000
# 2 -0.000882 0.008629 -0.003346 0.000000 0.000000 0.000000
# 3 -0.003039 -0.003346 0.009443 0.000000 0.000000 0.000000
# 4 0.000000 0.000000 0.000000 0.041707 0.000000 0.000000
# 5 0.000000 0.000000 0.000000 0.000000 0.026286 0.000000
# 6 0.000000 0.000000 0.000000 0.000000 0.000000 0.024692
#
#
# Mechanical properties :
#
#
# Convention : Reuss Voigt Hill
#
# Bulk Modulus (GPa) = 74.46800 76.41280 75.44040
# Shear Modulus (GPa) = 35.80279 38.07745 36.94012
#
# Velocity S-wave (km/s) = 3.99355 4.11846 4.05648
# Velocity P-wave (km/s) = 7.37811 7.52687 7.45286
#
# Compressibility (1/GPa) = 0.01342859
#
# Stress axis : x y z
#
# Youngs Moduli (GPa) = 101.12236 115.89317 105.89611
#
# Poissons Ratio (x) = 0.10218 0.32178
# Poissons Ratio (y) = 0.08916 0.35431
# Poissons Ratio (z) = 0.30728 0.38775
#
# Static dielectric constant tensor:
#      x y z
#    x 4.518010 0.000000 0.000000 
#    y 0.000000 4.302950 0.000000 
#    z 0.000000 0.000000 4.050500 
# 
# 
# High freq. dielectric constant tensor:
#      x y z
#    x 1.898900 0.000000 0.000000 
#    y 0.000000 1.900490 0.000000 
#    z 0.000000 0.000000 1.885190 
# 
# From -- ./inp_files/9473.got.cif
#   From: 2010.03.12/outbox.cif.g09.slc.cpg/sg50_5_cif.got.tgz:9473.got - 2010.04.16 13:23:21.
