data_PCOD8205128
_publ_section_title
;
Structure prediction by ZEFSAII (Michael W. Deem and Ramdas Pophale) SiO2 
 PCOD8205128
Probable space group: P B A N
;
_chemical_formula_sum "Si O2"
_cell_formula_units_Z 40
_cell_length_a 13.244197
_cell_length_b 11.687308
_cell_length_c 13.069617
_cell_angle_alpha 90.000000
_cell_angle_beta 90.000000
_cell_angle_gamma 90.000000
_cell_volume 2023.033071
_symmetry_space_group_name_H-M "P B A N"
_symmetry_group_IT_number 50
_space_group.IT_coordinate_system_code '2'
_symmetry_cell_setting 'orthorhombic'
loop_
_space_group_symop_operation_xyz
x,y,z
1/2-x,1/2-y,z
x,1/2-y,-z
1/2-x,y,-z
-x,-y,-z
1/2+x,1/2+y,-z
-x,1/2+y,z
1/2+x,-y,z
loop_
_atom_site_type_symbol
_atom_site_label
_atom_site_fract_x
_atom_site_fract_y
_atom_site_fract_z
Si Si1 0.467784 0.607614 0.637031
Si Si2 0.349914 0.011988 0.543723
Si Si3 0.634455 0.885128 0.001664
Si Si4 0.850085 0.181123 0.706877
Si Si5 0.016511 0.976761 0.163892
O O1 0.405182 0.543962 0.551414
O O2 0.584206 0.609620 0.599129
O O3 0.430297 0.735790 0.652348
O O4 0.461101 0.534714 0.740592
O O5 0.250000 0.072160 0.500000
O O6 0.318181 0.913901 0.624748
O O7 0.581693 0.928915 0.104583
O O8 0.630276 0.750000 0.000000
O O9 0.750000 0.929252 0.000000
O O10 0.575104 0.930174 0.903339
O O11 0.750000 0.250000 0.743193
O O12 0.906613 0.124891 0.803800
#
# Coordination Sequence:
#
# PCOD8205128 Si02
#       5
#     8   8   8   8   8
#     4  10  21  34  58  87 124 154 205 252 297 364
#     4  10  20  36  56  87 121 167 202 245 308 363
#     4  10  22  42  64  83 119 165 195 251 321 370
#     4  11  21  35  62  91 121 164 204 257 308 363
#     4  10  23  39  60  91 121 153 210 254 302 371
#
# _framework density 19.772290999999999
#
# number of rings (size 3 to 8) (size 9 to 14) (size 15 to 20)
#    0.000    1.800    2.000    1.800    2.800    0.000 
#    0.000    0.000    0.000   20.400    0.000    0.000 
#    0.000    0.000    0.000    0.000    0.000    0.000 
#
# Total GULP energy -495987.872807 kJ/mol
# GULP energy per Si atom -12399.696820 kJ/mol
# Density = 1.972729 g / cm^3
# Si number density = 19.772291 Si / 1000 Ang^3
#
#
#
# Elastic Constant Matrix: (Units=GPa)
#
#
# Indices 1 2 3 4 5 6 
#
# 1 134.7452 42.4796 35.7972 0.0000 0.0000 0.0000
# 2 42.4796 59.0861 15.1709 0.0000 0.0000 0.0000
# 3 35.7972 15.1709 90.3034 0.0000 0.0000 0.0000
# 4 0.0000 0.0000 0.0000 22.7749 0.0000 0.0000
# 5 0.0000 0.0000 0.0000 0.0000 -199.3034 0.0000
# 6 0.0000 0.0000 0.0000 0.0000 0.0000 21.5797
#
#
#
# Elastic Compliance Matrix: (Units=1/GPa)
#
#
# Indices 1 2 3 4 5 6 
#
# 1 0.010306 -0.006647 -0.002969 0.000000 0.000000 0.000000
# 2 -0.006647 0.021975 -0.001057 0.000000 0.000000 0.000000
# 3 -0.002969 -0.001057 0.012428 0.000000 0.000000 0.000000
# 4 0.000000 0.000000 0.000000 0.043908 0.000000 0.000000
# 5 0.000000 0.000000 0.000000 0.000000 -0.005017 0.000000
# 6 0.000000 0.000000 0.000000 0.000000 0.000000 0.046340
#
#
# Mechanical properties :
#
#
# Convention : Reuss Voigt Hill
#
# Bulk Modulus (GPa) = 42.80151 52.33666 47.56908
# Shear Modulus (GPa) = 31.43251 -18.27728 6.57761
#
# Velocity S-wave (km/s) = 3.99146 -3.04367 1.82590
# Velocity P-wave (km/s) = 6.55260 3.76500 5.34377
#
# Compressibility (1/GPa) = 0.02336366
#
# Stress axis : x y z
#
# Youngs Moduli (GPa) = 97.03506 45.50721 80.46296
#
# Poissons Ratio (x) = 0.30248 0.23886
# Poissons Ratio (y) = 0.64498 0.08503
# Poissons Ratio (z) = 0.28805 0.04809
#
# Static dielectric constant tensor:
#      x y z
#    x 3.968810 0.000000 0.000000 
#    y 0.000000 3.474320 0.000000 
#    z 0.000000 0.000000 3.724870 
# 
# 
# High freq. dielectric constant tensor:
#      x y z
#    x 1.785240 0.000000 0.000000 
#    y 0.000000 1.756310 0.000000 
#    z 0.000000 0.000000 1.780060 
# 
# From -- ./inp_files/19980.got.cif
#   From: 2010.03.12/outbox.cif.g09.slc.cpg/sg50_10_cif.got.tgz:19980.got - 2010.04.16 13:23:21.
