data_PCOD8205418
_publ_section_title
;
Structure prediction by ZEFSAII (Michael W. Deem and Ramdas Pophale) SiO2 
 PCOD8205418
Probable space group: P B A N
;
_chemical_formula_sum "Si O2"
_cell_formula_units_Z 52
_cell_length_a 14.568332
_cell_length_b 9.102231
_cell_length_c 19.018727
_cell_angle_alpha 90.000000
_cell_angle_beta 90.000000
_cell_angle_gamma 90.000000
_cell_volume 2521.965421
_symmetry_space_group_name_H-M "P B A N"
_symmetry_group_IT_number 50
_space_group.IT_coordinate_system_code '2'
_symmetry_cell_setting 'orthorhombic'
loop_
_space_group_symop_operation_xyz
x,y,z
1/2-x,1/2-y,z
x,1/2-y,-z
1/2-x,y,-z
-x,-y,-z
1/2+x,1/2+y,-z
-x,1/2+y,z
1/2+x,-y,z
loop_
_atom_site_type_symbol
_atom_site_label
_atom_site_fract_x
_atom_site_fract_y
_atom_site_fract_z
Si Si1 0.502505 0.750000 0.500000
Si Si2 0.454787 0.207853 0.919461
Si Si3 0.788511 0.907140 0.846110
Si Si4 0.118969 0.603412 0.302908
Si Si5 0.330233 0.565621 0.291044
Si Si6 0.593525 0.498386 0.149289
Si Si7 0.539279 0.504511 0.596605
O O1 0.562451 0.624311 0.536885
O O2 0.448137 0.658556 0.438619
O O3 0.361802 0.111953 0.908934
O O4 0.546548 0.122555 0.899360
O O5 0.451641 0.345870 0.867767
O O6 0.460900 0.250000 0.000000
O O7 0.750000 0.750000 0.818734
O O8 0.842064 0.992414 0.784891
O O9 0.701708 0.003876 0.871427
O O10 0.225013 0.564000 0.315029
O O11 0.116928 0.778693 0.292261
O O12 0.079600 0.529504 0.232088
O O13 0.060927 0.539408 0.368781
O O14 0.383693 0.464738 0.345893
#
# Coordination Sequence:
#
# PCOD8205418 Si02
#       7
#     4   8   8   8   8   8   8
#     4  10  24  38  60  90 130 164 206 246 312 384
#     4  11  23  41  63  91 128 173 213 248 318 394
#     4   9  21  40  63  92 127 163 205 270 320 367
#     4  10  22  39  66  94 121 162 212 260 320 365
#     4  10  21  40  65  93 121 161 213 263 312 370
#     4  10  23  39  63  94 125 159 212 268 310 367
#     4  11  21  42  62  90 124 167 203 257 311 371
#
# _framework density 20.618839999999999
#
# number of rings (size 3 to 8) (size 9 to 14) (size 15 to 20)
#    0.000    1.846    1.538    1.385    4.308    6.462 
#    0.000    4.615    0.000    0.000    0.000    0.000 
#    0.000    0.000    0.000    0.000    0.000    0.000 
#
# Total GULP energy -644546.235005 kJ/mol
# GULP energy per Si atom -12395.119904 kJ/mol
# Density = 2.057191 g / cm^3
# Si number density = 20.618840 Si / 1000 Ang^3
#
#
#
# Elastic Constant Matrix: (Units=GPa)
#
#
# Indices 1 2 3 4 5 6 
#
# 1 98.5542 51.3399 70.8887 0.0000 0.0000 0.0000
# 2 51.3399 88.4655 52.1059 0.0000 0.0000 0.0000
# 3 70.8887 52.1059 112.1323 0.0000 0.0000 0.0000
# 4 0.0000 0.0000 0.0000 39.5563 0.0000 0.0000
# 5 0.0000 0.0000 0.0000 0.0000 -0.6069 0.0000
# 6 0.0000 0.0000 0.0000 0.0000 0.0000 26.4522
#
#
#
# Elastic Compliance Matrix: (Units=1/GPa)
#
#
# Indices 1 2 3 4 5 6 
#
# 1 0.020631 -0.005908 -0.010297 0.000000 0.000000 0.000000
# 2 -0.005908 0.017255 -0.004283 0.000000 0.000000 0.000000
# 3 -0.010297 -0.004283 0.017418 0.000000 0.000000 0.000000
# 4 0.000000 0.000000 0.000000 0.025280 0.000000 0.000000
# 5 0.000000 0.000000 0.000000 0.000000 -1.647582 0.000000
# 6 0.000000 0.000000 0.000000 0.000000 0.000000 0.037804
#
#
# Mechanical properties :
#
#
# Convention : Reuss Voigt Hill
#
# Bulk Modulus (GPa) = 69.79624 71.98011 70.88818
# Shear Modulus (GPa) = -3.37054 21.40148 9.01547
#
# Velocity S-wave (km/s) = -1.27994 3.22523 2.09331
# Velocity P-wave (km/s) = 5.63382 6.98965 6.34803
#
# Compressibility (1/GPa) = 0.01432742
#
# Stress axis : x y z
#
# Youngs Moduli (GPa) = 48.47052 57.95335 57.41065
#
# Poissons Ratio (x) = 0.34238 0.59118
# Poissons Ratio (y) = 0.28636 0.24591
# Poissons Ratio (z) = 0.49912 0.24823
#
# Static dielectric constant tensor:
#      x y z
#    x 3.717470 0.000000 0.000000 
#    y 0.000000 3.940700 0.000000 
#    z 0.000000 0.000000 3.742400 
# 
# 
# High freq. dielectric constant tensor:
#      x y z
#    x 1.797660 0.000000 0.000000 
#    y 0.000000 1.813780 0.000000 
#    z 0.000000 0.000000 1.805580 
# 
# From -- ./inp_files/30957.got.cif
#   From: 2010.03.12/outbox.cif.g09.slc.cpg/sg50_16_cif.got.tgz:30957.got - 2010.04.16 13:23:21.
