data_PCOD8205888
_publ_section_title
;
Structure prediction by ZEFSAII (Michael W. Deem and Ramdas Pophale) SiO2 
 PCOD8205888
Probable space group: P B A N
;
_chemical_formula_sum "Si O2"
_cell_formula_units_Z 58
_cell_length_a 16.003447
_cell_length_b 8.618662
_cell_length_c 18.139625
_cell_angle_alpha 90.000000
_cell_angle_beta 90.000000
_cell_angle_gamma 90.000000
_cell_volume 2501.967648
_symmetry_space_group_name_H-M "P B A N"
_symmetry_group_IT_number 50
_space_group.IT_coordinate_system_code '2'
_symmetry_cell_setting 'orthorhombic'
loop_
_space_group_symop_operation_xyz
x,y,z
1/2-x,1/2-y,z
x,1/2-y,-z
1/2-x,y,-z
-x,-y,-z
1/2+x,1/2+y,-z
-x,1/2+y,z
1/2+x,-y,z
loop_
_atom_site_type_symbol
_atom_site_label
_atom_site_fract_x
_atom_site_fract_y
_atom_site_fract_z
Si Si1 0.348257 0.425090 0.504661
Si Si2 0.410799 0.954456 0.342095
Si Si3 0.896851 0.372325 0.097302
Si Si4 0.750000 0.250000 0.000000
Si Si5 0.304772 0.884320 0.766649
Si Si6 0.183765 0.378831 0.207903
Si Si7 0.926493 0.727468 0.080819
Si Si8 0.090802 0.914990 0.359579
O O1 0.385674 0.250000 0.500000
O O2 0.250000 0.420006 0.500000
O O3 0.370947 0.495845 0.581871
O O4 0.386181 0.538450 0.442559
O O5 0.408241 0.768164 0.340721
O O6 0.364344 0.044525 0.276591
O O7 0.505114 0.007895 0.337698
O O8 0.813790 0.354433 0.047684
O O9 0.876701 0.315400 0.180470
O O10 0.923997 0.549993 0.102786
O O11 0.976413 0.273831 0.072041
O O12 0.250000 0.750000 0.729231
O O13 0.341885 0.984753 0.698413
O O14 0.245911 0.986591 0.821023
O O15 0.250000 0.250000 0.234966
O O16 0.121924 0.328192 0.142457
O O17 0.884590 0.750000 0.000000
#
# Coordination Sequence:
#
# PCOD8205888 Si02
#       8
#     8   8   8   2   8   8   8   8
#     4  11  26  45  76 109 148 196 251 314 381 460
#     4  12  27  47  74 106 151 200 254 314 384 462
#     4  12  28  48  77 110 152 200 253 320 391 469
#     4  12  28  48  78 108 150 204 260 324 392 480
#     4  12  26  47  74 109 147 199 256 314 385 458
#     4  12  28  47  76 111 151 202 257 318 384 467
#     4  12  29  49  77 112 155 200 255 321 393 467
#     4  12  27  47  73 108 150 200 252 318 383 458
#
# _framework density 23.181754999999999
#
# number of rings (size 3 to 8) (size 9 to 14) (size 15 to 20)
#    0.000    0.138    4.138    3.724    9.655    3.034 
#    0.000    0.000    0.000    0.000    0.000    0.000 
#    0.000    0.000    0.000    0.000    0.000    0.000 
#
# Total GULP energy -718794.601879 kJ/mol
# GULP energy per Si atom -12393.010377 kJ/mol
# Density = 2.312899 g / cm^3
# Si number density = 23.181755 Si / 1000 Ang^3
#
#
#
# Elastic Constant Matrix: (Units=GPa)
#
#
# Indices 1 2 3 4 5 6 
#
# 1 142.2366 63.5083 67.6540 0.0000 0.0000 0.0000
# 2 63.5083 109.6128 52.7713 0.0000 0.0000 0.0000
# 3 67.6540 52.7713 174.9175 0.0000 0.0000 0.0000
# 4 0.0000 0.0000 0.0000 34.6447 0.0000 0.0000
# 5 0.0000 0.0000 0.0000 0.0000 25.9692 0.0000
# 6 0.0000 0.0000 0.0000 0.0000 0.0000 38.6105
#
#
#
# Elastic Compliance Matrix: (Units=1/GPa)
#
#
# Indices 1 2 3 4 5 6 
#
# 1 0.010390 -0.004779 -0.002577 0.000000 0.000000 0.000000
# 2 -0.004779 0.012872 -0.002035 0.000000 0.000000 0.000000
# 3 -0.002577 -0.002035 0.007327 0.000000 0.000000 0.000000
# 4 0.000000 0.000000 0.000000 0.028864 0.000000 0.000000
# 5 0.000000 0.000000 0.000000 0.000000 0.038507 0.000000
# 6 0.000000 0.000000 0.000000 0.000000 0.000000 0.025900
#
#
# Mechanical properties :
#
#
# Convention : Reuss Voigt Hill
#
# Bulk Modulus (GPa) = 84.69145 88.29269 86.49207
# Shear Modulus (GPa) = 34.11148 36.03378 35.07263
#
# Velocity S-wave (km/s) = 3.84015 3.94687 3.89387
# Velocity P-wave (km/s) = 7.50169 7.67725 7.58998
#
# Compressibility (1/GPa) = 0.01180757
#
# Stress axis : x y z
#
# Youngs Moduli (GPa) = 96.24504 77.68960 136.47253
#
# Poissons Ratio (x) = 0.37131 0.35166
# Poissons Ratio (y) = 0.45999 0.27769
# Poissons Ratio (z) = 0.24800 0.15808
#
# Static dielectric constant tensor:
#      x y z
#    x 4.734840 0.000000 0.000000 
#    y 0.000000 4.597840 0.000000 
#    z 0.000000 0.000000 4.287950 
# 
# 
# High freq. dielectric constant tensor:
#      x y z
#    x 1.937480 0.000000 0.000000 
#    y 0.000000 1.925330 0.000000 
#    z 0.000000 0.000000 1.930350 
# 
# From -- ./inp_files/29709.got.cif
#   From: 2010.03.12/outbox.cif.g09.slc.cpg/sg50_15_cif.got.tgz:29709.got - 2010.04.16 13:23:21.
