data_PCOD8205521
_publ_section_title
;
Structure prediction by ZEFSAII (Michael W. Deem and Ramdas Pophale) SiO2 
 PCOD8205521
Probable space group: P B A N
;
_chemical_formula_sum "Si O2"
_cell_formula_units_Z 48
_cell_length_a 16.085340
_cell_length_b 16.672402
_cell_length_c 8.430750
_cell_angle_alpha 90.000000
_cell_angle_beta 90.000000
_cell_angle_gamma 90.000000
_cell_volume 2260.969114
_symmetry_space_group_name_H-M "P B A N"
_symmetry_group_IT_number 50
_space_group.IT_coordinate_system_code '2'
_symmetry_cell_setting 'orthorhombic'
loop_
_space_group_symop_operation_xyz
x,y,z
1/2-x,1/2-y,z
x,1/2-y,-z
1/2-x,y,-z
-x,-y,-z
1/2+x,1/2+y,-z
-x,1/2+y,z
1/2+x,-y,z
loop_
_atom_site_type_symbol
_atom_site_label
_atom_site_fract_x
_atom_site_fract_y
_atom_site_fract_z
Si Si1 0.846847 0.758426 0.684120
Si Si2 0.334084 0.087932 0.890190
Si Si3 0.740976 0.157053 0.183061
Si Si4 0.327507 0.969311 0.391216
Si Si5 0.918269 0.597695 0.802700
Si Si6 0.398570 0.559513 0.294910
O O1 0.750000 0.750000 0.712166
O O2 0.871222 0.750000 0.500000
O O3 0.862193 0.843933 0.765188
O O4 0.902748 0.691420 0.770015
O O5 0.337263 0.006411 0.788856
O O6 0.250000 0.100690 0.000000
O O7 0.410676 0.083503 0.010903
O O8 0.750000 0.250000 0.214460
O O9 0.810443 0.107776 0.281118
O O10 0.648010 0.140958 0.246977
O O11 0.750000 0.133389 0.000000
O O12 0.250000 0.992475 0.500000
O O13 0.402123 0.950178 0.514167
O O14 0.347281 0.047678 0.288522
O O15 0.007503 0.562748 0.759952
#
# Coordination Sequence:
#
# PCOD8205521 Si02
#       6
#     8   8   8   8   8   8
#     4  11  25  42  66  94 131 174 221 272 326 401
#     4  12  23  43  70  93 133 178 225 263 329 405
#     4  10  22  44  67  91 122 169 222 269 325 394
#     4  10  22  40  69  90 130 177 220 263 326 403
#     4  12  24  41  64 100 133 167 220 273 334 380
#     4  11  24  42  64 100 131 167 218 276 332 387
#
# _framework density 21.229835000000001
#
# number of rings (size 3 to 8) (size 9 to 14) (size 15 to 20)
#    0.000    1.000    1.667    6.000    2.333    3.000 
#   12.000    0.000    0.000    0.000    0.000    0.000 
#    0.000    0.000    0.000    0.000    0.000    0.000 
#
# Total GULP energy -594943.369333 kJ/mol
# GULP energy per Si atom -12394.653528 kJ/mol
# Density = 2.118151 g / cm^3
# Si number density = 21.229835 Si / 1000 Ang^3
#
#
#
# Elastic Constant Matrix: (Units=GPa)
#
#
# Indices 1 2 3 4 5 6 
#
# 1 67.9427 37.8554 38.8803 0.0000 0.0000 0.0000
# 2 37.8554 114.4499 57.5511 0.0000 0.0000 0.0000
# 3 38.8803 57.5511 139.9045 0.0000 0.0000 0.0000
# 4 0.0000 0.0000 0.0000 28.9549 0.0000 0.0000
# 5 0.0000 0.0000 0.0000 0.0000 25.2604 0.0000
# 6 0.0000 0.0000 0.0000 0.0000 0.0000 8.6407
#
#
#
# Elastic Compliance Matrix: (Units=1/GPa)
#
#
# Indices 1 2 3 4 5 6 
#
# 1 0.019278 -0.004643 -0.003448 0.000000 0.000000 0.000000
# 2 -0.004643 0.012134 -0.003701 0.000000 0.000000 0.000000
# 3 -0.003448 -0.003701 0.009628 0.000000 0.000000 0.000000
# 4 0.000000 0.000000 0.000000 0.034536 0.000000 0.000000
# 5 0.000000 0.000000 0.000000 0.000000 0.039588 0.000000
# 6 0.000000 0.000000 0.000000 0.000000 0.000000 0.115732
#
#
# Mechanical properties :
#
#
# Convention : Reuss Voigt Hill
#
# Bulk Modulus (GPa) = 57.28255 65.65230 61.46743
# Shear Modulus (GPa) = 19.20868 25.10521 22.15694
#
# Velocity S-wave (km/s) = 3.01125 3.44254 3.23409
# Velocity P-wave (km/s) = 6.25546 6.84055 6.55454
#
# Compressibility (1/GPa) = 0.01745732
#
# Stress axis : x y z
#
# Youngs Moduli (GPa) = 51.87267 82.41118 103.85918
#
# Poissons Ratio (x) = 0.38261 0.35807
# Poissons Ratio (y) = 0.24083 0.38441
# Poissons Ratio (z) = 0.17884 0.30503
#
# Static dielectric constant tensor:
#      x y z
#    x 3.629620 0.000000 0.000000 
#    y 0.000000 3.840430 0.000000 
#    z 0.000000 0.000000 4.475740 
# 
# 
# High freq. dielectric constant tensor:
#      x y z
#    x 1.813640 0.000000 0.000000 
#    y 0.000000 1.834810 0.000000 
#    z 0.000000 0.000000 1.860520 
# 
# From -- ./inp_files/14229.got.cif
#   From: 2010.03.12/outbox.cif.g09.slc.cpg/sg50_8_cif.got.tgz:14229.got - 2010.04.16 13:23:21.
