data_PCOD8205860
_publ_section_title
;
Structure prediction by ZEFSAII (Michael W. Deem and Ramdas Pophale) SiO2 
 PCOD8205860
Probable space group: P B A N
;
_chemical_formula_sum "Si O2"
_cell_formula_units_Z 40
_cell_length_a 9.078188
_cell_length_b 13.573068
_cell_length_c 13.130481
_cell_angle_alpha 90.000000
_cell_angle_beta 90.000000
_cell_angle_gamma 90.000000
_cell_volume 1617.922940
_symmetry_space_group_name_H-M "P B A N"
_symmetry_group_IT_number 50
_space_group.IT_coordinate_system_code '2'
_symmetry_cell_setting 'orthorhombic'
loop_
_space_group_symop_operation_xyz
x,y,z
1/2-x,1/2-y,z
x,1/2-y,-z
1/2-x,y,-z
-x,-y,-z
1/2+x,1/2+y,-z
-x,1/2+y,z
1/2+x,-y,z
loop_
_atom_site_type_symbol
_atom_site_label
_atom_site_fract_x
_atom_site_fract_y
_atom_site_fract_z
Si Si1 0.319259 0.589899 0.103326
Si Si2 0.322375 0.657578 0.695102
Si Si3 0.602053 0.782000 0.703477
Si Si4 0.161417 0.112333 0.903441
Si Si5 0.876397 0.963009 0.427211
O O1 0.276616 0.655920 0.201020
O O2 0.253393 0.483296 0.129636
O O3 0.491956 0.581227 0.078467
O O4 0.250000 0.634728 0.000000
O O5 0.250000 0.750000 0.632732
O O6 0.492146 0.689278 0.710855
O O7 0.312141 0.553896 0.638452
O O8 0.750000 0.750000 0.643522
O O9 0.657030 0.807082 0.816284
O O10 0.547074 0.880448 0.645039
O O11 0.250000 0.157511 0.000000
O O12 0.750000 0.918986 0.500000
O O13 0.000000 0.000000 0.500000
#
# Coordination Sequence:
#
# PCOD8205860 Si02
#       5
#     8   8   8   8   8
#     4  11  24  44  76 108 152 199 250 305 379 459
#     4  12  26  48  77 110 153 203 256 316 392 471
#     4  12  28  46  76 112 154 200 255 319 388 467
#     4  11  24  45  74 111 149 201 247 305 376 460
#     4  12  28  50  79 107 149 197 259 334 397 461
#
# _framework density 24.723057000000001
#
# number of rings (size 3 to 8) (size 9 to 14) (size 15 to 20)
#    0.000    0.400    4.000    4.800    5.600    5.600 
#    0.000    0.000    0.000    0.000    0.000    0.000 
#    0.000    0.000    0.000    0.000    0.000    0.000 
#
# Total GULP energy -495666.861489 kJ/mol
# GULP energy per Si atom -12391.671537 kJ/mol
# Density = 2.466679 g / cm^3
# Si number density = 24.723057 Si / 1000 Ang^3
#
#
#
# Elastic Constant Matrix: (Units=GPa)
#
#
# Indices 1 2 3 4 5 6 
#
# 1 156.7407 3.0527 19.2071 0.0000 0.0000 0.0000
# 2 3.0527 74.4693 24.3470 0.0000 0.0000 0.0000
# 3 19.2071 24.3470 110.8163 0.0000 0.0000 0.0000
# 4 0.0000 0.0000 0.0000 12.4759 0.0000 0.0000
# 5 0.0000 0.0000 0.0000 0.0000 42.4042 0.0000
# 6 0.0000 0.0000 0.0000 0.0000 0.0000 46.5565
#
#
#
# Elastic Compliance Matrix: (Units=1/GPa)
#
#
# Indices 1 2 3 4 5 6 
#
# 1 0.006519 0.000110 -0.001154 0.000000 0.000000 0.000000
# 2 0.000110 0.014469 -0.003198 0.000000 0.000000 0.000000
# 3 -0.001154 -0.003198 0.009927 0.000000 0.000000 0.000000
# 4 0.000000 0.000000 0.000000 0.080154 0.000000 0.000000
# 5 0.000000 0.000000 0.000000 0.000000 0.023583 0.000000
# 6 0.000000 0.000000 0.000000 0.000000 0.000000 0.021479
#
#
# Mechanical properties :
#
#
# Convention : Reuss Voigt Hill
#
# Bulk Modulus (GPa) = 44.58114 48.36000 46.47057
# Shear Modulus (GPa) = 29.05411 39.98195 34.51803
#
# Velocity S-wave (km/s) = 3.43181 4.02580 3.74061
# Velocity P-wave (km/s) = 5.81158 6.41970 6.12319
#
# Compressibility (1/GPa) = 0.02243101
#
# Stress axis : x y z
#
# Youngs Moduli (GPa) = 153.39191 69.11122 100.73913
#
# Poissons Ratio (x) = -0.00761 0.11627
# Poissons Ratio (y) = -0.01689 0.32217
# Poissons Ratio (z) = 0.17703 0.22103
#
# Static dielectric constant tensor:
#      x y z
#    x 5.054770 0.000000 0.000000 
#    y 0.000000 4.791830 0.000000 
#    z 0.000000 0.000000 4.411650 
# 
# 
# High freq. dielectric constant tensor:
#      x y z
#    x 2.004290 0.000000 0.000000 
#    y 0.000000 1.992490 0.000000 
#    z 0.000000 0.000000 1.977540 
# 
# From -- ./inp_files/24660.got.cif
#   From: 2010.03.12/outbox.cif.g09.slc.cpg/sg50_13_cif.got.tgz:24660.got - 2010.04.16 13:23:21.
