data_PCOD8205065
_publ_section_title
;
Structure prediction by ZEFSAII (Michael W. Deem and Ramdas Pophale) SiO2 
 PCOD8205065
Probable space group: P B A N
;
_chemical_formula_sum "Si O2"
_cell_formula_units_Z 44
_cell_length_a 9.311511
_cell_length_b 27.353626
_cell_length_c 8.788162
_cell_angle_alpha 90.000000
_cell_angle_beta 90.000000
_cell_angle_gamma 90.000000
_cell_volume 2238.376406
_symmetry_space_group_name_H-M "P B A N"
_symmetry_group_IT_number 50
_space_group.IT_coordinate_system_code '2'
_symmetry_cell_setting 'orthorhombic'
loop_
_space_group_symop_operation_xyz
x,y,z
1/2-x,1/2-y,z
x,1/2-y,-z
1/2-x,y,-z
-x,-y,-z
1/2+x,1/2+y,-z
-x,1/2+y,z
1/2+x,-y,z
loop_
_atom_site_type_symbol
_atom_site_label
_atom_site_fract_x
_atom_site_fract_y
_atom_site_fract_z
Si Si1 0.860355 0.682579 0.246257
Si Si2 0.250000 0.250000 0.000000
Si Si3 0.886830 0.085577 0.811232
Si Si4 0.074468 0.893042 0.849604
Si Si5 0.162330 0.472544 0.847901
Si Si6 0.176629 0.401984 0.338377
Si Si7 0.250000 0.250000 0.500000
O O1 0.854266 0.717487 0.101806
O O2 0.732588 0.642445 0.232938
O O3 0.852375 0.715392 0.398570
O O4 0.010175 0.653871 0.236518
O O5 0.726165 0.100031 0.763452
O O6 0.002317 0.098691 0.677996
O O7 0.887922 0.027906 0.842852
O O8 0.918209 0.114620 0.968007
O O9 0.982077 0.941737 0.826623
O O10 0.269479 0.455545 0.713590
O O11 0.250000 0.460287 0.000000
O O12 0.250000 0.390847 0.500000
#
# Coordination Sequence:
#
# PCOD8205065 Si02
#       7
#     8   2   8   8   8   8   2
#     4  10  21  39  62  94 108 152 196 249 307 368
#     4  10  20  34  68  92 108 134 204 260 296 378
#     4  11  20  34  59  90 127 164 197 259 295 344
#     4  10  20  33  59  95 119 151 206 259 301 343
#     4  11  19  35  59  87 120 167 222 245 280 347
#     4  11  23  37  57  85 127 166 203 246 299 374
#     4  10  20  42  72  80 120 146 202 242 308 386
#
# _framework density 19.657105000000001
#
# number of rings (size 3 to 8) (size 9 to 14) (size 15 to 20)
#    0.000    1.455    4.545    2.727    2.545    0.727 
#    0.000    3.636    0.000   17.455    0.000    0.000 
#    0.000    0.000    0.000    0.000    0.000    0.000 
#
# Total GULP energy -545279.245729 kJ/mol
# GULP energy per Si atom -12392.710130 kJ/mol
# Density = 1.961236 g / cm^3
# Si number density = 19.657105 Si / 1000 Ang^3
#
#
#
# Elastic Constant Matrix: (Units=GPa)
#
#
# Indices 1 2 3 4 5 6 
#
# 1 178.5461 53.5403 55.6427 0.0000 0.0000 0.0000
# 2 53.5403 106.2051 46.2286 0.0000 0.0000 0.0000
# 3 55.6427 46.2286 88.4703 0.0000 0.0000 0.0000
# 4 0.0000 0.0000 0.0000 6.5776 0.0000 0.0000
# 5 0.0000 0.0000 0.0000 0.0000 29.8432 0.0000
# 6 0.0000 0.0000 0.0000 0.0000 0.0000 -1.4214
#
#
#
# Elastic Compliance Matrix: (Units=1/GPa)
#
#
# Indices 1 2 3 4 5 6 
#
# 1 0.007339 -0.002188 -0.003472 0.000000 0.000000 0.000000
# 2 -0.002188 0.012840 -0.005333 0.000000 0.000000 0.000000
# 3 -0.003472 -0.005333 0.016274 0.000000 0.000000 0.000000
# 4 0.000000 0.000000 0.000000 0.152031 0.000000 0.000000
# 5 0.000000 0.000000 0.000000 0.000000 0.033508 0.000000
# 6 0.000000 0.000000 0.000000 0.000000 0.000000 -0.703507
#
#
# Mechanical properties :
#
#
# Convention : Reuss Voigt Hill
#
# Bulk Modulus (GPa) = 69.12964 76.00497 72.56730
# Shear Modulus (GPa) = -10.99615 21.52053 5.26219
#
# Velocity S-wave (km/s) = -2.36773 3.31236 1.63793
# Velocity P-wave (km/s) = 5.26966 7.30605 6.36976
#
# Compressibility (1/GPa) = 0.01446558
#
# Stress axis : x y z
#
# Youngs Moduli (GPa) = 136.25505 77.87957 61.44801
#
# Poissons Ratio (x) = 0.17043 0.21337
# Poissons Ratio (y) = 0.29818 0.32771
# Poissons Ratio (z) = 0.47314 0.41534
#
# Static dielectric constant tensor:
#      x y z
#    x 3.769440 0.000000 0.000000 
#    y 0.000000 3.655180 0.000000 
#    z 0.000000 0.000000 3.507260 
# 
# 
# High freq. dielectric constant tensor:
#      x y z
#    x 1.762470 0.000000 0.000000 
#    y 0.000000 1.763210 0.000000 
#    z 0.000000 0.000000 1.747860 
# 
# From -- ./inp_files/10011.got.cif
#   From: 2010.03.12/outbox.cif.g09.slc.cpg/sg50_6_cif.got.tgz:10011.got - 2010.04.16 13:23:21.
