data_PCOD8205089
_publ_section_title
;
Structure prediction by ZEFSAII (Michael W. Deem and Ramdas Pophale) SiO2 
 PCOD8205089
Probable space group: P B A N
;
_chemical_formula_sum "Si O2"
_cell_formula_units_Z 64
_cell_length_a 11.672096
_cell_length_b 31.980931
_cell_length_c 8.591613
_cell_angle_alpha 90.000000
_cell_angle_beta 90.000000
_cell_angle_gamma 90.000000
_cell_volume 3207.115935
_symmetry_space_group_name_H-M "P B A N"
_symmetry_group_IT_number 50
_space_group.IT_coordinate_system_code '2'
_symmetry_cell_setting 'orthorhombic'
loop_
_space_group_symop_operation_xyz
x,y,z
1/2-x,1/2-y,z
x,1/2-y,-z
1/2-x,y,-z
-x,-y,-z
1/2+x,1/2+y,-z
-x,1/2+y,z
1/2+x,-y,z
loop_
_atom_site_type_symbol
_atom_site_label
_atom_site_fract_x
_atom_site_fract_y
_atom_site_fract_z
Si Si1 0.516566 0.921240 0.794611
Si Si2 0.499376 0.168763 0.823997
Si Si3 0.537186 0.172573 0.183703
Si Si4 0.231601 0.032571 0.681947
Si Si5 0.136020 0.089307 0.098777
Si Si6 0.878549 0.751118 0.185213
Si Si7 0.274994 0.942568 0.682109
Si Si8 0.267729 0.648010 0.682276
O O1 0.510868 0.871839 0.756915
O O2 0.620841 0.939743 0.699850
O O3 0.408198 0.946094 0.728729
O O4 0.538613 0.927913 0.979860
O O5 0.411768 0.129925 0.812168
O O6 0.436670 0.209003 0.754811
O O7 0.608173 0.165952 0.713164
O O8 0.543642 0.174826 0.998416
O O9 0.452229 0.208974 0.245657
O O10 0.667795 0.177124 0.244600
O O11 0.250000 0.029497 0.500000
O O12 0.337574 0.054008 0.773062
O O13 0.216354 0.984999 0.748250
O O14 0.250000 0.101577 0.000000
O O15 0.750000 0.750000 0.254254
O O16 0.873409 0.750000 0.000000
O O17 0.250000 0.940025 0.500000
O O18 0.231603 0.899038 0.757822
O O19 0.250000 0.645564 0.500000
#
# Coordination Sequence:
#
# PCOD8205089 Si02
#       8
#     8   8   8   8   8   8   8   8
#     4   9  19  36  55  77 112 151 177 231 292 325
#     4  10  20  34  60  87 110 144 187 232 275 329
#     4   9  19  37  58  80 115 145 183 230 275 333
#     4  10  21  34  54  80 107 145 192 235 279 336
#     4   9  20  35  55  83 117 147 182 232 288 341
#     4   9  19  32  59  89 109 142 185 230 274 327
#     4   9  20  36  55  78 106 146 194 233 272 335
#     4  10  21  38  58  80 110 151 188 225 281 332
#
# _framework density 19.955625000000001
#
# number of rings (size 3 to 8) (size 9 to 14) (size 15 to 20)
#    0.000    2.625    0.000    0.375    7.000    7.000 
#    0.000   13.125    0.000    0.750    0.000    0.000 
#    0.000    0.000    0.000    0.000    0.000    0.000 
#
# Total GULP energy -793176.044348 kJ/mol
# GULP energy per Si atom -12393.375693 kJ/mol
# Density = 1.991020 g / cm^3
# Si number density = 19.955625 Si / 1000 Ang^3
#
#
#
# Elastic Constant Matrix: (Units=GPa)
#
#
# Indices 1 2 3 4 5 6 
#
# 1 134.5591 71.4713 37.4897 0.0000 0.0000 0.0000
# 2 71.4713 128.0840 31.2132 0.0000 0.0000 0.0000
# 3 37.4897 31.2132 48.5001 0.0000 0.0000 0.0000
# 4 0.0000 0.0000 0.0000 20.1609 0.0000 0.0000
# 5 0.0000 0.0000 0.0000 0.0000 29.2594 0.0000
# 6 0.0000 0.0000 0.0000 0.0000 0.0000 20.8916
#
#
#
# Elastic Compliance Matrix: (Units=1/GPa)
#
#
# Indices 1 2 3 4 5 6 
#
# 1 0.011789 -0.005168 -0.005787 0.000000 0.000000 0.000000
# 2 -0.005168 0.011525 -0.003422 0.000000 0.000000 0.000000
# 3 -0.005787 -0.003422 0.027294 0.000000 0.000000 0.000000
# 4 0.000000 0.000000 0.000000 0.049601 0.000000 0.000000
# 5 0.000000 0.000000 0.000000 0.000000 0.034177 0.000000
# 6 0.000000 0.000000 0.000000 0.000000 0.000000 0.047866
#
#
# Mechanical properties :
#
#
# Convention : Reuss Voigt Hill
#
# Bulk Modulus (GPa) = 45.75842 65.72131 55.73986
# Shear Modulus (GPa) = 22.90517 25.46030 24.18274
#
# Velocity S-wave (km/s) = 3.39160 3.57577 3.48491
# Velocity P-wave (km/s) = 6.19009 7.07484 6.64720
#
# Compressibility (1/GPa) = 0.02185390
#
# Stress axis : x y z
#
# Youngs Moduli (GPa) = 84.82518 86.76618 36.63806
#
# Poissons Ratio (x) = 0.44842 0.21201
# Poissons Ratio (y) = 0.43839 0.12539
# Poissons Ratio (z) = 0.49085 0.29695
#
# Static dielectric constant tensor:
#      x y z
#    x 3.729700 0.000000 0.000000 
#    y 0.000000 3.997840 0.000000 
#    z 0.000000 0.000000 3.333180 
# 
# 
# High freq. dielectric constant tensor:
#      x y z
#    x 1.781630 0.000000 0.000000 
#    y 0.000000 1.785860 0.000000 
#    z 0.000000 0.000000 1.749880 
# 
# From -- ./inp_files/11854.got.cif
#   From: 2010.03.12/outbox.cif.g09.slc.cpg/sg50_6_cif.got.tgz:11854.got - 2010.04.16 13:23:21.
