data_PCOD8205267
_publ_section_title
;
Structure prediction by ZEFSAII (Michael W. Deem and Ramdas Pophale) SiO2 
 PCOD8205267
Probable space group: P B A N
;
_chemical_formula_sum "Si O2"
_cell_formula_units_Z 52
_cell_length_a 17.319473
_cell_length_b 17.916345
_cell_length_c 8.387476
_cell_angle_alpha 90.000000
_cell_angle_beta 90.000000
_cell_angle_gamma 90.000000
_cell_volume 2602.647671
_symmetry_space_group_name_H-M "P B A N"
_symmetry_group_IT_number 50
_space_group.IT_coordinate_system_code '2'
_symmetry_cell_setting 'orthorhombic'
loop_
_space_group_symop_operation_xyz
x,y,z
1/2-x,1/2-y,z
x,1/2-y,-z
1/2-x,y,-z
-x,-y,-z
1/2+x,1/2+y,-z
-x,1/2+y,z
1/2+x,-y,z
loop_
_atom_site_type_symbol
_atom_site_label
_atom_site_fract_x
_atom_site_fract_y
_atom_site_fract_z
Si Si1 0.997016 0.239347 0.685770
Si Si2 0.858039 0.822208 0.742452
Si Si3 0.586077 0.108282 0.186821
Si Si4 0.470279 0.036943 0.668458
Si Si5 0.250000 0.250000 0.500000
Si Si6 0.745079 0.334741 0.688418
Si Si7 0.598428 0.367978 0.182280
Si Si8 0.250000 0.250000 0.000000
O O1 0.007408 0.250000 0.500000
O O2 0.980398 0.153551 0.721156
O O3 0.924908 0.287154 0.749543
O O4 0.076031 0.260732 0.772728
O O5 0.903247 0.898672 0.686882
O O6 0.803550 0.806120 0.595306
O O7 0.802862 0.809649 0.898254
O O8 0.667884 0.124151 0.263813
O O9 0.564527 0.023066 0.211228
O O10 0.586079 0.131365 0.004652
O O11 0.549526 0.067160 0.738071
O O12 0.500000 0.000000 0.500000
O O13 0.750000 0.250000 0.752072
O O14 0.750000 0.337143 0.500000
O O15 0.813072 0.382003 0.770962
#
# Coordination Sequence:
#
# PCOD8205267 Si02
#       8
#     8   8   8   8   2   8   8   2
#     4  11  21  38  68  95 128 175 227 273 326 416
#     4  10  23  43  71  99 132 171 232 280 352 393
#     4  12  24  40  65  99 137 172 220 275 344 405
#     4  11  25  46  66  99 139 182 225 273 350 425
#     4  10  20  46  68 102 120 176 234 290 320 390
#     4  11  22  40  66  96 131 173 222 271 326 400
#     4  11  24  41  63  95 132 174 224 276 332 396
#     4  10  24  46  72  98 136 172 230 306 332 414
#
# _framework density 19.979654
#
# number of rings (size 3 to 8) (size 9 to 14) (size 15 to 20)
#    0.000    1.077    2.308    5.077    4.308    0.615 
#    6.923    0.000    0.000    0.000    0.000    0.000 
#    0.000    0.000    0.000    0.000    0.000    0.000 
#
# Total GULP energy -644234.222190 kJ/mol
# GULP energy per Si atom -12389.119658 kJ/mol
# Density = 1.993418 g / cm^3
# Si number density = 19.979654 Si / 1000 Ang^3
#
#
#
# Elastic Constant Matrix: (Units=GPa)
#
#
# Indices 1 2 3 4 5 6 
#
# 1 124.1999 63.4544 29.9094 0.0000 0.0000 0.0000
# 2 63.4544 112.8151 27.9597 0.0000 0.0000 0.0000
# 3 29.9094 27.9597 92.7903 0.0000 0.0000 0.0000
# 4 0.0000 0.0000 0.0000 23.6290 0.0000 0.0000
# 5 0.0000 0.0000 0.0000 0.0000 15.5606 0.0000
# 6 0.0000 0.0000 0.0000 0.0000 0.0000 19.4873
#
#
#
# Elastic Compliance Matrix: (Units=1/GPa)
#
#
# Indices 1 2 3 4 5 6 
#
# 1 0.011605 -0.006053 -0.001917 0.000000 0.000000 0.000000
# 2 -0.006053 0.012736 -0.001887 0.000000 0.000000 0.000000
# 3 -0.001917 -0.001887 0.011963 0.000000 0.000000 0.000000
# 4 0.000000 0.000000 0.000000 0.042321 0.000000 0.000000
# 5 0.000000 0.000000 0.000000 0.000000 0.064265 0.000000
# 6 0.000000 0.000000 0.000000 0.000000 0.000000 0.051315
#
#
# Mechanical properties :
#
#
# Convention : Reuss Voigt Hill
#
# Bulk Modulus (GPa) = 60.26898 63.60581 61.93739
# Shear Modulus (GPa) = 22.78428 25.63416 24.20922
#
# Velocity S-wave (km/s) = 3.38061 3.58580 3.48472
# Velocity P-wave (km/s) = 6.74305 7.00346 6.87448
#
# Compressibility (1/GPa) = 0.01659228
#
# Stress axis : x y z
#
# Youngs Moduli (GPa) = 86.16628 78.51766 83.58808
#
# Poissons Ratio (x) = 0.47523 0.16024
# Poissons Ratio (y) = 0.52152 0.15771
# Poissons Ratio (z) = 0.16519 0.14814
#
# Static dielectric constant tensor:
#      x y z
#    x 4.108610 0.000000 0.000000 
#    y 0.000000 3.624320 0.000000 
#    z 0.000000 0.000000 4.752320 
# 
# 
# High freq. dielectric constant tensor:
#      x y z
#    x 1.800850 0.000000 0.000000 
#    y 0.000000 1.767990 0.000000 
#    z 0.000000 0.000000 1.791810 
# 
# From -- ./inp_files/14461.got.cif
#   From: 2010.03.12/outbox.cif.g09.slc.cpg/sg50_8_cif.got.tgz:14461.got - 2010.04.16 13:23:21.
