data_PCOD8205586
_publ_section_title
;
Structure prediction by ZEFSAII (Michael W. Deem and Ramdas Pophale) SiO2 
 PCOD8205586
Probable space group: P B A N
;
_chemical_formula_sum "Si O2"
_cell_formula_units_Z 48
_cell_length_a 12.936105
_cell_length_b 12.579659
_cell_length_c 14.184184
_cell_angle_alpha 90.000000
_cell_angle_beta 90.000000
_cell_angle_gamma 90.000000
_cell_volume 2308.217648
_symmetry_space_group_name_H-M "P B A N"
_symmetry_group_IT_number 50
_space_group.IT_coordinate_system_code '2'
_symmetry_cell_setting 'orthorhombic'
loop_
_space_group_symop_operation_xyz
x,y,z
1/2-x,1/2-y,z
x,1/2-y,-z
1/2-x,y,-z
-x,-y,-z
1/2+x,1/2+y,-z
-x,1/2+y,z
1/2+x,-y,z
loop_
_atom_site_type_symbol
_atom_site_label
_atom_site_fract_x
_atom_site_fract_y
_atom_site_fract_z
Si Si1 0.427317 0.266124 0.610197
Si Si2 0.368060 0.481876 0.689269
Si Si3 0.481851 0.023203 0.854680
Si Si4 0.646923 0.207919 0.606799
Si Si5 0.808933 0.647346 0.235825
Si Si6 0.128398 0.875271 0.005312
O O1 0.426494 0.250000 0.500000
O O2 0.387210 0.384065 0.621260
O O3 0.542988 0.254081 0.653290
O O4 0.354962 0.181221 0.662602
O O5 0.468016 0.492352 0.755418
O O6 0.352737 0.580982 0.619391
O O7 0.265772 0.454650 0.750440
O O8 0.397233 0.115366 0.838133
O O9 0.574133 0.067911 0.917793
O O10 0.424619 0.921017 0.899893
O O11 0.750000 0.250000 0.660258
O O12 0.651517 0.250000 0.500000
O O13 0.750000 0.750000 0.191977
O O14 0.108977 0.750000 0.000000
O O15 0.250000 0.902275 0.000000
#
# Coordination Sequence:
#
# PCOD8205586 Si02
#       6
#     8   8   8   8   8   8
#     4  10  23  42  63  91 132 177 225 269 320 379
#     4  11  24  40  67  94 131 177 218 277 322 385
#     4  11  23  44  68  99 133 167 215 262 336 387
#     4  10  23  39  59  94 129 174 226 269 324 378
#     4  10  23  41  65 100 131 175 228 266 324 387
#     4  10  24  45  71  99 130 166 206 265 329 405
#
# _framework density 20.795266999999999
#
# number of rings (size 3 to 8) (size 9 to 14) (size 15 to 20)
#    0.000    1.667    1.667    1.000    7.000    8.333 
#    3.000    0.000    0.000    0.000    0.000    0.000 
#    0.000    0.000    0.000    0.000    0.000    0.000 
#
# Total GULP energy -595036.425841 kJ/mol
# GULP energy per Si atom -12396.592205 kJ/mol
# Density = 2.074794 g / cm^3
# Si number density = 20.795267 Si / 1000 Ang^3
#
#
#
# Elastic Constant Matrix: (Units=GPa)
#
#
# Indices 1 2 3 4 5 6 
#
# 1 148.2972 64.2537 35.7945 0.0000 0.0000 0.0000
# 2 64.2537 122.6760 46.9144 0.0000 0.0000 0.0000
# 3 35.7945 46.9144 75.9036 0.0000 0.0000 0.0000
# 4 0.0000 0.0000 0.0000 22.9346 0.0000 0.0000
# 5 0.0000 0.0000 0.0000 0.0000 24.1378 0.0000
# 6 0.0000 0.0000 0.0000 0.0000 0.0000 34.6868
#
#
#
# Elastic Compliance Matrix: (Units=1/GPa)
#
#
# Indices 1 2 3 4 5 6 
#
# 1 0.008891 -0.003999 -0.001721 0.000000 0.000000 0.000000
# 2 -0.003999 0.012473 -0.005824 0.000000 0.000000 0.000000
# 3 -0.001721 -0.005824 0.017586 0.000000 0.000000 0.000000
# 4 0.000000 0.000000 0.000000 0.043602 0.000000 0.000000
# 5 0.000000 0.000000 0.000000 0.000000 0.041429 0.000000
# 6 0.000000 0.000000 0.000000 0.000000 0.000000 0.028829
#
#
# Mechanical properties :
#
#
# Convention : Reuss Voigt Hill
#
# Bulk Modulus (GPa) = 63.04097 71.20023 67.12060
# Shear Modulus (GPa) = 27.59604 29.67948 28.63776
#
# Velocity S-wave (km/s) = 3.64680 3.78196 3.71499
# Velocity P-wave (km/s) = 6.93636 7.30643 7.12380
#
# Compressibility (1/GPa) = 0.01586270
#
# Stress axis : x y z
#
# Youngs Moduli (GPa) = 112.47045 80.17316 56.86379
#
# Poissons Ratio (x) = 0.32058 0.09789
# Poissons Ratio (y) = 0.44973 0.33115
# Poissons Ratio (z) = 0.19361 0.46690
#
# Static dielectric constant tensor:
#      x y z
#    x 4.591410 0.000000 0.000000 
#    y 0.000000 3.823310 0.000000 
#    z 0.000000 0.000000 3.451970 
# 
# 
# High freq. dielectric constant tensor:
#      x y z
#    x 1.846030 0.000000 0.000000 
#    y 0.000000 1.816280 0.000000 
#    z 0.000000 0.000000 1.790450 
# 
# From -- ./inp_files/26424.got.cif
#   From: 2010.03.12/outbox.cif.g09.slc.cpg/sg50_14_cif.got.tgz:26424.got - 2010.04.16 13:23:21.
