data_PCOD8205973
_publ_section_title
;
Structure prediction by ZEFSAII (Michael W. Deem and Ramdas Pophale) SiO2 
 PCOD8205973
Probable space group: P M M A
;
_chemical_formula_sum "Si O2"
_cell_formula_units_Z 40
_cell_length_a 8.584134
_cell_length_b 26.199757
_cell_length_c 9.235735
_cell_angle_alpha 90.000000
_cell_angle_beta 90.000000
_cell_angle_gamma 90.000000
_cell_volume 2077.137350
_symmetry_space_group_name_H-M "P M M A"
_symmetry_group_IT_number 51
_symmetry_cell_setting 'orthorhombic'
loop_
_space_group_symop_operation_xyz
x,y,z
1/2-x,-y,z
1/2+x,-y,-z
-x,y,-z
-x,-y,-z
1/2+x,y,-z
1/2-x,y,z
x,-y,z
loop_
_atom_site_type_symbol
_atom_site_label
_atom_site_fract_x
_atom_site_fract_y
_atom_site_fract_z
Si Si1 0.433741 0.500000 0.660965
Si Si2 0.431951 0.396952 0.341791
Si Si3 0.933696 0.206291 0.340489
Si Si4 0.433352 0.297747 0.158955
Si Si5 0.065476 0.897643 0.338586
Si Si6 0.434353 0.000000 0.662133
O O1 0.250000 0.500000 0.662708
O O2 0.500000 0.500000 0.500000
O O3 0.495831 0.447795 0.734003
O O4 0.500000 0.386017 0.500000
O O5 0.250000 0.405377 0.359004
O O6 0.474132 0.349862 0.240329
O O7 0.750000 0.200131 0.352613
O O8 0.000000 0.216844 0.500000
O O9 0.977297 0.252448 0.237564
O O10 0.005162 0.154872 0.266834
O O11 0.250000 0.286401 0.157682
O O12 0.500000 0.303064 0.000000
O O13 0.250000 0.899893 0.337382
O O14 0.000000 0.896593 0.500000
O O15 0.997700 0.948490 0.259038
O O16 0.500000 0.000000 0.500000
O O17 0.250000 0.000000 0.661085
#
# Coordination Sequence:
#
# PCOD8205973 Si02
#       6
#     4   8   8   8   8   4
#     4  10  18  30  53  82 111 140 174 214 260 308
#     4  10  20  35  57  83 111 141 177 217 262 312
#     4  11  21  35  55  79 107 140 179 224 269 319
#     4  11  24  40  57  79 107 142 180 223 271 322
#     4  10  17  27  43  67  99 134 172 214 262 316
#     4  10  16  24  38  62  97 134 169 208 261 318
#
# _framework density 19.257272
#
# number of rings (size 3 to 8) (size 9 to 14) (size 15 to 20)
#    0.000    1.600    0.000   10.800    0.000    4.800 
#    0.000    0.500    0.000    0.000    0.000    0.700 
#    0.000    0.000    0.000    0.000    0.000    0.000 
#
# Total GULP energy -495887.828954 kJ/mol
# GULP energy per Si atom -12397.195724 kJ/mol
# Density = 1.921344 g / cm^3
# Si number density = 19.257272 Si / 1000 Ang^3
#
#
#
# Elastic Constant Matrix: (Units=GPa)
#
#
# Indices 1 2 3 4 5 6 
#
# 1 180.1456 90.4371 36.3262 0.0000 0.0000 0.0000
# 2 90.4371 187.6144 51.6784 0.0000 0.0000 0.0000
# 3 36.3262 51.6784 64.5028 0.0000 0.0000 0.0000
# 4 0.0000 0.0000 0.0000 -3.8463 0.0000 0.0000
# 5 0.0000 0.0000 0.0000 0.0000 21.4903 0.0000
# 6 0.0000 0.0000 0.0000 0.0000 0.0000 37.3601
#
#
#
# Elastic Compliance Matrix: (Units=1/GPa)
#
#
# Indices 1 2 3 4 5 6 
#
# 1 0.007465 -0.003131 -0.001695 0.000000 0.000000 0.000000
# 2 -0.003131 0.008153 -0.004769 0.000000 0.000000 0.000000
# 3 -0.001695 -0.004769 0.020278 0.000000 0.000000 0.000000
# 4 0.000000 0.000000 0.000000 -0.259991 0.000000 0.000000
# 5 0.000000 0.000000 0.000000 0.000000 0.046533 0.000000
# 6 0.000000 0.000000 0.000000 0.000000 0.000000 0.026767
#
#
# Mechanical properties :
#
#
# Convention : Reuss Voigt Hill
#
# Bulk Modulus (GPa) = 59.85874 87.68290 73.77082
# Shear Modulus (GPa) = -39.67110 27.92223 -5.87444
#
# Velocity S-wave (km/s) = -4.54371 3.81196 -1.74846
# Velocity P-wave (km/s) = 1.90371 8.06263 5.85790
#
# Compressibility (1/GPa) = 0.01670600
#
# Stress axis : x y z
#
# Youngs Moduli (GPa) = 133.95928 122.65368 49.31374
#
# Poissons Ratio (x) = 0.38408 0.08360
# Poissons Ratio (y) = 0.41949 0.23515
# Poissons Ratio (z) = 0.22709 0.58488
#
# Static dielectric constant tensor:
#      x y z
#    x 3.691480 0.000000 0.000000 
#    y 0.000000 4.959880 0.000000 
#    z 0.000000 0.000000 3.009220 
# 
# 
# High freq. dielectric constant tensor:
#      x y z
#    x 1.773830 0.000000 0.000000 
#    y 0.000000 1.786380 0.000000 
#    z 0.000000 0.000000 1.681780 
# 
# From -- ./inp_files/5545.got.cif
#   From: 2010.03.12/outbox.cif.g09.slc.cpg/sg51_3_cif.got.tgz:5545.got - 2010.04.16 13:43:02.
