data_PCOD8205883
_publ_section_title
;
Structure prediction by ZEFSAII (Michael W. Deem and Ramdas Pophale) SiO2 
 PCOD8205883
Probable space group: P B A N
;
_chemical_formula_sum "Si O2"
_cell_formula_units_Z 40
_cell_length_a 8.811400
_cell_length_b 24.014370
_cell_length_c 8.385232
_cell_angle_alpha 90.000000
_cell_angle_beta 90.000000
_cell_angle_gamma 90.000000
_cell_volume 1774.316934
_symmetry_space_group_name_H-M "P B A N"
_symmetry_group_IT_number 50
_space_group.IT_coordinate_system_code '2'
_symmetry_cell_setting 'orthorhombic'
loop_
_space_group_symop_operation_xyz
x,y,z
1/2-x,1/2-y,z
x,1/2-y,-z
1/2-x,y,-z
-x,-y,-z
1/2+x,1/2+y,-z
-x,1/2+y,z
1/2+x,-y,z
loop_
_atom_site_type_symbol
_atom_site_label
_atom_site_fract_x
_atom_site_fract_y
_atom_site_fract_z
Si Si1 0.559455 0.361887 0.161841
Si Si2 0.613286 0.965775 0.110132
Si Si3 0.587449 0.357282 0.792137
Si Si4 0.608744 0.039244 0.396831
Si Si5 0.578736 0.747456 0.688198
O O1 0.470241 0.417451 0.213315
O O2 0.731552 0.361372 0.218628
O O3 0.484995 0.309167 0.242663
O O4 0.535794 0.365004 0.972435
O O5 0.678751 0.006714 0.245125
O O6 0.750000 0.942849 0.000000
O O7 0.500000 0.000000 0.000000
O O8 0.522355 0.405554 0.673768
O O9 0.527500 0.297273 0.744368
O O10 0.750000 0.060156 0.500000
O O11 0.500000 0.000000 0.500000
O O12 0.750000 0.750000 0.753910
O O13 0.576772 0.750000 0.500000
#
# Coordination Sequence:
#
# PCOD8205883 Si02
#       5
#     8   8   8   8   8
#     4  11  25  46  75 102 139 190 245 298 355 442
#     4  12  25  46  73 107 147 193 247 305 369 447
#     4  11  25  47  72 102 141 188 244 295 361 441
#     4  12  27  44  70 108 147 191 241 304 372 439
#     4  11  28  47  70 106 144 184 236 301 372 436
#
# _framework density 22.543886000000001
#
# number of rings (size 3 to 8) (size 9 to 14) (size 15 to 20)
#    0.000    0.600    2.000    4.800    8.400    3.200 
#    0.000    0.000    0.000    0.000    0.000    0.000 
#    0.000    0.000    0.000    0.000    0.000    0.000 
#
# Total GULP energy -495964.459563 kJ/mol
# GULP energy per Si atom -12399.111489 kJ/mol
# Density = 2.249257 g / cm^3
# Si number density = 22.543886 Si / 1000 Ang^3
#
#
#
# Elastic Constant Matrix: (Units=GPa)
#
#
# Indices 1 2 3 4 5 6 
#
# 1 83.7459 39.6606 27.1891 0.0000 0.0000 0.0000
# 2 39.6606 176.0640 47.0542 0.0000 0.0000 0.0000
# 3 27.1891 47.0542 102.1290 0.0000 0.0000 0.0000
# 4 0.0000 0.0000 0.0000 55.3865 0.0000 0.0000
# 5 0.0000 0.0000 0.0000 0.0000 37.0254 0.0000
# 6 0.0000 0.0000 0.0000 0.0000 0.0000 42.8075
#
#
#
# Elastic Compliance Matrix: (Units=1/GPa)
#
#
# Indices 1 2 3 4 5 6 
#
# 1 0.013939 -0.002450 -0.002582 0.000000 0.000000 0.000000
# 2 -0.002450 0.006908 -0.002530 0.000000 0.000000 0.000000
# 3 -0.002582 -0.002530 0.011645 0.000000 0.000000 0.000000
# 4 0.000000 0.000000 0.000000 0.018055 0.000000 0.000000
# 5 0.000000 0.000000 0.000000 0.000000 0.027008 0.000000
# 6 0.000000 0.000000 0.000000 0.000000 0.000000 0.023360
#
#
# Mechanical properties :
#
#
# Convention : Reuss Voigt Hill
#
# Bulk Modulus (GPa) = 57.58058 65.52740 61.55399
# Shear Modulus (GPa) = 41.04067 43.57955 42.31011
#
# Velocity S-wave (km/s) = 4.27134 4.40147 4.33689
# Velocity P-wave (km/s) = 7.06560 7.41352 7.24165
#
# Compressibility (1/GPa) = 0.01736697
#
# Stress axis : x y z
#
# Youngs Moduli (GPa) = 71.73868 144.76150 85.87474
#
# Poissons Ratio (x) = 0.35465 0.22175
# Poissons Ratio (y) = 0.17575 0.21730
# Poissons Ratio (z) = 0.18525 0.36632
#
# Static dielectric constant tensor:
#      x y z
#    x 2.921880 0.000000 0.000000 
#    y 0.000000 4.293710 0.000000 
#    z 0.000000 0.000000 4.436180 
# 
# 
# High freq. dielectric constant tensor:
#      x y z
#    x 1.886000 0.000000 0.000000 
#    y 0.000000 1.903660 0.000000 
#    z 0.000000 0.000000 1.906140 
# 
# From -- ./inp_files/9528.got.cif
#   From: 2010.03.12/outbox.cif.g09.slc.cpg/sg50_5_cif.got.tgz:9528.got - 2010.04.16 13:23:21.
