data_PCOD8205788
_publ_section_title
;
Structure prediction by ZEFSAII (Michael W. Deem and Ramdas Pophale) SiO2 
 PCOD8205788
Probable space group: P B A N
;
_chemical_formula_sum "Si O2"
_cell_formula_units_Z 64
_cell_length_a 13.781502
_cell_length_b 17.991586
_cell_length_c 12.826325
_cell_angle_alpha 90.000000
_cell_angle_beta 90.000000
_cell_angle_gamma 90.000000
_cell_volume 3180.301116
_symmetry_space_group_name_H-M "P B A N"
_symmetry_group_IT_number 50
_space_group.IT_coordinate_system_code '2'
_symmetry_cell_setting 'orthorhombic'
loop_
_space_group_symop_operation_xyz
x,y,z
1/2-x,1/2-y,z
x,1/2-y,-z
1/2-x,y,-z
-x,-y,-z
1/2+x,1/2+y,-z
-x,1/2+y,z
1/2+x,-y,z
loop_
_atom_site_type_symbol
_atom_site_label
_atom_site_fract_x
_atom_site_fract_y
_atom_site_fract_z
Si Si1 0.375434 0.947692 0.750737
Si Si2 0.655118 0.051316 0.762978
Si Si3 0.963769 0.180853 0.140438
Si Si4 0.141687 0.381585 0.758231
Si Si5 0.361056 0.329475 0.477093
Si Si6 0.314044 0.087548 0.105252
Si Si7 0.463253 0.044097 0.402076
Si Si8 0.524964 0.155035 0.095421
O O1 0.263900 0.930265 0.724261
O O2 0.444458 0.920495 0.657219
O O3 0.409246 0.909326 0.856949
O O4 0.395249 0.034430 0.766483
O O5 0.605003 0.130401 0.786765
O O6 0.658356 0.997491 0.864559
O O7 0.599766 0.009943 0.670263
O O8 0.076222 0.165900 0.163936
O O9 0.950312 0.269094 0.158103
O O10 0.939595 0.161375 0.022162
O O11 0.124830 0.353481 0.641735
O O12 0.252373 0.376560 0.799121
O O13 0.412593 0.250000 0.500000
O O14 0.250000 0.320714 0.500000
O O15 0.399170 0.388126 0.559963
O O16 0.410369 0.136666 0.096514
O O17 0.250000 0.087503 0.000000
O O18 0.500000 0.000000 0.500000
#
# Coordination Sequence:
#
# PCOD8205788 Si02
#       8
#     8   8   8   8   8   8   8   8
#     4  11  24  42  67  95 125 174 222 280 324 396
#     4  11  25  42  67  98 127 175 231 280 328 401
#     4  11  24  42  62  93 138 173 221 274 334 408
#     4  11  22  41  63  98 130 167 224 276 332 398
#     4  11  25  40  65  98 133 174 213 275 345 406
#     4  11  22  39  68 101 135 176 220 281 336 403
#     4  12  23  44  69  98 132 173 222 284 337 395
#     4  11  25  41  63  96 135 183 214 271 344 405
#
# _framework density 20.123881000000001
#
# number of rings (size 3 to 8) (size 9 to 14) (size 15 to 20)
#    0.000    0.875    5.000    1.500    5.250    3.000 
#    0.000    1.250    0.000    0.000    0.000    0.000 
#    0.000    0.000    0.000    0.000    0.000    0.000 
#
# Total GULP energy -793599.443711 kJ/mol
# GULP energy per Si atom -12399.991308 kJ/mol
# Density = 2.007808 g / cm^3
# Si number density = 20.123881 Si / 1000 Ang^3
#
#
#
# Elastic Constant Matrix: (Units=GPa)
#
#
# Indices 1 2 3 4 5 6 
#
# 1 110.5941 45.5756 43.6523 0.0000 0.0000 0.0000
# 2 45.5756 135.1586 61.5983 0.0000 0.0000 0.0000
# 3 43.6523 61.5983 103.6190 0.0000 0.0000 0.0000
# 4 0.0000 0.0000 0.0000 38.6617 0.0000 0.0000
# 5 0.0000 0.0000 0.0000 0.0000 33.4890 0.0000
# 6 0.0000 0.0000 0.0000 0.0000 0.0000 26.3492
#
#
#
# Elastic Compliance Matrix: (Units=1/GPa)
#
#
# Indices 1 2 3 4 5 6 
#
# 1 0.011326 -0.002256 -0.003430 0.000000 0.000000 0.000000
# 2 -0.002256 0.010597 -0.005350 0.000000 0.000000 0.000000
# 3 -0.003430 -0.005350 0.014276 0.000000 0.000000 0.000000
# 4 0.000000 0.000000 0.000000 0.025865 0.000000 0.000000
# 5 0.000000 0.000000 0.000000 0.000000 0.029861 0.000000
# 6 0.000000 0.000000 0.000000 0.000000 0.000000 0.037952
#
#
# Mechanical properties :
#
#
# Convention : Reuss Voigt Hill
#
# Bulk Modulus (GPa) = 70.78171 72.33602 71.55887
# Shear Modulus (GPa) = 31.91686 32.93636 32.42661
#
# Velocity S-wave (km/s) = 3.98681 4.04998 4.01852
# Velocity P-wave (km/s) = 7.51280 7.60876 7.56093
#
# Compressibility (1/GPa) = 0.01412794
#
# Stress axis : x y z
#
# Youngs Moduli (GPa) = 88.29573 94.36304 70.04765
#
# Poissons Ratio (x) = 0.21285 0.24028
# Poissons Ratio (y) = 0.19916 0.37472
# Poissons Ratio (z) = 0.30288 0.50480
#
# Static dielectric constant tensor:
#      x y z
#    x 4.273880 0.000000 0.000000 
#    y 0.000000 4.371410 0.000000 
#    z 0.000000 0.000000 2.994050 
# 
# 
# High freq. dielectric constant tensor:
#      x y z
#    x 1.790370 0.000000 0.000000 
#    y 0.000000 1.785990 0.000000 
#    z 0.000000 0.000000 1.789650 
# 
# From -- ./inp_files/21335.got.cif
#   From: 2010.03.12/outbox.cif.g09.slc.cpg/sg50_11_cif.got.tgz:21335.got - 2010.04.16 13:23:21.
