data_PCOD8205018
_publ_section_title
;
Structure prediction by ZEFSAII (Michael W. Deem and Ramdas Pophale) SiO2 
 PCOD8205018
Probable space group: P B A N
;
_chemical_formula_sum "Si O2"
_cell_formula_units_Z 56
_cell_length_a 11.496625
_cell_length_b 17.591306
_cell_length_c 14.098113
_cell_angle_alpha 90.000000
_cell_angle_beta 90.000000
_cell_angle_gamma 90.000000
_cell_volume 2851.211514
_symmetry_space_group_name_H-M "P B A N"
_symmetry_group_IT_number 50
_space_group.IT_coordinate_system_code '2'
_symmetry_cell_setting 'orthorhombic'
loop_
_space_group_symop_operation_xyz
x,y,z
1/2-x,1/2-y,z
x,1/2-y,-z
1/2-x,y,-z
-x,-y,-z
1/2+x,1/2+y,-z
-x,1/2+y,z
1/2+x,-y,z
loop_
_atom_site_type_symbol
_atom_site_label
_atom_site_fract_x
_atom_site_fract_y
_atom_site_fract_z
Si Si1 0.502134 0.086303 0.467052
Si Si2 0.632237 0.719205 0.893712
Si Si3 0.134254 0.086603 0.234814
Si Si4 0.537115 0.282368 0.756507
Si Si5 0.335238 0.579059 0.285290
Si Si6 0.908458 0.364538 0.659168
Si Si7 0.184941 0.326244 0.364855
O O1 0.576854 0.086135 0.372363
O O2 0.563381 0.137273 0.547461
O O3 0.373069 0.122788 0.449633
O O4 0.500000 0.000000 0.500000
O O5 0.750000 0.750000 0.841906
O O6 0.636515 0.628336 0.868929
O O7 0.509600 0.749699 0.855457
O O8 0.638232 0.750000 0.000000
O O9 0.226833 0.120838 0.307741
O O10 0.008955 0.094852 0.281794
O O11 0.156753 0.997159 0.222764
O O12 0.623804 0.351468 0.781857
O O13 0.609636 0.221357 0.695153
O O14 0.420250 0.301840 0.701280
O O15 0.205672 0.586073 0.323279
O O16 0.250000 0.250000 0.403404
#
# Coordination Sequence:
#
# PCOD8205018 Si02
#       7
#     8   8   8   8   8   8   8
#     4  11  23  39  55  88 125 168 215 268 318 345
#     4  10  19  37  69  97 122 149 193 262 321 388
#     4  11  21  38  60  90 122 155 207 259 317 381
#     4  10  21  41  59  87 120 162 208 252 320 372
#     4  11  24  37  62  80 125 174 207 258 308 372
#     4  11  22  39  55  84 122 170 222 250 301 374
#     4  11  20  38  59  86 118 156 212 270 305 369
#
# _framework density 19.640774
#
# number of rings (size 3 to 8) (size 9 to 14) (size 15 to 20)
#    0.000    1.286    5.714    1.714    2.000    2.857 
#    2.571    3.571    0.000    8.571    0.000    0.000 
#    0.000    0.000    0.000    0.000    0.000    0.000 
#
# Total GULP energy -693929.628581 kJ/mol
# GULP energy per Si atom -12391.600510 kJ/mol
# Density = 1.959607 g / cm^3
# Si number density = 19.640774 Si / 1000 Ang^3
#
#
#
# Elastic Constant Matrix: (Units=GPa)
#
#
# Indices 1 2 3 4 5 6 
#
# 1 93.6013 48.0527 26.7345 0.0000 0.0000 0.0000
# 2 48.0527 167.2774 50.7184 0.0000 0.0000 0.0000
# 3 26.7345 50.7184 79.1057 0.0000 0.0000 0.0000
# 4 0.0000 0.0000 0.0000 7.6227 0.0000 0.0000
# 5 0.0000 0.0000 0.0000 0.0000 19.0601 0.0000
# 6 0.0000 0.0000 0.0000 0.0000 0.0000 26.3657
#
#
#
# Elastic Compliance Matrix: (Units=1/GPa)
#
#
# Indices 1 2 3 4 5 6 
#
# 1 0.012907 -0.002961 -0.002464 0.000000 0.000000 0.000000
# 2 -0.002961 0.008100 -0.004193 0.000000 0.000000 0.000000
# 3 -0.002464 -0.004193 0.016162 0.000000 0.000000 0.000000
# 4 0.000000 0.000000 0.000000 0.131187 0.000000 0.000000
# 5 0.000000 0.000000 0.000000 0.000000 0.052466 0.000000
# 6 0.000000 0.000000 0.000000 0.000000 0.000000 0.037928
#
#
# Mechanical properties :
#
#
# Convention : Reuss Voigt Hill
#
# Bulk Modulus (GPa) = 55.75748 65.66619 60.71183
# Shear Modulus (GPa) = 17.60797 24.90829 21.25813
#
# Velocity S-wave (km/s) = 2.99741 3.56503 3.29347
# Velocity P-wave (km/s) = 6.35842 7.10297 6.74098
#
# Compressibility (1/GPa) = 0.01793481
#
# Stress axis : x y z
#
# Youngs Moduli (GPa) = 77.47527 123.46003 61.87342
#
# Poissons Ratio (x) = 0.36554 0.15245
# Poissons Ratio (y) = 0.22939 0.25941
# Poissons Ratio (z) = 0.19089 0.51761
#
# Static dielectric constant tensor:
#      x y z
#    x 4.130610 0.000000 0.000000 
#    y 0.000000 3.646150 0.000000 
#    z 0.000000 0.000000 3.779240 
# 
# 
# High freq. dielectric constant tensor:
#      x y z
#    x 1.779330 0.000000 0.000000 
#    y 0.000000 1.775620 0.000000 
#    z 0.000000 0.000000 1.723960 
# 
# From -- ./inp_files/25935.got.cif
#   From: 2010.03.12/outbox.cif.g09.slc.cpg/sg50_13_cif.got.tgz:25935.got - 2010.04.16 13:23:21.
