data_PCOD8205782
_publ_section_title
;
Structure prediction by ZEFSAII (Michael W. Deem and Ramdas Pophale) SiO2 
 PCOD8205782
Probable space group: P B A N
;
_chemical_formula_sum "Si O2"
_cell_formula_units_Z 38
_cell_length_a 8.961485
_cell_length_b 24.908425
_cell_length_c 8.577969
_cell_angle_alpha 90.000000
_cell_angle_beta 90.000000
_cell_angle_gamma 90.000000
_cell_volume 1914.744020
_symmetry_space_group_name_H-M "P B A N"
_symmetry_group_IT_number 50
_space_group.IT_coordinate_system_code '2'
_symmetry_cell_setting 'orthorhombic'
loop_
_space_group_symop_operation_xyz
x,y,z
1/2-x,1/2-y,z
x,1/2-y,-z
1/2-x,y,-z
-x,-y,-z
1/2+x,1/2+y,-z
-x,1/2+y,z
1/2+x,-y,z
loop_
_atom_site_type_symbol
_atom_site_label
_atom_site_fract_x
_atom_site_fract_y
_atom_site_fract_z
Si Si1 0.250000 0.250000 0.500000
Si Si2 0.486146 0.309972 0.961070
Si Si3 0.790522 0.670158 0.249286
Si Si4 0.077245 0.523152 0.153098
Si Si5 0.207390 0.049912 0.330215
Si Si6 0.750000 0.384609 0.000000
O O1 0.154279 0.288990 0.614427
O O2 0.365862 0.307936 0.821853
O O3 0.540325 0.250000 0.000000
O O4 0.413680 0.335683 0.115695
O O5 0.627592 0.346724 0.914503
O O6 0.763002 0.612977 0.325719
O O7 0.188796 0.476568 0.201281
O O8 0.962589 0.535031 0.292003
O O9 0.169449 0.577834 0.126447
O O10 0.000000 0.500000 0.000000
O O11 0.250000 0.027552 0.500000
#
# Coordination Sequence:
#
# PCOD8205782 Si02
#       6
#     2   8   8   8   8   4
#     4  12  20  42  64  94 124 162 212 258 318 370
#     4  11  22  40  63  95 122 162 216 264 311 378
#     4  11  22  38  68  93 122 163 212 263 312 382
#     4  12  24  43  64  93 128 174 218 262 319 389
#     4  12  25  41  64  97 132 166 214 272 328 385
#     4  12  23  38  68  92 126 163 216 266 318 370
#
# _framework density 19.845994999999998
#
# number of rings (size 3 to 8) (size 9 to 14) (size 15 to 20)
#    0.000    0.421    7.368    2.842    2.947    0.000 
#    0.000    0.000    0.000    1.263    0.000    0.000 
#    0.000    0.000    0.000    0.000    0.000    0.000 
#
# Total GULP energy -471226.466136 kJ/mol
# GULP energy per Si atom -12400.696477 kJ/mol
# Density = 1.980082 g / cm^3
# Si number density = 19.845995 Si / 1000 Ang^3
#
#
#
# Elastic Constant Matrix: (Units=GPa)
#
#
# Indices 1 2 3 4 5 6 
#
# 1 114.4349 50.2161 43.3809 0.0000 0.0000 0.0000
# 2 50.2161 125.4691 23.1960 0.0000 0.0000 0.0000
# 3 43.3809 23.1960 84.0165 0.0000 0.0000 0.0000
# 4 0.0000 0.0000 0.0000 34.7233 0.0000 0.0000
# 5 0.0000 0.0000 0.0000 0.0000 30.2963 0.0000
# 6 0.0000 0.0000 0.0000 0.0000 0.0000 40.6735
#
#
#
# Elastic Compliance Matrix: (Units=1/GPa)
#
#
# Indices 1 2 3 4 5 6 
#
# 1 0.012538 -0.004027 -0.005362 0.000000 0.000000 0.000000
# 2 -0.004027 0.009692 -0.000597 0.000000 0.000000 0.000000
# 3 -0.005362 -0.000597 0.014836 0.000000 0.000000 0.000000
# 4 0.000000 0.000000 0.000000 0.028799 0.000000 0.000000
# 5 0.000000 0.000000 0.000000 0.000000 0.033007 0.000000
# 6 0.000000 0.000000 0.000000 0.000000 0.000000 0.024586
#
#
# Mechanical properties :
#
#
# Convention : Reuss Voigt Hill
#
# Bulk Modulus (GPa) = 58.49737 61.94515 60.22126
# Shear Modulus (GPa) = 33.52808 34.94712 34.23760
#
# Velocity S-wave (km/s) = 4.11471 4.20088 4.15802
# Velocity P-wave (km/s) = 7.21901 7.40341 7.31179
#
# Compressibility (1/GPa) = 0.01709478
#
# Stress axis : x y z
#
# Youngs Moduli (GPa) = 79.75480 103.17729 67.40409
#
# Poissons Ratio (x) = 0.41548 0.36144
# Poissons Ratio (y) = 0.32116 0.04022
# Poissons Ratio (z) = 0.42767 0.06156
#
# Static dielectric constant tensor:
#      x y z
#    x 3.612440 0.000000 0.000000 
#    y 0.000000 3.766220 0.000000 
#    z 0.000000 0.000000 3.582050 
# 
# 
# High freq. dielectric constant tensor:
#      x y z
#    x 1.759670 0.000000 0.000000 
#    y 0.000000 1.798100 0.000000 
#    z 0.000000 0.000000 1.763500 
# 
# From -- ./inp_files/9572.got.cif
#   From: 2010.03.12/outbox.cif.g09.slc.cpg/sg50_5_cif.got.tgz:9572.got - 2010.04.16 13:23:21.
