data_PCOD8205322
_publ_section_title
;
Structure prediction by ZEFSAII (Michael W. Deem and Ramdas Pophale) SiO2 
 PCOD8205322
Probable space group: P B A N
;
_chemical_formula_sum "Si O2"
_cell_formula_units_Z 34
_cell_length_a 18.347631
_cell_length_b 9.443314
_cell_length_c 9.146578
_cell_angle_alpha 90.000000
_cell_angle_beta 90.000000
_cell_angle_gamma 90.000000
_cell_volume 1584.758428
_symmetry_space_group_name_H-M "P B A N"
_symmetry_group_IT_number 50
_space_group.IT_coordinate_system_code '2'
_symmetry_cell_setting 'orthorhombic'
loop_
_space_group_symop_operation_xyz
x,y,z
1/2-x,1/2-y,z
x,1/2-y,-z
1/2-x,y,-z
-x,-y,-z
1/2+x,1/2+y,-z
-x,1/2+y,z
1/2+x,-y,z
loop_
_atom_site_type_symbol
_atom_site_label
_atom_site_fract_x
_atom_site_fract_y
_atom_site_fract_z
Si Si1 0.475530 0.749494 0.671876
Si Si2 0.746180 0.585814 0.160219
Si Si3 0.596470 0.958204 0.675921
Si Si4 0.859172 0.455304 0.358568
Si Si5 0.250000 0.750000 0.500000
O O1 0.461607 0.750000 0.500000
O O2 0.556562 0.807500 0.712307
O O3 0.455334 0.591234 0.728034
O O4 0.421157 0.871057 0.731711
O O5 0.750000 0.750000 0.135851
O O6 0.673541 0.532728 0.243052
O O7 0.819972 0.562846 0.250926
O O8 0.750000 0.511477 0.000000
O O9 0.608975 0.962979 0.500640
O O10 0.798687 0.341839 0.395628
#
# Coordination Sequence:
#
# PCOD8205322 Si02
#       5
#     8   8   8   8   2
#     4  10  21  36  62 101 131 158 202 270 321 390
#     4  11  26  43  63  90 130 173 222 266 312 381
#     4  11  22  39  66  97 128 164 210 265 330 377
#     4  11  19  38  65  92 127 163 213 272 323 372
#     4  12  16  36  60  96 124 156 216 278 312 380
#
# _framework density 21.454373
#
# number of rings (size 3 to 8) (size 9 to 14) (size 15 to 20)
#    0.000    1.176    5.882    2.824    6.588    0.941 
#    0.000    6.471    0.000    0.000    0.000    0.000 
#    0.000    0.000    0.000    0.000    0.000    0.000 
#
# Total GULP energy -421269.882313 kJ/mol
# GULP energy per Si atom -12390.290656 kJ/mol
# Density = 2.140554 g / cm^3
# Si number density = 21.454373 Si / 1000 Ang^3
#
#
#
# Elastic Constant Matrix: (Units=GPa)
#
#
# Indices 1 2 3 4 5 6 
#
# 1 106.8526 42.8099 25.4231 0.0000 0.0000 0.0000
# 2 42.8099 80.4710 27.7149 0.0000 0.0000 0.0000
# 3 25.4231 27.7149 70.4030 0.0000 0.0000 0.0000
# 4 0.0000 0.0000 0.0000 7.7010 0.0000 0.0000
# 5 0.0000 0.0000 0.0000 0.0000 7.3528 0.0000
# 6 0.0000 0.0000 0.0000 0.0000 0.0000 64.1667
#
#
#
# Elastic Compliance Matrix: (Units=1/GPa)
#
#
# Indices 1 2 3 4 5 6 
#
# 1 0.012165 -0.005736 -0.002135 0.000000 0.000000 0.000000
# 2 -0.005736 0.017081 -0.004653 0.000000 0.000000 0.000000
# 3 -0.002135 -0.004653 0.016806 0.000000 0.000000 0.000000
# 4 0.000000 0.000000 0.000000 0.129854 0.000000 0.000000
# 5 0.000000 0.000000 0.000000 0.000000 0.136002 0.000000
# 6 0.000000 0.000000 0.000000 0.000000 0.000000 0.015584
#
#
# Mechanical properties :
#
#
# Convention : Reuss Voigt Hill
#
# Bulk Modulus (GPa) = 47.60818 49.95802 48.78310
# Shear Modulus (GPa) = 13.90661 26.62935 20.26798
#
# Velocity S-wave (km/s) = 2.54873 3.52690 3.07693
# Velocity P-wave (km/s) = 5.55877 6.31836 5.95070
#
# Compressibility (1/GPa) = 0.02100479
#
# Stress axis : x y z
#
# Youngs Moduli (GPa) = 82.20416 58.54468 59.50143
#
# Poissons Ratio (x) = 0.33584 0.12701
# Poissons Ratio (y) = 0.47156 0.27684
# Poissons Ratio (z) = 0.17547 0.27239
#
# Static dielectric constant tensor:
#      x y z
#    x 7.276740 0.000000 0.000000 
#    y 0.000000 4.013370 0.000000 
#    z 0.000000 0.000000 3.410820 
# 
# 
# High freq. dielectric constant tensor:
#      x y z
#    x 1.866220 0.000000 0.000000 
#    y 0.000000 1.853590 0.000000 
#    z 0.000000 0.000000 1.778340 
# 
# From -- ./inp_files/9218.got.cif
#   From: 2010.03.12/outbox.cif.g09.slc.cpg/sg50_5_cif.got.tgz:9218.got - 2010.04.16 13:23:21.
