data_PCOD8205994
_publ_section_title
;
Structure prediction by ZEFSAII (Michael W. Deem and Ramdas Pophale) SiO2 
 PCOD8205994
Probable space group: P M M A
;
_chemical_formula_sum "Si O2"
_cell_formula_units_Z 28
_cell_length_a 7.640584
_cell_length_b 11.886982
_cell_length_c 18.795305
_cell_angle_alpha 90.000000
_cell_angle_beta 90.000000
_cell_angle_gamma 90.000000
_cell_volume 1707.055092
_symmetry_space_group_name_H-M "P M M A"
_symmetry_group_IT_number 51
_symmetry_cell_setting 'orthorhombic'
loop_
_space_group_symop_operation_xyz
x,y,z
1/2-x,-y,z
1/2+x,-y,-z
-x,y,-z
-x,-y,-z
1/2+x,y,-z
1/2-x,y,z
x,-y,z
loop_
_atom_site_type_symbol
_atom_site_label
_atom_site_fract_x
_atom_site_fract_y
_atom_site_fract_z
Si Si1 0.055050 0.366087 0.422774
Si Si2 0.051724 0.240873 0.082421
Si Si3 0.250000 0.366077 0.677327
Si Si4 0.250000 0.366648 0.838318
Si Si5 0.954937 0.000000 0.081994
O O1 0.250000 0.323597 0.403732
O O2 0.048412 0.500000 0.424783
O O3 0.000000 0.318913 0.500000
O O4 0.922212 0.319752 0.363064
O O5 0.250000 0.283811 0.092020
O O6 0.925265 0.324546 0.123854
O O7 0.034933 0.114428 0.114892
O O8 0.000000 0.240477 0.000000
O O9 0.250000 0.500000 0.676419
O O10 0.250000 0.320938 0.757650
O O11 0.250000 0.500000 0.841609
O O12 0.750000 0.000000 0.095506
O O13 0.000000 0.000000 0.000000
#
# Coordination Sequence:
#
# PCOD8205994 Si02
#       5
#     8   8   4   4   4
#     4   9  14  22  40  62  81 108 151 202 246 279
#     4  11  20  36  55  76  95 124 166 215 262 302
#     4   9  18  30  41  59  90 122 162 204 235 279
#     4  11  24  37  47  67 102 145 179 202 235 289
#     4  10  16  30  56  81  99 110 145 212 276 314
#
# _framework density 16.402517
#
# number of rings (size 3 to 8) (size 9 to 14) (size 15 to 20)
#    0.000    2.000    4.286    3.000    0.000    2.286 
#    0.000    2.857    0.000    0.000    0.000    0.000 
#    0.000    0.000    0.000    5.143    0.000    2.571 
#
# Total GULP energy -347076.915835 kJ/mol
# GULP energy per Si atom -12395.604137 kJ/mol
# Density = 1.636518 g / cm^3
# Si number density = 16.402517 Si / 1000 Ang^3
#
#
#
# Elastic Constant Matrix: (Units=GPa)
#
#
# Indices 1 2 3 4 5 6 
#
# 1 177.7946 28.1529 63.6343 0.0000 0.0000 0.0000
# 2 28.1529 52.7334 30.2029 0.0000 0.0000 0.0000
# 3 63.6343 30.2029 103.7114 0.0000 0.0000 0.0000
# 4 0.0000 0.0000 0.0000 -0.3655 0.0000 0.0000
# 5 0.0000 0.0000 0.0000 0.0000 22.9006 0.0000
# 6 0.0000 0.0000 0.0000 0.0000 0.0000 14.8694
#
#
#
# Elastic Compliance Matrix: (Units=1/GPa)
#
#
# Indices 1 2 3 4 5 6 
#
# 1 0.007318 -0.001603 -0.004024 0.000000 0.000000 0.000000
# 2 -0.001603 0.023110 -0.005747 0.000000 0.000000 0.000000
# 3 -0.004024 -0.005747 0.013785 0.000000 0.000000 0.000000
# 4 0.000000 0.000000 0.000000 -2.735676 0.000000 0.000000
# 5 0.000000 0.000000 0.000000 0.000000 0.043667 0.000000
# 6 0.000000 0.000000 0.000000 0.000000 0.000000 0.067252
#
#
# Mechanical properties :
#
#
# Convention : Reuss Voigt Hill
#
# Bulk Modulus (GPa) = 46.58300 64.24664 55.41482
# Shear Modulus (GPa) = -1.96029 21.63084 9.83528
#
# Velocity S-wave (km/s) = -1.09440 3.63540 2.45137
# Velocity P-wave (km/s) = 5.18311 7.54157 6.47070
#
# Compressibility (1/GPa) = 0.02146706
#
# Stress axis : x y z
#
# Youngs Moduli (GPa) = 136.64355 43.27054 72.54506
#
# Poissons Ratio (x) = 0.06934 0.29189
# Poissons Ratio (y) = 0.21898 0.41691
# Poissons Ratio (z) = 0.54980 0.24867
#
# Static dielectric constant tensor:
#      x y z
#    x 3.376420 0.000000 0.000000 
#    y 0.000000 2.897260 0.000000 
#    z 0.000000 0.000000 3.056630 
# 
# 
# High freq. dielectric constant tensor:
#      x y z
#    x 1.656060 0.000000 0.000000 
#    y 0.000000 1.576600 0.000000 
#    z 0.000000 0.000000 1.609340 
# 
# From -- ./inp_files/26929.got.cif
#   From: 2010.03.12/outbox.cif.g09.slc.cpg/sg51_14_cif.got.tgz:26929.got - 2010.04.16 13:43:02.
