data_PCOD8205011
_publ_section_title
;
Structure prediction by ZEFSAII (Michael W. Deem and Ramdas Pophale) SiO2 
 PCOD8205011
Probable space group: P B A N
;
_chemical_formula_sum "Si O2"
_cell_formula_units_Z 58
_cell_length_a 9.060481
_cell_length_b 29.155774
_cell_length_c 10.996703
_cell_angle_alpha 90.000000
_cell_angle_beta 90.000000
_cell_angle_gamma 90.000000
_cell_volume 2904.947747
_symmetry_space_group_name_H-M "P B A N"
_symmetry_group_IT_number 50
_space_group.IT_coordinate_system_code '2'
_symmetry_cell_setting 'orthorhombic'
loop_
_space_group_symop_operation_xyz
x,y,z
1/2-x,1/2-y,z
x,1/2-y,-z
1/2-x,y,-z
-x,-y,-z
1/2+x,1/2+y,-z
-x,1/2+y,z
1/2+x,-y,z
loop_
_atom_site_type_symbol
_atom_site_label
_atom_site_fract_x
_atom_site_fract_y
_atom_site_fract_z
Si Si1 0.750000 0.250000 0.000000
Si Si2 0.404833 0.700704 0.548724
Si Si3 0.574564 0.615376 0.497420
Si Si4 0.191059 0.426400 0.132662
Si Si5 0.409139 0.603945 0.246377
Si Si6 0.975601 0.905043 0.761166
Si Si7 0.829964 0.322233 0.805645
Si Si8 0.302922 0.532916 0.862582
O O1 0.839265 0.285570 0.915067
O O2 0.442695 0.750000 0.500000
O O3 0.250000 0.679832 0.500000
O O4 0.543075 0.669481 0.510909
O O5 0.384935 0.706898 0.691912
O O6 0.750000 0.605663 0.500000
O O7 0.491462 0.598253 0.376180
O O8 0.494387 0.592384 0.615585
O O9 0.299907 0.400402 0.225184
O O10 0.192734 0.479761 0.168311
O O11 0.031335 0.403370 0.142265
O O12 0.250000 0.417734 0.000000
O O13 0.329752 0.653090 0.221135
O O14 0.293969 0.561993 0.233826
O O15 0.053554 0.862537 0.828672
O O16 0.029698 0.950068 0.836084
O O17 0.250000 0.542856 0.000000
#
# Coordination Sequence:
#
# PCOD8205011 Si02
#       8
#     2   8   8   8   8   8   8   8
#     4  12  24  40  62  94 128 148 204 252 296 356
#     4  10  19  37  63  88 110 149 207 250 294 350
#     4  11  22  40  59  88 125 161 202 250 306 368
#     4  11  22  38  63  88 121 159 205 251 299 365
#     4  11  22  39  63  88 123 164 199 244 312 351
#     4  10  22  39  60  90 123 160 203 244 308 354
#     4  10  24  37  61  91 121 155 195 249 296 358
#     4  10  22  39  61  91 119 157 211 258 290 352
#
# _framework density 19.965935999999999
#
# number of rings (size 3 to 8) (size 9 to 14) (size 15 to 20)
#    0.000    1.517    2.759    2.483    5.793    2.483 
#    0.000    4.138    0.000    1.655    0.000    0.000 
#    0.000    0.000    0.000    0.000    0.000    0.000 
#
# Total GULP energy -718748.408182 kJ/mol
# GULP energy per Si atom -12392.213934 kJ/mol
# Density = 1.992049 g / cm^3
# Si number density = 19.965936 Si / 1000 Ang^3
#
#
#
# Elastic Constant Matrix: (Units=GPa)
#
#
# Indices 1 2 3 4 5 6 
#
# 1 78.5556 31.0066 13.2509 0.0000 0.0000 0.0000
# 2 31.0066 88.4596 52.1062 0.0000 0.0000 0.0000
# 3 13.2509 52.1062 91.6731 0.0000 0.0000 0.0000
# 4 0.0000 0.0000 0.0000 24.2369 0.0000 0.0000
# 5 0.0000 0.0000 0.0000 0.0000 29.5283 0.0000
# 6 0.0000 0.0000 0.0000 0.0000 0.0000 13.1631
#
#
#
# Elastic Compliance Matrix: (Units=1/GPa)
#
#
# Indices 1 2 3 4 5 6 
#
# 1 0.014864 -0.005930 0.001222 0.000000 0.000000 0.000000
# 2 -0.005930 0.019360 -0.010147 0.000000 0.000000 0.000000
# 3 0.001222 -0.010147 0.016499 0.000000 0.000000 0.000000
# 4 0.000000 0.000000 0.000000 0.041259 0.000000 0.000000
# 5 0.000000 0.000000 0.000000 0.000000 0.033866 0.000000
# 6 0.000000 0.000000 0.000000 0.000000 0.000000 0.075970
#
#
# Mechanical properties :
#
#
# Convention : Reuss Voigt Hill
#
# Bulk Modulus (GPa) = 47.58816 50.15730 48.87273
# Shear Modulus (GPa) = 20.96144 24.20731 22.58438
#
# Velocity S-wave (km/s) = 3.24367 3.48577 3.36690
# Velocity P-wave (km/s) = 6.15751 6.43248 6.29650
#
# Compressibility (1/GPa) = 0.02101363
#
# Stress axis : x y z
#
# Youngs Moduli (GPa) = 67.27517 51.65249 60.60916
#
# Poissons Ratio (x) = 0.30630 -0.07406
# Poissons Ratio (y) = 0.39894 0.61500
# Poissons Ratio (z) = -0.08221 0.52412
#
# Static dielectric constant tensor:
#      x y z
#    x 3.844490 0.000000 0.000000 
#    y 0.000000 3.509840 0.000000 
#    z 0.000000 0.000000 3.769760 
# 
# 
# High freq. dielectric constant tensor:
#      x y z
#    x 1.778320 0.000000 0.000000 
#    y 0.000000 1.765180 0.000000 
#    z 0.000000 0.000000 1.790730 
# 
# From -- ./inp_files/19496.got.cif
#   From: 2010.03.12/outbox.cif.g09.slc.cpg/sg50_10_cif.got.tgz:19496.got - 2010.04.16 13:23:21.
