data_PCOD8205449
_publ_section_title
;
Structure prediction by ZEFSAII (Michael W. Deem and Ramdas Pophale) SiO2 
 PCOD8205449
Probable space group: P B A N
;
_chemical_formula_sum "Si O2"
_cell_formula_units_Z 58
_cell_length_a 16.846495
_cell_length_b 17.619575
_cell_length_c 9.148021
_cell_angle_alpha 90.000000
_cell_angle_beta 90.000000
_cell_angle_gamma 90.000000
_cell_volume 2715.389529
_symmetry_space_group_name_H-M "P B A N"
_symmetry_group_IT_number 50
_space_group.IT_coordinate_system_code '2'
_symmetry_cell_setting 'orthorhombic'
loop_
_space_group_symop_operation_xyz
x,y,z
1/2-x,1/2-y,z
x,1/2-y,-z
1/2-x,y,-z
-x,-y,-z
1/2+x,1/2+y,-z
-x,1/2+y,z
1/2+x,-y,z
loop_
_atom_site_type_symbol
_atom_site_label
_atom_site_fract_x
_atom_site_fract_y
_atom_site_fract_z
Si Si1 0.927115 0.832294 0.573415
Si Si2 0.412465 0.895195 0.330655
Si Si3 0.859475 0.077039 0.644767
Si Si4 0.315862 0.079713 0.770022
Si Si5 0.159967 0.385996 0.100151
Si Si6 0.234288 0.838774 0.838171
Si Si7 0.537597 0.932387 0.693560
Si Si8 0.250000 0.250000 0.000000
O O1 0.915518 0.750000 0.500000
O O2 0.855441 0.846780 0.690024
O O3 0.923648 0.899557 0.453790
O O4 0.013639 0.837054 0.651433
O O5 0.357397 0.902211 0.473981
O O6 0.355707 0.862324 0.203966
O O7 0.449364 0.977478 0.294263
O O8 0.796726 0.128402 0.725424
O O9 0.946998 0.092053 0.704995
O O10 0.841638 0.989662 0.671563
O O11 0.220040 0.074754 0.782473
O O12 0.343759 0.077225 0.939340
O O13 0.072998 0.390677 0.165118
O O14 0.192230 0.300363 0.098510
O O15 0.250000 0.750000 0.836460
O O16 0.250000 0.872101 0.000000
#
# Coordination Sequence:
#
# PCOD8205449 Si02
#       8
#     8   8   8   8   8   8   8   2
#     4  11  24  41  70  99 136 172 224 276 335 400
#     4  11  23  45  69  95 140 173 221 277 336 401
#     4  11  22  42  67  95 134 169 219 281 326 403
#     4  10  21  43  61  95 135 173 224 270 331 395
#     4  10  24  37  66  89 131 182 220 267 338 397
#     4  11  28  46  66  99 134 174 227 280 337 406
#     4  11  23  42  65 104 130 176 225 274 334 397
#     4   8  20  44  52  82 132 168 224 266 324 400
#
# _framework density 21.359734
#
# number of rings (size 3 to 8) (size 9 to 14) (size 15 to 20)
#    0.000    1.517    2.759    2.069   11.586    2.759 
#    0.000    2.069    0.000    0.000    0.000    0.000 
#    0.000    0.000    0.000    0.000    0.000    0.000 
#
# Total GULP energy -718892.785881 kJ/mol
# GULP energy per Si atom -12394.703205 kJ/mol
# Density = 2.131112 g / cm^3
# Si number density = 21.359734 Si / 1000 Ang^3
#
#
#
# Elastic Constant Matrix: (Units=GPa)
#
#
# Indices 1 2 3 4 5 6 
#
# 1 66.8444 18.9448 43.0011 0.0000 0.0000 0.0000
# 2 18.9448 75.3407 20.2643 0.0000 0.0000 0.0000
# 3 43.0011 20.2643 68.8382 0.0000 0.0000 0.0000
# 4 0.0000 0.0000 0.0000 363.8896 0.0000 0.0000
# 5 0.0000 0.0000 0.0000 0.0000 13.5985 0.0000
# 6 0.0000 0.0000 0.0000 0.0000 0.0000 83.9780
#
#
#
# Elastic Compliance Matrix: (Units=1/GPa)
#
#
# Indices 1 2 3 4 5 6 
#
# 1 0.025372 -0.002299 -0.015172 0.000000 0.000000 0.000000
# 2 -0.002299 0.014623 -0.002868 0.000000 0.000000 0.000000
# 3 -0.015172 -0.002868 0.024849 0.000000 0.000000 0.000000
# 4 0.000000 0.000000 0.000000 0.002748 0.000000 0.000000
# 5 0.000000 0.000000 0.000000 0.000000 0.073537 0.000000
# 6 0.000000 0.000000 0.000000 0.000000 0.000000 0.011908
#
#
# Mechanical properties :
#
#
# Convention : Reuss Voigt Hill
#
# Bulk Modulus (GPa) = 41.38386 41.71596 41.54991
# Shear Modulus (GPa) = 24.78053 100.88077 62.83065
#
# Velocity S-wave (km/s) = 3.40980 6.87982 5.42949
# Velocity P-wave (km/s) = 5.90923 9.09296 7.66814
#
# Compressibility (1/GPa) = 0.02416401
#
# Stress axis : x y z
#
# Youngs Moduli (GPa) = 39.41340 68.38705 40.24325
#
# Poissons Ratio (x) = 0.15723 0.61058
# Poissons Ratio (y) = 0.09061 0.11543
# Poissons Ratio (z) = 0.59799 0.19616
#
# Static dielectric constant tensor:
#      x y z
#    x 0.471560 0.000000 0.000000 
#    y 0.000000 3.887990 0.000000 
#    z 0.000000 0.000000 3.529150 
# 
# 
# High freq. dielectric constant tensor:
#      x y z
#    x 1.845360 0.000000 0.000000 
#    y 0.000000 1.834680 0.000000 
#    z 0.000000 0.000000 1.839380 
# 
# From -- ./inp_files/14507.got.cif
#   From: 2010.03.12/outbox.cif.g09.slc.cpg/sg50_8_cif.got.tgz:14507.got - 2010.04.16 13:23:21.
