data_PCOD8205556
_publ_section_title
;
Structure prediction by ZEFSAII (Michael W. Deem and Ramdas Pophale) SiO2 
 PCOD8205556
Probable space group: P B A N
;
_chemical_formula_sum "Si O2"
_cell_formula_units_Z 48
_cell_length_a 29.964445
_cell_length_b 8.960402
_cell_length_c 7.994246
_cell_angle_alpha 90.000000
_cell_angle_beta 90.000000
_cell_angle_gamma 90.000000
_cell_volume 2146.402872
_symmetry_space_group_name_H-M "P B A N"
_symmetry_group_IT_number 50
_space_group.IT_coordinate_system_code '2'
_symmetry_cell_setting 'orthorhombic'
loop_
_space_group_symop_operation_xyz
x,y,z
1/2-x,1/2-y,z
x,1/2-y,-z
1/2-x,y,-z
-x,-y,-z
1/2+x,1/2+y,-z
-x,1/2+y,z
1/2+x,-y,z
loop_
_atom_site_type_symbol
_atom_site_label
_atom_site_fract_x
_atom_site_fract_y
_atom_site_fract_z
Si Si1 0.873365 0.671987 0.175903
Si Si2 0.844715 0.333905 0.157851
Si Si3 0.610105 0.250000 0.500000
Si Si4 0.529661 0.731670 0.186784
Si Si5 0.250000 0.001763 0.500000
Si Si6 0.533872 0.436282 0.369810
Si Si7 0.250000 0.750000 0.242045
Si Si8 0.677460 0.750000 0.500000
O O1 0.854350 0.507797 0.153280
O O2 0.926374 0.666526 0.212024
O O3 0.851805 0.762491 0.331244
O O4 0.862620 0.750000 0.000000
O O5 0.859505 0.274617 0.338668
O O6 0.792469 0.298262 0.133028
O O7 0.868929 0.250000 0.000000
O O8 0.580096 0.395423 0.460584
O O9 0.542078 0.559928 0.226423
O O10 0.488245 0.785620 0.298353
O O11 0.512247 0.750000 0.000000
O O12 0.262575 0.897039 0.346144
O O13 0.293271 0.102840 0.529358
O O14 0.500000 0.500000 0.500000
#
# Coordination Sequence:
#
# PCOD8205556 Si02
#       8
#     8   8   4   8   4   8   4   4
#     4  11  28  47  72 109 143 194 244 302 363 427
#     4  12  29  48  76 108 145 191 243 304 366 438
#     4  12  28  44  78 107 148 191 248 304 358 434
#     4  11  26  44  71 101 148 188 243 299 358 432
#     4  10  22  42  72 108 136 190 236 294 362 440
#     4  12  24  46  69 106 140 193 239 292 364 428
#     4  11  23  48  72 105 149 182 243 295 366 433
#     4  11  24  45  74  97 148 187 238 301 362 427
#
# _framework density 22.362995999999999
#
# number of rings (size 3 to 8) (size 9 to 14) (size 15 to 20)
#    0.000    0.667    3.333    2.750   11.667    0.667 
#    0.000    1.667    0.000    0.000    0.000    0.000 
#    0.000    0.000    0.000    0.000    0.000    0.000 
#
# Total GULP energy -595176.292638 kJ/mol
# GULP energy per Si atom -12399.506097 kJ/mol
# Density = 2.231210 g / cm^3
# Si number density = 22.362996 Si / 1000 Ang^3
#
#
#
# Elastic Constant Matrix: (Units=GPa)
#
#
# Indices 1 2 3 4 5 6 
#
# 1 98.8066 25.4112 31.8320 0.0000 0.0000 0.0000
# 2 25.4112 120.5429 31.9230 0.0000 0.0000 0.0000
# 3 31.8320 31.9230 141.6323 0.0000 0.0000 0.0000
# 4 0.0000 0.0000 0.0000 34.0947 0.0000 0.0000
# 5 0.0000 0.0000 0.0000 0.0000 25.6511 0.0000
# 6 0.0000 0.0000 0.0000 0.0000 0.0000 24.5574
#
#
#
# Elastic Compliance Matrix: (Units=1/GPa)
#
#
# Indices 1 2 3 4 5 6 
#
# 1 0.011272 -0.001813 -0.002125 0.000000 0.000000 0.000000
# 2 -0.001813 0.009114 -0.001647 0.000000 0.000000 0.000000
# 3 -0.002125 -0.001647 0.007909 0.000000 0.000000 0.000000
# 4 0.000000 0.000000 0.000000 0.029330 0.000000 0.000000
# 5 0.000000 0.000000 0.000000 0.000000 0.038985 0.000000
# 6 0.000000 0.000000 0.000000 0.000000 0.000000 0.040721
#
#
# Mechanical properties :
#
#
# Convention : Reuss Voigt Hill
#
# Bulk Modulus (GPa) = 58.39241 59.92381 59.15811
# Shear Modulus (GPa) = 32.42362 34.98170 33.70266
#
# Velocity S-wave (km/s) = 3.81186 3.95937 3.88631
# Velocity P-wave (km/s) = 6.74845 6.91059 6.83000
#
# Compressibility (1/GPa) = 0.01712551
#
# Stress axis : x y z
#
# Youngs Moduli (GPa) = 88.71832 109.71912 126.43527
#
# Poissons Ratio (x) = 0.19897 0.26862
# Poissons Ratio (y) = 0.16089 0.20820
# Poissons Ratio (z) = 0.18849 0.18067
#
# Static dielectric constant tensor:
#      x y z
#    x 4.374110 0.000000 0.000000 
#    y 0.000000 4.467410 0.000000 
#    z 0.000000 0.000000 4.231470 
# 
# 
# High freq. dielectric constant tensor:
#      x y z
#    x 1.882920 0.000000 0.000000 
#    y 0.000000 1.888230 0.000000 
#    z 0.000000 0.000000 1.897020 
# 
# From -- ./inp_files/17027.got.cif
#   From: 2010.03.12/outbox.cif.g09.slc.cpg/sg50_9_cif.got.tgz:17027.got - 2010.04.16 13:23:21.
