data_PCOD8205272
_publ_section_title
;
Structure prediction by ZEFSAII (Michael W. Deem and Ramdas Pophale) SiO2 
 PCOD8205272
Probable space group: P B A N
;
_chemical_formula_sum "Si O2"
_cell_formula_units_Z 42
_cell_length_a 9.754446
_cell_length_b 19.922259
_cell_length_c 11.705869
_cell_angle_alpha 90.000000
_cell_angle_beta 90.000000
_cell_angle_gamma 90.000000
_cell_volume 2274.808542
_symmetry_space_group_name_H-M "P B A N"
_symmetry_group_IT_number 50
_space_group.IT_coordinate_system_code '2'
_symmetry_cell_setting 'orthorhombic'
loop_
_space_group_symop_operation_xyz
x,y,z
1/2-x,1/2-y,z
x,1/2-y,-z
1/2-x,y,-z
-x,-y,-z
1/2+x,1/2+y,-z
-x,1/2+y,z
1/2+x,-y,z
loop_
_atom_site_type_symbol
_atom_site_label
_atom_site_fract_x
_atom_site_fract_y
_atom_site_fract_z
Si Si1 0.086770 0.476203 0.751627
Si Si2 0.282517 0.823506 0.258120
Si Si3 0.118708 0.913565 0.422777
Si Si4 0.181849 0.547352 0.122287
Si Si5 0.250000 0.250000 0.500000
Si Si6 0.952412 0.848998 0.612754
O O1 0.049741 0.524536 0.645372
O O2 0.233307 0.501131 0.792446
O O3 0.104325 0.400843 0.706571
O O4 0.974448 0.477735 0.855571
O O5 0.250000 0.750000 0.207824
O O6 0.162005 0.854188 0.336086
O O7 0.308597 0.873883 0.152722
O O8 0.415094 0.812411 0.336514
O O9 0.250000 0.935903 0.500000
O O10 0.993568 0.887441 0.497875
O O11 0.250000 0.535209 0.000000
O O12 0.161252 0.205609 0.414121
#
# Coordination Sequence:
#
# PCOD8205272 Si02
#       6
#     8   8   8   8   2   8
#     4  10  21  35  56  79 108 140 178 226 269 319
#     4   9  18  35  54  75 105 140 178 217 261 312
#     4   9  18  32  55  79 106 145 178 214 257 317
#     4  10  21  37  57  81 103 134 183 234 279 312
#     4  12  24  28  46  76 118 156 166 202 260 328
#     4  10  21  32  47  78 113 141 175 207 253 326
#
# _framework density 18.463090999999999
#
# number of rings (size 3 to 8) (size 9 to 14) (size 15 to 20)
#    0.000    2.286    0.000    3.429    4.000    3.048 
#    0.000    0.000    0.000    0.000    0.000    0.000 
#    0.000    0.000    0.000    0.000    0.000    0.000 
#
# Total GULP energy -520605.213924 kJ/mol
# GULP energy per Si atom -12395.362236 kJ/mol
# Density = 1.842107 g / cm^3
# Si number density = 18.463091 Si / 1000 Ang^3
#
#
#
# Elastic Constant Matrix: (Units=GPa)
#
#
# Indices 1 2 3 4 5 6 
#
# 1 65.8241 35.8184 13.5688 0.0000 0.0000 0.0000
# 2 35.8184 101.1136 16.6543 0.0000 0.0000 0.0000
# 3 13.5688 16.6543 51.9743 0.0000 0.0000 0.0000
# 4 0.0000 0.0000 0.0000 12.6031 0.0000 0.0000
# 5 0.0000 0.0000 0.0000 0.0000 24.6305 0.0000
# 6 0.0000 0.0000 0.0000 0.0000 0.0000 21.5342
#
#
#
# Elastic Compliance Matrix: (Units=1/GPa)
#
#
# Indices 1 2 3 4 5 6 
#
# 1 0.019253 -0.006326 -0.002999 0.000000 0.000000 0.000000
# 2 -0.006326 0.012520 -0.002360 0.000000 0.000000 0.000000
# 3 -0.002999 -0.002360 0.020780 0.000000 0.000000 0.000000
# 4 0.000000 0.000000 0.000000 0.079345 0.000000 0.000000
# 5 0.000000 0.000000 0.000000 0.000000 0.040600 0.000000
# 6 0.000000 0.000000 0.000000 0.000000 0.000000 0.046438
#
#
# Mechanical properties :
#
#
# Convention : Reuss Voigt Hill
#
# Bulk Modulus (GPa) = 34.26891 38.99943 36.63417
# Shear Modulus (GPa) = 19.83872 21.94494 20.89183
#
# Velocity S-wave (km/s) = 3.28152 3.45133 3.36749
# Velocity P-wave (km/s) = 5.74099 6.08695 5.91650
#
# Compressibility (1/GPa) = 0.02918097
#
# Stress axis : x y z
#
# Youngs Moduli (GPa) = 51.94118 79.87521 48.12433
#
# Poissons Ratio (x) = 0.50529 0.14433
# Poissons Ratio (y) = 0.32858 0.11358
# Poissons Ratio (z) = 0.15578 0.18852
#
# Static dielectric constant tensor:
#      x y z
#    x 3.311180 0.000000 0.000000 
#    y 0.000000 3.342370 0.000000 
#    z 0.000000 0.000000 3.293410 
# 
# 
# High freq. dielectric constant tensor:
#      x y z
#    x 1.712710 0.000000 0.000000 
#    y 0.000000 1.715180 0.000000 
#    z 0.000000 0.000000 1.700110 
# 
# From -- ./inp_files/18998.got.cif
#   From: 2010.03.12/outbox.cif.g09.slc.cpg/sg50_10_cif.got.tgz:18998.got - 2010.04.16 13:23:21.
