data_PCOD8205391
_publ_section_title
;
Structure prediction by ZEFSAII (Michael W. Deem and Ramdas Pophale) SiO2 
 PCOD8205391
Probable space group: P B A N
;
_chemical_formula_sum "Si O2"
_cell_formula_units_Z 48
_cell_length_a 23.199349
_cell_length_b 8.339921
_cell_length_c 10.470632
_cell_angle_alpha 90.000000
_cell_angle_beta 90.000000
_cell_angle_gamma 90.000000
_cell_volume 2025.865606
_symmetry_space_group_name_H-M "P B A N"
_symmetry_group_IT_number 50
_space_group.IT_coordinate_system_code '2'
_symmetry_cell_setting 'orthorhombic'
loop_
_space_group_symop_operation_xyz
x,y,z
1/2-x,1/2-y,z
x,1/2-y,-z
1/2-x,y,-z
-x,-y,-z
1/2+x,1/2+y,-z
-x,1/2+y,z
1/2+x,-y,z
loop_
_atom_site_type_symbol
_atom_site_label
_atom_site_fract_x
_atom_site_fract_y
_atom_site_fract_z
Si Si1 0.835068 0.032449 0.607730
Si Si2 0.266012 0.072670 0.829892
Si Si3 0.561247 0.910712 0.266009
Si Si4 0.127067 0.061639 0.019320
Si Si5 0.566480 0.532478 0.237920
Si Si6 0.675169 0.105341 0.669411
O O1 0.819291 0.203935 0.671424
O O2 0.806209 0.030897 0.467729
O O3 0.804184 0.905809 0.701232
O O4 0.903531 0.987088 0.613295
O O5 0.250000 0.250000 0.872567
O O6 0.306049 0.004792 0.948999
O O7 0.209813 0.967205 0.791301
O O8 0.588875 0.988221 0.140020
O O9 0.566179 0.720034 0.265631
O O10 0.495330 0.959782 0.265622
O O11 0.127670 0.250000 0.000000
O O12 0.094183 0.983456 0.899619
O O13 0.608342 0.441813 0.333880
#
# Coordination Sequence:
#
# PCOD8205391 Si02
#       6
#     8   8   8   8   8   8
#     4  10  23  42  60  87 124 162 209 255 301 363
#     4  11  22  38  63  90 120 159 203 251 305 367
#     4  10  21  39  62  90 122 159 206 252 303 364
#     4   9  20  38  60  88 122 158 198 249 304 365
#     4  11  22  38  64  91 121 161 202 252 310 366
#     4  11  23  39  62  89 123 164 203 253 310 361
#
# _framework density 23.693574999999999
#
# number of rings (size 3 to 8) (size 9 to 14) (size 15 to 20)
#    0.000    1.667    0.000    5.500    0.000    7.667 
#    0.000    6.667    0.000   14.000    0.000    0.000 
#    0.000    0.000    0.000    0.000    0.000    0.000 
#
# Total GULP energy -594699.397662 kJ/mol
# GULP energy per Si atom -12389.570785 kJ/mol
# Density = 2.363965 g / cm^3
# Si number density = 23.693575 Si / 1000 Ang^3
#
#
#
# Elastic Constant Matrix: (Units=GPa)
#
#
# Indices 1 2 3 4 5 6 
#
# 1 135.2087 -4.4004 7.9845 0.0000 0.0000 0.0000
# 2 -4.4004 31.2294 24.8058 0.0000 0.0000 0.0000
# 3 7.9845 24.8058 73.1292 0.0000 0.0000 0.0000
# 4 0.0000 0.0000 0.0000 19.4836 0.0000 0.0000
# 5 0.0000 0.0000 0.0000 0.0000 -11.0132 0.0000
# 6 0.0000 0.0000 0.0000 0.0000 0.0000 -4.3265
#
#
#
# Elastic Compliance Matrix: (Units=1/GPa)
#
#
# Indices 1 2 3 4 5 6 
#
# 1 0.007569 0.002358 -0.001626 0.000000 0.000000 0.000000
# 2 0.002358 0.044565 -0.015374 0.000000 0.000000 0.000000
# 3 -0.001626 -0.015374 0.019067 0.000000 0.000000 0.000000
# 4 0.000000 0.000000 0.000000 0.051325 0.000000 0.000000
# 5 0.000000 0.000000 0.000000 0.000000 -0.090800 0.000000
# 6 0.000000 0.000000 0.000000 0.000000 0.000000 -0.231133
#
#
# Mechanical properties :
#
#
# Convention : Reuss Voigt Hill
#
# Bulk Modulus (GPa) = 23.85694 32.92745 28.39219
# Shear Modulus (GPa) = -32.02055 14.90725 -8.55665
#
# Velocity S-wave (km/s) = -3.68019 2.51104 -1.90242
# Velocity P-wave (km/s) = 2.82269 4.72594 2.68020
#
# Compressibility (1/GPa) = 0.04191653
#
# Stress axis : x y z
#
# Youngs Moduli (GPa) = 132.12195 22.43894 52.44655
#
# Poissons Ratio (x) = -0.05292 0.08530
# Poissons Ratio (y) = -0.31158 0.80633
# Poissons Ratio (z) = 0.21487 0.34498
#
# Static dielectric constant tensor:
#      x y z
#    x 4.704380 0.000000 0.000000 
#    y 0.000000 3.913420 0.000000 
#    z 0.000000 0.000000 4.562350 
# 
# 
# High freq. dielectric constant tensor:
#      x y z
#    x 1.961640 0.000000 0.000000 
#    y 0.000000 1.909720 0.000000 
#    z 0.000000 0.000000 1.945220 
# 
# From -- ./inp_files/22783.got.cif
#   From: 2010.03.12/outbox.cif.g09.slc.cpg/sg50_12_cif.got.tgz:22783.got - 2010.04.16 13:23:21.
