data_PCOD8205830
_publ_section_title
;
Structure prediction by ZEFSAII (Michael W. Deem and Ramdas Pophale) SiO2 
 PCOD8205830
Probable space group: P B A N
;
_chemical_formula_sum "Si O2"
_cell_formula_units_Z 40
_cell_length_a 16.569864
_cell_length_b 8.323643
_cell_length_c 12.219095
_cell_angle_alpha 90.000000
_cell_angle_beta 90.000000
_cell_angle_gamma 90.000000
_cell_volume 1685.277530
_symmetry_space_group_name_H-M "P B A N"
_symmetry_group_IT_number 50
_space_group.IT_coordinate_system_code '2'
_symmetry_cell_setting 'orthorhombic'
loop_
_space_group_symop_operation_xyz
x,y,z
1/2-x,1/2-y,z
x,1/2-y,-z
1/2-x,y,-z
-x,-y,-z
1/2+x,1/2+y,-z
-x,1/2+y,z
1/2+x,-y,z
loop_
_atom_site_type_symbol
_atom_site_label
_atom_site_fract_x
_atom_site_fract_y
_atom_site_fract_z
Si Si1 0.162975 0.564048 0.529065
Si Si2 0.411927 0.405765 0.270971
Si Si3 0.412551 0.538576 0.050382
Si Si4 0.164065 0.837004 0.854849
Si Si5 0.414200 0.463320 0.677272
O O1 0.161212 0.750000 0.500000
O O2 0.250000 0.490095 0.500000
O O3 0.144199 0.523131 0.655391
O O4 0.094896 0.483718 0.452842
O O5 0.387425 0.410076 0.143162
O O6 0.402534 0.223929 0.305399
O O7 0.501408 0.473781 0.280423
O O8 0.408369 0.710103 0.116539
O O9 0.500000 0.500000 0.000000
O O10 0.344925 0.534352 0.954368
O O11 0.250000 0.750000 0.855320
O O12 0.153139 0.929191 0.740040
#
# Coordination Sequence:
#
# PCOD8205830 Si02
#       5
#     8   8   8   8   8
#     4  11  26  48  76 107 149 200 248 309 382 453
#     4  12  26  46  74 114 149 195 253 313 373 451
#     4  11  23  43  74 106 144 192 251 304 369 450
#     4  11  26  47  74 108 151 202 247 313 385 452
#     4  12  26  45  77 109 150 195 250 310 374 454
#
# _framework density 23.734960999999998
#
# number of rings (size 3 to 8) (size 9 to 14) (size 15 to 20)
#    0.000    0.600    2.000    6.000    8.400    2.400 
#    3.600    0.000    0.000    9.600    0.000    0.000 
#    0.000    0.000    0.000    0.000    0.000    0.000 
#
# Total GULP energy -495868.953605 kJ/mol
# GULP energy per Si atom -12396.723840 kJ/mol
# Density = 2.368094 g / cm^3
# Si number density = 23.734961 Si / 1000 Ang^3
#
#
#
# Elastic Constant Matrix: (Units=GPa)
#
#
# Indices 1 2 3 4 5 6 
#
# 1 121.1574 40.2869 45.3737 0.0000 0.0000 0.0000
# 2 40.2869 105.5120 18.4332 0.0000 0.0000 0.0000
# 3 45.3737 18.4332 125.3582 0.0000 0.0000 0.0000
# 4 0.0000 0.0000 0.0000 47.0319 0.0000 0.0000
# 5 0.0000 0.0000 0.0000 0.0000 48.7533 0.0000
# 6 0.0000 0.0000 0.0000 0.0000 0.0000 37.5185
#
#
#
# Elastic Compliance Matrix: (Units=1/GPa)
#
#
# Indices 1 2 3 4 5 6 
#
# 1 0.010668 -0.003488 -0.003348 0.000000 0.000000 0.000000
# 2 -0.003488 0.010868 -0.000336 0.000000 0.000000 0.000000
# 3 -0.003348 -0.000336 0.009238 0.000000 0.000000 0.000000
# 4 0.000000 0.000000 0.000000 0.021262 0.000000 0.000000
# 5 0.000000 0.000000 0.000000 0.000000 0.020511 0.000000
# 6 0.000000 0.000000 0.000000 0.000000 0.000000 0.026654
#
#
# Mechanical properties :
#
#
# Convention : Reuss Voigt Hill
#
# Bulk Modulus (GPa) = 60.86381 62.24614 61.55497
# Shear Modulus (GPa) = 42.00916 43.18964 42.59940
#
# Velocity S-wave (km/s) = 4.21161 4.27038 4.24110
# Velocity P-wave (km/s) = 7.02489 7.11318 7.06917
#
# Compressibility (1/GPa) = 0.01643013
#
# Stress axis : x y z
#
# Youngs Moduli (GPa) = 93.74254 92.01263 108.24406
#
# Poissons Ratio (x) = 0.32095 0.36243
# Poissons Ratio (y) = 0.32699 0.03632
# Poissons Ratio (z) = 0.31387 0.03087
#
# Static dielectric constant tensor:
#      x y z
#    x 4.214570 0.000000 0.000000 
#    y 0.000000 4.313070 0.000000 
#    z 0.000000 0.000000 4.901820 
# 
# 
# High freq. dielectric constant tensor:
#      x y z
#    x 1.926320 0.000000 0.000000 
#    y 0.000000 1.935430 0.000000 
#    z 0.000000 0.000000 1.968080 
# 
# From -- ./inp_files/18764.got.cif
#   From: 2010.03.12/outbox.cif.g09.slc.cpg/sg50_10_cif.got.tgz:18764.got - 2010.04.16 13:23:21.
