data_PCOD8205667
_publ_section_title
;
Structure prediction by ZEFSAII (Michael W. Deem and Ramdas Pophale) SiO2 
 PCOD8205667
Probable space group: P B A N
;
_chemical_formula_sum "Si O2"
_cell_formula_units_Z 30
_cell_length_a 28.991442
_cell_length_b 5.546689
_cell_length_c 8.235643
_cell_angle_alpha 90.000000
_cell_angle_beta 90.000000
_cell_angle_gamma 90.000000
_cell_volume 1324.345028
_symmetry_space_group_name_H-M "P B A N"
_symmetry_group_IT_number 50
_space_group.IT_coordinate_system_code '2'
_symmetry_cell_setting 'orthorhombic'
loop_
_space_group_symop_operation_xyz
x,y,z
1/2-x,1/2-y,z
x,1/2-y,-z
1/2-x,y,-z
-x,-y,-z
1/2+x,1/2+y,-z
-x,1/2+y,z
1/2+x,-y,z
loop_
_atom_site_type_symbol
_atom_site_label
_atom_site_fract_x
_atom_site_fract_y
_atom_site_fract_z
Si Si1 0.664131 0.250000 0.000000
Si Si2 0.706278 0.913532 0.756608
Si Si3 0.618949 0.860922 0.177493
Si Si4 0.750000 0.250000 0.500000
Si Si5 0.020377 0.278793 0.688444
O O1 0.632126 0.359409 0.855879
O O2 0.697800 0.051267 0.925170
O O3 0.750000 0.750000 0.787218
O O4 0.660594 0.758004 0.720332
O O5 0.715669 0.089254 0.606594
O O6 0.574121 0.829766 0.286330
O O7 0.610609 0.750000 0.000000
O O8 0.008443 0.250000 0.500000
O O9 0.994271 0.516507 0.765049
#
# Coordination Sequence:
#
# PCOD8205667 Si02
#       5
#     4   8   8   2   8
#     4  10  24  43  66  96 130 176 218 280 337 404
#     4  11  25  43  64  98 131 175 223 271 336 402
#     4  10  24  42  66  98 130 172 222 274 337 401
#     4  12  26  42  64  94 132 182 218 280 328 408
#     4  10  24  45  69  99 135 179 226 281 345 408
#
# _framework density 22.652708000000001
#
# number of rings (size 3 to 8) (size 9 to 14) (size 15 to 20)
#    0.000    1.600    0.000    2.000    7.467   18.133 
#    2.400    0.000    0.000    0.000    0.000    0.000 
#    0.000    0.000    0.000    0.000    0.000    0.000 
#
# Total GULP energy -371873.506256 kJ/mol
# GULP energy per Si atom -12395.783542 kJ/mol
# Density = 2.260115 g / cm^3
# Si number density = 22.652708 Si / 1000 Ang^3
#
#
#
# Elastic Constant Matrix: (Units=GPa)
#
#
# Indices 1 2 3 4 5 6 
#
# 1 173.4462 86.7321 23.2549 0.0000 0.0000 0.0000
# 2 86.7321 182.3551 28.9964 0.0000 0.0000 0.0000
# 3 23.2549 28.9964 34.5433 0.0000 0.0000 0.0000
# 4 0.0000 0.0000 0.0000 338.1345 0.0000 0.0000
# 5 0.0000 0.0000 0.0000 0.0000 38.8210 0.0000
# 6 0.0000 0.0000 0.0000 0.0000 0.0000 16.5532
#
#
#
# Elastic Compliance Matrix: (Units=1/GPa)
#
#
# Indices 1 2 3 4 5 6 
#
# 1 0.007740 -0.003292 -0.002447 0.000000 0.000000 0.000000
# 2 -0.003292 0.007729 -0.004271 0.000000 0.000000 0.000000
# 3 -0.002447 -0.004271 0.034182 0.000000 0.000000 0.000000
# 4 0.000000 0.000000 0.000000 0.002957 0.000000 0.000000
# 5 0.000000 0.000000 0.000000 0.000000 0.025759 0.000000
# 6 0.000000 0.000000 0.000000 0.000000 0.000000 0.060411
#
#
# Mechanical properties :
#
#
# Convention : Reuss Voigt Hill
#
# Bulk Modulus (GPa) = 33.75015 74.25683 54.00349
# Shear Modulus (GPa) = 29.64257 95.45915 62.55086
#
# Velocity S-wave (km/s) = 3.62134 6.49860 5.26051
# Velocity P-wave (km/s) = 5.69357 9.44250 7.79671
#
# Compressibility (1/GPa) = 0.02962950
#
# Stress axis : x y z
#
# Youngs Moduli (GPa) = 129.20248 129.38598 29.25506
#
# Poissons Ratio (x) = 0.42595 0.07159
# Poissons Ratio (y) = 0.42535 0.12496
# Poissons Ratio (z) = 0.31616 0.55267
#
# Static dielectric constant tensor:
#      x y z
#    x 4.055970 0.000000 0.000000 
#    y 0.000000 5.073210 0.000000 
#    z 0.000000 0.000000 3.777920 
# 
# 
# High freq. dielectric constant tensor:
#      x y z
#    x 1.892920 0.000000 0.000000 
#    y 0.000000 1.918330 0.000000 
#    z 0.000000 0.000000 1.869130 
# 
# From -- ./inp_files/16672.got.cif
#   From: 2010.03.12/outbox.cif.g09.slc.cpg/sg50_9_cif.got.tgz:16672.got - 2010.04.16 13:23:21.
