data_PCOD8205585
_publ_section_title
;
Structure prediction by ZEFSAII (Michael W. Deem and Ramdas Pophale) SiO2 
 PCOD8205585
Probable space group: P B A N
;
_chemical_formula_sum "Si O2"
_cell_formula_units_Z 48
_cell_length_a 8.864049
_cell_length_b 14.512812
_cell_length_c 18.210387
_cell_angle_alpha 90.000000
_cell_angle_beta 90.000000
_cell_angle_gamma 90.000000
_cell_volume 2342.625643
_symmetry_space_group_name_H-M "P B A N"
_symmetry_group_IT_number 50
_space_group.IT_coordinate_system_code '2'
_symmetry_cell_setting 'orthorhombic'
loop_
_space_group_symop_operation_xyz
x,y,z
1/2-x,1/2-y,z
x,1/2-y,-z
1/2-x,y,-z
-x,-y,-z
1/2+x,1/2+y,-z
-x,1/2+y,z
1/2+x,-y,z
loop_
_atom_site_type_symbol
_atom_site_label
_atom_site_fract_x
_atom_site_fract_y
_atom_site_fract_z
Si Si1 0.031679 0.613711 0.692454
Si Si2 0.527717 0.389933 0.153297
Si Si3 0.730397 0.964079 0.913973
Si Si4 0.384898 0.924085 0.315655
Si Si5 0.926899 0.265030 0.581103
Si Si6 0.093658 0.201654 0.837935
O O1 0.205895 0.585333 0.691652
O O2 0.993789 0.691167 0.633135
O O3 0.924723 0.529616 0.670427
O O4 0.989523 0.651363 0.771863
O O5 0.671086 0.438400 0.116604
O O6 0.385272 0.449757 0.128556
O O7 0.536379 0.389187 0.241320
O O8 0.512595 0.282758 0.128568
O O9 0.621194 0.876506 0.899463
O O10 0.750000 0.973631 0.000000
O O11 0.452871 0.866308 0.384232
O O12 0.750000 0.250000 0.578380
O O13 0.997009 0.250000 0.500000
O O14 0.250000 0.250000 0.812247
#
# Coordination Sequence:
#
# PCOD8205585 Si02
#       6
#     8   8   8   8   8   8
#     4  11  22  38  63  93 127 163 212 263 305 385
#     4  11  22  40  64  92 122 167 212 259 314 381
#     4  11  24  43  64  91 128 166 208 266 327 378
#     4  11  22  37  65  94 122 168 213 255 318 374
#     4   9  20  39  61  90 128 165 206 261 318 371
#     4  10  23  38  65  91 124 167 208 260 317 379
#
# _framework density 20.489830000000001
#
# number of rings (size 3 to 8) (size 9 to 14) (size 15 to 20)
#    0.000    1.500    3.333    1.500    2.333    3.667 
#    0.000    0.000    0.000    3.500    0.000    0.000 
#    0.000    0.000    0.000    0.000    0.000    0.000 
#
# Total GULP energy -595165.159450 kJ/mol
# GULP energy per Si atom -12399.274155 kJ/mol
# Density = 2.044319 g / cm^3
# Si number density = 20.489830 Si / 1000 Ang^3
#
#
#
# Elastic Constant Matrix: (Units=GPa)
#
#
# Indices 1 2 3 4 5 6 
#
# 1 55.8932 34.6612 31.5493 0.0000 0.0000 0.0000
# 2 34.6612 136.6383 54.7559 0.0000 0.0000 0.0000
# 3 31.5493 54.7559 134.3029 0.0000 0.0000 0.0000
# 4 0.0000 0.0000 0.0000 32.5761 0.0000 0.0000
# 5 0.0000 0.0000 0.0000 0.0000 16.1576 0.0000
# 6 0.0000 0.0000 0.0000 0.0000 0.0000 29.9101
#
#
#
# Elastic Compliance Matrix: (Units=1/GPa)
#
#
# Indices 1 2 3 4 5 6 
#
# 1 0.022561 -0.004302 -0.003546 0.000000 0.000000 0.000000
# 2 -0.004302 0.009568 -0.002890 0.000000 0.000000 0.000000
# 3 -0.003546 -0.002890 0.009457 0.000000 0.000000 0.000000
# 4 0.000000 0.000000 0.000000 0.030697 0.000000 0.000000
# 5 0.000000 0.000000 0.000000 0.000000 0.061891 0.000000
# 6 0.000000 0.000000 0.000000 0.000000 0.000000 0.033434
#
#
# Mechanical properties :
#
#
# Convention : Reuss Voigt Hill
#
# Bulk Modulus (GPa) = 49.72764 63.19635 56.46199
# Shear Modulus (GPa) = 25.53797 29.45329 27.49563
#
# Velocity S-wave (km/s) = 3.53423 3.79550 3.66719
# Velocity P-wave (km/s) = 6.40129 7.07937 6.74885
#
# Compressibility (1/GPa) = 0.02010954
#
# Stress axis : x y z
#
# Youngs Moduli (GPa) = 44.32515 104.51306 105.73933
#
# Poissons Ratio (x) = 0.44962 0.37493
# Poissons Ratio (y) = 0.19069 0.30563
# Poissons Ratio (z) = 0.15717 0.30208
#
# Static dielectric constant tensor:
#      x y z
#    x 3.661380 0.000000 0.000000 
#    y 0.000000 4.137570 0.000000 
#    z 0.000000 0.000000 4.401640 
# 
# 
# High freq. dielectric constant tensor:
#      x y z
#    x 1.790070 0.000000 0.000000 
#    y 0.000000 1.820000 0.000000 
#    z 0.000000 0.000000 1.790630 
# 
# From -- ./inp_files/28698.got.cif
#   From: 2010.03.12/outbox.cif.g09.slc.cpg/sg50_15_cif.got.tgz:28698.got - 2010.04.16 13:23:21.
