data_PCOD8205783
_publ_section_title
;
Structure prediction by ZEFSAII (Michael W. Deem and Ramdas Pophale) SiO2 
 PCOD8205783
Probable space group: P B A N
;
_chemical_formula_sum "Si O2"
_cell_formula_units_Z 58
_cell_length_a 14.370900
_cell_length_b 21.632992
_cell_length_c 8.563631
_cell_angle_alpha 90.000000
_cell_angle_beta 90.000000
_cell_angle_gamma 90.000000
_cell_volume 2662.309260
_symmetry_space_group_name_H-M "P B A N"
_symmetry_group_IT_number 50
_space_group.IT_coordinate_system_code '2'
_symmetry_cell_setting 'orthorhombic'
loop_
_space_group_symop_operation_xyz
x,y,z
1/2-x,1/2-y,z
x,1/2-y,-z
1/2-x,y,-z
-x,-y,-z
1/2+x,1/2+y,-z
-x,1/2+y,z
1/2+x,-y,z
loop_
_atom_site_type_symbol
_atom_site_label
_atom_site_fract_x
_atom_site_fract_y
_atom_site_fract_z
Si Si1 0.174266 0.380098 0.366119
Si Si2 0.155558 0.818690 0.439366
Si Si3 0.346209 0.474879 0.910572
Si Si4 0.422807 0.696975 0.109635
Si Si5 0.750000 0.750000 0.000000
Si Si6 0.473069 0.359220 0.411243
Si Si7 0.386651 0.250786 0.752062
Si Si8 0.018400 0.582229 0.094601
O O1 0.250000 0.389090 0.500000
O O2 0.184621 0.429493 0.228526
O O3 0.077033 0.395968 0.450112
O O4 0.175154 0.309414 0.302947
O O5 0.152746 0.750000 0.500000
O O6 0.250000 0.850987 0.500000
O O7 0.146339 0.819984 0.251662
O O8 0.076361 0.854567 0.528531
O O9 0.394532 0.538746 0.856572
O O10 0.250000 0.489085 0.000000
O O11 0.429149 0.446897 0.012700
O O12 0.518793 0.723607 0.175050
O O13 0.376921 0.750000 0.000000
O O14 0.439187 0.635860 0.010888
O O15 0.676847 0.785671 0.116384
O O16 0.415696 0.294726 0.388294
O O17 0.471010 0.393561 0.249802
#
# Coordination Sequence:
#
# PCOD8205783 Si02
#       8
#     8   8   8   8   2   8   8   8
#     4  12  25  41  68 102 141 187 224 279 359 436
#     4  11  22  39  62  94 134 179 225 278 335 406
#     4  11  26  47  67  93 133 179 245 298 336 409
#     4  12  21  43  72 101 141 178 223 281 362 429
#     4  12  24  32  54 104 142 176 222 256 338 420
#     4  12  22  43  67 100 145 178 225 283 359 428
#     4  12  22  36  64 101 146 179 210 279 337 443
#     4  11  24  44  72  97 128 185 232 292 358 404
#
# _framework density 21.785598
#
# number of rings (size 3 to 8) (size 9 to 14) (size 15 to 20)
#    0.000    0.414    6.207    2.069    0.966    2.207 
#    0.000    6.207    0.000    0.828    0.000    0.000 
#    0.000    0.000    0.000    0.000    0.000    0.000 
#
# Total GULP energy -718628.469570 kJ/mol
# GULP energy per Si atom -12390.146027 kJ/mol
# Density = 2.173601 g / cm^3
# Si number density = 21.785598 Si / 1000 Ang^3
#
#
#
# Elastic Constant Matrix: (Units=GPa)
#
#
# Indices 1 2 3 4 5 6 
#
# 1 139.2946 17.0681 34.2234 0.0000 0.0000 0.0000
# 2 17.0681 61.1317 2.6694 0.0000 0.0000 0.0000
# 3 34.2234 2.6694 82.5663 0.0000 0.0000 0.0000
# 4 0.0000 0.0000 0.0000 11.9814 0.0000 0.0000
# 5 0.0000 0.0000 0.0000 0.0000 37.4438 0.0000
# 6 0.0000 0.0000 0.0000 0.0000 0.0000 36.8177
#
#
#
# Elastic Compliance Matrix: (Units=1/GPa)
#
#
# Indices 1 2 3 4 5 6 
#
# 1 0.008269 -0.002162 -0.003358 0.000000 0.000000 0.000000
# 2 -0.002162 0.016947 0.000348 0.000000 0.000000 0.000000
# 3 -0.003358 0.000348 0.013492 0.000000 0.000000 0.000000
# 4 0.000000 0.000000 0.000000 0.083463 0.000000 0.000000
# 5 0.000000 0.000000 0.000000 0.000000 0.026707 0.000000
# 6 0.000000 0.000000 0.000000 0.000000 0.000000 0.027161
#
#
# Mechanical properties :
#
#
# Convention : Reuss Voigt Hill
#
# Bulk Modulus (GPa) = 35.25504 43.43492 39.34498
# Shear Modulus (GPa) = 25.53166 32.51735 29.02450
#
# Velocity S-wave (km/s) = 3.42709 3.86762 3.65400
# Velocity P-wave (km/s) = 5.64604 6.31865 5.99179
#
# Compressibility (1/GPa) = 0.02836474
#
# Stress axis : x y z
#
# Youngs Moduli (GPa) = 120.93564 59.00897 74.11858
#
# Poissons Ratio (x) = 0.12758 0.24885
# Poissons Ratio (y) = 0.26147 -0.02581
# Poissons Ratio (z) = 0.40604 -0.02055
#
# Static dielectric constant tensor:
#      x y z
#    x 3.984400 0.000000 0.000000 
#    y 0.000000 3.852150 0.000000 
#    z 0.000000 0.000000 4.317570 
# 
# 
# High freq. dielectric constant tensor:
#      x y z
#    x 1.871710 0.000000 0.000000 
#    y 0.000000 1.822120 0.000000 
#    z 0.000000 0.000000 1.878570 
# 
# From -- ./inp_files/13416.got.cif
#   From: 2010.03.12/outbox.cif.g09.slc.cpg/sg50_7_cif.got.tgz:13416.got - 2010.04.16 13:23:21.
