data_PCOD8205511
_publ_section_title
;
Structure prediction by ZEFSAII (Michael W. Deem and Ramdas Pophale) SiO2 
 PCOD8205511
Probable space group: P B A N
;
_chemical_formula_sum "Si O2"
_cell_formula_units_Z 38
_cell_length_a 24.874900
_cell_length_b 5.174682
_cell_length_c 13.736391
_cell_angle_alpha 90.000000
_cell_angle_beta 90.000000
_cell_angle_gamma 90.000000
_cell_volume 1768.144091
_symmetry_space_group_name_H-M "P B A N"
_symmetry_group_IT_number 50
_space_group.IT_coordinate_system_code '2'
_symmetry_cell_setting 'orthorhombic'
loop_
_space_group_symop_operation_xyz
x,y,z
1/2-x,1/2-y,z
x,1/2-y,-z
1/2-x,y,-z
-x,-y,-z
1/2+x,1/2+y,-z
-x,1/2+y,z
1/2+x,-y,z
loop_
_atom_site_type_symbol
_atom_site_label
_atom_site_fract_x
_atom_site_fract_y
_atom_site_fract_z
Si Si1 0.150256 0.517388 0.755326
Si Si2 0.164130 0.492571 0.124388
Si Si3 0.310666 0.002083 0.542688
Si Si4 0.967650 0.414752 0.196432
Si Si5 0.750000 0.250000 0.000000
Si Si6 0.924130 0.250000 0.000000
O O1 0.166403 0.802116 0.788733
O O2 0.185003 0.475049 0.658521
O O3 0.085810 0.518030 0.741806
O O4 0.165641 0.298854 0.834565
O O5 0.111261 0.538945 0.058686
O O6 0.216257 0.544548 0.061118
O O7 0.340578 0.750000 0.500000
O O8 0.250000 0.000939 0.500000
O O9 0.341483 0.250000 0.500000
O O10 0.010907 0.631672 0.225301
O O11 0.958073 0.413374 0.079151
#
# Coordination Sequence:
#
# PCOD8205511 Si02
#       6
#     8   8   8   8   2   4
#     4  11  23  41  60  87 123 155 197 258 314 360
#     4  10  23  38  58  84 126 168 200 246 296 353
#     4  10  22  40  65  91 114 144 191 249 312 378
#     4  11  22  36  60  88 120 162 207 251 294 350
#     4  10  24  38  56  86 122 174 220 234 284 372
#     4   9  20  37  56  88 126 164 208 247 286 335
#
# _framework density 21.49146
#
# number of rings (size 3 to 8) (size 9 to 14) (size 15 to 20)
#    0.000    1.684    0.000    4.421    0.000   17.684 
#    0.000    0.000    0.000    3.789    0.000    0.000 
#    0.000    0.000    0.000    0.000    0.000    0.000 
#
# Total GULP energy -470964.514377 kJ/mol
# GULP energy per Si atom -12393.803010 kJ/mol
# Density = 2.144254 g / cm^3
# Si number density = 21.491460 Si / 1000 Ang^3
#
#
#
# Elastic Constant Matrix: (Units=GPa)
#
#
# Indices 1 2 3 4 5 6 
#
# 1 93.3522 21.6103 30.7141 0.0000 0.0000 0.0000
# 2 21.6103 116.7177 13.4843 0.0000 0.0000 0.0000
# 3 30.7141 13.4843 86.4772 0.0000 0.0000 0.0000
# 4 0.0000 0.0000 0.0000 33.6876 0.0000 0.0000
# 5 0.0000 0.0000 0.0000 0.0000 34.1205 0.0000
# 6 0.0000 0.0000 0.0000 0.0000 0.0000 -187.0104
#
#
#
# Elastic Compliance Matrix: (Units=1/GPa)
#
#
# Indices 1 2 3 4 5 6 
#
# 1 0.012504 -0.001835 -0.004155 0.000000 0.000000 0.000000
# 2 -0.001835 0.008994 -0.000751 0.000000 0.000000 0.000000
# 3 -0.004155 -0.000751 0.013156 0.000000 0.000000 0.000000
# 4 0.000000 0.000000 0.000000 0.029685 0.000000 0.000000
# 5 0.000000 0.000000 0.000000 0.000000 0.029308 0.000000
# 6 0.000000 0.000000 0.000000 0.000000 0.000000 -0.005347
#
#
# Mechanical properties :
#
#
# Convention : Reuss Voigt Hill
#
# Bulk Modulus (GPa) = 47.22933 47.57383 47.40158
# Shear Modulus (GPa) = 45.93947 -8.45793 18.74077
#
# Velocity S-wave (km/s) = 4.62840 -1.98596 2.95619
# Velocity P-wave (km/s) = 7.11241 4.11406 5.80999
#
# Compressibility (1/GPa) = 0.02117328
#
# Stress axis : x y z
#
# Youngs Moduli (GPa) = 79.97481 111.18303 76.00811
#
# Poissons Ratio (x) = 0.20403 0.31580
# Poissons Ratio (y) = 0.14676 0.05706
# Poissons Ratio (z) = 0.33229 0.08346
#
# Static dielectric constant tensor:
#      x y z
#    x 3.900750 0.000000 0.000000 
#    y 0.000000 6.450900 0.000000 
#    z 0.000000 0.000000 4.009910 
# 
# 
# High freq. dielectric constant tensor:
#      x y z
#    x 1.829540 0.000000 0.000000 
#    y 0.000000 1.870040 0.000000 
#    z 0.000000 0.000000 1.813380 
# 
# From -- ./inp_files/22992.got.cif
#   From: 2010.03.12/outbox.cif.g09.slc.cpg/sg50_12_cif.got.tgz:22992.got - 2010.04.16 13:23:21.
