data_PCOD8205804
_publ_section_title
;
Structure prediction by ZEFSAII (Michael W. Deem and Ramdas Pophale) SiO2 
 PCOD8205804
Probable space group: P B A N
;
_chemical_formula_sum "Si O2"
_cell_formula_units_Z 52
_cell_length_a 9.529220
_cell_length_b 18.087921
_cell_length_c 16.482833
_cell_angle_alpha 90.000000
_cell_angle_beta 90.000000
_cell_angle_gamma 90.000000
_cell_volume 2841.043377
_symmetry_space_group_name_H-M "P B A N"
_symmetry_group_IT_number 50
_space_group.IT_coordinate_system_code '2'
_symmetry_cell_setting 'orthorhombic'
loop_
_space_group_symop_operation_xyz
x,y,z
1/2-x,1/2-y,z
x,1/2-y,-z
1/2-x,y,-z
-x,-y,-z
1/2+x,1/2+y,-z
-x,1/2+y,z
1/2+x,-y,z
loop_
_atom_site_type_symbol
_atom_site_label
_atom_site_fract_x
_atom_site_fract_y
_atom_site_fract_z
Si Si1 0.539382 0.835659 0.607458
Si Si2 0.086430 0.740109 0.254674
Si Si3 0.858153 0.690917 0.844694
Si Si4 0.304220 0.061314 0.268345
Si Si5 0.250000 0.250000 0.500000
Si Si6 0.750000 0.750000 0.000000
Si Si7 0.403688 0.567718 0.519373
Si Si8 0.021360 0.921547 0.702858
O O1 0.461164 0.773950 0.659789
O O2 0.605904 0.900816 0.660759
O O3 0.665334 0.801571 0.558929
O O4 0.428417 0.865276 0.542540
O O5 0.250000 0.750000 0.242311
O O6 0.041623 0.654626 0.248656
O O7 0.013818 0.785775 0.181933
O O8 0.750000 0.750000 0.803287
O O9 0.818785 0.608813 0.814352
O O10 0.845287 0.696687 0.942784
O O11 0.140829 0.052245 0.292564
O O12 0.375407 0.981416 0.255205
O O13 0.250000 0.538220 0.500000
O O14 0.500000 0.500000 0.500000
O O15 0.428778 0.593625 0.611141
#
# Coordination Sequence:
#
# PCOD8205804 Si02
#       8
#     8   8   8   8   2   2   8   8
#     4  11  23  38  54  77 109 150 209 254 306 343
#     4  11  23  38  60  87 117 153 199 250 295 350
#     4   9  19  40  66  92 113 148 191 223 282 362
#     4  11  23  36  59  85 112 149 198 241 290 357
#     4  12  24  34  58  76  96 150 204 268 300 342
#     4   8  16  38  74  92 116 154 180 228 284 358
#     4  12  24  36  51  76 110 153 200 248 303 351
#     4  12  23  37  56  79 117 154 197 251 298 341
#
# _framework density 18.303135000000001
#
# number of rings (size 3 to 8) (size 9 to 14) (size 15 to 20)
#    0.462    0.615    3.077    4.615    7.538    0.000 
#    0.000    1.923    0.000    3.692    0.000    0.000 
#    0.000    0.000    0.000    0.000    0.000    0.000 
#
# Total GULP energy -644786.358073 kJ/mol
# GULP energy per Si atom -12399.737655 kJ/mol
# Density = 1.826148 g / cm^3
# Si number density = 18.303135 Si / 1000 Ang^3
#
#
#
# Elastic Constant Matrix: (Units=GPa)
#
#
# Indices 1 2 3 4 5 6 
#
# 1 144.5586 40.5338 34.9674 0.0000 0.0000 0.0000
# 2 40.5338 104.1260 34.2495 0.0000 0.0000 0.0000
# 3 34.9674 34.2495 114.4485 0.0000 0.0000 0.0000
# 4 0.0000 0.0000 0.0000 22.2352 0.0000 0.0000
# 5 0.0000 0.0000 0.0000 0.0000 20.8822 0.0000
# 6 0.0000 0.0000 0.0000 0.0000 0.0000 31.0392
#
#
#
# Elastic Compliance Matrix: (Units=1/GPa)
#
#
# Indices 1 2 3 4 5 6 
#
# 1 0.008049 -0.002578 -0.001688 0.000000 0.000000 0.000000
# 2 -0.002578 0.011478 -0.002647 0.000000 0.000000 0.000000
# 3 -0.001688 -0.002647 0.010045 0.000000 0.000000 0.000000
# 4 0.000000 0.000000 0.000000 0.044974 0.000000 0.000000
# 5 0.000000 0.000000 0.000000 0.000000 0.047888 0.000000
# 6 0.000000 0.000000 0.000000 0.000000 0.000000 0.032217
#
#
# Mechanical properties :
#
#
# Convention : Reuss Voigt Hill
#
# Bulk Modulus (GPa) = 63.50683 64.73718 64.12201
# Shear Modulus (GPa) = 28.78103 31.72348 30.25226
#
# Velocity S-wave (km/s) = 3.96973 4.16772 4.06993
# Velocity P-wave (km/s) = 7.46889 7.65546 7.56275
#
# Compressibility (1/GPa) = 0.01574634
#
# Stress axis : x y z
#
# Youngs Moduli (GPa) = 124.24342 87.12274 99.54838
#
# Poissons Ratio (x) = 0.22461 0.16800
# Poissons Ratio (y) = 0.32031 0.26352
# Poissons Ratio (z) = 0.20968 0.23063
#
# Static dielectric constant tensor:
#      x y z
#    x 3.181170 0.000000 0.000000 
#    y 0.000000 3.480990 0.000000 
#    z 0.000000 0.000000 3.219310 
# 
# 
# High freq. dielectric constant tensor:
#      x y z
#    x 1.721370 0.000000 0.000000 
#    y 0.000000 1.716120 0.000000 
#    z 0.000000 0.000000 1.674960 
# 
# From -- ./inp_files/28869.got.cif
#   From: 2010.03.12/outbox.cif.g09.slc.cpg/sg50_15_cif.got.tgz:28869.got - 2010.04.16 13:23:21.
