data_PCOD8205689
_publ_section_title
;
Structure prediction by ZEFSAII (Michael W. Deem and Ramdas Pophale) SiO2 
 PCOD8205689
Probable space group: P B A N
;
_chemical_formula_sum "Si O2"
_cell_formula_units_Z 20
_cell_length_a 11.436779
_cell_length_b 15.271926
_cell_length_c 5.096036
_cell_angle_alpha 90.000000
_cell_angle_beta 90.000000
_cell_angle_gamma 90.000000
_cell_volume 890.082018
_symmetry_space_group_name_H-M "P B A N"
_symmetry_group_IT_number 50
_space_group.IT_coordinate_system_code '2'
_symmetry_cell_setting 'orthorhombic'
loop_
_space_group_symop_operation_xyz
x,y,z
1/2-x,1/2-y,z
x,1/2-y,-z
1/2-x,y,-z
-x,-y,-z
1/2+x,1/2+y,-z
-x,1/2+y,z
1/2+x,-y,z
loop_
_atom_site_type_symbol
_atom_site_label
_atom_site_fract_x
_atom_site_fract_y
_atom_site_fract_z
Si Si1 0.047119 0.808619 0.242940
Si Si2 0.178806 0.418815 0.241968
Si Si3 0.250000 0.913629 0.000000
O O1 0.061106 0.750000 0.500000
O O2 0.171011 0.853159 0.183714
O O3 0.951193 0.883742 0.281154
O O4 0.006329 0.750000 0.000000
O O5 0.250000 0.395878 0.500000
O O6 0.170831 0.524035 0.189338
O O7 0.250000 0.374253 0.000000
#
# Coordination Sequence:
#
# PCOD8205689 Si02
#       3
#     8   8   4
#     4  12  27  44  71 107 144 181 236 300 356 407
#     4  10  24  44  75  98 141 187 240 281 351 428
#     4  10  27  46  73  98 144 192 238 280 351 432
#
# _framework density 22.469840000000001
#
# number of rings (size 3 to 8) (size 9 to 14) (size 15 to 20)
#    1.200    0.000    0.000    4.200    5.600    8.000 
#    0.000    0.000    0.000    0.000    0.000    0.000 
#    0.000    0.000    0.000    0.000    0.000    0.000 
#
# Total GULP energy -247986.497326 kJ/mol
# GULP energy per Si atom -12399.324866 kJ/mol
# Density = 2.241870 g / cm^3
# Si number density = 22.469840 Si / 1000 Ang^3
#
#
#
# Elastic Constant Matrix: (Units=GPa)
#
#
# Indices 1 2 3 4 5 6 
#
# 1 145.4864 78.7519 67.6731 0.0000 0.0000 0.0000
# 2 78.7519 118.9541 58.7377 0.0000 0.0000 0.0000
# 3 67.6731 58.7377 190.0506 0.0000 0.0000 0.0000
# 4 0.0000 0.0000 0.0000 2.0824 0.0000 0.0000
# 5 0.0000 0.0000 0.0000 0.0000 44.8484 0.0000
# 6 0.0000 0.0000 0.0000 0.0000 0.0000 41.9000
#
#
#
# Elastic Compliance Matrix: (Units=1/GPa)
#
#
# Indices 1 2 3 4 5 6 
#
# 1 0.011337 -0.006505 -0.002027 0.000000 0.000000 0.000000
# 2 -0.006505 0.013653 -0.001903 0.000000 0.000000 0.000000
# 3 -0.002027 -0.001903 0.006572 0.000000 0.000000 0.000000
# 4 0.000000 0.000000 0.000000 0.480213 0.000000 0.000000
# 5 0.000000 0.000000 0.000000 0.000000 0.022297 0.000000
# 6 0.000000 0.000000 0.000000 0.000000 0.000000 0.023866
#
#
# Mechanical properties :
#
#
# Convention : Reuss Voigt Hill
#
# Bulk Modulus (GPa) = 93.52656 96.09071 94.80863
# Shear Modulus (GPa) = 8.58557 34.38807 21.48682
#
# Velocity S-wave (km/s) = 1.95684 3.91629 3.09569
# Velocity P-wave (km/s) = 6.84245 7.95656 7.42045
#
# Compressibility (1/GPa) = 0.01069215
#
# Stress axis : x y z
#
# Youngs Moduli (GPa) = 88.20429 73.24388 152.16981
#
# Poissons Ratio (x) = 0.47646 0.30837
# Poissons Ratio (y) = 0.57377 0.28963
# Poissons Ratio (z) = 0.17875 0.13941
#
# Static dielectric constant tensor:
#      x y z
#    x 4.214810 0.000000 0.000000 
#    y 0.000000 4.062840 0.000000 
#    z 0.000000 0.000000 4.152880 
# 
# 
# High freq. dielectric constant tensor:
#      x y z
#    x 1.882480 0.000000 0.000000 
#    y 0.000000 1.886350 0.000000 
#    z 0.000000 0.000000 1.899650 
# 
# From -- ./inp_files/670.got.cif
#   From: 2010.03.12/outbox.cif.g09.slc.cpg/sg50_1_cif.got.tgz:670.got - 2010.04.16 13:23:21.
