data_PCOD8205517
_publ_section_title
;
Structure prediction by ZEFSAII (Michael W. Deem and Ramdas Pophale) SiO2 
 PCOD8205517
Probable space group: P B A N
;
_chemical_formula_sum "Si O2"
_cell_formula_units_Z 64
_cell_length_a 18.073379
_cell_length_b 11.836113
_cell_length_c 15.291255
_cell_angle_alpha 90.000000
_cell_angle_beta 90.000000
_cell_angle_gamma 90.000000
_cell_volume 3271.083191
_symmetry_space_group_name_H-M "P B A N"
_symmetry_group_IT_number 50
_space_group.IT_coordinate_system_code '2'
_symmetry_cell_setting 'orthorhombic'
loop_
_space_group_symop_operation_xyz
x,y,z
1/2-x,1/2-y,z
x,1/2-y,-z
1/2-x,y,-z
-x,-y,-z
1/2+x,1/2+y,-z
-x,1/2+y,z
1/2+x,-y,z
loop_
_atom_site_type_symbol
_atom_site_label
_atom_site_fract_x
_atom_site_fract_y
_atom_site_fract_z
Si Si1 0.068578 0.910875 0.679509
Si Si2 0.817099 0.682025 0.260553
Si Si3 0.901077 0.888175 0.194716
Si Si4 0.242097 0.431371 0.093904
Si Si5 0.335619 0.880745 0.485283
Si Si6 0.088230 0.003261 0.359006
Si Si7 0.309936 0.678195 0.089360
Si Si8 0.442232 0.681883 0.215527
O O1 0.136484 0.896566 0.613196
O O2 0.053905 0.806268 0.743912
O O3 0.097668 0.015156 0.734014
O O4 0.990969 0.935506 0.630180
O O5 0.750000 0.750000 0.307433
O O6 0.880368 0.770740 0.240079
O O7 0.787815 0.630722 0.169247
O O8 0.848341 0.587765 0.325055
O O9 0.845488 0.928609 0.118215
O O10 0.984509 0.861698 0.164936
O O11 0.276507 0.554269 0.077430
O O12 0.250000 0.368174 0.000000
O O13 0.348097 0.750000 0.500000
O O14 0.250000 0.915252 0.500000
O O15 0.386753 0.956400 0.547699
O O16 0.082219 0.900716 0.292314
O O17 0.250000 0.750000 0.146372
O O18 0.386548 0.674652 0.136725
O O19 0.320796 0.750000 0.000000
#
# Coordination Sequence:
#
# PCOD8205517 Si02
#       8
#     8   8   8   8   8   8   8   8
#     4  11  23  42  67  94 129 176 215 267 342 388
#     4  10  22  40  67  90 125 172 225 263 323 396
#     4  10  24  42  65  95 128 169 226 266 326 398
#     4  11  22  42  65  92 128 176 219 272 326 385
#     4  11  25  41  64 101 132 163 218 278 330 398
#     4  11  22  43  67  92 133 169 219 272 328 397
#     4  11  22  38  63  97 134 170 217 268 331 388
#     4  11  22  41  67  97 126 175 220 275 330 391
#
# _framework density 19.565384999999999
#
# number of rings (size 3 to 8) (size 9 to 14) (size 15 to 20)
#    0.000    1.250    5.000    1.125    3.500    3.250 
#    2.250    1.250    0.000    0.000    0.000    0.000 
#    0.000    0.000    0.000    0.000    0.000    0.000 
#
# Total GULP energy -793114.409700 kJ/mol
# GULP energy per Si atom -12392.412652 kJ/mol
# Density = 1.952085 g / cm^3
# Si number density = 19.565385 Si / 1000 Ang^3
#
#
#
# Elastic Constant Matrix: (Units=GPa)
#
#
# Indices 1 2 3 4 5 6 
#
# 1 124.6840 23.2977 50.2509 0.0000 0.0000 0.0000
# 2 23.2977 78.3238 12.7763 0.0000 0.0000 0.0000
# 3 50.2509 12.7763 67.0877 0.0000 0.0000 0.0000
# 4 0.0000 0.0000 0.0000 26.7023 0.0000 0.0000
# 5 0.0000 0.0000 0.0000 0.0000 49.1814 0.0000
# 6 0.0000 0.0000 0.0000 0.0000 0.0000 48.3795
#
#
#
# Elastic Compliance Matrix: (Units=1/GPa)
#
#
# Indices 1 2 3 4 5 6 
#
# 1 0.011826 -0.002139 -0.008450 0.000000 0.000000 0.000000
# 2 -0.002139 0.013564 -0.000981 0.000000 0.000000 0.000000
# 3 -0.008450 -0.000981 0.021422 0.000000 0.000000 0.000000
# 4 0.000000 0.000000 0.000000 0.037450 0.000000 0.000000
# 5 0.000000 0.000000 0.000000 0.000000 0.020333 0.000000
# 6 0.000000 0.000000 0.000000 0.000000 0.000000 0.020670
#
#
# Mechanical properties :
#
#
# Convention : Reuss Voigt Hill
#
# Bulk Modulus (GPa) = 42.24583 49.19391 45.71987
# Shear Modulus (GPa) = 31.99059 37.10401 34.54730
#
# Velocity S-wave (km/s) = 4.04797 4.35950 4.20662
# Velocity P-wave (km/s) = 6.59448 7.10903 6.85658
#
# Compressibility (1/GPa) = 0.02367097
#
# Stress axis : x y z
#
# Youngs Moduli (GPa) = 84.56118 73.72567 46.68022
#
# Poissons Ratio (x) = 0.15771 0.39447
# Poissons Ratio (y) = 0.18089 0.04578
# Poissons Ratio (z) = 0.71458 0.07231
#
# Static dielectric constant tensor:
#      x y z
#    x 4.209450 0.000000 0.000000 
#    y 0.000000 3.874070 0.000000 
#    z 0.000000 0.000000 3.371650 
# 
# 
# High freq. dielectric constant tensor:
#      x y z
#    x 1.779160 0.000000 0.000000 
#    y 0.000000 1.783870 0.000000 
#    z 0.000000 0.000000 1.743120 
# 
# From -- ./inp_files/27001.got.cif
#   From: 2010.03.12/outbox.cif.g09.slc.cpg/sg50_14_cif.got.tgz:27001.got - 2010.04.16 13:23:21.
