data_PCOD8205707
_publ_section_title
;
Structure prediction by ZEFSAII (Michael W. Deem and Ramdas Pophale) SiO2 
 PCOD8205707
Probable space group: P B A N
;
_chemical_formula_sum "Si O2"
_cell_formula_units_Z 26
_cell_length_a 10.194937
_cell_length_b 18.962991
_cell_length_c 5.456095
_cell_angle_alpha 90.000000
_cell_angle_beta 90.000000
_cell_angle_gamma 90.000000
_cell_volume 1054.807742
_symmetry_space_group_name_H-M "P B A N"
_symmetry_group_IT_number 50
_space_group.IT_coordinate_system_code '2'
_symmetry_cell_setting 'orthorhombic'
loop_
_space_group_symop_operation_xyz
x,y,z
1/2-x,1/2-y,z
x,1/2-y,-z
1/2-x,y,-z
-x,-y,-z
1/2+x,1/2+y,-z
-x,1/2+y,z
1/2+x,-y,z
loop_
_atom_site_type_symbol
_atom_site_label
_atom_site_fract_x
_atom_site_fract_y
_atom_site_fract_z
Si Si1 0.250000 0.250000 0.000000
Si Si2 0.430484 0.323404 0.389245
Si Si3 0.134778 0.071606 0.807907
Si Si4 0.380592 0.915820 0.128199
O O1 0.162557 0.303776 0.840331
O O2 0.473188 0.250000 0.500000
O O3 0.353280 0.375178 0.577270
O O4 0.567904 0.359368 0.322561
O O5 0.507930 0.422107 0.923918
O O6 0.148863 0.989453 0.729435
O O7 0.250000 0.088614 0.000000
O O8 0.250000 0.886728 0.000000
#
# Coordination Sequence:
#
# PCOD8205707 Si02
#       4
#     2   8   8   8
#     4  12  30  48  68 120 152 206 258 320 380 480
#     4  12  27  45  76 111 159 204 259 325 393 461
#     4  10  24  47  80 112 150 200 261 323 381 460
#     4  10  24  48  75 113 154 199 254 315 391 466
#
# _framework density 24.649041
#
# number of rings (size 3 to 8) (size 9 to 14) (size 15 to 20)
#    0.000    1.231    0.000    3.231   12.923    1.231 
#    0.000   20.769    0.000    0.000    4.000    0.000 
#    0.000    0.000    0.000    0.000    0.000    0.000 
#
# Total GULP energy -322222.100968 kJ/mol
# GULP energy per Si atom -12393.157730 kJ/mol
# Density = 2.459294 g / cm^3
# Si number density = 24.649041 Si / 1000 Ang^3
#
#
#
# Elastic Constant Matrix: (Units=GPa)
#
#
# Indices 1 2 3 4 5 6 
#
# 1 193.7605 79.4269 76.8863 0.0000 0.0000 0.0000
# 2 79.4269 228.7413 101.6947 0.0000 0.0000 0.0000
# 3 76.8863 101.6947 154.3445 0.0000 0.0000 0.0000
# 4 0.0000 0.0000 0.0000 11.8852 0.0000 0.0000
# 5 0.0000 0.0000 0.0000 0.0000 47.3166 0.0000
# 6 0.0000 0.0000 0.0000 0.0000 0.0000 113.2832
#
#
#
# Elastic Compliance Matrix: (Units=1/GPa)
#
#
# Indices 1 2 3 4 5 6 
#
# 1 0.006651 -0.001183 -0.002534 0.000000 0.000000 0.000000
# 2 -0.001183 0.006393 -0.003623 0.000000 0.000000 0.000000
# 3 -0.002534 -0.003623 0.010128 0.000000 0.000000 0.000000
# 4 0.000000 0.000000 0.000000 0.084138 0.000000 0.000000
# 5 0.000000 0.000000 0.000000 0.000000 0.021134 0.000000
# 6 0.000000 0.000000 0.000000 0.000000 0.000000 0.008827
#
#
# Mechanical properties :
#
#
# Convention : Reuss Voigt Hill
#
# Bulk Modulus (GPa) = 117.74272 121.42914 119.58593
# Shear Modulus (GPa) = 32.30297 55.75288 44.02793
#
# Velocity S-wave (km/s) = 3.62403 4.76107 4.23092
# Velocity P-wave (km/s) = 8.08597 8.92154 8.51401
#
# Compressibility (1/GPa) = 0.00849309
#
# Stress axis : x y z
#
# Youngs Moduli (GPa) = 150.34280 156.41301 98.73175
#
# Poissons Ratio (x) = 0.18505 0.25018
# Poissons Ratio (y) = 0.17787 0.35771
# Poissons Ratio (z) = 0.38095 0.56670
#
# Static dielectric constant tensor:
#      x y z
#    x 4.036690 0.000000 0.000000 
#    y 0.000000 8.438870 0.000000 
#    z 0.000000 0.000000 4.032140 
# 
# 
# High freq. dielectric constant tensor:
#      x y z
#    x 1.985960 0.000000 0.000000 
#    y 0.000000 2.006630 0.000000 
#    z 0.000000 0.000000 1.972760 
# 
# From -- ./inp_files/1829.got.cif
#   From: 2010.03.12/outbox.cif.g09.slc.cpg/sg50_1_cif.got.tgz:1829.got - 2010.04.16 13:23:21.
