data_PCOD8205863
_publ_section_title
;
Structure prediction by ZEFSAII (Michael W. Deem and Ramdas Pophale) SiO2 
 PCOD8205863
Probable space group: P B A N
;
_chemical_formula_sum "Si O2"
_cell_formula_units_Z 38
_cell_length_a 22.352296
_cell_length_b 12.177265
_cell_length_c 6.166161
_cell_angle_alpha 90.000000
_cell_angle_beta 90.000000
_cell_angle_gamma 90.000000
_cell_volume 1678.366325
_symmetry_space_group_name_H-M "P B A N"
_symmetry_group_IT_number 50
_space_group.IT_coordinate_system_code '2'
_symmetry_cell_setting 'orthorhombic'
loop_
_space_group_symop_operation_xyz
x,y,z
1/2-x,1/2-y,z
x,1/2-y,-z
1/2-x,y,-z
-x,-y,-z
1/2+x,1/2+y,-z
-x,1/2+y,z
1/2+x,-y,z
loop_
_atom_site_type_symbol
_atom_site_label
_atom_site_fract_x
_atom_site_fract_y
_atom_site_fract_z
Si Si1 0.750000 0.929222 0.500000
Si Si2 0.670212 0.862480 0.862470
Si Si3 0.324251 0.557509 0.176731
Si Si4 0.250000 0.750000 0.000000
Si Si5 0.061260 0.131060 0.569863
Si Si6 0.457412 0.537309 0.197165
O O1 0.720213 0.848458 0.676842
O O2 0.803831 0.006690 0.592044
O O3 0.607148 0.902068 0.760045
O O4 0.664422 0.750000 0.000000
O O5 0.693053 0.964540 0.003224
O O6 0.393933 0.590225 0.138842
O O7 0.290109 0.671938 0.149552
O O8 0.081139 0.250000 0.500000
O O9 0.994318 0.126368 0.664922
O O10 0.063092 0.063126 0.348647
O O11 0.500000 0.500000 0.000000
#
# Coordination Sequence:
#
# PCOD8205863 Si02
#       6
#     4   8   8   2   8   8
#     4  12  26  50  72 106 152 199 247 310 394 452
#     4  12  26  47  77 110 151 190 251 324 393 471
#     4  12  26  50  72 108 149 202 261 314 376 461
#     4  12  28  50  70 108 150 204 268 310 368 468
#     4  11  25  45  71 111 144 190 243 310 392 455
#     4  11  24  46  76 103 149 194 247 311 377 460
#
# _framework density 22.641062000000002
#
# number of rings (size 3 to 8) (size 9 to 14) (size 15 to 20)
#    0.000    0.421    6.316    1.263    0.000    4.632 
#    3.789    0.000    0.000    0.000    0.000    0.000 
#    0.000    0.000    0.000    0.000    0.000    0.000 
#
# Total GULP energy -470971.507646 kJ/mol
# GULP energy per Si atom -12393.987043 kJ/mol
# Density = 2.258953 g / cm^3
# Si number density = 22.641062 Si / 1000 Ang^3
#
#
#
# Elastic Constant Matrix: (Units=GPa)
#
#
# Indices 1 2 3 4 5 6 
#
# 1 164.6941 38.5142 49.8207 0.0000 0.0000 0.0000
# 2 38.5142 108.0106 48.7277 0.0000 0.0000 0.0000
# 3 49.8207 48.7277 113.4871 0.0000 0.0000 0.0000
# 4 0.0000 0.0000 0.0000 32.1472 0.0000 0.0000
# 5 0.0000 0.0000 0.0000 0.0000 51.5036 0.0000
# 6 0.0000 0.0000 0.0000 0.0000 0.0000 -1.8233
#
#
#
# Elastic Compliance Matrix: (Units=1/GPa)
#
#
# Indices 1 2 3 4 5 6 
#
# 1 0.007171 -0.001410 -0.002543 0.000000 0.000000 0.000000
# 2 -0.001410 0.011760 -0.004430 0.000000 0.000000 0.000000
# 3 -0.002543 -0.004430 0.011830 0.000000 0.000000 0.000000
# 4 0.000000 0.000000 0.000000 0.031107 0.000000 0.000000
# 5 0.000000 0.000000 0.000000 0.000000 0.019416 0.000000
# 6 0.000000 0.000000 0.000000 0.000000 0.000000 -0.548466
#
#
# Mechanical properties :
#
#
# Convention : Reuss Voigt Hill
#
# Bulk Modulus (GPa) = 71.45449 73.36856 72.41152
# Shear Modulus (GPa) = -11.21700 32.97410 10.87855
#
# Velocity S-wave (km/s) = -2.22823 3.82040 2.19436
# Velocity P-wave (km/s) = 5.00082 7.20667 6.20259
#
# Compressibility (1/GPa) = 0.01399492
#
# Stress axis : x y z
#
# Youngs Moduli (GPa) = 139.45622 85.03566 84.53075
#
# Poissons Ratio (x) = 0.11989 0.21493
# Poissons Ratio (y) = 0.19661 0.37450
# Poissons Ratio (z) = 0.35458 0.37674
#
# Static dielectric constant tensor:
#      x y z
#    x 4.455900 0.000000 0.000000 
#    y 0.000000 3.753200 0.000000 
#    z 0.000000 0.000000 4.318130 
# 
# 
# High freq. dielectric constant tensor:
#      x y z
#    x 1.922750 0.000000 0.000000 
#    y 0.000000 1.868480 0.000000 
#    z 0.000000 0.000000 1.903730 
# 
# From -- ./inp_files/6469.got.cif
#   From: 2010.03.12/outbox.cif.g09.slc.cpg/sg50_4_cif.got.tgz:6469.got - 2010.04.16 13:23:21.
