data_PCOD8205781
_publ_section_title
;
Structure prediction by ZEFSAII (Michael W. Deem and Ramdas Pophale) SiO2 
 PCOD8205781
Probable space group: P B A N
;
_chemical_formula_sum "Si O2"
_cell_formula_units_Z 28
_cell_length_a 19.559984
_cell_length_b 10.248211
_cell_length_c 6.745412
_cell_angle_alpha 90.000000
_cell_angle_beta 90.000000
_cell_angle_gamma 90.000000
_cell_volume 1352.150505
_symmetry_space_group_name_H-M "P B A N"
_symmetry_group_IT_number 50
_space_group.IT_coordinate_system_code '2'
_symmetry_cell_setting 'orthorhombic'
loop_
_space_group_symop_operation_xyz
x,y,z
1/2-x,1/2-y,z
x,1/2-y,-z
1/2-x,y,-z
-x,-y,-z
1/2+x,1/2+y,-z
-x,1/2+y,z
1/2+x,-y,z
loop_
_atom_site_type_symbol
_atom_site_label
_atom_site_fract_x
_atom_site_fract_y
_atom_site_fract_z
Si Si1 0.679267 0.129498 0.385125
Si Si2 0.641411 0.250000 0.000000
Si Si3 0.466020 0.559622 0.808934
Si Si4 0.586417 0.891076 0.473267
O O1 0.641466 0.250000 0.500000
O O2 0.750000 0.104400 0.500000
O O3 0.636842 0.997003 0.379016
O O4 0.689243 0.169780 0.154101
O O5 0.593771 0.157641 0.867650
O O6 0.521718 0.631539 0.671056
O O7 0.435213 0.438267 0.689813
O O8 0.500000 0.500000 0.000000
O O9 0.622631 0.750000 0.500000
#
# Coordination Sequence:
#
# PCOD8205781 Si02
#       4
#     8   4   8   8
#     4  11  25  45  67  95 130 182 226 273 326 395
#     4  12  22  43  70 102 130 175 234 274 334 416
#     4  11  22  38  65  98 138 171 212 273 341 401
#     4  11  24  40  64 101 138 170 214 275 342 397
#
# _framework density 20.707756
#
# number of rings (size 3 to 8) (size 9 to 14) (size 15 to 20)
#    0.000    0.857    5.714    1.714    4.000    2.857 
#    0.000    0.000    0.000    0.000    0.000    0.000 
#    0.000    0.000    0.000    0.000    0.000    0.000 
#
# Total GULP energy -347094.246458 kJ/mol
# GULP energy per Si atom -12396.223088 kJ/mol
# Density = 2.066062 g / cm^3
# Si number density = 20.707756 Si / 1000 Ang^3
#
#
#
# Elastic Constant Matrix: (Units=GPa)
#
#
# Indices 1 2 3 4 5 6 
#
# 1 83.4548 35.9906 47.7771 0.0000 0.0000 0.0000
# 2 35.9906 150.2182 46.4000 0.0000 0.0000 0.0000
# 3 47.7771 46.4000 161.2563 0.0000 0.0000 0.0000
# 4 0.0000 0.0000 0.0000 26.3546 0.0000 0.0000
# 5 0.0000 0.0000 0.0000 0.0000 27.5655 0.0000
# 6 0.0000 0.0000 0.0000 0.0000 0.0000 43.6311
#
#
#
# Elastic Compliance Matrix: (Units=1/GPa)
#
#
# Indices 1 2 3 4 5 6 
#
# 1 0.015224 -0.002474 -0.003799 0.000000 0.000000 0.000000
# 2 -0.002474 0.007708 -0.001485 0.000000 0.000000 0.000000
# 3 -0.003799 -0.001485 0.007754 0.000000 0.000000 0.000000
# 4 0.000000 0.000000 0.000000 0.037944 0.000000 0.000000
# 5 0.000000 0.000000 0.000000 0.000000 0.036277 0.000000
# 6 0.000000 0.000000 0.000000 0.000000 0.000000 0.022919
#
#
# Mechanical properties :
#
#
# Convention : Reuss Voigt Hill
#
# Bulk Modulus (GPa) = 65.91519 72.80719 69.36119
# Shear Modulus (GPa) = 33.69264 37.16102 35.42683
#
# Velocity S-wave (km/s) = 4.03805 4.24080 4.14067
# Velocity P-wave (km/s) = 7.32403 7.69512 7.51187
#
# Compressibility (1/GPa) = 0.01517101
#
# Stress axis : x y z
#
# Youngs Moduli (GPa) = 65.68444 129.72757 128.96418
#
# Poissons Ratio (x) = 0.32097 0.48990
# Poissons Ratio (y) = 0.16252 0.19151
# Poissons Ratio (z) = 0.24952 0.19264
#
# Static dielectric constant tensor:
#      x y z
#    x 3.558900 0.000000 0.000000 
#    y 0.000000 3.902390 0.000000 
#    z 0.000000 0.000000 4.062550 
# 
# 
# High freq. dielectric constant tensor:
#      x y z
#    x 1.787700 0.000000 0.000000 
#    y 0.000000 1.808220 0.000000 
#    z 0.000000 0.000000 1.837310 
# 
# From -- ./inp_files/1864.got.cif
#   From: 2010.03.12/outbox.cif.g09.slc.cpg/sg50_1_cif.got.tgz:1864.got - 2010.04.16 13:23:21.
