data_PCOD8205091
_publ_section_title
;
Structure prediction by ZEFSAII (Michael W. Deem and Ramdas Pophale) SiO2 
 PCOD8205091
Probable space group: P B A N
;
_chemical_formula_sum "Si O2"
_cell_formula_units_Z 48
_cell_length_a 26.787621
_cell_length_b 10.633179
_cell_length_c 8.298129
_cell_angle_alpha 90.000000
_cell_angle_beta 90.000000
_cell_angle_gamma 90.000000
_cell_volume 2363.618892
_symmetry_space_group_name_H-M "P B A N"
_symmetry_group_IT_number 50
_space_group.IT_coordinate_system_code '2'
_symmetry_cell_setting 'orthorhombic'
loop_
_space_group_symop_operation_xyz
x,y,z
1/2-x,1/2-y,z
x,1/2-y,-z
1/2-x,y,-z
-x,-y,-z
1/2+x,1/2+y,-z
-x,1/2+y,z
1/2+x,-y,z
loop_
_atom_site_type_symbol
_atom_site_label
_atom_site_fract_x
_atom_site_fract_y
_atom_site_fract_z
Si Si1 0.143118 0.257913 0.814595
Si Si2 0.641785 0.010473 0.695573
Si Si3 0.244899 0.887619 0.812335
Si Si4 0.948474 0.876964 0.897816
Si Si5 0.800238 0.568578 0.399806
Si Si6 0.559144 0.373846 0.107489
O O1 0.123569 0.121157 0.767373
O O2 0.098749 0.360674 0.778893
O O3 0.186040 0.300027 0.688536
O O4 0.162856 0.250000 0.000000
O O5 0.654602 0.991208 0.506700
O O6 0.691392 0.054064 0.782529
O O7 0.597756 0.110201 0.742581
O O8 0.250000 0.750000 0.732635
O O9 0.289763 0.968900 0.740444
O O10 0.250000 0.879051 0.000000
O O11 0.003197 0.868052 0.816404
O O12 0.940787 0.750000 0.000000
O O13 0.940220 0.006436 0.990909
O O14 0.750000 0.592723 0.500000
O O15 0.571434 0.250000 0.000000
#
# Coordination Sequence:
#
# PCOD8205091 Si02
#       6
#     8   8   8   8   8   8
#     4  11  20  38  66  87 118 163 218 262 311 377
#     4  11  22  37  59  90 125 166 203 258 321 382
#     4  10  23  40  62  87 121 161 213 260 304 379
#     4   9  18  36  60  91 123 157 213 272 309 366
#     4  10  24  41  59  90 130 166 206 264 334 380
#     4  10  20  34  61  94 124 159 212 266 317 373
#
# _framework density 20.307842999999998
#
# number of rings (size 3 to 8) (size 9 to 14) (size 15 to 20)
#    0.000    1.833    3.333    1.500    2.333    7.667 
#    0.000    5.000    0.000    0.000    0.000    0.000 
#    0.000    0.000    0.000    0.000    0.000    0.000 
#
# Total GULP energy -594662.614065 kJ/mol
# GULP energy per Si atom -12388.804460 kJ/mol
# Density = 2.026162 g / cm^3
# Si number density = 20.307843 Si / 1000 Ang^3
#
#
#
# Elastic Constant Matrix: (Units=GPa)
#
#
# Indices 1 2 3 4 5 6 
#
# 1 94.7735 34.4773 44.8119 0.0000 0.0000 0.0000
# 2 34.4773 116.2725 27.1659 0.0000 0.0000 0.0000
# 3 44.8119 27.1659 85.8121 0.0000 0.0000 0.0000
# 4 0.0000 0.0000 0.0000 -279.1643 0.0000 0.0000
# 5 0.0000 0.0000 0.0000 0.0000 31.5134 0.0000
# 6 0.0000 0.0000 0.0000 0.0000 0.0000 239.2840
#
#
#
# Elastic Compliance Matrix: (Units=1/GPa)
#
#
# Indices 1 2 3 4 5 6 
#
# 1 0.014804 -0.002790 -0.006848 0.000000 0.000000 0.000000
# 2 -0.002790 0.009813 -0.001650 0.000000 0.000000 0.000000
# 3 -0.006848 -0.001650 0.015752 0.000000 0.000000 0.000000
# 4 0.000000 0.000000 0.000000 -0.003582 0.000000 0.000000
# 5 0.000000 0.000000 0.000000 0.000000 0.031733 0.000000
# 6 0.000000 0.000000 0.000000 0.000000 0.000000 0.004179
#
#
# Mechanical properties :
#
#
# Convention : Reuss Voigt Hill
#
# Bulk Modulus (GPa) = 56.19746 56.64092 56.41919
# Shear Modulus (GPa) = 49.40495 11.02016 30.21256
#
# Velocity S-wave (km/s) = 4.93769 2.33202 3.86129
# Velocity P-wave (km/s) = 7.76148 5.93320 6.90809
#
# Compressibility (1/GPa) = 0.01779440
#
# Stress axis : x y z
#
# Youngs Moduli (GPa) = 67.54846 101.90376 63.48580
#
# Poissons Ratio (x) = 0.28430 0.43473
# Poissons Ratio (y) = 0.18845 0.10473
# Poissons Ratio (z) = 0.46255 0.16811
#
# Static dielectric constant tensor:
#      x y z
#    x 4.691820 0.000000 0.000000 
#    y 0.000000 3.476780 0.000000 
#    z 0.000000 0.000000 3.606380 
# 
# 
# High freq. dielectric constant tensor:
#      x y z
#    x 1.800430 0.000000 0.000000 
#    y 0.000000 1.808700 0.000000 
#    z 0.000000 0.000000 1.763280 
# 
# From -- ./inp_files/16482.got.cif
#   From: 2010.03.12/outbox.cif.g09.slc.cpg/sg50_9_cif.got.tgz:16482.got - 2010.04.16 13:23:21.
