data_PCOD8205375
_publ_section_title
;
Structure prediction by ZEFSAII (Michael W. Deem and Ramdas Pophale) SiO2 
 PCOD8205375
Probable space group: P B A N
;
_chemical_formula_sum "Si O2"
_cell_formula_units_Z 54
_cell_length_a 29.626812
_cell_length_b 13.844287
_cell_length_c 5.899456
_cell_angle_alpha 90.000000
_cell_angle_beta 90.000000
_cell_angle_gamma 90.000000
_cell_volume 2419.733192
_symmetry_space_group_name_H-M "P B A N"
_symmetry_group_IT_number 50
_space_group.IT_coordinate_system_code '2'
_symmetry_cell_setting 'orthorhombic'
loop_
_space_group_symop_operation_xyz
x,y,z
1/2-x,1/2-y,z
x,1/2-y,-z
1/2-x,y,-z
-x,-y,-z
1/2+x,1/2+y,-z
-x,1/2+y,z
1/2+x,-y,z
loop_
_atom_site_type_symbol
_atom_site_label
_atom_site_fract_x
_atom_site_fract_y
_atom_site_fract_z
Si Si1 0.005245 0.052317 0.250197
Si Si2 0.368999 0.018718 0.210418
Si Si3 0.910508 0.644210 0.431926
Si Si4 0.147095 0.750000 0.500000
Si Si5 0.677501 0.887245 0.174337
Si Si6 0.919038 0.159093 0.159434
Si Si7 0.750000 0.750000 0.000000
Si Si8 0.301406 0.929821 0.562205
O O1 0.054993 0.100326 0.246999
O O2 0.968514 0.137513 0.255123
O O3 0.000000 0.000000 0.500000
O O4 0.000000 0.000000 0.000000
O O5 0.395891 0.938613 0.055552
O O6 0.328170 0.971014 0.347886
O O7 0.408349 0.068415 0.360339
O O8 0.347001 0.104398 0.066460
O O9 0.928275 0.750000 0.500000
O O10 0.859248 0.654786 0.345802
O O11 0.114761 0.817287 0.641713
O O12 0.178314 0.674368 0.640038
O O13 0.695123 0.994175 0.234035
O O14 0.719549 0.814958 0.165255
O O15 0.922359 0.250000 0.000000
O O16 0.250000 0.912610 0.500000
#
# Coordination Sequence:
#
# PCOD8205375 Si02
#       8
#     8   8   8   4   8   8   2   8
#     4  12  28  49  76 108 151 198 250 310 380 455
#     4  10  21  43  66  95 136 182 239 301 373 448
#     4  11  25  43  69 101 139 189 241 309 377 451
#     4  10  23  40  66  98 138 180 242 301 376 450
#     4  11  23  42  65  94 138 184 243 305 383 441
#     4  11  24  42  71  99 139 186 244 301 377 451
#     4  12  24  40  66 100 134 194 252 312 374 478
#     4  10  21  38  64  96 134 182 234 301 372 449
#
# _framework density 22.316511999999999
#
# number of rings (size 3 to 8) (size 9 to 14) (size 15 to 20)
#    0.000    1.185    1.481    3.778    3.111    1.185 
#    1.333    2.963    0.000    2.667    0.000    0.000 
#    0.000    0.000    0.000    0.000    0.000    0.000 
#
# Total GULP energy -669071.512045 kJ/mol
# GULP energy per Si atom -12390.213186 kJ/mol
# Density = 2.226572 g / cm^3
# Si number density = 22.316512 Si / 1000 Ang^3
#
#
#
# Elastic Constant Matrix: (Units=GPa)
#
#
# Indices 1 2 3 4 5 6 
#
# 1 150.0646 73.9255 37.4202 0.0000 0.0000 0.0000
# 2 73.9255 145.8111 46.6787 0.0000 0.0000 0.0000
# 3 37.4202 46.6787 92.8532 0.0000 0.0000 0.0000
# 4 0.0000 0.0000 0.0000 27.4947 0.0000 0.0000
# 5 0.0000 0.0000 0.0000 0.0000 31.9789 0.0000
# 6 0.0000 0.0000 0.0000 0.0000 0.0000 54.0016
#
#
#
# Elastic Compliance Matrix: (Units=1/GPa)
#
#
# Indices 1 2 3 4 5 6 
#
# 1 0.009078 -0.004089 -0.001603 0.000000 0.000000 0.000000
# 2 -0.004089 0.010016 -0.003387 0.000000 0.000000 0.000000
# 3 -0.001603 -0.003387 0.013118 0.000000 0.000000 0.000000
# 4 0.000000 0.000000 0.000000 0.036371 0.000000 0.000000
# 5 0.000000 0.000000 0.000000 0.000000 0.031271 0.000000
# 6 0.000000 0.000000 0.000000 0.000000 0.000000 0.018518
#
#
# Mechanical properties :
#
#
# Convention : Reuss Voigt Hill
#
# Bulk Modulus (GPa) = 71.15496 78.30862 74.73179
# Shear Modulus (GPa) = 35.40722 38.07534 36.74128
#
# Velocity S-wave (km/s) = 3.98753 4.13504 4.06195
# Velocity P-wave (km/s) = 7.29069 7.61342 7.45380
#
# Compressibility (1/GPa) = 0.01405383
#
# Stress axis : x y z
#
# Youngs Moduli (GPa) = 110.15652 99.84211 76.22956
#
# Poissons Ratio (x) = 0.40830 0.12217
# Poissons Ratio (y) = 0.45048 0.25819
# Poissons Ratio (z) = 0.17654 0.33817
#
# Static dielectric constant tensor:
#      x y z
#    x 4.113650 0.000000 0.000000 
#    y 0.000000 4.283470 0.000000 
#    z 0.000000 0.000000 3.862720 
# 
# 
# High freq. dielectric constant tensor:
#      x y z
#    x 1.900830 0.000000 0.000000 
#    y 0.000000 1.891390 0.000000 
#    z 0.000000 0.000000 1.855310 
# 
# From -- ./inp_files/7217.got.cif
#   From: 2010.03.12/outbox.cif.g09.slc.cpg/sg50_4_cif.got.tgz:7217.got - 2010.04.16 13:23:21.
