data_PCOD8205628
_publ_section_title
;
Structure prediction by ZEFSAII (Michael W. Deem and Ramdas Pophale) SiO2 
 PCOD8205628
Probable space group: P B A N
;
_chemical_formula_sum "Si O2"
_cell_formula_units_Z 56
_cell_length_a 19.016616
_cell_length_b 9.156924
_cell_length_c 14.361248
_cell_angle_alpha 90.000000
_cell_angle_beta 90.000000
_cell_angle_gamma 90.000000
_cell_volume 2500.777358
_symmetry_space_group_name_H-M "P B A N"
_symmetry_group_IT_number 50
_space_group.IT_coordinate_system_code '2'
_symmetry_cell_setting 'orthorhombic'
loop_
_space_group_symop_operation_xyz
x,y,z
1/2-x,1/2-y,z
x,1/2-y,-z
1/2-x,y,-z
-x,-y,-z
1/2+x,1/2+y,-z
-x,1/2+y,z
1/2+x,-y,z
loop_
_atom_site_type_symbol
_atom_site_label
_atom_site_fract_x
_atom_site_fract_y
_atom_site_fract_z
Si Si1 0.560902 0.235293 0.400854
Si Si2 0.250000 0.250000 0.273488
Si Si3 0.250000 0.750000 0.269742
Si Si4 0.617882 0.418557 0.774433
Si Si5 0.507292 0.135985 0.067622
Si Si6 0.933535 0.563302 0.629437
Si Si7 0.719739 0.996006 0.600299
Si Si8 0.393531 0.237348 0.198152
O O1 0.602975 0.250000 0.500000
O O2 0.602080 0.129591 0.331042
O O3 0.546027 0.393362 0.355199
O O4 0.490166 0.148509 0.433205
O O5 0.229138 0.114345 0.341991
O O6 0.312099 0.188504 0.206980
O O7 0.305263 0.656668 0.205715
O O8 0.207053 0.641351 0.338301
O O9 0.559581 0.365222 0.845998
O O10 0.613267 0.591501 0.782420
O O11 0.429773 0.194951 0.100279
O O12 0.543585 0.250000 0.000000
O O13 0.500000 0.000000 0.000000
O O14 0.856026 0.580601 0.586062
O O15 0.939535 0.646786 0.728011
O O16 0.750000 0.033996 0.500000
#
# Coordination Sequence:
#
# PCOD8205628 Si02
#       8
#     8   4   4   8   8   8   8   8
#     4  12  26  42  64 106 146 196 245 306 370 436
#     4  10  23  42  69  98 144 200 242 294 384 428
#     4  12  25  44  75  98 146 200 246 302 378 440
#     4  12  26  48  74 107 150 194 245 313 379 444
#     4  12  27  48  82 113 140 186 243 310 390 466
#     4  11  25  42  67 101 145 195 245 310 365 436
#     4  11  24  41  64 101 143 201 259 304 354 445
#     4  11  24  47  74 104 147 190 243 306 376 452
#
# _framework density 22.393038000000001
#
# number of rings (size 3 to 8) (size 9 to 14) (size 15 to 20)
#    0.000    0.571    5.714    1.714    4.000    2.286 
#    0.000    0.714    0.000    0.000    0.000    0.000 
#    0.000    0.000    0.000    0.000    0.000    0.000 
#
# Total GULP energy -693845.832226 kJ/mol
# GULP energy per Si atom -12390.104147 kJ/mol
# Density = 2.234207 g / cm^3
# Si number density = 22.393038 Si / 1000 Ang^3
#
#
#
# Elastic Constant Matrix: (Units=GPa)
#
#
# Indices 1 2 3 4 5 6 
#
# 1 101.9177 33.4741 42.2678 0.0000 0.0000 0.0000
# 2 33.4741 158.3838 42.5147 0.0000 0.0000 0.0000
# 3 42.2678 42.5147 106.2806 0.0000 0.0000 0.0000
# 4 0.0000 0.0000 0.0000 37.9329 0.0000 0.0000
# 5 0.0000 0.0000 0.0000 0.0000 14.2616 0.0000
# 6 0.0000 0.0000 0.0000 0.0000 0.0000 36.0060
#
#
#
# Elastic Compliance Matrix: (Units=1/GPa)
#
#
# Indices 1 2 3 4 5 6 
#
# 1 0.012024 -0.001409 -0.004218 0.000000 0.000000 0.000000
# 2 -0.001409 0.007238 -0.002335 0.000000 0.000000 0.000000
# 3 -0.004218 -0.002335 0.012021 0.000000 0.000000 0.000000
# 4 0.000000 0.000000 0.000000 0.026362 0.000000 0.000000
# 5 0.000000 0.000000 0.000000 0.000000 0.070119 0.000000
# 6 0.000000 0.000000 0.000000 0.000000 0.000000 0.027773
#
#
# Mechanical properties :
#
#
# Convention : Reuss Voigt Hill
#
# Bulk Modulus (GPa) = 65.11137 67.01058 66.06097
# Shear Modulus (GPa) = 28.31551 34.19513 31.25532
#
# Velocity S-wave (km/s) = 3.55981 3.91198 3.74004
# Velocity P-wave (km/s) = 6.78499 7.09891 6.94372
#
# Compressibility (1/GPa) = 0.01535830
#
# Stress axis : x y z
#
# Youngs Moduli (GPa) = 83.16671 138.15236 83.18896
#
# Poissons Ratio (x) = 0.19465 0.35092
# Poissons Ratio (y) = 0.11718 0.19426
# Poissons Ratio (z) = 0.35083 0.32261
#
# Static dielectric constant tensor:
#      x y z
#    x 4.281750 0.000000 0.000000 
#    y 0.000000 4.390120 0.000000 
#    z 0.000000 0.000000 3.933250 
# 
# 
# High freq. dielectric constant tensor:
#      x y z
#    x 1.886850 0.000000 0.000000 
#    y 0.000000 1.905630 0.000000 
#    z 0.000000 0.000000 1.854060 
# 
# From -- ./inp_files/27276.got.cif
#   From: 2010.03.12/outbox.cif.g09.slc.cpg/sg50_14_cif.got.tgz:27276.got - 2010.04.16 13:23:21.
