data_PCOD8205736
_publ_section_title
;
Structure prediction by ZEFSAII (Michael W. Deem and Ramdas Pophale) SiO2 
 PCOD8205736
Probable space group: P B A N
;
_chemical_formula_sum "Si O2"
_cell_formula_units_Z 48
_cell_length_a 10.784369
_cell_length_b 24.750866
_cell_length_c 8.792821
_cell_angle_alpha 90.000000
_cell_angle_beta 90.000000
_cell_angle_gamma 90.000000
_cell_volume 2347.001517
_symmetry_space_group_name_H-M "P B A N"
_symmetry_group_IT_number 50
_space_group.IT_coordinate_system_code '2'
_symmetry_cell_setting 'orthorhombic'
loop_
_space_group_symop_operation_xyz
x,y,z
1/2-x,1/2-y,z
x,1/2-y,-z
1/2-x,y,-z
-x,-y,-z
1/2+x,1/2+y,-z
-x,1/2+y,z
1/2+x,-y,z
loop_
_atom_site_type_symbol
_atom_site_label
_atom_site_fract_x
_atom_site_fract_y
_atom_site_fract_z
Si Si1 0.276811 0.524705 0.828553
Si Si2 0.407457 0.304798 0.331039
Si Si3 0.616517 0.815447 0.676241
Si Si4 0.497675 0.904555 0.201358
Si Si5 0.869237 0.909071 0.096696
Si Si6 0.877884 0.517483 0.407991
O O1 0.366029 0.569615 0.755261
O O2 0.338876 0.464885 0.815880
O O3 0.151166 0.525865 0.727201
O O4 0.250000 0.540791 0.000000
O O5 0.436621 0.243533 0.278628
O O6 0.263387 0.315712 0.308759
O O7 0.435511 0.321674 0.505364
O O8 0.496128 0.340044 0.221268
O O9 0.574822 0.864491 0.786493
O O10 0.598941 0.925960 0.323076
O O11 0.525597 0.921776 0.028249
O O12 0.750000 0.887626 0.000000
O O13 0.750000 0.523615 0.500000
O O14 0.000000 0.500000 0.500000
#
# Coordination Sequence:
#
# PCOD8205736 Si02
#       6
#     8   8   8   8   8   8
#     4  11  24  43  59  86 135 171 217 265 327 399
#     4   9  19  33  54  83 122 166 202 265 327 393
#     4   9  18  35  53  82 125 162 209 259 331 385
#     4  12  23  37  59  90 128 167 213 260 328 390
#     4  11  20  34  56  86 120 171 205 257 323 387
#     4  12  25  40  61  92 129 175 216 268 318 393
#
# _framework density 20.451626000000001
#
# number of rings (size 3 to 8) (size 9 to 14) (size 15 to 20)
#    0.000    1.333    6.667    1.500    4.667    0.667 
#    0.000    0.000    0.000    0.000    0.000    2.333 
#    0.000    0.000    0.000    0.000    0.000    0.000 
#
# Total GULP energy -594723.796566 kJ/mol
# GULP energy per Si atom -12390.079095 kJ/mol
# Density = 2.040508 g / cm^3
# Si number density = 20.451626 Si / 1000 Ang^3
#
#
#
# Elastic Constant Matrix: (Units=GPa)
#
#
# Indices 1 2 3 4 5 6 
#
# 1 81.5933 41.3071 37.3061 0.0000 0.0000 0.0000
# 2 41.3071 118.8672 40.6557 0.0000 0.0000 0.0000
# 3 37.3061 40.6557 91.4190 0.0000 0.0000 0.0000
# 4 0.0000 0.0000 0.0000 38.9225 0.0000 0.0000
# 5 0.0000 0.0000 0.0000 0.0000 31.0592 0.0000
# 6 0.0000 0.0000 0.0000 0.0000 0.0000 23.4850
#
#
#
# Elastic Compliance Matrix: (Units=1/GPa)
#
#
# Indices 1 2 3 4 5 6 
#
# 1 0.016581 -0.004066 -0.004958 0.000000 0.000000 0.000000
# 2 -0.004066 0.010919 -0.003197 0.000000 0.000000 0.000000
# 3 -0.004958 -0.003197 0.014384 0.000000 0.000000 0.000000
# 4 0.000000 0.000000 0.000000 0.025692 0.000000 0.000000
# 5 0.000000 0.000000 0.000000 0.000000 0.032197 0.000000
# 6 0.000000 0.000000 0.000000 0.000000 0.000000 0.042580
#
#
# Mechanical properties :
#
#
# Convention : Reuss Voigt Hill
#
# Bulk Modulus (GPa) = 57.33280 58.93526 58.13403
# Shear Modulus (GPa) = 28.96715 30.20072 29.58394
#
# Velocity S-wave (km/s) = 3.76756 3.84694 3.80746
# Velocity P-wave (km/s) = 6.85713 6.97219 6.91490
#
# Compressibility (1/GPa) = 0.01744202
#
# Stress axis : x y z
#
# Youngs Moduli (GPa) = 60.30820 91.58238 69.52394
#
# Poissons Ratio (x) = 0.37241 0.34471
# Poissons Ratio (y) = 0.24523 0.22224
# Poissons Ratio (z) = 0.29902 0.29275
#
# Static dielectric constant tensor:
#      x y z
#    x 3.355880 0.000000 0.000000 
#    y 0.000000 3.765600 0.000000 
#    z 0.000000 0.000000 3.980020 
# 
# 
# High freq. dielectric constant tensor:
#      x y z
#    x 1.752400 0.000000 0.000000 
#    y 0.000000 1.786570 0.000000 
#    z 0.000000 0.000000 1.814350 
# 
# From -- ./inp_files/11651.got.cif
#   From: 2010.03.12/outbox.cif.g09.slc.cpg/sg50_6_cif.got.tgz:11651.got - 2010.04.16 13:23:21.
