data_PCOD8205671
_publ_section_title
;
Structure prediction by ZEFSAII (Michael W. Deem and Ramdas Pophale) SiO2 
 PCOD8205671
Probable space group: P B A N
;
_chemical_formula_sum "Si O2"
_cell_formula_units_Z 28
_cell_length_a 9.160972
_cell_length_b 16.269536
_cell_length_c 8.513300
_cell_angle_alpha 90.000000
_cell_angle_beta 90.000000
_cell_angle_gamma 90.000000
_cell_volume 1268.862787
_symmetry_space_group_name_H-M "P B A N"
_symmetry_group_IT_number 50
_space_group.IT_coordinate_system_code '2'
_symmetry_cell_setting 'orthorhombic'
loop_
_space_group_symop_operation_xyz
x,y,z
1/2-x,1/2-y,z
x,1/2-y,-z
1/2-x,y,-z
-x,-y,-z
1/2+x,1/2+y,-z
-x,1/2+y,z
1/2+x,-y,z
loop_
_atom_site_type_symbol
_atom_site_label
_atom_site_fract_x
_atom_site_fract_y
_atom_site_fract_z
Si Si1 0.371767 0.023394 0.881156
Si Si2 0.090623 0.643299 0.751135
Si Si3 0.739683 0.655201 0.315174
Si Si4 0.750000 0.250000 0.000000
Si Si5 0.250000 0.750000 0.500000
O O1 0.334900 0.946323 0.767577
O O2 0.373784 0.104132 0.766977
O O3 0.250000 0.048019 0.000000
O O4 0.500000 0.000000 0.000000
O O5 0.138916 0.695079 0.901361
O O6 0.144043 0.690916 0.597325
O O7 0.918234 0.625953 0.745631
O O8 0.750000 0.750000 0.269080
O O9 0.750000 0.640749 0.500000
#
# Coordination Sequence:
#
# PCOD8205671 Si02
#       5
#     8   8   8   2   2
#     4  12  26  45  70 107 142 189 240 299 365 426
#     4  11  24  45  70 105 142 188 241 298 362 438
#     4  11  27  47  72 103 145 193 245 298 363 434
#     4  10  24  42  74 102 146 186 234 294 364 426
#     4  10  24  42  74 106 142 190 240 304 368 430
#
# _framework density 22.067003
#
# number of rings (size 3 to 8) (size 9 to 14) (size 15 to 20)
#    0.000    0.857    4.286    1.714    6.000    4.000 
#    0.000    0.000    0.000    0.000    0.000    0.000 
#    0.000    0.000    0.000    0.000    0.000    0.000 
#
# Total GULP energy -346912.206053 kJ/mol
# GULP energy per Si atom -12389.721645 kJ/mol
# Density = 2.201678 g / cm^3
# Si number density = 22.067003 Si / 1000 Ang^3
#
#
#
# Elastic Constant Matrix: (Units=GPa)
#
#
# Indices 1 2 3 4 5 6 
#
# 1 73.4994 22.7774 44.7947 0.0000 0.0000 0.0000
# 2 22.7774 183.8421 88.1887 0.0000 0.0000 0.0000
# 3 44.7947 88.1887 133.9536 0.0000 0.0000 0.0000
# 4 0.0000 0.0000 0.0000 44.5336 0.0000 0.0000
# 5 0.0000 0.0000 0.0000 0.0000 29.8568 0.0000
# 6 0.0000 0.0000 0.0000 0.0000 0.0000 31.0506
#
#
#
# Elastic Compliance Matrix: (Units=1/GPa)
#
#
# Indices 1 2 3 4 5 6 
#
# 1 0.017193 0.000918 -0.006354 0.000000 0.000000 0.000000
# 2 0.000918 0.007999 -0.005573 0.000000 0.000000 0.000000
# 3 -0.006354 -0.005573 0.013259 0.000000 0.000000 0.000000
# 4 0.000000 0.000000 0.000000 0.022455 0.000000 0.000000
# 5 0.000000 0.000000 0.000000 0.000000 0.033493 0.000000
# 6 0.000000 0.000000 0.000000 0.000000 0.000000 0.032206
#
#
# Mechanical properties :
#
#
# Convention : Reuss Voigt Hill
#
# Bulk Modulus (GPa) = 60.85195 78.09073 69.47134
# Shear Modulus (GPa) = 32.44613 36.79050 34.61831
#
# Velocity S-wave (km/s) = 3.83867 4.08759 3.96508
# Velocity P-wave (km/s) = 6.87627 7.59886 7.24657
#
# Compressibility (1/GPa) = 0.01643333
#
# Stress axis : x y z
#
# Youngs Moduli (GPa) = 58.16155 125.01269 75.41999
#
# Poissons Ratio (x) = -0.11472 0.47920
# Poissons Ratio (y) = -0.05337 0.42033
# Poissons Ratio (z) = 0.36954 0.69672
#
# Static dielectric constant tensor:
#      x y z
#    x 3.626110 0.000000 0.000000 
#    y 0.000000 4.277270 0.000000 
#    z 0.000000 0.000000 4.274380 
# 
# 
# High freq. dielectric constant tensor:
#      x y z
#    x 1.860270 0.000000 0.000000 
#    y 0.000000 1.885560 0.000000 
#    z 0.000000 0.000000 1.884730 
# 
# From -- ./inp_files/8834.got.cif
#   From: 2010.03.12/outbox.cif.g09.slc.cpg/sg50_5_cif.got.tgz:8834.got - 2010.04.16 13:23:21.
