data_PCOD8205364
_publ_section_title
;
Structure prediction by ZEFSAII (Michael W. Deem and Ramdas Pophale) SiO2 
 PCOD8205364
Probable space group: P B A N
;
_chemical_formula_sum "Si O2"
_cell_formula_units_Z 34
_cell_length_a 4.886493
_cell_length_b 12.958436
_cell_length_c 25.427865
_cell_angle_alpha 90.000000
_cell_angle_beta 90.000000
_cell_angle_gamma 90.000000
_cell_volume 1610.125641
_symmetry_space_group_name_H-M "P B A N"
_symmetry_group_IT_number 50
_space_group.IT_coordinate_system_code '2'
_symmetry_cell_setting 'orthorhombic'
loop_
_space_group_symop_operation_xyz
x,y,z
1/2-x,1/2-y,z
x,1/2-y,-z
1/2-x,y,-z
-x,-y,-z
1/2+x,1/2+y,-z
-x,1/2+y,z
1/2+x,-y,z
loop_
_atom_site_type_symbol
_atom_site_label
_atom_site_fract_x
_atom_site_fract_y
_atom_site_fract_z
Si Si1 0.750000 0.750000 0.569264
Si Si2 0.750000 0.750000 0.840757
Si Si3 0.250000 0.923795 0.000000
Si Si4 0.310709 0.069354 0.644994
Si Si5 0.750000 0.250000 0.500000
Si Si6 0.385369 0.068470 0.762474
Si Si7 0.250000 0.750000 0.085211
O O1 0.619985 0.659477 0.604045
O O2 0.487138 0.802243 0.537531
O O3 0.680855 0.653185 0.805085
O O4 0.502293 0.777452 0.878261
O O5 0.291188 0.851876 0.050602
O O6 0.500000 0.000000 0.000000
O O7 0.345099 0.114583 0.703900
O O8 0.505037 0.971223 0.636030
O O9 0.696832 0.032479 0.770256
#
# Coordination Sequence:
#
# PCOD8205364 Si02
#       7
#     4   4   4   8   2   8   4
#     4  11  21  42  59  80 119 150 187 247 296 336
#     4  12  23  39  61  90 127 157 183 240 298 338
#     4  11  24  45  66  84 116 157 198 253 294 328
#     4  10  21  38  62  87 112 154 200 232 279 349
#     4  10  24  38  58  86 114 148 192 242 300 356
#     4  10  22  38  58  89 122 153 194 233 280 349
#     4  11  26  40  61  94 115 150 210 235 282 368
#
# _framework density 21.116363
#
# number of rings (size 3 to 8) (size 9 to 14) (size 15 to 20)
#    0.000    1.412    0.000    4.941    0.000    7.529 
#    0.000   21.176    0.000    0.000    0.000    0.000 
#    0.000    0.000    0.000    0.000    0.000    0.000 
#
# Total GULP energy -421232.372680 kJ/mol
# GULP energy per Si atom -12389.187432 kJ/mol
# Density = 2.106830 g / cm^3
# Si number density = 21.116363 Si / 1000 Ang^3
#
#
#
# Elastic Constant Matrix: (Units=GPa)
#
#
# Indices 1 2 3 4 5 6 
#
# 1 111.5509 11.4805 29.1155 0.0000 0.0000 0.0000
# 2 11.4805 85.5948 53.2331 0.0000 0.0000 0.0000
# 3 29.1155 53.2331 125.8951 0.0000 0.0000 0.0000
# 4 0.0000 0.0000 0.0000 13.2124 0.0000 0.0000
# 5 0.0000 0.0000 0.0000 0.0000 34.8547 0.0000
# 6 0.0000 0.0000 0.0000 0.0000 0.0000 19.7244
#
#
#
# Elastic Compliance Matrix: (Units=1/GPa)
#
#
# Indices 1 2 3 4 5 6 
#
# 1 0.009541 0.000126 -0.002260 0.000000 0.000000 0.000000
# 2 0.000126 0.015853 -0.006732 0.000000 0.000000 0.000000
# 3 -0.002260 -0.006732 0.011312 0.000000 0.000000 0.000000
# 4 0.000000 0.000000 0.000000 0.075687 0.000000 0.000000
# 5 0.000000 0.000000 0.000000 0.000000 0.028691 0.000000
# 6 0.000000 0.000000 0.000000 0.000000 0.000000 0.050699
#
#
# Mechanical properties :
#
#
# Convention : Reuss Voigt Hill
#
# Bulk Modulus (GPa) = 52.70371 56.74435 54.72403
# Shear Modulus (GPa) = 23.16529 28.83908 26.00218
#
# Velocity S-wave (km/s) = 3.31574 3.69958 3.51290
# Velocity P-wave (km/s) = 6.29855 6.72159 6.51350
#
# Compressibility (1/GPa) = 0.01897400
#
# Stress axis : x y z
#
# Youngs Moduli (GPa) = 104.80649 63.07928 88.39853
#
# Poissons Ratio (x) = -0.00792 0.19976
# Poissons Ratio (y) = -0.01317 0.59513
# Poissons Ratio (z) = 0.23684 0.42467
#
# Static dielectric constant tensor:
#      x y z
#    x 4.072870 0.000000 0.000000 
#    y 0.000000 3.447280 0.000000 
#    z 0.000000 0.000000 4.176270 
# 
# 
# High freq. dielectric constant tensor:
#      x y z
#    x 1.849740 0.000000 0.000000 
#    y 0.000000 1.802400 0.000000 
#    z 0.000000 0.000000 1.848580 
# 
# From -- ./inp_files/31377.got.cif
#   From: 2010.03.12/outbox.cif.g09.slc.cpg/sg50_16_cif.got.tgz:31377.got - 2010.04.16 13:23:21.
