data_PCOD8205775
_publ_section_title
;
Structure prediction by ZEFSAII (Michael W. Deem and Ramdas Pophale) SiO2 
 PCOD8205775
Probable space group: P B A N
;
_chemical_formula_sum "Si O2"
_cell_formula_units_Z 48
_cell_length_a 9.856700
_cell_length_b 26.623581
_cell_length_c 8.514330
_cell_angle_alpha 90.000000
_cell_angle_beta 90.000000
_cell_angle_gamma 90.000000
_cell_volume 2234.336020
_symmetry_space_group_name_H-M "P B A N"
_symmetry_group_IT_number 50
_space_group.IT_coordinate_system_code '2'
_symmetry_cell_setting 'orthorhombic'
loop_
_space_group_symop_operation_xyz
x,y,z
1/2-x,1/2-y,z
x,1/2-y,-z
1/2-x,y,-z
-x,-y,-z
1/2+x,1/2+y,-z
-x,1/2+y,z
1/2+x,-y,z
loop_
_atom_site_type_symbol
_atom_site_label
_atom_site_fract_x
_atom_site_fract_y
_atom_site_fract_z
Si Si1 0.784212 0.856165 0.332143
Si Si2 0.750000 0.750000 0.256077
Si Si3 0.037188 0.250000 0.000000
Si Si4 0.131741 0.003951 0.392067
Si Si5 0.537725 0.142570 0.118950
Si Si6 0.043199 0.091390 0.187484
Si Si7 0.742526 0.103463 0.670935
O O1 0.750000 0.882383 0.500000
O O2 0.788477 0.796671 0.363687
O O3 0.664427 0.869183 0.211791
O O4 0.929086 0.869331 0.256689
O O5 0.874698 0.733089 0.147422
O O6 0.956277 0.199094 0.952238
O O7 0.250000 0.028884 0.500000
O O8 0.102863 0.036554 0.234427
O O9 0.184274 0.950450 0.331886
O O10 0.000000 0.000000 0.500000
O O11 0.686383 0.136166 0.193923
O O12 0.506985 0.098970 0.990869
O O13 0.916809 0.100776 0.300084
O O14 0.750000 0.129652 0.500000
#
# Coordination Sequence:
#
# PCOD8205775 Si02
#       7
#     8   4   4   8   8   8   8
#     4  11  22  37  66  99 132 176 226 282 334 404
#     4   9  17  36  62  96 132 168 218 282 330 388
#     4   9  18  40  65  92 138 171 221 280 346 395
#     4  11  23  44  69 101 139 188 223 282 351 405
#     4  11  24  42  69  99 134 186 230 285 345 410
#     4  12  23  41  66 100 136 177 229 274 346 409
#     4  11  24  44  67  98 138 179 228 289 342 415
#
# _framework density 21.482892
#
# number of rings (size 3 to 8) (size 9 to 14) (size 15 to 20)
#    0.000    1.167    5.000    2.750    2.333    0.667 
#    0.000    3.333    0.000    1.000    0.000    0.000 
#    0.000    0.000    0.000    0.000    0.000    0.000 
#
# Total GULP energy -594782.836357 kJ/mol
# GULP energy per Si atom -12391.309091 kJ/mol
# Density = 2.143400 g / cm^3
# Si number density = 21.482892 Si / 1000 Ang^3
#
#
#
# Elastic Constant Matrix: (Units=GPa)
#
#
# Indices 1 2 3 4 5 6 
#
# 1 82.2641 10.8020 -2.4276 0.0000 0.0000 0.0000
# 2 10.8020 82.6561 19.2233 0.0000 0.0000 0.0000
# 3 -2.4276 19.2233 98.4929 0.0000 0.0000 0.0000
# 4 0.0000 0.0000 0.0000 29.6995 0.0000 0.0000
# 5 0.0000 0.0000 0.0000 0.0000 50.3299 0.0000
# 6 0.0000 0.0000 0.0000 0.0000 0.0000 27.6848
#
#
#
# Elastic Compliance Matrix: (Units=1/GPa)
#
#
# Indices 1 2 3 4 5 6 
#
# 1 0.012408 -0.001773 0.000652 0.000000 0.000000 0.000000
# 2 -0.001773 0.012927 -0.002567 0.000000 0.000000 0.000000
# 3 0.000652 -0.002567 0.010670 0.000000 0.000000 0.000000
# 4 0.000000 0.000000 0.000000 0.033671 0.000000 0.000000
# 5 0.000000 0.000000 0.000000 0.000000 0.019869 0.000000
# 6 0.000000 0.000000 0.000000 0.000000 0.000000 0.036121
#
#
# Mechanical properties :
#
#
# Convention : Reuss Voigt Hill
#
# Bulk Modulus (GPa) = 34.92951 35.40095 35.16523
# Shear Modulus (GPa) = 35.06692 37.26386 36.16539
#
# Velocity S-wave (km/s) = 4.04458 4.16935 4.10744
# Velocity P-wave (km/s) = 6.17301 6.30019 6.23692
#
# Compressibility (1/GPa) = 0.02862909
#
# Stress axis : x y z
#
# Youngs Moduli (GPa) = 80.59286 77.35754 93.72029
#
# Poissons Ratio (x) = 0.13717 -0.06110
# Poissons Ratio (y) = 0.14291 0.24055
# Poissons Ratio (z) = -0.05254 0.19856
#
# Static dielectric constant tensor:
#      x y z
#    x 3.825950 0.000000 0.000000 
#    y 0.000000 3.539670 0.000000 
#    z 0.000000 0.000000 3.890950 
# 
# 
# High freq. dielectric constant tensor:
#      x y z
#    x 1.845090 0.000000 0.000000 
#    y 0.000000 1.836930 0.000000 
#    z 0.000000 0.000000 1.844300 
# 
# From -- ./inp_files/10149.got.cif
#   From: 2010.03.12/outbox.cif.g09.slc.cpg/sg50_6_cif.got.tgz:10149.got - 2010.04.16 13:23:21.
