data_PCOD8205346
_publ_section_title
;
Structure prediction by ZEFSAII (Michael W. Deem and Ramdas Pophale) SiO2 
 PCOD8205346
Probable space group: P B A N
;
_chemical_formula_sum "Si O2"
_cell_formula_units_Z 40
_cell_length_a 8.983774
_cell_length_b 16.947983
_cell_length_c 11.660006
_cell_angle_alpha 90.000000
_cell_angle_beta 90.000000
_cell_angle_gamma 90.000000
_cell_volume 1775.315773
_symmetry_space_group_name_H-M "P B A N"
_symmetry_group_IT_number 50
_space_group.IT_coordinate_system_code '2'
_symmetry_cell_setting 'orthorhombic'
loop_
_space_group_symop_operation_xyz
x,y,z
1/2-x,1/2-y,z
x,1/2-y,-z
1/2-x,y,-z
-x,-y,-z
1/2+x,1/2+y,-z
-x,1/2+y,z
1/2+x,-y,z
loop_
_atom_site_type_symbol
_atom_site_label
_atom_site_fract_x
_atom_site_fract_y
_atom_site_fract_z
Si Si1 0.013167 0.321590 0.413509
Si Si2 0.386877 0.908817 0.396205
Si Si3 0.601955 0.220219 0.783754
Si Si4 0.689864 0.666296 0.874566
Si Si5 0.269332 0.429026 0.340962
O O1 0.039262 0.250000 0.500000
O O2 0.168703 0.367589 0.409814
O O3 0.881081 0.378003 0.469431
O O4 0.973415 0.292716 0.285766
O O5 0.336500 0.841091 0.309764
O O6 0.561920 0.925767 0.380582
O O7 0.290899 0.984857 0.368437
O O8 0.750000 0.250000 0.850755
O O9 0.489777 0.178508 0.873355
O O10 0.750000 0.750000 0.828633
O O11 0.738337 0.593744 0.794130
O O12 0.750000 0.646148 0.000000
#
# Coordination Sequence:
#
# PCOD8205346 Si02
#       5
#     8   8   8   8   8
#     4  10  21  37  60  89 127 174 217 254 309 385
#     4  10  24  36  61  93 130 172 214 253 324 380
#     4  10  22  41  65  93 129 165 215 262 317 376
#     4  10  21  41  70  92 116 167 220 269 326 376
#     4  11  22  40  59  89 130 166 212 272 318 378
#
# _framework density 22.531203000000001
#
# number of rings (size 3 to 8) (size 9 to 14) (size 15 to 20)
#    0.000    1.800    2.000    1.200    2.800    7.600 
#    0.000    6.000    0.000    0.000    0.000    0.000 
#    0.000    0.000    0.000    0.000    0.000    0.000 
#
# Total GULP energy -495750.345596 kJ/mol
# GULP energy per Si atom -12393.758640 kJ/mol
# Density = 2.247992 g / cm^3
# Si number density = 22.531203 Si / 1000 Ang^3
#
#
#
# Elastic Constant Matrix: (Units=GPa)
#
#
# Indices 1 2 3 4 5 6 
#
# 1 65.2053 16.1210 27.2121 0.0000 0.0000 0.0000
# 2 16.1210 111.0113 25.2464 0.0000 0.0000 0.0000
# 3 27.2121 25.2464 118.8213 0.0000 0.0000 0.0000
# 4 0.0000 0.0000 0.0000 18.1160 0.0000 0.0000
# 5 0.0000 0.0000 0.0000 0.0000 24.3919 0.0000
# 6 0.0000 0.0000 0.0000 0.0000 0.0000 23.6055
#
#
#
# Elastic Compliance Matrix: (Units=1/GPa)
#
#
# Indices 1 2 3 4 5 6 
#
# 1 0.017253 -0.001688 -0.003592 0.000000 0.000000 0.000000
# 2 -0.001688 0.009631 -0.001660 0.000000 0.000000 0.000000
# 3 -0.003592 -0.001660 0.009591 0.000000 0.000000 0.000000
# 4 0.000000 0.000000 0.000000 0.055200 0.000000 0.000000
# 5 0.000000 0.000000 0.000000 0.000000 0.040997 0.000000
# 6 0.000000 0.000000 0.000000 0.000000 0.000000 0.042363
#
#
# Mechanical properties :
#
#
# Convention : Reuss Voigt Hill
#
# Bulk Modulus (GPa) = 44.25965 48.02189 46.14077
# Shear Modulus (GPa) = 25.45211 28.31989 26.88600
#
# Velocity S-wave (km/s) = 3.36466 3.54915 3.45813
# Velocity P-wave (km/s) = 5.89753 6.17698 6.03887
#
# Compressibility (1/GPa) = 0.02259394
#
# Stress axis : x y z
#
# Youngs Moduli (GPa) = 57.96143 103.83449 104.26057
#
# Poissons Ratio (x) = 0.17532 0.37455
# Poissons Ratio (y) = 0.09787 0.17303
# Poissons Ratio (z) = 0.20822 0.17232
#
# Static dielectric constant tensor:
#      x y z
#    x 4.409980 0.000000 0.000000 
#    y 0.000000 4.337020 0.000000 
#    z 0.000000 0.000000 3.768980 
# 
# 
# High freq. dielectric constant tensor:
#      x y z
#    x 1.920850 0.000000 0.000000 
#    y 0.000000 1.884660 0.000000 
#    z 0.000000 0.000000 1.856200 
# 
# From -- ./inp_files/18719.got.cif
#   From: 2010.03.12/outbox.cif.g09.slc.cpg/sg50_10_cif.got.tgz:18719.got - 2010.04.16 13:23:21.
