data_PCOD8205500
_publ_section_title
;
Structure prediction by ZEFSAII (Michael W. Deem and Ramdas Pophale) SiO2 
 PCOD8205500
Probable space group: P B A N
;
_chemical_formula_sum "Si O2"
_cell_formula_units_Z 30
_cell_length_a 9.105666
_cell_length_b 10.484184
_cell_length_c 14.961171
_cell_angle_alpha 90.000000
_cell_angle_beta 90.000000
_cell_angle_gamma 90.000000
_cell_volume 1428.275338
_symmetry_space_group_name_H-M "P B A N"
_symmetry_group_IT_number 50
_space_group.IT_coordinate_system_code '2'
_symmetry_cell_setting 'orthorhombic'
loop_
_space_group_symop_operation_xyz
x,y,z
1/2-x,1/2-y,z
x,1/2-y,-z
1/2-x,y,-z
-x,-y,-z
1/2+x,1/2+y,-z
-x,1/2+y,z
1/2+x,-y,z
loop_
_atom_site_type_symbol
_atom_site_label
_atom_site_fract_x
_atom_site_fract_y
_atom_site_fract_z
Si Si1 0.250000 0.750000 0.000000
Si Si2 0.401303 0.632872 0.162603
Si Si3 0.001350 0.597594 0.420053
Si Si4 0.250000 0.250000 0.500000
Si Si5 0.750000 0.250000 0.500000
Si Si6 0.084152 0.589660 0.225608
O O1 0.350891 0.659423 0.061166
O O2 0.260683 0.587274 0.221037
O O3 0.468841 0.765766 0.202337
O O4 0.520002 0.518928 0.159253
O O5 0.849980 0.673426 0.430154
O O6 0.000000 0.500000 0.500000
O O7 0.149201 0.676748 0.430511
O O8 0.017821 0.542145 0.320857
#
# Coordination Sequence:
#
# PCOD8205500 Si02
#       6
#     2   8   8   2   2   8
#     4   8  20  46  68  96 130 156 212 248 350 372
#     4  10  23  42  68  95 125 166 199 273 308 400
#     4  11  24  38  59  84 123 168 214 260 305 368
#     4  10  26  38  56  88 112 176 214 266 298 362
#     4  10  22  40  56  80 120 176 210 262 308 354
#     4  10  24  40  63  94 128 164 213 257 321 361
#
# _framework density 21.004352999999998
#
# number of rings (size 3 to 8) (size 9 to 14) (size 15 to 20)
#    0.000    2.133    0.000    2.400   14.933    5.333 
#    0.000    0.000    0.000   12.800    0.000    0.000 
#    0.000    0.000    0.000    0.000    0.000    0.000 
#
# Total GULP energy -371741.577025 kJ/mol
# GULP energy per Si atom -12391.385901 kJ/mol
# Density = 2.095655 g / cm^3
# Si number density = 21.004353 Si / 1000 Ang^3
#
#
#
# Elastic Constant Matrix: (Units=GPa)
#
#
# Indices 1 2 3 4 5 6 
#
# 1 105.3459 60.1581 30.5060 0.0000 0.0000 0.0000
# 2 60.1581 142.3871 40.1838 0.0000 0.0000 0.0000
# 3 30.5060 40.1838 143.6288 0.0000 0.0000 0.0000
# 4 0.0000 0.0000 0.0000 -104.8674 0.0000 0.0000
# 5 0.0000 0.0000 0.0000 0.0000 22.1292 0.0000
# 6 0.0000 0.0000 0.0000 0.0000 0.0000 61.6705
#
#
#
# Elastic Compliance Matrix: (Units=1/GPa)
#
#
# Indices 1 2 3 4 5 6 
#
# 1 0.012731 -0.005012 -0.001302 0.000000 0.000000 0.000000
# 2 -0.005012 0.009598 -0.001621 0.000000 0.000000 0.000000
# 3 -0.001302 -0.001621 0.007692 0.000000 0.000000 0.000000
# 4 0.000000 0.000000 0.000000 -0.009536 0.000000 0.000000
# 5 0.000000 0.000000 0.000000 0.000000 0.045189 0.000000
# 6 0.000000 0.000000 0.000000 0.000000 0.000000 0.016215
#
#
# Mechanical properties :
#
#
# Convention : Reuss Voigt Hill
#
# Bulk Modulus (GPa) = 70.65640 72.56195 71.60918
# Shear Modulus (GPa) = 48.79162 13.15405 30.97284
#
# Velocity S-wave (km/s) = 4.82491 2.50522 3.84421
# Velocity P-wave (km/s) = 8.04684 6.55662 7.33965
#
# Compressibility (1/GPa) = 0.01415300
#
# Stress axis : x y z
#
# Youngs Moduli (GPa) = 78.54580 104.18951 129.99853
#
# Poissons Ratio (x) = 0.52215 0.16926
# Poissons Ratio (y) = 0.39364 0.21071
# Poissons Ratio (z) = 0.10226 0.16887
#
# Static dielectric constant tensor:
#      x y z
#    x 3.795740 0.000000 0.000000 
#    y 0.000000 5.570340 0.000000 
#    z 0.000000 0.000000 3.722530 
# 
# 
# High freq. dielectric constant tensor:
#      x y z
#    x 1.823000 0.000000 0.000000 
#    y 0.000000 1.822760 0.000000 
#    z 0.000000 0.000000 1.819940 
# 
# From -- ./inp_files/24378.got.cif
#   From: 2010.03.12/outbox.cif.g09.slc.cpg/sg50_13_cif.got.tgz:24378.got - 2010.04.16 13:23:21.
