data_PCOD8205874
_publ_section_title
;
Structure prediction by ZEFSAII (Michael W. Deem and Ramdas Pophale) SiO2 
 PCOD8205874
Probable space group: P B A N
;
_chemical_formula_sum "Si O2"
_cell_formula_units_Z 56
_cell_length_a 8.905409
_cell_length_b 14.945066
_cell_length_c 20.281912
_cell_angle_alpha 90.000000
_cell_angle_beta 90.000000
_cell_angle_gamma 90.000000
_cell_volume 2699.358716
_symmetry_space_group_name_H-M "P B A N"
_symmetry_group_IT_number 50
_space_group.IT_coordinate_system_code '2'
_symmetry_cell_setting 'orthorhombic'
loop_
_space_group_symop_operation_xyz
x,y,z
1/2-x,1/2-y,z
x,1/2-y,-z
1/2-x,y,-z
-x,-y,-z
1/2+x,1/2+y,-z
-x,1/2+y,z
1/2+x,-y,z
loop_
_atom_site_type_symbol
_atom_site_label
_atom_site_fract_x
_atom_site_fract_y
_atom_site_fract_z
Si Si1 0.819640 0.654230 0.931468
Si Si2 0.076165 0.142319 0.642691
Si Si3 0.178527 0.656079 0.930902
Si Si4 0.570143 0.850673 0.357756
Si Si5 0.710754 0.996398 0.165410
Si Si6 0.041127 0.991680 0.739853
Si Si7 0.927815 0.848704 0.499827
O O1 0.750000 0.750000 0.914362
O O2 0.771012 0.589410 0.873097
O O3 0.998945 0.662190 0.937634
O O4 0.750000 0.617931 0.000000
O O5 0.253994 0.133542 0.651988
O O6 0.028907 0.245846 0.650249
O O7 0.024496 0.105191 0.569596
O O8 0.997182 0.080209 0.697544
O O9 0.250000 0.750000 0.908651
O O10 0.230246 0.584533 0.877706
O O11 0.250000 0.625893 0.000000
O O12 0.520204 0.890862 0.430106
O O13 0.478426 0.902618 0.302621
O O14 0.539311 0.985539 0.188528
O O15 0.787023 0.004701 0.237324
O O16 0.997679 0.750000 0.500000
O O17 0.750000 0.840686 0.500000
#
# Coordination Sequence:
#
# PCOD8205874 Si02
#       7
#     8   8   8   8   8   8   8
#     4  11  25  44  71  98 123 161 206 252 304 360
#     4   9  18  35  58  84 116 156 205 254 306 363
#     4  11  25  44  70  99 126 158 203 256 304 356
#     4   9  18  35  59  82 116 158 203 256 305 364
#     4  12  27  42  62  89 129 166 206 248 301 366
#     4  12  24  39  57  90 122 164 208 246 299 370
#     4   7  12  27  54  84 108 146 202 256 305 355
#
# _framework density 20.745668999999999
#
# number of rings (size 3 to 8) (size 9 to 14) (size 15 to 20)
#    0.000    1.857    2.857    3.857    4.000    4.000 
#    0.000    0.000    0.000    0.000    0.000    3.000 
#    0.000    0.000    0.000    0.000    0.000    0.000 
#
# Total GULP energy -693886.692223 kJ/mol
# GULP energy per Si atom -12390.833790 kJ/mol
# Density = 2.069845 g / cm^3
# Si number density = 20.745669 Si / 1000 Ang^3
#
#
#
# Elastic Constant Matrix: (Units=GPa)
#
#
# Indices 1 2 3 4 5 6 
#
# 1 61.0517 31.6493 33.6913 0.0000 0.0000 0.0000
# 2 31.6493 102.1213 75.1514 0.0000 0.0000 0.0000
# 3 33.6913 75.1514 141.7861 0.0000 0.0000 0.0000
# 4 0.0000 0.0000 0.0000 8.2999 0.0000 0.0000
# 5 0.0000 0.0000 0.0000 0.0000 10.7957 0.0000
# 6 0.0000 0.0000 0.0000 0.0000 0.0000 23.3331
#
#
#
# Elastic Compliance Matrix: (Units=1/GPa)
#
#
# Indices 1 2 3 4 5 6 
#
# 1 0.020003 -0.004429 -0.002406 0.000000 0.000000 0.000000
# 2 -0.004429 0.017035 -0.007977 0.000000 0.000000 0.000000
# 3 -0.002406 -0.007977 0.011852 0.000000 0.000000 0.000000
# 4 0.000000 0.000000 0.000000 0.120483 0.000000 0.000000
# 5 0.000000 0.000000 0.000000 0.000000 0.092629 0.000000
# 6 0.000000 0.000000 0.000000 0.000000 0.000000 0.042858
#
#
# Mechanical properties :
#
#
# Convention : Reuss Voigt Hill
#
# Bulk Modulus (GPa) = 51.89997 65.10478 58.50238
# Shear Modulus (GPa) = 14.66682 19.45022 17.05852
#
# Velocity S-wave (km/s) = 2.66180 3.06527 2.87063
# Velocity P-wave (km/s) = 5.87524 6.63162 6.26486
#
# Compressibility (1/GPa) = 0.01926783
#
# Stress axis : x y z
#
# Youngs Moduli (GPa) = 49.99223 58.70270 84.37105
#
# Poissons Ratio (x) = 0.26000 0.20296
# Poissons Ratio (y) = 0.22142 0.67300
# Poissons Ratio (z) = 0.12026 0.46825
#
# Static dielectric constant tensor:
#      x y z
#    x 3.524620 0.000000 0.000000 
#    y 0.000000 3.599050 0.000000 
#    z 0.000000 0.000000 4.030460 
# 
# 
# High freq. dielectric constant tensor:
#      x y z
#    x 1.790510 0.000000 0.000000 
#    y 0.000000 1.803130 0.000000 
#    z 0.000000 0.000000 1.831740 
# 
# From -- ./inp_files/30656.got.cif
#   From: 2010.03.12/outbox.cif.g09.slc.cpg/sg50_16_cif.got.tgz:30656.got - 2010.04.16 13:23:21.
