data_PCOD8205422
_publ_section_title
;
Structure prediction by ZEFSAII (Michael W. Deem and Ramdas Pophale) SiO2 
 PCOD8205422
Probable space group: P B A N
;
_chemical_formula_sum "Si O2"
_cell_formula_units_Z 56
_cell_length_a 9.044398
_cell_length_b 13.381809
_cell_length_c 21.538605
_cell_angle_alpha 90.000000
_cell_angle_beta 90.000000
_cell_angle_gamma 90.000000
_cell_volume 2606.826120
_symmetry_space_group_name_H-M "P B A N"
_symmetry_group_IT_number 50
_space_group.IT_coordinate_system_code '2'
_symmetry_cell_setting 'orthorhombic'
loop_
_space_group_symop_operation_xyz
x,y,z
1/2-x,1/2-y,z
x,1/2-y,-z
1/2-x,y,-z
-x,-y,-z
1/2+x,1/2+y,-z
-x,1/2+y,z
1/2+x,-y,z
loop_
_atom_site_type_symbol
_atom_site_label
_atom_site_fract_x
_atom_site_fract_y
_atom_site_fract_z
Si Si1 0.012412 0.595957 0.218818
Si Si2 0.499250 0.111738 0.636351
Si Si3 0.676282 0.067237 0.153445
Si Si4 0.204713 0.110400 0.070662
Si Si5 0.778514 0.484825 0.429631
Si Si6 0.082765 0.715238 0.564071
Si Si7 0.953124 0.764431 0.133741
O O1 0.168958 0.591190 0.184580
O O2 0.030437 0.594471 0.291973
O O3 0.919675 0.497567 0.201492
O O4 0.935366 0.700758 0.197992
O O5 0.627537 0.058172 0.597420
O O6 0.502005 0.230757 0.621916
O O7 0.338408 0.073370 0.614192
O O8 0.604070 0.173268 0.135331
O O9 0.687873 0.005168 0.088930
O O10 0.054120 0.176237 0.080435
O O11 0.321411 0.157516 0.119885
O O12 0.250000 0.120047 0.000000
O O13 0.750000 0.521521 0.500000
O O14 0.913738 0.403990 0.428475
O O15 0.250000 0.750000 0.560931
O O16 0.003225 0.750000 0.500000
#
# Coordination Sequence:
#
# PCOD8205422 Si02
#       7
#     8   8   8   8   8   8   8
#     4  11  24  40  64  94 135 169 226 265 329 396
#     4  11  23  38  64  94 118 171 212 257 322 393
#     4  11  22  43  66  96 133 177 212 277 324 384
#     4  10  22  44  68  98 137 175 215 270 340 386
#     4  11  21  39  64  89 123 160 211 268 323 380
#     4   9  17  35  58  82 115 155 198 247 312 372
#     4  10  21  40  67  92 132 175 214 271 328 378
#
# _framework density 21.482061999999999
#
# number of rings (size 3 to 8) (size 9 to 14) (size 15 to 20)
#    0.000    1.571    4.286    2.571    0.000    5.143 
#    2.571    0.714    0.000    0.000    0.000    0.000 
#    0.000    0.000    0.000    0.000    0.000    0.000 
#
# Total GULP energy -693879.828669 kJ/mol
# GULP energy per Si atom -12390.711226 kJ/mol
# Density = 2.143317 g / cm^3
# Si number density = 21.482062 Si / 1000 Ang^3
#
#
#
# Elastic Constant Matrix: (Units=GPa)
#
#
# Indices 1 2 3 4 5 6 
#
# 1 58.1512 20.9780 30.0762 0.0000 0.0000 0.0000
# 2 20.9780 89.3802 38.7089 0.0000 0.0000 0.0000
# 3 30.0762 38.7089 138.5139 0.0000 0.0000 0.0000
# 4 0.0000 0.0000 0.0000 14.7878 0.0000 0.0000
# 5 0.0000 0.0000 0.0000 0.0000 20.2024 0.0000
# 6 0.0000 0.0000 0.0000 0.0000 0.0000 29.9861
#
#
#
# Elastic Compliance Matrix: (Units=1/GPa)
#
#
# Indices 1 2 3 4 5 6 
#
# 1 0.020158 -0.003226 -0.003475 0.000000 0.000000 0.000000
# 2 -0.003226 0.013245 -0.003001 0.000000 0.000000 0.000000
# 3 -0.003475 -0.003001 0.008813 0.000000 0.000000 0.000000
# 4 0.000000 0.000000 0.000000 0.067623 0.000000 0.000000
# 5 0.000000 0.000000 0.000000 0.000000 0.049499 0.000000
# 6 0.000000 0.000000 0.000000 0.000000 0.000000 0.033349
#
#
# Mechanical properties :
#
#
# Convention : Reuss Voigt Hill
#
# Bulk Modulus (GPa) = 43.83887 51.73019 47.78453
# Shear Modulus (GPa) = 22.75881 26.08074 24.41978
#
# Velocity S-wave (km/s) = 3.25842 3.48813 3.37523
# Velocity P-wave (km/s) = 5.88285 6.35261 6.12224
#
# Compressibility (1/GPa) = 0.02281081
#
# Stress axis : x y z
#
# Youngs Moduli (GPa) = 49.60847 75.50032 113.47170
#
# Poissons Ratio (x) = 0.24357 0.39436
# Poissons Ratio (y) = 0.16004 0.34052
# Poissons Ratio (z) = 0.17241 0.22657
#
# Static dielectric constant tensor:
#      x y z
#    x 3.838760 0.000000 0.000000 
#    y 0.000000 4.599800 0.000000 
#    z 0.000000 0.000000 3.748930 
# 
# 
# High freq. dielectric constant tensor:
#      x y z
#    x 1.829210 0.000000 0.000000 
#    y 0.000000 1.855160 0.000000 
#    z 0.000000 0.000000 1.828320 
# 
# From -- ./inp_files/30630.got.cif
#   From: 2010.03.12/outbox.cif.g09.slc.cpg/sg50_16_cif.got.tgz:30630.got - 2010.04.16 13:23:21.
