data_PCOD8205590
_publ_section_title
;
Structure prediction by ZEFSAII (Michael W. Deem and Ramdas Pophale) SiO2 
 PCOD8205590
Probable space group: P B A N
;
_chemical_formula_sum "Si O2"
_cell_formula_units_Z 26
_cell_length_a 10.482331
_cell_length_b 20.513697
_cell_length_c 5.424125
_cell_angle_alpha 90.000000
_cell_angle_beta 90.000000
_cell_angle_gamma 90.000000
_cell_volume 1166.356986
_symmetry_space_group_name_H-M "P B A N"
_symmetry_group_IT_number 50
_space_group.IT_coordinate_system_code '2'
_symmetry_cell_setting 'orthorhombic'
loop_
_space_group_symop_operation_xyz
x,y,z
1/2-x,1/2-y,z
x,1/2-y,-z
1/2-x,y,-z
-x,-y,-z
1/2+x,1/2+y,-z
-x,1/2+y,z
1/2+x,-y,z
loop_
_atom_site_type_symbol
_atom_site_label
_atom_site_fract_x
_atom_site_fract_y
_atom_site_fract_z
Si Si1 0.124880 0.062183 0.657848
Si Si2 0.887811 0.868489 0.840158
Si Si3 0.250000 0.250000 0.000000
Si Si4 0.620804 0.417907 0.402741
O O1 0.177126 0.085942 0.377126
O O2 0.158078 0.108923 0.887653
O O3 0.970967 0.067283 0.635952
O O4 0.161842 0.987447 0.715839
O O5 0.842009 0.793504 0.822969
O O6 0.041683 0.873693 0.795756
O O7 0.750000 0.382257 0.500000
#
# Coordination Sequence:
#
# PCOD8205590 Si02
#       4
#     8   8   2   8
#     4   9  21  38  59  98 129 159 219 265 354 384
#     4  10  23  40  57  95 125 178 217 265 331 390
#     4  12  28  42  72  84 148 182 236 282 312 438
#     4   9  20  37  65  95 131 165 210 285 340 403
#
# _framework density 22.291632
#
# number of rings (size 3 to 8) (size 9 to 14) (size 15 to 20)
#    1.846    0.615    0.000    0.923    4.308    3.692 
#    0.000    0.000    0.000    5.538    0.000    0.000 
#    0.000    0.000    0.000    0.000    0.000    0.000 
#
# Total GULP energy -322167.642157 kJ/mol
# GULP energy per Si atom -12391.063160 kJ/mol
# Density = 2.224090 g / cm^3
# Si number density = 22.291632 Si / 1000 Ang^3
#
#
#
# Elastic Constant Matrix: (Units=GPa)
#
#
# Indices 1 2 3 4 5 6 
#
# 1 164.9623 61.0463 77.7708 0.0000 0.0000 0.0000
# 2 61.0463 141.5415 43.2472 0.0000 0.0000 0.0000
# 3 77.7708 43.2472 110.9296 0.0000 0.0000 0.0000
# 4 0.0000 0.0000 0.0000 26.1825 0.0000 0.0000
# 5 0.0000 0.0000 0.0000 0.0000 46.7474 0.0000
# 6 0.0000 0.0000 0.0000 0.0000 0.0000 40.9117
#
#
#
# Elastic Compliance Matrix: (Units=1/GPa)
#
#
# Indices 1 2 3 4 5 6 
#
# 1 0.009721 -0.002396 -0.005881 0.000000 0.000000 0.000000
# 2 -0.002396 0.008611 -0.001677 0.000000 0.000000 0.000000
# 3 -0.005881 -0.001677 0.013792 0.000000 0.000000 0.000000
# 4 0.000000 0.000000 0.000000 0.038193 0.000000 0.000000
# 5 0.000000 0.000000 0.000000 0.000000 0.021392 0.000000
# 6 0.000000 0.000000 0.000000 0.000000 0.000000 0.024443
#
#
# Mechanical properties :
#
#
# Convention : Reuss Voigt Hill
#
# Bulk Modulus (GPa) = 81.86634 86.84022 84.35328
# Shear Modulus (GPa) = 35.68035 38.45960 37.06997
#
# Velocity S-wave (km/s) = 4.00511 4.15817 4.08236
# Velocity P-wave (km/s) = 7.62842 7.88003 7.75524
#
# Compressibility (1/GPa) = 0.01221503
#
# Stress axis : x y z
#
# Youngs Moduli (GPa) = 102.86624 116.13226 72.50531
#
# Poissons Ratio (x) = 0.27822 0.42644
# Poissons Ratio (y) = 0.24644 0.12162
# Poissons Ratio (z) = 0.60500 0.19480
#
# Static dielectric constant tensor:
#      x y z
#    x 4.615420 0.000000 0.000000 
#    y 0.000000 3.498220 0.000000 
#    z 0.000000 0.000000 3.760300 
# 
# 
# High freq. dielectric constant tensor:
#      x y z
#    x 1.932670 0.000000 0.000000 
#    y 0.000000 1.820930 0.000000 
#    z 0.000000 0.000000 1.872430 
# 
# From -- ./inp_files/8701.got.cif
#   From: 2010.03.12/outbox.cif.g09.slc.cpg/sg50_5_cif.got.tgz:8701.got - 2010.04.16 13:23:21.
