data_PCOD8205632
_publ_section_title
;
Structure prediction by ZEFSAII (Michael W. Deem and Ramdas Pophale) SiO2 
 PCOD8205632
Probable space group: P B A N
;
_chemical_formula_sum "Si O2"
_cell_formula_units_Z 60
_cell_length_a 13.972511
_cell_length_b 14.037530
_cell_length_c 15.514827
_cell_angle_alpha 90.000000
_cell_angle_beta 90.000000
_cell_angle_gamma 90.000000
_cell_volume 3043.071067
_symmetry_space_group_name_H-M "P B A N"
_symmetry_group_IT_number 50
_space_group.IT_coordinate_system_code '2'
_symmetry_cell_setting 'orthorhombic'
loop_
_space_group_symop_operation_xyz
x,y,z
1/2-x,1/2-y,z
x,1/2-y,-z
1/2-x,y,-z
-x,-y,-z
1/2+x,1/2+y,-z
-x,1/2+y,z
1/2+x,-y,z
loop_
_atom_site_type_symbol
_atom_site_label
_atom_site_fract_x
_atom_site_fract_y
_atom_site_fract_z
Si Si1 0.137164 0.510875 0.591928
Si Si2 0.986386 0.643024 0.320536
Si Si3 0.491680 0.398293 0.871273
Si Si4 0.270007 0.358433 0.901262
Si Si5 0.924221 0.598250 0.134014
Si Si6 0.989052 0.860891 0.323231
Si Si7 0.488769 0.250000 0.000000
Si Si8 0.854562 0.486608 0.610320
O O1 0.098895 0.415333 0.636035
O O2 0.073452 0.601428 0.616245
O O3 0.128679 0.497729 0.490405
O O4 0.243149 0.529713 0.627425
O O5 0.981604 0.633232 0.217524
O O6 0.972060 0.751851 0.347021
O O7 0.088718 0.605213 0.354009
O O8 0.376753 0.389922 0.876620
O O9 0.525738 0.502483 0.900417
O O10 0.524186 0.376545 0.774468
O O11 0.544795 0.320859 0.934782
O O12 0.250000 0.250000 0.874816
O O13 0.189253 0.418949 0.847737
O O14 0.250000 0.381006 0.000000
O O15 0.924696 0.680368 0.059892
O O16 0.891427 0.919115 0.340333
#
# Coordination Sequence:
#
# PCOD8205632 Si02
#       8
#     8   8   8   8   8   8   4   8
#     4  10  23  43  65  92 126 162 204 254 312 376
#     4  11  22  39  63  94 125 162 206 257 307 367
#     4  12  23  39  64  92 126 165 209 259 312 359
#     4  11  20  38  60  88 117 159 212 257 296 362
#     4  12  23  39  64  92 126 165 209 259 312 359
#     4  11  22  39  63  94 125 162 206 257 307 367
#     4  12  22  41  60  95 126 164 212 257 304 367
#     4  10  23  43  65  92 126 162 204 254 312 376
#
# _framework density 19.716925
#
# number of rings (size 3 to 8) (size 9 to 14) (size 15 to 20)
#    0.000    0.933    6.667    2.000    1.867    3.200 
#    0.000    2.667    0.000    1.600    0.000    0.000 
#    0.000    0.000    0.000    0.000    0.000    0.000 
#
# Total GULP energy -743731.852355 kJ/mol
# GULP energy per Si atom -12395.530873 kJ/mol
# Density = 1.967205 g / cm^3
# Si number density = 19.716925 Si / 1000 Ang^3
#
#
#
# Elastic Constant Matrix: (Units=GPa)
#
#
# Indices 1 2 3 4 5 6 
#
# 1 94.1445 28.8823 10.7401 0.0000 0.0000 0.0000
# 2 28.8823 123.0012 24.7229 0.0000 0.0000 0.0000
# 3 10.7401 24.7229 86.2777 0.0000 0.0000 0.0000
# 4 0.0000 0.0000 0.0000 24.2596 0.0000 0.0000
# 5 0.0000 0.0000 0.0000 0.0000 18.4862 0.0000
# 6 0.0000 0.0000 0.0000 0.0000 0.0000 16.1463
#
#
#
# Elastic Compliance Matrix: (Units=1/GPa)
#
#
# Indices 1 2 3 4 5 6 
#
# 1 0.011486 -0.002557 -0.000697 0.000000 0.000000 0.000000
# 2 -0.002557 0.009196 -0.002317 0.000000 0.000000 0.000000
# 3 -0.000697 -0.002317 0.012341 0.000000 0.000000 0.000000
# 4 0.000000 0.000000 0.000000 0.041221 0.000000 0.000000
# 5 0.000000 0.000000 0.000000 0.000000 0.054094 0.000000
# 6 0.000000 0.000000 0.000000 0.000000 0.000000 0.061934
#
#
# Mechanical properties :
#
#
# Convention : Reuss Voigt Hill
#
# Bulk Modulus (GPa) = 45.70092 48.01264 46.85678
# Shear Modulus (GPa) = 23.95696 27.71697 25.83696
#
# Velocity S-wave (km/s) = 3.48953 3.75339 3.62387
# Velocity P-wave (km/s) = 6.28209 6.57174 6.42855
#
# Compressibility (1/GPa) = 0.02188140
#
# Stress axis : x y z
#
# Youngs Moduli (GPa) = 87.06307 108.74199 81.02969
#
# Poissons Ratio (x) = 0.27805 0.05649
# Poissons Ratio (y) = 0.22261 0.18773
# Poissons Ratio (z) = 0.06069 0.25194
#
# Static dielectric constant tensor:
#      x y z
#    x 3.587470 0.000000 0.000000 
#    y 0.000000 3.671550 0.000000 
#    z 0.000000 0.000000 3.848370 
# 
# 
# High freq. dielectric constant tensor:
#      x y z
#    x 1.753860 0.000000 0.000000 
#    y 0.000000 1.766260 0.000000 
#    z 0.000000 0.000000 1.784550 
# 
# From -- ./inp_files/26594.got.cif
#   From: 2010.03.12/outbox.cif.g09.slc.cpg/sg50_14_cif.got.tgz:26594.got - 2010.04.16 13:23:21.
