data_PCOD8205627
_publ_section_title
;
Structure prediction by ZEFSAII (Michael W. Deem and Ramdas Pophale) SiO2 
 PCOD8205627
Probable space group: P B A N
;
_chemical_formula_sum "Si O2"
_cell_formula_units_Z 58
_cell_length_a 16.616846
_cell_length_b 19.046357
_cell_length_c 8.580817
_cell_angle_alpha 90.000000
_cell_angle_beta 90.000000
_cell_angle_gamma 90.000000
_cell_volume 2715.746043
_symmetry_space_group_name_H-M "P B A N"
_symmetry_group_IT_number 50
_space_group.IT_coordinate_system_code '2'
_symmetry_cell_setting 'orthorhombic'
loop_
_space_group_symop_operation_xyz
x,y,z
1/2-x,1/2-y,z
x,1/2-y,-z
1/2-x,y,-z
-x,-y,-z
1/2+x,1/2+y,-z
-x,1/2+y,z
1/2+x,-y,z
loop_
_atom_site_type_symbol
_atom_site_label
_atom_site_fract_x
_atom_site_fract_y
_atom_site_fract_z
Si Si1 0.250000 0.750000 0.000000
Si Si2 0.591610 0.423909 0.819721
Si Si3 0.552279 0.651037 0.363679
Si Si4 0.467536 0.192341 0.715536
Si Si5 0.803597 0.575981 0.776252
Si Si6 0.866530 0.580928 0.113680
Si Si7 0.757947 0.427480 0.674610
Si Si8 0.378328 0.849383 0.135107
O O1 0.305579 0.797707 0.104866
O O2 0.518700 0.396320 0.711492
O O3 0.594764 0.509124 0.816034
O O4 0.679261 0.397801 0.762910
O O5 0.581117 0.390024 0.990015
O O6 0.561590 0.727592 0.286700
O O7 0.536925 0.655603 0.547552
O O8 0.640920 0.618039 0.344145
O O9 0.423788 0.145955 0.847084
O O10 0.558639 0.197554 0.772031
O O11 0.719142 0.610954 0.825012
O O12 0.767067 0.510231 0.685310
O O13 0.858494 0.563473 0.929808
O O14 0.750000 0.400477 0.500000
O O15 0.842409 0.405837 0.748092
#
# Coordination Sequence:
#
# PCOD8205627 Si02
#       8
#     2   8   8   8   8   8   8   8
#     4  12  24  40  70 100 128 182 228 268 336 400
#     4  11  22  42  69  96 132 167 221 274 330 391
#     4  11  26  45  64  96 137 179 219 276 337 400
#     4  11  27  44  64  97 137 176 225 272 333 404
#     4  10  23  42  69  98 129 170 224 272 335 396
#     4  10  23  43  68 101 129 169 223 285 325 394
#     4  11  23  40  65 101 133 167 214 275 336 399
#     4  12  23  43  68  97 132 178 222 270 328 406
#
# _framework density 21.356929999999998
#
# number of rings (size 3 to 8) (size 9 to 14) (size 15 to 20)
#    0.000    1.103    2.759    2.483    5.793    3.862 
#    0.000    2.759    0.000    0.000    0.000    0.000 
#    0.000    0.000    0.000    0.000    0.000    0.000 
#
# Total GULP energy -718799.204257 kJ/mol
# GULP energy per Si atom -12393.089729 kJ/mol
# Density = 2.130832 g / cm^3
# Si number density = 21.356930 Si / 1000 Ang^3
#
#
#
# Elastic Constant Matrix: (Units=GPa)
#
#
# Indices 1 2 3 4 5 6 
#
# 1 101.9576 42.7535 28.9138 0.0000 0.0000 0.0000
# 2 42.7535 76.3368 17.8380 0.0000 0.0000 0.0000
# 3 28.9138 17.8380 87.3944 0.0000 0.0000 0.0000
# 4 0.0000 0.0000 0.0000 80.4112 0.0000 0.0000
# 5 0.0000 0.0000 0.0000 0.0000 6.4851 0.0000
# 6 0.0000 0.0000 0.0000 0.0000 0.0000 59.0917
#
#
#
# Elastic Compliance Matrix: (Units=1/GPa)
#
#
# Indices 1 2 3 4 5 6 
#
# 1 0.013567 -0.006877 -0.003085 0.000000 0.000000 0.000000
# 2 -0.006877 0.017242 -0.001244 0.000000 0.000000 0.000000
# 3 -0.003085 -0.001244 0.012717 0.000000 0.000000 0.000000
# 4 0.000000 0.000000 0.000000 0.012436 0.000000 0.000000
# 5 0.000000 0.000000 0.000000 0.000000 0.154199 0.000000
# 6 0.000000 0.000000 0.000000 0.000000 0.000000 0.016923
#
#
# Mechanical properties :
#
#
# Convention : Reuss Voigt Hill
#
# Bulk Modulus (GPa) = 47.36262 49.41103 48.38683
# Shear Modulus (GPa) = 19.49062 40.94316 30.21689
#
# Velocity S-wave (km/s) = 3.02423 4.38321 3.76553
# Velocity P-wave (km/s) = 5.86681 6.98590 6.45067
#
# Compressibility (1/GPa) = 0.02111370
#
# Stress axis : x y z
#
# Youngs Moduli (GPa) = 73.71023 57.99684 78.63591
#
# Poissons Ratio (x) = 0.39887 0.24257
# Poissons Ratio (y) = 0.50693 0.09782
# Poissons Ratio (z) = 0.22737 0.07215
#
# Static dielectric constant tensor:
#      x y z
#    x 4.275120 0.000000 0.000000 
#    y 0.000000 3.898920 0.000000 
#    z 0.000000 0.000000 3.855330 
# 
# 
# High freq. dielectric constant tensor:
#      x y z
#    x 1.853260 0.000000 0.000000 
#    y 0.000000 1.829880 0.000000 
#    z 0.000000 0.000000 1.838730 
# 
# From -- ./inp_files/14488.got.cif
#   From: 2010.03.12/outbox.cif.g09.slc.cpg/sg50_8_cif.got.tgz:14488.got - 2010.04.16 13:23:21.
