data_PCOD8205041
_publ_section_title
;
Structure prediction by ZEFSAII (Michael W. Deem and Ramdas Pophale) SiO2 
 PCOD8205041
Probable space group: P B A N
;
_chemical_formula_sum "Si O2"
_cell_formula_units_Z 40
_cell_length_a 13.071232
_cell_length_b 33.679768
_cell_length_c 5.069989
_cell_angle_alpha 90.000000
_cell_angle_beta 90.000000
_cell_angle_gamma 90.000000
_cell_volume 2231.991988
_symmetry_space_group_name_H-M "P B A N"
_symmetry_group_IT_number 50
_space_group.IT_coordinate_system_code '2'
_symmetry_cell_setting 'orthorhombic'
loop_
_space_group_symop_operation_xyz
x,y,z
1/2-x,1/2-y,z
x,1/2-y,-z
1/2-x,y,-z
-x,-y,-z
1/2+x,1/2+y,-z
-x,1/2+y,z
1/2+x,-y,z
loop_
_atom_site_type_symbol
_atom_site_label
_atom_site_fract_x
_atom_site_fract_y
_atom_site_fract_z
Si Si1 0.186784 0.448717 0.740340
Si Si2 0.129044 0.656789 0.994530
Si Si3 0.911313 0.473599 0.378794
Si Si4 0.040170 0.926902 0.856187
Si Si5 0.871007 0.294140 0.509783
O O1 0.250000 0.429193 0.500000
O O2 0.180770 0.496371 0.687042
O O3 0.076943 0.427459 0.759533
O O4 0.250000 0.440199 0.000000
O O5 0.070607 0.616152 0.043882
O O6 0.093810 0.687373 0.216550
O O7 0.250000 0.648266 0.000000
O O8 0.091859 0.676742 0.722911
O O9 0.887455 0.440472 0.606519
O O10 0.000000 0.500000 0.500000
O O11 0.948007 0.455750 0.103474
O O12 0.919750 0.250000 0.500000
O O13 0.750000 0.290231 0.500000
#
# Coordination Sequence:
#
# PCOD8205041 Si02
#       5
#     8   8   8   8   8
#     4  11  21  34  51  71  94 130 175 212 250 293
#     4  10  20  32  48  73 101 131 161 195 244 292
#     4  10  20  35  50  66  92 130 169 209 252 288
#     4  11  21  35  51  72 102 129 164 214 253 290
#     4   9  17  31  50  71  98 130 161 191 230 291
#
# _framework density 17.921209999999999
#
# number of rings (size 3 to 8) (size 9 to 14) (size 15 to 20)
#    0.000    1.800    0.000    7.800    0.000    4.800 
#    0.000    0.000    0.000    0.000    0.000    0.000 
#    0.000   12.000    0.000    0.000    0.000    0.000 
#
# Total GULP energy -495816.141087 kJ/mol
# GULP energy per Si atom -12395.403527 kJ/mol
# Density = 1.788042 g / cm^3
# Si number density = 17.921210 Si / 1000 Ang^3
#
#
#
# Elastic Constant Matrix: (Units=GPa)
#
#
# Indices 1 2 3 4 5 6 
#
# 1 48.1593 34.8660 33.1475 0.0000 0.0000 0.0000
# 2 34.8660 104.8270 31.0110 0.0000 0.0000 0.0000
# 3 33.1475 31.0110 128.9194 0.0000 0.0000 0.0000
# 4 0.0000 0.0000 0.0000 -66.9508 0.0000 0.0000
# 5 0.0000 0.0000 0.0000 0.0000 21.2335 0.0000
# 6 0.0000 0.0000 0.0000 0.0000 0.0000 -31.9388
#
#
#
# Elastic Compliance Matrix: (Units=1/GPa)
#
#
# Indices 1 2 3 4 5 6 
#
# 1 0.031047 -0.008575 -0.005920 0.000000 0.000000 0.000000
# 2 -0.008575 0.012639 -0.000835 0.000000 0.000000 0.000000
# 3 -0.005920 -0.000835 0.009480 0.000000 0.000000 0.000000
# 4 0.000000 0.000000 0.000000 -0.014936 0.000000 0.000000
# 5 0.000000 0.000000 0.000000 0.000000 0.047095 0.000000
# 6 0.000000 0.000000 0.000000 0.000000 0.000000 -0.031310
#
#
# Mechanical properties :
#
#
# Convention : Reuss Voigt Hill
#
# Bulk Modulus (GPa) = 44.43512 53.32831 48.88171
# Shear Modulus (GPa) = 54.24288 -3.33914 25.45187
#
# Velocity S-wave (km/s) = 5.50755 -1.36648 3.77265
# Velocity P-wave (km/s) = 8.08039 5.22800 6.80532
#
# Compressibility (1/GPa) = 0.02250472
#
# Stress axis : x y z
#
# Youngs Moduli (GPa) = 32.20891 79.12149 105.48633
#
# Poissons Ratio (x) = 0.67848 0.62449
# Poissons Ratio (y) = 0.27620 0.08812
# Poissons Ratio (z) = 0.19068 0.06610
#
# Static dielectric constant tensor:
#      x y z
#    x 2.952890 0.000000 0.000000 
#    y 0.000000 3.470040 0.000000 
#    z 0.000000 0.000000 4.176190 
# 
# 
# High freq. dielectric constant tensor:
#      x y z
#    x 1.647920 0.000000 0.000000 
#    y 0.000000 1.679150 0.000000 
#    z 0.000000 0.000000 1.726830 
# 
# From -- ./inp_files/2549.got.cif
#   From: 2010.03.12/outbox.cif.g09.slc.cpg/sg50_2_cif.got.tgz:2549.got - 2010.04.16 13:23:21.
