data_PCOD8205071
_publ_section_title
;
Structure prediction by ZEFSAII (Michael W. Deem and Ramdas Pophale) SiO2 
 PCOD8205071
Probable space group: P B A N
;
_chemical_formula_sum "Si O2"
_cell_formula_units_Z 58
_cell_length_a 7.663175
_cell_length_b 29.738013
_cell_length_c 12.783203
_cell_angle_alpha 90.000000
_cell_angle_beta 90.000000
_cell_angle_gamma 90.000000
_cell_volume 2913.133423
_symmetry_space_group_name_H-M "P B A N"
_symmetry_group_IT_number 50
_space_group.IT_coordinate_system_code '2'
_symmetry_cell_setting 'orthorhombic'
loop_
_space_group_symop_operation_xyz
x,y,z
1/2-x,1/2-y,z
x,1/2-y,-z
1/2-x,y,-z
-x,-y,-z
1/2+x,1/2+y,-z
-x,1/2+y,z
1/2+x,-y,z
loop_
_atom_site_type_symbol
_atom_site_label
_atom_site_fract_x
_atom_site_fract_y
_atom_site_fract_z
Si Si1 0.545256 0.701022 0.121099
Si Si2 0.537457 0.449038 0.612132
Si Si3 0.959061 0.698246 0.110460
Si Si4 0.931070 0.643561 0.688042
Si Si5 0.055889 0.546876 0.377366
Si Si6 0.467265 0.363981 0.291261
Si Si7 0.940797 0.310906 0.521810
Si Si8 0.750000 0.750000 0.500000
O O1 0.751735 0.697427 0.111670
O O2 0.483328 0.751867 0.149295
O O3 0.477590 0.666388 0.210145
O O4 0.468701 0.688448 0.006571
O O5 0.461028 0.409855 0.684983
O O6 0.479812 0.496422 0.662702
O O7 0.742144 0.444237 0.612749
O O8 0.466473 0.446062 0.492086
O O9 0.038726 0.659237 0.185128
O O10 0.727294 0.653148 0.691790
O O11 0.001304 0.666690 0.584955
O O12 0.977179 0.581666 0.291863
O O13 0.587302 0.348160 0.388768
O O14 0.750000 0.287953 0.500000
O O15 0.102852 0.279118 0.563976
#
# Coordination Sequence:
#
# PCOD8205071 Si02
#       8
#     8   8   8   8   8   8   8   2
#     4   8  16  31  53  80 110 150 198 240 279 330
#     4  10  20  34  53  78 109 146 186 232 288 344
#     4   8  16  31  53  80 110 150 198 240 279 330
#     4  11  20  33  57  83 118 152 189 235 285 345
#     4  10  20  34  53  78 109 146 186 232 288 344
#     4  11  20  33  57  83 118 152 189 235 285 345
#     4  12  25  39  56  83 118 156 196 236 285 346
#     4  12  26  44  52  78 118 164 198 232 288 352
#
# _framework density 19.909832999999999
#
# number of rings (size 3 to 8) (size 9 to 14) (size 15 to 20)
#    0.000    1.931    2.759    2.690    1.931    1.103 
#    0.000    0.000    0.000    4.138    0.000    7.724 
#    0.000    0.000    0.000    0.000    0.000    0.000 
#
# Total GULP energy -718532.275504 kJ/mol
# GULP energy per Si atom -12388.487509 kJ/mol
# Density = 1.986452 g / cm^3
# Si number density = 19.909833 Si / 1000 Ang^3
#
#
#
# Elastic Constant Matrix: (Units=GPa)
#
#
# Indices 1 2 3 4 5 6 
#
# 1 65.6563 9.6274 6.6794 0.0000 0.0000 0.0000
# 2 9.6274 167.1153 89.5627 0.0000 0.0000 0.0000
# 3 6.6794 89.5627 134.0346 0.0000 0.0000 0.0000
# 4 0.0000 0.0000 0.0000 40.7277 0.0000 0.0000
# 5 0.0000 0.0000 0.0000 0.0000 0.7039 0.0000
# 6 0.0000 0.0000 0.0000 0.0000 0.0000 22.2060
#
#
#
# Elastic Compliance Matrix: (Units=1/GPa)
#
#
# Indices 1 2 3 4 5 6 
#
# 1 0.015367 -0.000740 -0.000271 0.000000 0.000000 0.000000
# 2 -0.000740 0.009358 -0.006216 0.000000 0.000000 0.000000
# 3 -0.000271 -0.006216 0.011628 0.000000 0.000000 0.000000
# 4 0.000000 0.000000 0.000000 0.024553 0.000000 0.000000
# 5 0.000000 0.000000 0.000000 0.000000 1.420727 0.000000
# 6 0.000000 0.000000 0.000000 0.000000 0.000000 0.045033
#
#
# Mechanical properties :
#
#
# Convention : Reuss Voigt Hill
#
# Bulk Modulus (GPa) = 45.66624 64.28283 54.97453
# Shear Modulus (GPa) = 3.22910 30.12329 16.67619
#
# Velocity S-wave (km/s) = 1.27490 3.89393 2.89725
# Velocity P-wave (km/s) = 5.01533 7.25079 6.23408
#
# Compressibility (1/GPa) = 0.02189801
#
# Stress axis : x y z
#
# Youngs Moduli (GPa) = 65.07477 106.86070 85.99942
#
# Poissons Ratio (x) = 0.07906 0.02334
# Poissons Ratio (y) = 0.04814 0.53459
# Poissons Ratio (z) = 0.01766 0.66427
#
# Static dielectric constant tensor:
#      x y z
#    x 3.561100 0.000000 0.000000 
#    y 0.000000 3.960280 0.000000 
#    z 0.000000 0.000000 3.738490 
# 
# 
# High freq. dielectric constant tensor:
#      x y z
#    x 1.770320 0.000000 0.000000 
#    y 0.000000 1.777310 0.000000 
#    z 0.000000 0.000000 1.739030 
# 
# From -- ./inp_files/19498.got.cif
#   From: 2010.03.12/outbox.cif.g09.slc.cpg/sg50_10_cif.got.tgz:19498.got - 2010.04.16 13:23:21.
