data_PCOD8205672
_publ_section_title
;
Structure prediction by ZEFSAII (Michael W. Deem and Ramdas Pophale) SiO2 
 PCOD8205672
Probable space group: P B A N
;
_chemical_formula_sum "Si O2"
_cell_formula_units_Z 56
_cell_length_a 14.236965
_cell_length_b 14.878036
_cell_length_c 11.131599
_cell_angle_alpha 90.000000
_cell_angle_beta 90.000000
_cell_angle_gamma 90.000000
_cell_volume 2357.873903
_symmetry_space_group_name_H-M "P B A N"
_symmetry_group_IT_number 50
_space_group.IT_coordinate_system_code '2'
_symmetry_cell_setting 'orthorhombic'
loop_
_space_group_symop_operation_xyz
x,y,z
1/2-x,1/2-y,z
x,1/2-y,-z
1/2-x,y,-z
-x,-y,-z
1/2+x,1/2+y,-z
-x,1/2+y,z
1/2+x,-y,z
loop_
_atom_site_type_symbol
_atom_site_label
_atom_site_fract_x
_atom_site_fract_y
_atom_site_fract_z
Si Si1 0.097166 0.556246 0.704344
Si Si2 0.198691 0.020801 0.701276
Si Si3 0.352515 0.030103 0.040701
Si Si4 0.504638 0.586812 0.866975
Si Si5 0.339005 0.295686 0.626616
Si Si6 0.643000 0.133894 0.542755
Si Si7 0.960018 0.243553 0.720735
O O1 0.195071 0.507691 0.725136
O O2 0.021329 0.485159 0.756794
O O3 0.082266 0.585928 0.563716
O O4 0.090950 0.653429 0.771971
O O5 0.187097 0.099752 0.604104
O O6 0.155405 0.064467 0.822480
O O7 0.142410 0.934367 0.655153
O O8 0.423013 0.945301 0.041999
O O9 0.250000 0.998537 0.000000
O O10 0.399604 0.100435 0.946346
O O11 0.464590 0.680340 0.820418
O O12 0.250000 0.250000 0.695190
O O13 0.352764 0.250000 0.500000
O O14 0.433197 0.282981 0.698729
O O15 0.750000 0.153078 0.500000
O O16 0.595143 0.224259 0.598445
#
# Coordination Sequence:
#
# PCOD8205672 Si02
#       7
#     8   8   8   8   8   8   8
#     4  11  24  43  74 107 150 193 247 305 384 457
#     4  11  23  46  73 106 145 205 246 305 386 439
#     4  11  23  47  76  98 142 199 255 314 373 445
#     4  11  25  45  76 106 143 196 255 310 379 449
#     4  11  26  42  69 106 154 191 245 303 371 459
#     4  10  24  42  74 107 150 192 244 304 379 464
#     4  12  25  45  71 112 149 193 247 313 377 460
#
# _framework density 23.750209999999999
#
# number of rings (size 3 to 8) (size 9 to 14) (size 15 to 20)
#    0.000    1.000    2.857    3.000    8.000    4.571 
#    0.000    6.429    3.143    0.000    0.000    0.000 
#    0.000    0.000    0.000    0.000    0.000    0.000 
#
# Total GULP energy -693849.905217 kJ/mol
# GULP energy per Si atom -12390.176879 kJ/mol
# Density = 2.369615 g / cm^3
# Si number density = 23.750210 Si / 1000 Ang^3
#
#
#
# Elastic Constant Matrix: (Units=GPa)
#
#
# Indices 1 2 3 4 5 6 
#
# 1 115.7773 22.2829 14.8481 0.0000 0.0000 0.0000
# 2 22.2829 106.2385 14.4261 0.0000 0.0000 0.0000
# 3 14.8481 14.4261 82.5429 0.0000 0.0000 0.0000
# 4 0.0000 0.0000 0.0000 27.5112 0.0000 0.0000
# 5 0.0000 0.0000 0.0000 0.0000 22.1309 0.0000
# 6 0.0000 0.0000 0.0000 0.0000 0.0000 41.4904
#
#
#
# Elastic Compliance Matrix: (Units=1/GPa)
#
#
# Indices 1 2 3 4 5 6 
#
# 1 0.009143 -0.001736 -0.001341 0.000000 0.000000 0.000000
# 2 -0.001736 0.009971 -0.001430 0.000000 0.000000 0.000000
# 3 -0.001341 -0.001430 0.012606 0.000000 0.000000 0.000000
# 4 0.000000 0.000000 0.000000 0.036349 0.000000 0.000000
# 5 0.000000 0.000000 0.000000 0.000000 0.045186 0.000000
# 6 0.000000 0.000000 0.000000 0.000000 0.000000 0.024102
#
#
# Mechanical properties :
#
#
# Convention : Reuss Voigt Hill
#
# Bulk Modulus (GPa) = 44.04181 45.29699 44.66940
# Shear Modulus (GPa) = 32.48008 35.09328 33.78668
#
# Velocity S-wave (km/s) = 3.70208 3.84812 3.77581
# Velocity P-wave (km/s) = 6.07107 6.23360 6.15287
#
# Compressibility (1/GPa) = 0.02270570
#
# Stress axis : x y z
#
# Youngs Moduli (GPa) = 109.36920 100.29032 79.32596
#
# Poissons Ratio (x) = 0.17406 0.10641
# Poissons Ratio (y) = 0.18982 0.11347
# Poissons Ratio (z) = 0.14671 0.14346
#
# Static dielectric constant tensor:
#      x y z
#    x 4.736150 0.000000 0.000000 
#    y 0.000000 4.467240 0.000000 
#    z 0.000000 0.000000 4.413110 
# 
# 
# High freq. dielectric constant tensor:
#      x y z
#    x 1.958560 0.000000 0.000000 
#    y 0.000000 1.932000 0.000000 
#    z 0.000000 0.000000 1.932030 
# 
# From -- ./inp_files/21152.got.cif
#   From: 2010.03.12/outbox.cif.g09.slc.cpg/sg50_11_cif.got.tgz:21152.got - 2010.04.16 13:23:21.
