data_PCOD8205368
_publ_section_title
;
Structure prediction by ZEFSAII (Michael W. Deem and Ramdas Pophale) SiO2 
 PCOD8205368
Probable space group: P B A N
;
_chemical_formula_sum "Si O2"
_cell_formula_units_Z 64
_cell_length_a 9.605807
_cell_length_b 28.363624
_cell_length_c 12.146120
_cell_angle_alpha 90.000000
_cell_angle_beta 90.000000
_cell_angle_gamma 90.000000
_cell_volume 3309.277173
_symmetry_space_group_name_H-M "P B A N"
_symmetry_group_IT_number 50
_space_group.IT_coordinate_system_code '2'
_symmetry_cell_setting 'orthorhombic'
loop_
_space_group_symop_operation_xyz
x,y,z
1/2-x,1/2-y,z
x,1/2-y,-z
1/2-x,y,-z
-x,-y,-z
1/2+x,1/2+y,-z
-x,1/2+y,z
1/2+x,-y,z
loop_
_atom_site_type_symbol
_atom_site_label
_atom_site_fract_x
_atom_site_fract_y
_atom_site_fract_z
Si Si1 0.922684 0.320324 0.291723
Si Si2 0.381275 0.479885 0.573317
Si Si3 0.811356 0.056918 0.251596
Si Si4 0.602197 0.162833 0.714023
Si Si5 0.911937 0.805793 0.509136
Si Si6 0.625020 0.986082 0.925960
Si Si7 0.998901 0.579536 0.748581
Si Si8 0.587768 0.258597 0.122384
O O1 0.757099 0.318803 0.318259
O O2 0.973570 0.365972 0.224380
O O3 0.971528 0.277105 0.215085
O O4 0.001456 0.324586 0.406525
O O5 0.250000 0.468130 0.500000
O O6 0.500000 0.500000 0.500000
O O7 0.368228 0.521555 0.659390
O O8 0.417859 0.430783 0.634389
O O9 0.889873 0.107001 0.264294
O O10 0.647806 0.056279 0.268441
O O11 0.838645 0.035372 0.132343
O O12 0.488358 0.174955 0.619745
O O13 0.558043 0.189040 0.828655
O O14 0.919671 0.750000 0.500000
O O15 0.750000 0.822479 0.500000
O O16 0.588081 0.942805 0.847202
O O17 0.750000 0.967173 0.000000
O O18 0.500000 0.000000 0.000000
O O19 0.750000 0.250000 0.108672
O O20 0.519801 0.250000 0.000000
#
# Coordination Sequence:
#
# PCOD8205368 Si02
#       8
#     8   8   8   8   8   8   8   8
#     4  10  21  38  63  90 122 154 209 255 299 369
#     4  11  22  37  57  81 123 163 195 243 305 363
#     4  10  22  38  59  91 118 155 207 253 299 369
#     4  10  21  38  63  92 118 158 208 252 308 363
#     4  11  23  39  60  85 127 165 198 250 306 367
#     4  11  22  41  64  84 120 164 204 257 308 363
#     4  10  22  38  59  91 118 156 207 252 303 365
#     4   9  18  35  60  91 120 148 192 259 312 355
#
# _framework density 19.339569999999998
#
# number of rings (size 3 to 8) (size 9 to 14) (size 15 to 20)
#    0.000    1.750    3.750    0.375    1.750    2.000 
#    4.500    0.000    0.000    0.750    0.000    0.000 
#    0.000    0.000    0.000    0.000    0.000    0.000 
#
# Total GULP energy -793151.330880 kJ/mol
# GULP energy per Si atom -12392.989545 kJ/mol
# Density = 1.929555 g / cm^3
# Si number density = 19.339570 Si / 1000 Ang^3
#
#
#
# Elastic Constant Matrix: (Units=GPa)
#
#
# Indices 1 2 3 4 5 6 
#
# 1 102.3482 27.1225 44.8846 0.0000 0.0000 0.0000
# 2 27.1225 85.2831 25.3688 0.0000 0.0000 0.0000
# 3 44.8846 25.3688 114.5520 0.0000 0.0000 0.0000
# 4 0.0000 0.0000 0.0000 20.8316 0.0000 0.0000
# 5 0.0000 0.0000 0.0000 0.0000 30.2661 0.0000
# 6 0.0000 0.0000 0.0000 0.0000 0.0000 26.0306
#
#
#
# Elastic Compliance Matrix: (Units=1/GPa)
#
#
# Indices 1 2 3 4 5 6 
#
# 1 0.012337 -0.002661 -0.004245 0.000000 0.000000 0.000000
# 2 -0.002661 0.013126 -0.001864 0.000000 0.000000 0.000000
# 3 -0.004245 -0.001864 0.010806 0.000000 0.000000 0.000000
# 4 0.000000 0.000000 0.000000 0.048004 0.000000 0.000000
# 5 0.000000 0.000000 0.000000 0.000000 0.033040 0.000000
# 6 0.000000 0.000000 0.000000 0.000000 0.000000 0.038416
#
#
# Mechanical properties :
#
#
# Convention : Reuss Voigt Hill
#
# Bulk Modulus (GPa) = 53.39218 55.21501 54.30360
# Shear Modulus (GPa) = 27.85305 29.07948 28.46627
#
# Velocity S-wave (km/s) = 3.79913 3.88187 3.84072
# Velocity P-wave (km/s) = 6.84925 6.97883 6.91434
#
# Compressibility (1/GPa) = 0.01872934
#
# Stress axis : x y z
#
# Youngs Moduli (GPa) = 81.05525 76.18186 92.54315
#
# Poissons Ratio (x) = 0.20271 0.39283
# Poissons Ratio (y) = 0.21568 0.17254
# Poissons Ratio (z) = 0.34406 0.14203
#
# Static dielectric constant tensor:
#      x y z
#    x 3.557840 0.000000 0.000000 
#    y 0.000000 3.383990 0.000000 
#    z 0.000000 0.000000 3.826550 
# 
# 
# High freq. dielectric constant tensor:
#      x y z
#    x 1.743370 0.000000 0.000000 
#    y 0.000000 1.755420 0.000000 
#    z 0.000000 0.000000 1.760510 
# 
# From -- ./inp_files/19562.got.cif
#   From: 2010.03.12/outbox.cif.g09.slc.cpg/sg50_10_cif.got.tgz:19562.got - 2010.04.16 13:23:21.
