data_PCOD8205136
_publ_section_title
;
Structure prediction by ZEFSAII (Michael W. Deem and Ramdas Pophale) SiO2 
 PCOD8205136
Probable space group: P B A N
;
_chemical_formula_sum "Si O2"
_cell_formula_units_Z 58
_cell_length_a 8.653934
_cell_length_b 12.105736
_cell_length_c 26.893107
_cell_angle_alpha 90.000000
_cell_angle_beta 90.000000
_cell_angle_gamma 90.000000
_cell_volume 2817.382140
_symmetry_space_group_name_H-M "P B A N"
_symmetry_group_IT_number 50
_space_group.IT_coordinate_system_code '2'
_symmetry_cell_setting 'orthorhombic'
loop_
_space_group_symop_operation_xyz
x,y,z
1/2-x,1/2-y,z
x,1/2-y,-z
1/2-x,y,-z
-x,-y,-z
1/2+x,1/2+y,-z
-x,1/2+y,z
1/2+x,-y,z
loop_
_atom_site_type_symbol
_atom_site_label
_atom_site_fract_x
_atom_site_fract_y
_atom_site_fract_z
Si Si1 0.171985 0.633964 0.086003
Si Si2 0.896645 0.588728 0.579431
Si Si3 0.204031 0.628405 0.202378
Si Si4 0.750000 0.750000 0.500000
Si Si5 0.950867 0.500409 0.257924
Si Si6 0.877566 0.556183 0.035044
Si Si7 0.796222 0.869157 0.312227
Si Si8 0.234164 0.628390 0.558429
O O1 0.250000 0.750000 0.069666
O O2 0.165023 0.621366 0.144731
O O3 0.278900 0.535406 0.065164
O O4 0.989167 0.632962 0.069225
O O5 0.852271 0.668147 0.533420
O O6 0.826596 0.639014 0.629229
O O7 0.860250 0.459173 0.575638
O O8 0.078305 0.579679 0.579650
O O9 0.250000 0.750000 0.219417
O O10 0.347123 0.547862 0.213522
O O11 0.054893 0.596011 0.234316
O O12 0.844892 0.547999 0.301978
O O13 0.051885 0.404551 0.282477
O O14 0.750000 0.620480 0.000000
O O15 0.000000 0.500000 0.000000
O O16 0.750000 0.750000 0.291596
O O17 0.250000 0.750000 0.582759
O O18 0.250000 0.638672 0.500000
#
# Coordination Sequence:
#
# PCOD8205136 Si02
#       8
#     8   8   8   2   8   8   8   8
#     4  10  20  36  59  86 118 160 210 257 312 362
#     4  12  25  42  65  91 123 162 202 249 301 357
#     4  10  20  37  62  89 118 156 199 255 307 364
#     4  12  24  40  68  88 124 164 206 250 300 356
#     4  10  22  39  61  88 121 155 196 246 311 369
#     4   9  19  35  54  82 121 162 205 253 298 355
#     4  11  23  41  61  89 121 157 196 243 299 371
#     4  11  25  42  63  89 120 154 199 242 293 350
#
# _framework density 20.586486000000001
#
# number of rings (size 3 to 8) (size 9 to 14) (size 15 to 20)
#    0.000    1.517    1.379    3.724    1.931    3.586 
#    0.000    8.276    0.000   11.586    0.000    0.000 
#    0.000    0.000    0.000    0.000    0.000    0.000 
#
# Total GULP energy -718879.460594 kJ/mol
# GULP energy per Si atom -12394.473459 kJ/mol
# Density = 2.053963 g / cm^3
# Si number density = 20.586486 Si / 1000 Ang^3
#
#
#
# Elastic Constant Matrix: (Units=GPa)
#
#
# Indices 1 2 3 4 5 6 
#
# 1 157.9987 67.0498 54.6873 0.0000 0.0000 0.0000
# 2 67.0498 125.7428 32.8282 0.0000 0.0000 0.0000
# 3 54.6873 32.8282 100.6153 0.0000 0.0000 0.0000
# 4 0.0000 0.0000 0.0000 27.4380 0.0000 0.0000
# 5 0.0000 0.0000 0.0000 0.0000 -6.5097 0.0000
# 6 0.0000 0.0000 0.0000 0.0000 0.0000 83.2377
#
#
#
# Elastic Compliance Matrix: (Units=1/GPa)
#
#
# Indices 1 2 3 4 5 6 
#
# 1 0.009326 -0.003989 -0.003767 0.000000 0.000000 0.000000
# 2 -0.003989 0.010400 -0.001225 0.000000 0.000000 0.000000
# 3 -0.003767 -0.001225 0.012386 0.000000 0.000000 0.000000
# 4 0.000000 0.000000 0.000000 0.036446 0.000000 0.000000
# 5 0.000000 0.000000 0.000000 0.000000 -0.153617 0.000000
# 6 0.000000 0.000000 0.000000 0.000000 0.000000 0.012014
#
#
# Mechanical properties :
#
#
# Convention : Reuss Voigt Hill
#
# Bulk Modulus (GPa) = 70.67716 77.05416 73.86566
# Shear Modulus (GPa) = -99.27423 36.15263 -31.56080
#
# Velocity S-wave (km/s) = -6.95181 4.19517 -3.91971
# Velocity P-wave (km/s) = 5.48002 7.80876 3.93358
#
# Compressibility (1/GPa) = 0.01414884
#
# Stress axis : x y z
#
# Youngs Moduli (GPa) = 107.22564 96.15589 80.73532
#
# Poissons Ratio (x) = 0.38360 0.30416
# Poissons Ratio (y) = 0.42777 0.09889
# Poissons Ratio (z) = 0.40396 0.11777
#
# Static dielectric constant tensor:
#      x y z
#    x 4.300800 0.000000 0.000000 
#    y 0.000000 3.963110 0.000000 
#    z 0.000000 0.000000 3.746480 
# 
# 
# High freq. dielectric constant tensor:
#      x y z
#    x 1.822120 0.000000 0.000000 
#    y 0.000000 1.805070 0.000000 
#    z 0.000000 0.000000 1.803940 
# 
# From -- ./inp_files/32143.got.cif
#   From: 2010.03.12/outbox.cif.g09.slc.cpg/sg50_17_cif.got.tgz:32143.got - 2010.04.16 13:23:21.
