data_PCOD8205490
_publ_section_title
;
Structure prediction by ZEFSAII (Michael W. Deem and Ramdas Pophale) SiO2 
 PCOD8205490
Probable space group: P B A N
;
_chemical_formula_sum "Si O2"
_cell_formula_units_Z 58
_cell_length_a 26.939016
_cell_length_b 11.940311
_cell_length_c 9.114148
_cell_angle_alpha 90.000000
_cell_angle_beta 90.000000
_cell_angle_gamma 90.000000
_cell_volume 2931.658933
_symmetry_space_group_name_H-M "P B A N"
_symmetry_group_IT_number 50
_space_group.IT_coordinate_system_code '2'
_symmetry_cell_setting 'orthorhombic'
loop_
_space_group_symop_operation_xyz
x,y,z
1/2-x,1/2-y,z
x,1/2-y,-z
1/2-x,y,-z
-x,-y,-z
1/2+x,1/2+y,-z
-x,1/2+y,z
1/2+x,-y,z
loop_
_atom_site_type_symbol
_atom_site_label
_atom_site_fract_x
_atom_site_fract_y
_atom_site_fract_z
Si Si1 0.724659 0.052649 0.647262
Si Si2 0.250000 0.250000 0.000000
Si Si3 0.472238 0.356377 0.096956
Si Si4 0.173357 0.635941 0.081869
Si Si5 0.303097 0.051874 0.856916
Si Si6 0.112544 0.343410 0.692841
Si Si7 0.072812 0.526739 0.127028
Si Si8 0.869181 0.600204 0.624531
O O1 0.750000 0.105939 0.500000
O O2 0.697801 0.143290 0.754720
O O3 0.769788 0.995372 0.728816
O O4 0.683793 0.959589 0.608095
O O5 0.285140 0.174025 0.901492
O O6 0.441067 0.318820 0.237961
O O7 0.521927 0.410127 0.162920
O O8 0.487199 0.250000 0.000000
O O9 0.438152 0.441452 0.004651
O O10 0.114159 0.618867 0.083453
O O11 0.187006 0.750000 0.000000
O O12 0.197240 0.529502 0.998367
O O13 0.358116 0.067644 0.793034
O O14 0.104252 0.396636 0.533003
O O15 0.141672 0.225364 0.682868
O O16 0.092809 0.462293 0.268718
#
# Coordination Sequence:
#
# PCOD8205490 Si02
#       8
#     8   2   8   8   8   8   8   8
#     4  11  22  42  63  94 128 168 212 260 318 376
#     4  12  24  36  60  92 128 164 218 258 324 368
#     4  11  21  37  64  92 120 155 213 268 321 382
#     4  11  24  44  65  90 128 168 216 262 314 377
#     4  12  23  38  61  92 127 168 211 266 310 376
#     4  11  22  36  60  91 130 165 203 259 324 389
#     4  10  22  39  63  90 118 164 208 267 320 374
#     4  10  22  39  60  91 132 167 201 258 326 385
#
# _framework density 19.784020000000002
#
# number of rings (size 3 to 8) (size 9 to 14) (size 15 to 20)
#    0.000    1.103    5.517    1.241    2.897    1.655 
#    0.000    1.379    0.000    0.000    0.000    0.000 
#    0.000    0.000    0.000    0.000    0.000    0.000 
#
# Total GULP energy -719155.686340 kJ/mol
# GULP energy per Si atom -12399.235971 kJ/mol
# Density = 1.973899 g / cm^3
# Si number density = 19.784020 Si / 1000 Ang^3
#
#
#
# Elastic Constant Matrix: (Units=GPa)
#
#
# Indices 1 2 3 4 5 6 
#
# 1 106.8889 27.1323 51.4405 0.0000 0.0000 0.0000
# 2 27.1323 75.6541 31.3889 0.0000 0.0000 0.0000
# 3 51.4405 31.3889 111.9393 0.0000 0.0000 0.0000
# 4 0.0000 0.0000 0.0000 28.2995 0.0000 0.0000
# 5 0.0000 0.0000 0.0000 0.0000 33.0814 0.0000
# 6 0.0000 0.0000 0.0000 0.0000 0.0000 36.8017
#
#
#
# Elastic Compliance Matrix: (Units=1/GPa)
#
#
# Indices 1 2 3 4 5 6 
#
# 1 0.012371 -0.002352 -0.005026 0.000000 0.000000 0.000000
# 2 -0.002352 0.015405 -0.003239 0.000000 0.000000 0.000000
# 3 -0.005026 -0.003239 0.012151 0.000000 0.000000 0.000000
# 4 0.000000 0.000000 0.000000 0.035336 0.000000 0.000000
# 5 0.000000 0.000000 0.000000 0.000000 0.030228 0.000000
# 6 0.000000 0.000000 0.000000 0.000000 0.000000 0.027173
#
#
# Mechanical properties :
#
#
# Convention : Reuss Voigt Hill
#
# Bulk Modulus (GPa) = 53.49057 57.15619 55.32338
# Shear Modulus (GPa) = 31.22481 31.93790 31.58135
#
# Velocity S-wave (km/s) = 3.97707 4.02223 3.99971
# Velocity P-wave (km/s) = 6.94157 7.10802 7.02529
#
# Compressibility (1/GPa) = 0.01869488
#
# Stress axis : x y z
#
# Youngs Moduli (GPa) = 80.83437 64.91248 82.29686
#
# Poissons Ratio (x) = 0.15265 0.41359
# Poissons Ratio (y) = 0.19009 0.26657
# Poissons Ratio (z) = 0.40624 0.21026
#
# Static dielectric constant tensor:
#      x y z
#    x 3.620670 0.000000 0.000000 
#    y 0.000000 3.412490 0.000000 
#    z 0.000000 0.000000 3.702840 
# 
# 
# High freq. dielectric constant tensor:
#      x y z
#    x 1.777670 0.000000 0.000000 
#    y 0.000000 1.758380 0.000000 
#    z 0.000000 0.000000 1.777250 
# 
# From -- ./inp_files/16543.got.cif
#   From: 2010.03.12/outbox.cif.g09.slc.cpg/sg50_9_cif.got.tgz:16543.got - 2010.04.16 13:23:21.
