data_PCOD8205246
_publ_section_title
;
Structure prediction by ZEFSAII (Michael W. Deem and Ramdas Pophale) SiO2 
 PCOD8205246
Probable space group: P B A N
;
_chemical_formula_sum "Si O2"
_cell_formula_units_Z 34
_cell_length_a 8.740168
_cell_length_b 11.701085
_cell_length_c 15.353685
_cell_angle_alpha 90.000000
_cell_angle_beta 90.000000
_cell_angle_gamma 90.000000
_cell_volume 1570.212900
_symmetry_space_group_name_H-M "P B A N"
_symmetry_group_IT_number 50
_space_group.IT_coordinate_system_code '2'
_symmetry_cell_setting 'orthorhombic'
loop_
_space_group_symop_operation_xyz
x,y,z
1/2-x,1/2-y,z
x,1/2-y,-z
1/2-x,y,-z
-x,-y,-z
1/2+x,1/2+y,-z
-x,1/2+y,z
1/2+x,-y,z
loop_
_atom_site_type_symbol
_atom_site_label
_atom_site_fract_x
_atom_site_fract_y
_atom_site_fract_z
Si Si1 0.250000 0.250000 0.500000
Si Si2 0.270129 0.623761 0.396960
Si Si3 0.250000 0.954115 0.000000
Si Si4 0.953326 0.848304 0.931243
Si Si5 0.605789 0.905551 0.643537
Si Si6 0.750000 0.750000 0.785893
O O1 0.354352 0.167715 0.442231
O O2 0.250000 0.750000 0.359553
O O3 0.250000 0.621030 0.500000
O O4 0.426526 0.581556 0.356432
O O5 0.148046 0.537939 0.357887
O O6 0.363462 0.876155 0.060867
O O7 0.140569 0.033995 0.057667
O O8 0.896115 0.797919 0.839436
O O9 0.909194 0.750000 0.000000
O O10 0.679224 0.850638 0.728563
#
# Coordination Sequence:
#
# PCOD8205246 Si02
#       6
#     2   8   4   8   8   4
#     4  10  20  40  66  92 134 184 240 266 352 406
#     4  11  24  43  70  96 132 181 244 287 339 408
#     4  10  22  38  80  98 130 182 234 272 342 404
#     4  11  21  46  67 103 135 181 227 281 334 423
#     4  11  25  41  67  98 138 186 224 292 344 412
#     4  11  25  43  69  98 154 176 225 285 355 405
#
# _framework density 21.653115
#
# number of rings (size 3 to 8) (size 9 to 14) (size 15 to 20)
#    0.000    1.176    3.529    2.471    6.588    1.882 
#    0.000    0.000    0.000    0.000    0.000    0.000 
#    0.000    0.000    0.000    0.000    0.000    0.000 
#
# Total GULP energy -421377.479304 kJ/mol
# GULP energy per Si atom -12393.455274 kJ/mol
# Density = 2.160383 g / cm^3
# Si number density = 21.653115 Si / 1000 Ang^3
#
#
#
# Elastic Constant Matrix: (Units=GPa)
#
#
# Indices 1 2 3 4 5 6 
#
# 1 161.5039 74.4050 43.9287 0.0000 0.0000 0.0000
# 2 74.4050 172.1474 53.7335 0.0000 0.0000 0.0000
# 3 43.9287 53.7335 103.6032 0.0000 0.0000 0.0000
# 4 0.0000 0.0000 0.0000 3.3726 0.0000 0.0000
# 5 0.0000 0.0000 0.0000 0.0000 28.2430 0.0000
# 6 0.0000 0.0000 0.0000 0.0000 0.0000 47.8819
#
#
#
# Elastic Compliance Matrix: (Units=1/GPa)
#
#
# Indices 1 2 3 4 5 6 
#
# 1 0.008038 -0.002876 -0.001917 0.000000 0.000000 0.000000
# 2 -0.002876 0.007960 -0.002909 0.000000 0.000000 0.000000
# 3 -0.001917 -0.002909 0.011974 0.000000 0.000000 0.000000
# 4 0.000000 0.000000 0.000000 0.296505 0.000000 0.000000
# 5 0.000000 0.000000 0.000000 0.000000 0.035407 0.000000
# 6 0.000000 0.000000 0.000000 0.000000 0.000000 0.020885
#
#
# Mechanical properties :
#
#
# Convention : Reuss Voigt Hill
#
# Bulk Modulus (GPa) = 79.56357 86.82099 83.19228
# Shear Modulus (GPa) = 12.48872 33.57866 23.03369
#
# Velocity S-wave (km/s) = 2.40420 3.94223 3.26507
# Velocity P-wave (km/s) = 6.67318 7.80416 7.26072
#
# Compressibility (1/GPa) = 0.01256857
#
# Stress axis : x y z
#
# Youngs Moduli (GPa) = 124.40805 125.62792 83.51693
#
# Poissons Ratio (x) = 0.36130 0.16007
# Poissons Ratio (y) = 0.35779 0.24295
# Poissons Ratio (z) = 0.23844 0.36545
#
# Static dielectric constant tensor:
#      x y z
#    x 4.136890 0.000000 0.000000 
#    y 0.000000 4.331550 0.000000 
#    z 0.000000 0.000000 3.656590 
# 
# 
# High freq. dielectric constant tensor:
#      x y z
#    x 1.863110 0.000000 0.000000 
#    y 0.000000 1.874240 0.000000 
#    z 0.000000 0.000000 1.820420 
# 
# From -- ./inp_files/28477.got.cif
#   From: 2010.03.12/outbox.cif.g09.slc.cpg/sg50_15_cif.got.tgz:28477.got - 2010.04.16 13:23:21.
