data_PCOD8205343
_publ_section_title
;
Structure prediction by ZEFSAII (Michael W. Deem and Ramdas Pophale) SiO2 
 PCOD8205343
Probable space group: P B A N
;
_chemical_formula_sum "Si O2"
_cell_formula_units_Z 26
_cell_length_a 29.246554
_cell_length_b 4.931474
_cell_length_c 8.254648
_cell_angle_alpha 90.000000
_cell_angle_beta 90.000000
_cell_angle_gamma 90.000000
_cell_volume 1190.556495
_symmetry_space_group_name_H-M "P B A N"
_symmetry_group_IT_number 50
_space_group.IT_coordinate_system_code '2'
_symmetry_cell_setting 'orthorhombic'
loop_
_space_group_symop_operation_xyz
x,y,z
1/2-x,1/2-y,z
x,1/2-y,-z
1/2-x,y,-z
-x,-y,-z
1/2+x,1/2+y,-z
-x,1/2+y,z
1/2+x,-y,z
loop_
_atom_site_type_symbol
_atom_site_label
_atom_site_fract_x
_atom_site_fract_y
_atom_site_fract_z
Si Si1 0.838091 0.872240 0.660513
Si Si2 0.875633 0.369224 0.826117
Si Si3 0.470773 0.756322 0.312393
Si Si4 0.750000 0.750000 0.500000
O O1 0.862858 0.750000 0.500000
O O2 0.852769 0.667134 0.806180
O O3 0.783608 0.909757 0.624249
O O4 0.854555 0.173958 0.690650
O O5 0.930074 0.363126 0.801473
O O6 0.862322 0.250000 0.000000
O O7 0.455814 0.750000 0.500000
O O8 0.486219 0.450842 0.272548
#
# Coordination Sequence:
#
# PCOD8205343 Si02
#       4
#     8   8   8   2
#     4  10  22  42  67  88 121 160 218 250 301 376
#     4  12  24  39  62  97 131 164 198 256 324 363
#     4  10  21  37  59  87 121 164 215 251 287 355
#     4   8  24  42  74  90 112 162 222 250 308 362
#
# _framework density 21.838526999999999
#
# number of rings (size 3 to 8) (size 9 to 14) (size 15 to 20)
#    0.923    0.615    0.000    5.538    0.000    6.154 
#    0.000    4.615    0.000    0.000    0.000    0.000 
#    0.000    0.000    0.000    0.000    0.000    0.000 
#
# Total GULP energy -322159.134130 kJ/mol
# GULP energy per Si atom -12390.735928 kJ/mol
# Density = 2.178882 g / cm^3
# Si number density = 21.838527 Si / 1000 Ang^3
#
#
#
# Elastic Constant Matrix: (Units=GPa)
#
#
# Indices 1 2 3 4 5 6 
#
# 1 105.9868 14.4980 13.5569 0.0000 0.0000 0.0000
# 2 14.4980 77.5117 -10.7268 0.0000 0.0000 0.0000
# 3 13.5569 -10.7268 49.5529 0.0000 0.0000 0.0000
# 4 0.0000 0.0000 0.0000 28.3893 0.0000 0.0000
# 5 0.0000 0.0000 0.0000 0.0000 11.2986 0.0000
# 6 0.0000 0.0000 0.0000 0.0000 0.0000 0.2674
#
#
#
# Elastic Compliance Matrix: (Units=1/GPa)
#
#
# Indices 1 2 3 4 5 6 
#
# 1 0.010180 -0.002360 -0.003296 0.000000 0.000000 0.000000
# 2 -0.002360 0.013847 0.003643 0.000000 0.000000 0.000000
# 3 -0.003296 0.003643 0.021871 0.000000 0.000000 0.000000
# 4 0.000000 0.000000 0.000000 0.035224 0.000000 0.000000
# 5 0.000000 0.000000 0.000000 0.000000 0.088507 0.000000
# 6 0.000000 0.000000 0.000000 0.000000 0.000000 3.739402
#
#
# Mechanical properties :
#
#
# Convention : Reuss Voigt Hill
#
# Bulk Modulus (GPa) = 23.88256 29.74530 26.81393
# Shear Modulus (GPa) = 1.27323 22.37262 11.82293
#
# Velocity S-wave (km/s) = 0.76439 3.20419 2.32928
# Velocity P-wave (km/s) = 3.42619 5.22869 4.42029
#
# Compressibility (1/GPa) = 0.04187155
#
# Stress axis : x y z
#
# Youngs Moduli (GPa) = 98.23609 72.21832 45.72309
#
# Poissons Ratio (x) = 0.17044 0.15070
# Poissons Ratio (y) = 0.23185 -0.16658
# Poissons Ratio (z) = 0.32377 -0.26310
#
# Static dielectric constant tensor:
#      x y z
#    x 3.739780 0.000000 0.000000 
#    y 0.000000 3.856740 0.000000 
#    z 0.000000 0.000000 3.769950 
# 
# 
# High freq. dielectric constant tensor:
#      x y z
#    x 1.847060 0.000000 0.000000 
#    y 0.000000 1.861590 0.000000 
#    z 0.000000 0.000000 1.842930 
# 
# From -- ./inp_files/7856.got.cif
#   From: 2010.03.12/outbox.cif.g09.slc.cpg/sg50_4_cif.got.tgz:7856.got - 2010.04.16 13:23:21.
