data_PCOD8205266
_publ_section_title
;
Structure prediction by ZEFSAII (Michael W. Deem and Ramdas Pophale) SiO2 
 PCOD8205266
Probable space group: P B A N
;
_chemical_formula_sum "Si O2"
_cell_formula_units_Z 52
_cell_length_a 8.640164
_cell_length_b 21.396729
_cell_length_c 12.900949
_cell_angle_alpha 90.000000
_cell_angle_beta 90.000000
_cell_angle_gamma 90.000000
_cell_volume 2385.014537
_symmetry_space_group_name_H-M "P B A N"
_symmetry_group_IT_number 50
_space_group.IT_coordinate_system_code '2'
_symmetry_cell_setting 'orthorhombic'
loop_
_space_group_symop_operation_xyz
x,y,z
1/2-x,1/2-y,z
x,1/2-y,-z
1/2-x,y,-z
-x,-y,-z
1/2+x,1/2+y,-z
-x,1/2+y,z
1/2+x,-y,z
loop_
_atom_site_type_symbol
_atom_site_label
_atom_site_fract_x
_atom_site_fract_y
_atom_site_fract_z
Si Si1 0.924457 0.565067 0.026671
Si Si2 0.030513 0.682284 0.344194
Si Si3 0.250000 0.750000 0.807450
Si Si4 0.511257 0.664115 0.143393
Si Si5 0.525869 0.055906 0.746608
Si Si6 0.750000 0.750000 0.246990
Si Si7 0.134668 0.929697 0.298639
Si Si8 0.750000 0.139822 0.500000
O O1 0.946065 0.577416 0.147202
O O2 0.750000 0.555445 0.000000
O O3 0.986600 0.623695 0.960973
O O4 0.000000 0.500000 0.000000
O O5 0.166826 0.697664 0.262732
O O6 0.979447 0.610396 0.332671
O O7 0.112186 0.685237 0.457380
O O8 0.882654 0.726047 0.326023
O O9 0.379645 0.783680 0.877234
O O10 0.675884 0.697239 0.171276
O O11 0.467060 0.622185 0.241416
O O12 0.710644 0.052353 0.764933
O O13 0.468851 0.991703 0.696255
O O14 0.179248 0.905144 0.412088
#
# Coordination Sequence:
#
# PCOD8205266 Si02
#       8
#     8   8   4   8   8   4   8   4
#     4  12  25  40  70 102 138 177 232 289 346 416
#     4  10  22  42  69  93 139 179 233 278 351 401
#     4  10  20  45  67  94 136 190 214 282 332 424
#     4  11  23  45  69 101 142 181 233 278 355 410
#     4  11  23  42  67 101 136 180 228 288 352 405
#     4  10  24  44  70 102 146 188 224 299 339 418
#     4  11  24  42  72  99 140 179 230 298 343 416
#     4  10  22  45  70 100 134 189 234 282 360 410
#
# _framework density 21.802802
#
# number of rings (size 3 to 8) (size 9 to 14) (size 15 to 20)
#    0.000    1.231    4.615    1.846    2.154    2.769 
#    0.000    9.615    0.000    0.000    0.000    0.000 
#    0.000    0.000    0.000    0.000    0.000    0.000 
#
# Total GULP energy -644678.422657 kJ/mol
# GULP energy per Si atom -12397.661974 kJ/mol
# Density = 2.175318 g / cm^3
# Si number density = 21.802802 Si / 1000 Ang^3
#
#
#
# Elastic Constant Matrix: (Units=GPa)
#
#
# Indices 1 2 3 4 5 6 
#
# 1 122.0215 38.9257 30.9915 0.0000 0.0000 0.0000
# 2 38.9257 113.2209 25.6385 0.0000 0.0000 0.0000
# 3 30.9915 25.6385 84.9184 0.0000 0.0000 0.0000
# 4 0.0000 0.0000 0.0000 -0.2841 0.0000 0.0000
# 5 0.0000 0.0000 0.0000 0.0000 33.8162 0.0000
# 6 0.0000 0.0000 0.0000 0.0000 0.0000 47.1840
#
#
#
# Elastic Compliance Matrix: (Units=1/GPa)
#
#
# Indices 1 2 3 4 5 6 
#
# 1 0.009764 -0.002737 -0.002737 0.000000 0.000000 0.000000
# 2 -0.002737 0.010248 -0.002095 0.000000 0.000000 0.000000
# 3 -0.002737 -0.002095 0.013407 0.000000 0.000000 0.000000
# 4 0.000000 0.000000 0.000000 -3.519902 0.000000 0.000000
# 5 0.000000 0.000000 0.000000 0.000000 0.029572 0.000000
# 6 0.000000 0.000000 0.000000 0.000000 0.000000 0.021194
#
#
# Mechanical properties :
#
#
# Convention : Reuss Voigt Hill
#
# Bulk Modulus (GPa) = 54.70263 56.80805 55.75534
# Shear Modulus (GPa) = -1.46435 31.11689 14.82627
#
# Velocity S-wave (km/s) = -0.82042 3.78192 2.61054
# Velocity P-wave (km/s) = 4.92410 6.72180 5.89191
#
# Compressibility (1/GPa) = 0.01828066
#
# Stress axis : x y z
#
# Youngs Moduli (GPa) = 102.42212 97.58289 74.58558
#
# Poissons Ratio (x) = 0.26708 0.20413
# Poissons Ratio (y) = 0.28033 0.15627
# Poissons Ratio (z) = 0.28032 0.20445
#
# Static dielectric constant tensor:
#      x y z
#    x 4.125990 0.000000 0.000000 
#    y 0.000000 4.096000 0.000000 
#    z 0.000000 0.000000 3.926030 
# 
# 
# High freq. dielectric constant tensor:
#      x y z
#    x 1.868370 0.000000 0.000000 
#    y 0.000000 1.876700 0.000000 
#    z 0.000000 0.000000 1.835720 
# 
# From -- ./inp_files/25202.got.cif
#   From: 2010.03.12/outbox.cif.g09.slc.cpg/sg50_13_cif.got.tgz:25202.got - 2010.04.16 13:23:21.
