data_PCOD8205848
_publ_section_title
;
Structure prediction by ZEFSAII (Michael W. Deem and Ramdas Pophale) SiO2 
 PCOD8205848
Probable space group: P B A N
;
_chemical_formula_sum "Si O2"
_cell_formula_units_Z 58
_cell_length_a 9.788744
_cell_length_b 9.490275
_cell_length_c 28.914229
_cell_angle_alpha 90.000000
_cell_angle_beta 90.000000
_cell_angle_gamma 90.000000
_cell_volume 2686.070358
_symmetry_space_group_name_H-M "P B A N"
_symmetry_group_IT_number 50
_space_group.IT_coordinate_system_code '2'
_symmetry_cell_setting 'orthorhombic'
loop_
_space_group_symop_operation_xyz
x,y,z
1/2-x,1/2-y,z
x,1/2-y,-z
1/2-x,y,-z
-x,-y,-z
1/2+x,1/2+y,-z
-x,1/2+y,z
1/2+x,-y,z
loop_
_atom_site_type_symbol
_atom_site_label
_atom_site_fract_x
_atom_site_fract_y
_atom_site_fract_z
Si Si1 0.250000 0.250000 0.500000
Si Si2 0.912858 0.244188 0.292482
Si Si3 0.278593 0.090118 0.820167
Si Si4 0.526793 0.991951 0.764859
Si Si5 0.548902 0.941884 0.451545
Si Si6 0.598020 0.216657 0.393350
Si Si7 0.307978 0.098737 0.926523
Si Si8 0.412343 0.605718 0.970698
O O1 0.321934 0.152461 0.537374
O O2 0.750000 0.250000 0.290110
O O3 0.965370 0.088555 0.280658
O O4 0.976393 0.280343 0.343412
O O5 0.979495 0.341219 0.253346
O O6 0.250000 0.250000 0.808259
O O7 0.427509 0.047533 0.804272
O O8 0.265881 0.061276 0.874539
O O9 0.171503 0.001653 0.790381
O O10 0.439932 0.838830 0.428984
O O11 0.500000 0.000000 0.500000
O O12 0.582321 0.065093 0.416284
O O13 0.750000 0.250000 0.379621
O O14 0.250000 0.250000 0.943051
O O15 0.474307 0.120098 0.929295
O O16 0.233740 0.968740 0.955499
O O17 0.383982 0.750000 0.000000
O O18 0.500000 0.500000 0.000000
#
# Coordination Sequence:
#
# PCOD8205848 Si02
#       8
#     2   8   8   8   8   8   8   8
#     4  12  24  40  68  96 128 164 234 278 336 404
#     4  11  24  42  66  97 138 171 225 278 332 418
#     4  11  24  42  72 101 139 177 226 287 343 398
#     4  12  22  44  68 101 131 183 222 275 347 409
#     4  12  23  44  67  94 129 174 222 276 338 404
#     4  11  25  43  65  96 132 177 217 278 338 399
#     4  11  25  47  68 106 141 178 236 289 338 409
#     4  12  25  46  73 101 139 189 229 282 346 410
#
# _framework density 21.592880999999998
#
# number of rings (size 3 to 8) (size 9 to 14) (size 15 to 20)
#    0.000    0.552    5.517    2.897    0.000    1.655 
#    0.000    1.379    0.000    0.000    0.000    0.000 
#    0.000    0.000    0.000    0.000    0.000    0.000 
#
# Total GULP energy -718671.107404 kJ/mol
# GULP energy per Si atom -12390.881162 kJ/mol
# Density = 2.154373 g / cm^3
# Si number density = 21.592881 Si / 1000 Ang^3
#
#
#
# Elastic Constant Matrix: (Units=GPa)
#
#
# Indices 1 2 3 4 5 6 
#
# 1 86.8530 30.7805 24.5173 0.0000 0.0000 0.0000
# 2 30.7805 132.2953 58.4101 0.0000 0.0000 0.0000
# 3 24.5173 58.4101 124.0976 0.0000 0.0000 0.0000
# 4 0.0000 0.0000 0.0000 15.0474 0.0000 0.0000
# 5 0.0000 0.0000 0.0000 0.0000 24.7908 0.0000
# 6 0.0000 0.0000 0.0000 0.0000 0.0000 41.5357
#
#
#
# Elastic Compliance Matrix: (Units=1/GPa)
#
#
# Indices 1 2 3 4 5 6 
#
# 1 0.012743 -0.002339 -0.001416 0.000000 0.000000 0.000000
# 2 -0.002339 0.009971 -0.004231 0.000000 0.000000 0.000000
# 3 -0.001416 -0.004231 0.010329 0.000000 0.000000 0.000000
# 4 0.000000 0.000000 0.000000 0.066457 0.000000 0.000000
# 5 0.000000 0.000000 0.000000 0.000000 0.040338 0.000000
# 6 0.000000 0.000000 0.000000 0.000000 0.000000 0.024076
#
#
# Mechanical properties :
#
#
# Convention : Reuss Voigt Hill
#
# Bulk Modulus (GPa) = 58.58365 63.40684 60.99525
# Shear Modulus (GPa) = 26.94302 31.57732 29.26017
#
# Velocity S-wave (km/s) = 3.53622 3.82828 3.68514
# Velocity P-wave (km/s) = 6.62291 6.99781 6.81294
#
# Compressibility (1/GPa) = 0.01706961
#
# Stress axis : x y z
#
# Youngs Moduli (GPa) = 78.47689 100.28877 96.81045
#
# Poissons Ratio (x) = 0.23462 0.13712
# Poissons Ratio (y) = 0.18359 0.40961
# Poissons Ratio (z) = 0.11115 0.42433
#
# Static dielectric constant tensor:
#      x y z
#    x -0.573240 0.000000 0.000000 
#    y 0.000000 3.011690 0.000000 
#    z 0.000000 0.000000 5.010310 
# 
# 
# High freq. dielectric constant tensor:
#      x y z
#    x 1.850680 0.000000 0.000000 
#    y 0.000000 1.860980 0.000000 
#    z 0.000000 0.000000 1.861190 
# 
# From -- ./inp_files/32472.got.cif
#   From: 2010.03.12/outbox.cif.g09.slc.cpg/sg50_17_cif.got.tgz:32472.got - 2010.04.16 13:23:21.
