data_PCOD8205038
_publ_section_title
;
Structure prediction by ZEFSAII (Michael W. Deem and Ramdas Pophale) SiO2 
 PCOD8205038
Probable space group: P B A N
;
_chemical_formula_sum "Si O2"
_cell_formula_units_Z 52
_cell_length_a 21.893418
_cell_length_b 8.687412
_cell_length_c 15.035453
_cell_angle_alpha 90.000000
_cell_angle_beta 90.000000
_cell_angle_gamma 90.000000
_cell_volume 2859.700193
_symmetry_space_group_name_H-M "P B A N"
_symmetry_group_IT_number 50
_space_group.IT_coordinate_system_code '2'
_symmetry_cell_setting 'orthorhombic'
loop_
_space_group_symop_operation_xyz
x,y,z
1/2-x,1/2-y,z
x,1/2-y,-z
1/2-x,y,-z
-x,-y,-z
1/2+x,1/2+y,-z
-x,1/2+y,z
1/2+x,-y,z
loop_
_atom_site_type_symbol
_atom_site_label
_atom_site_fract_x
_atom_site_fract_y
_atom_site_fract_z
Si Si1 0.806053 0.049089 0.281446
Si Si2 0.581050 0.015132 0.416859
Si Si3 0.333467 0.599491 0.263793
Si Si4 0.992832 0.750000 0.500000
Si Si5 0.684235 0.575800 0.468208
Si Si6 0.820787 0.592710 0.897387
Si Si7 0.323728 0.437427 0.090162
O O1 0.732942 0.025081 0.280318
O O2 0.828313 0.223393 0.291838
O O3 0.826949 0.941558 0.362924
O O4 0.840411 0.995584 0.191775
O O5 0.611985 0.020548 0.319511
O O6 0.532901 0.150853 0.431594
O O7 0.548361 0.851965 0.433983
O O8 0.635440 0.036906 0.487320
O O9 0.348805 0.565354 0.159693
O O10 0.674135 0.750000 0.500000
O O11 0.750000 0.515197 0.500000
O O12 0.748599 0.577360 0.905584
O O13 0.846797 0.765464 0.886986
O O14 0.846276 0.518244 0.989926
#
# Coordination Sequence:
#
# PCOD8205038 Si02
#       7
#     8   8   8   4   8   8   8
#     4  10  20  31  46  77 110 149 171 208 268 330
#     4  11  21  40  53  77 101 143 182 238 263 331
#     4  10  20  32  50  74 110 138 179 218 268 326
#     4  10  24  38  58  68 102 142 198 234 282 292
#     4  11  22  33  53  80 108 143 180 220 273 332
#     4   8  15  27  45  67 107 142 182 203 242 322
#     4   8  15  27  45  71  99 147 175 212 250 303
#
# _framework density 18.183724000000002
#
# number of rings (size 3 to 8) (size 9 to 14) (size 15 to 20)
#    0.000    2.308    2.308    1.846    2.154    1.846 
#    0.000    3.077    0.000    0.000    0.000    0.000 
#    0.000   41.846    0.000    0.000    0.000    0.000 
#
# Total GULP energy -644268.453707 kJ/mol
# GULP energy per Si atom -12389.777956 kJ/mol
# Density = 1.814234 g / cm^3
# Si number density = 18.183724 Si / 1000 Ang^3
#
#
#
# Elastic Constant Matrix: (Units=GPa)
#
#
# Indices 1 2 3 4 5 6 
#
# 1 67.9840 29.5801 34.6096 0.0000 0.0000 0.0000
# 2 29.5801 81.4294 60.2002 0.0000 0.0000 0.0000
# 3 34.6096 60.2002 171.7607 0.0000 0.0000 0.0000
# 4 0.0000 0.0000 0.0000 30.4902 0.0000 0.0000
# 5 0.0000 0.0000 0.0000 0.0000 15.4718 0.0000
# 6 0.0000 0.0000 0.0000 0.0000 0.0000 8.8144
#
#
#
# Elastic Compliance Matrix: (Units=1/GPa)
#
#
# Indices 1 2 3 4 5 6 
#
# 1 0.017869 -0.005168 -0.001789 0.000000 0.000000 0.000000
# 2 -0.005168 0.018070 -0.005292 0.000000 0.000000 0.000000
# 3 -0.001789 -0.005292 0.008037 0.000000 0.000000 0.000000
# 4 0.000000 0.000000 0.000000 0.032797 0.000000 0.000000
# 5 0.000000 0.000000 0.000000 0.000000 0.064634 0.000000
# 6 0.000000 0.000000 0.000000 0.000000 0.000000 0.113450
#
#
# Mechanical properties :
#
#
# Convention : Reuss Voigt Hill
#
# Bulk Modulus (GPa) = 51.34101 63.32821 57.33461
# Shear Modulus (GPa) = 17.49172 24.07424 20.78298
#
# Velocity S-wave (km/s) = 3.10489 3.64255 3.38441
# Velocity P-wave (km/s) = 6.41480 7.25213 6.84628
#
# Compressibility (1/GPa) = 0.01947761
#
# Stress axis : x y z
#
# Youngs Moduli (GPa) = 55.96303 55.33902 124.41887
#
# Poissons Ratio (x) = 0.28601 0.22260
# Poissons Ratio (y) = 0.28924 0.65843
# Poissons Ratio (z) = 0.10012 0.29286
#
# Static dielectric constant tensor:
#      x y z
#    x 3.069590 0.000000 0.000000 
#    y 0.000000 3.303070 0.000000 
#    z 0.000000 0.000000 3.749740 
# 
# 
# High freq. dielectric constant tensor:
#      x y z
#    x 1.648750 0.000000 0.000000 
#    y 0.000000 1.701320 0.000000 
#    z 0.000000 0.000000 1.713900 
# 
# From -- ./inp_files/27445.got.cif
#   From: 2010.03.12/outbox.cif.g09.slc.cpg/sg50_14_cif.got.tgz:27445.got - 2010.04.16 13:23:21.
