data_PCOD8205079
_publ_section_title
;
Structure prediction by ZEFSAII (Michael W. Deem and Ramdas Pophale) SiO2 
 PCOD8205079
Probable space group: P B A N
;
_chemical_formula_sum "Si O2"
_cell_formula_units_Z 52
_cell_length_a 14.265902
_cell_length_b 19.779505
_cell_length_c 9.482198
_cell_angle_alpha 90.000000
_cell_angle_beta 90.000000
_cell_angle_gamma 90.000000
_cell_volume 2675.615325
_symmetry_space_group_name_H-M "P B A N"
_symmetry_group_IT_number 50
_space_group.IT_coordinate_system_code '2'
_symmetry_cell_setting 'orthorhombic'
loop_
_space_group_symop_operation_xyz
x,y,z
1/2-x,1/2-y,z
x,1/2-y,-z
1/2-x,y,-z
-x,-y,-z
1/2+x,1/2+y,-z
-x,1/2+y,z
1/2+x,-y,z
loop_
_atom_site_type_symbol
_atom_site_label
_atom_site_fract_x
_atom_site_fract_y
_atom_site_fract_z
Si Si1 0.044405 0.903927 0.573160
Si Si2 0.141050 0.889964 0.122223
Si Si3 0.985841 0.228931 0.849967
Si Si4 0.659800 0.150555 0.817688
Si Si5 0.750000 0.909436 0.500000
Si Si6 0.093795 0.189253 0.585809
Si Si7 0.613380 0.996592 0.336244
O O1 0.129560 0.882916 0.672167
O O2 0.997335 0.839822 0.495722
O O3 0.971725 0.943383 0.674985
O O4 0.089152 0.949979 0.455351
O O5 0.048376 0.848067 0.156844
O O6 0.227135 0.844319 0.184620
O O7 0.133164 0.964673 0.189807
O O8 0.142943 0.898201 0.952906
O O9 0.896484 0.278926 0.829447
O O10 0.066461 0.226804 0.732258
O O11 0.032214 0.250000 0.000000
O O12 0.826405 0.867931 0.408290
O O13 0.705260 0.955436 0.379022
O O14 0.139703 0.250000 0.500000
#
# Coordination Sequence:
#
# PCOD8205079 Si02
#       7
#     8   8   8   8   4   8   8
#     4  10  20  34  57  84 112 147 194 241 283 346
#     4  10  20  35  55  81 117 153 181 226 293 350
#     4  10  20  36  59  86 116 148 185 236 295 356
#     4  10  20  34  55  83 115 149 185 233 286 347
#     4  10  23  36  60  84 113 158 202 248 294 344
#     4  11  20  38  61  87 112 151 201 249 302 351
#     4  10  20  36  55  81 113 151 191 235 289 345
#
# _framework density 19.434781999999998
#
# number of rings (size 3 to 8) (size 9 to 14) (size 15 to 20)
#    0.000    1.846    3.077    1.615    0.000    2.462 
#    0.000    0.000    3.385    1.846    0.000    0.000 
#    0.000    0.000    0.000    0.000    0.000    0.000 
#
# Total GULP energy -644342.121917 kJ/mol
# GULP energy per Si atom -12391.194652 kJ/mol
# Density = 1.939055 g / cm^3
# Si number density = 19.434782 Si / 1000 Ang^3
#
#
#
# Elastic Constant Matrix: (Units=GPa)
#
#
# Indices 1 2 3 4 5 6 
#
# 1 56.1972 13.1335 29.1211 0.0000 0.0000 0.0000
# 2 13.1335 81.4035 33.7689 0.0000 0.0000 0.0000
# 3 29.1211 33.7689 94.2701 0.0000 0.0000 0.0000
# 4 0.0000 0.0000 0.0000 34.5188 0.0000 0.0000
# 5 0.0000 0.0000 0.0000 0.0000 15.3295 0.0000
# 6 0.0000 0.0000 0.0000 0.0000 0.0000 37.8108
#
#
#
# Elastic Compliance Matrix: (Units=1/GPa)
#
#
# Indices 1 2 3 4 5 6 
#
# 1 0.021233 -0.000828 -0.006263 0.000000 0.000000 0.000000
# 2 -0.000828 0.014461 -0.004924 0.000000 0.000000 0.000000
# 3 -0.006263 -0.004924 0.014306 0.000000 0.000000 0.000000
# 4 0.000000 0.000000 0.000000 0.028970 0.000000 0.000000
# 5 0.000000 0.000000 0.000000 0.000000 0.065234 0.000000
# 6 0.000000 0.000000 0.000000 0.000000 0.000000 0.026447
#
#
# Mechanical properties :
#
#
# Convention : Reuss Voigt Hill
#
# Bulk Modulus (GPa) = 38.50470 42.65753 40.58112
# Shear Modulus (GPa) = 24.58959 27.92163 26.25561
#
# Velocity S-wave (km/s) = 3.56087 3.79447 3.67953
# Velocity P-wave (km/s) = 6.06314 6.41826 6.24323
#
# Compressibility (1/GPa) = 0.02597085
#
# Stress axis : x y z
#
# Youngs Moduli (GPa) = 47.09604 69.15230 69.89873
#
# Poissons Ratio (x) = 0.05724 0.43775
# Poissons Ratio (y) = 0.03898 0.34421
# Poissons Ratio (z) = 0.29495 0.34053
#
# Static dielectric constant tensor:
#      x y z
#    x 3.444330 0.000000 0.000000 
#    y 0.000000 3.641450 0.000000 
#    z 0.000000 0.000000 3.631390 
# 
# 
# High freq. dielectric constant tensor:
#      x y z
#    x 1.745990 0.000000 0.000000 
#    y 0.000000 1.757680 0.000000 
#    z 0.000000 0.000000 1.748420 
# 
# From -- ./inp_files/13207.got.cif
#   From: 2010.03.12/outbox.cif.g09.slc.cpg/sg50_7_cif.got.tgz:13207.got - 2010.04.16 13:23:21.
