data_PCOD8205495
_publ_section_title
;
Structure prediction by ZEFSAII (Michael W. Deem and Ramdas Pophale) SiO2 
 PCOD8205495
Probable space group: P B A N
;
_chemical_formula_sum "Si O2"
_cell_formula_units_Z 26
_cell_length_a 5.246982
_cell_length_b 17.394125
_cell_length_c 12.138930
_cell_angle_alpha 90.000000
_cell_angle_beta 90.000000
_cell_angle_gamma 90.000000
_cell_volume 1107.879607
_symmetry_space_group_name_H-M "P B A N"
_symmetry_group_IT_number 50
_space_group.IT_coordinate_system_code '2'
_symmetry_cell_setting 'orthorhombic'
loop_
_space_group_symop_operation_xyz
x,y,z
1/2-x,1/2-y,z
x,1/2-y,-z
1/2-x,y,-z
-x,-y,-z
1/2+x,1/2+y,-z
-x,1/2+y,z
1/2+x,-y,z
loop_
_atom_site_type_symbol
_atom_site_label
_atom_site_fract_x
_atom_site_fract_y
_atom_site_fract_z
Si Si1 0.250000 0.750000 0.500000
Si Si2 0.499834 0.216886 0.122675
Si Si3 0.992092 0.547345 0.812015
Si Si4 0.510026 0.396920 0.565017
O O1 0.428582 0.694761 0.424159
O O2 0.250000 0.250000 0.185488
O O3 0.498583 0.125087 0.117666
O O4 0.750000 0.250000 0.184966
O O5 0.499370 0.250000 0.000000
O O6 0.239249 0.498631 0.845032
O O7 0.987406 0.565986 0.683482
O O8 0.750000 0.436531 0.500000
O O9 0.250000 0.410589 0.500000
#
# Coordination Sequence:
#
# PCOD8205495 Si02
#       4
#     2   8   8   8
#     4   8  22  36  58  96 124 188 228 280 298 392
#     4  10  23  46  72  99 127 177 231 284 342 413
#     4  12  26  43  68 104 142 180 226 285 351 411
#     4  10  22  39  62  93 136 184 230 272 327 387
#
# _framework density 23.468254999999999
#
# number of rings (size 3 to 8) (size 9 to 14) (size 15 to 20)
#    0.923    0.615    0.000    4.154    2.154    6.154 
#    0.000   18.462    0.000    0.000    0.000    0.000 
#    0.000    0.000    0.000    0.000    0.000    0.000 
#
# Total GULP energy -322286.059068 kJ/mol
# GULP energy per Si atom -12395.617656 kJ/mol
# Density = 2.341484 g / cm^3
# Si number density = 23.468255 Si / 1000 Ang^3
#
#
#
# Elastic Constant Matrix: (Units=GPa)
#
#
# Indices 1 2 3 4 5 6 
#
# 1 258.9504 87.3286 23.7582 0.0000 0.0000 0.0000
# 2 87.3286 200.9297 34.1506 0.0000 0.0000 0.0000
# 3 23.7582 34.1506 59.8984 0.0000 0.0000 0.0000
# 4 0.0000 0.0000 0.0000 50.0442 0.0000 0.0000
# 5 0.0000 0.0000 0.0000 0.0000 2.5438 0.0000
# 6 0.0000 0.0000 0.0000 0.0000 0.0000 -12.1983
#
#
#
# Elastic Compliance Matrix: (Units=1/GPa)
#
#
# Indices 1 2 3 4 5 6 
#
# 1 0.004555 -0.001852 -0.000751 0.000000 0.000000 0.000000
# 2 -0.001852 0.006264 -0.002837 0.000000 0.000000 0.000000
# 3 -0.000751 -0.002837 0.018610 0.000000 0.000000 0.000000
# 4 0.000000 0.000000 0.000000 0.019982 0.000000 0.000000
# 5 0.000000 0.000000 0.000000 0.000000 0.393110 0.000000
# 6 0.000000 0.000000 0.000000 0.000000 0.000000 -0.081979
#
#
# Mechanical properties :
#
#
# Convention : Reuss Voigt Hill
#
# Bulk Modulus (GPa) = 53.90862 90.02816 71.96839
# Shear Modulus (GPa) = 13.24133 33.04734 23.14434
#
# Velocity S-wave (km/s) = 2.37791 3.75663 3.14379
# Velocity P-wave (km/s) = 5.52811 7.56712 6.62651
#
# Compressibility (1/GPa) = 0.01854991
#
# Stress axis : x y z
#
# Youngs Moduli (GPa) = 219.52599 159.64200 53.73443
#
# Poissons Ratio (x) = 0.29569 0.04034
# Poissons Ratio (y) = 0.40661 0.15243
# Poissons Ratio (z) = 0.16482 0.45286
#
# Static dielectric constant tensor:
#      x y z
#    x -2.825130 0.000000 0.000000 
#    y 0.000000 4.401660 0.000000 
#    z 0.000000 0.000000 3.699390 
# 
# 
# High freq. dielectric constant tensor:
#      x y z
#    x 1.957200 0.000000 0.000000 
#    y 0.000000 1.944740 0.000000 
#    z 0.000000 0.000000 1.894820 
# 
# From -- ./inp_files/23571.got.cif
#   From: 2010.03.12/outbox.cif.g09.slc.cpg/sg50_12_cif.got.tgz:23571.got - 2010.04.16 13:23:21.
