data_PCOD8205734
_publ_section_title
;
Structure prediction by ZEFSAII (Michael W. Deem and Ramdas Pophale) SiO2 
 PCOD8205734
Probable space group: P B A N
;
_chemical_formula_sum "Si O2"
_cell_formula_units_Z 56
_cell_length_a 22.401932
_cell_length_b 14.283734
_cell_length_c 8.210270
_cell_angle_alpha 90.000000
_cell_angle_beta 90.000000
_cell_angle_gamma 90.000000
_cell_volume 2627.148778
_symmetry_space_group_name_H-M "P B A N"
_symmetry_group_IT_number 50
_space_group.IT_coordinate_system_code '2'
_symmetry_cell_setting 'orthorhombic'
loop_
_space_group_symop_operation_xyz
x,y,z
1/2-x,1/2-y,z
x,1/2-y,-z
1/2-x,y,-z
-x,-y,-z
1/2+x,1/2+y,-z
-x,1/2+y,z
1/2+x,-y,z
loop_
_atom_site_type_symbol
_atom_site_label
_atom_site_fract_x
_atom_site_fract_y
_atom_site_fract_z
Si Si1 0.419828 0.526241 0.397110
Si Si2 0.870307 0.824514 0.140159
Si Si3 0.815313 0.156428 0.050736
Si Si4 0.261928 0.381957 0.681288
Si Si5 0.346039 0.468031 0.115484
Si Si6 0.468563 0.349089 0.592370
Si Si7 0.808233 0.419381 0.599228
O O1 0.403527 0.477583 0.227743
O O2 0.439279 0.435790 0.498508
O O3 0.467089 0.608780 0.361530
O O4 0.363907 0.579310 0.477350
O O5 0.807220 0.806296 0.236137
O O6 0.928120 0.824169 0.253098
O O7 0.879964 0.750000 0.000000
O O8 0.865096 0.924257 0.054754
O O9 0.823713 0.143026 0.244348
O O10 0.853647 0.250000 0.000000
O O11 0.750000 0.182939 0.000000
O O12 0.826988 0.071057 0.930556
O O13 0.250000 0.342643 0.500000
O O14 0.204177 0.404970 0.792176
O O15 0.298535 0.476816 0.664086
O O16 0.475809 0.250000 0.500000
O O17 0.750000 0.382655 0.500000
#
# Coordination Sequence:
#
# PCOD8205734 Si02
#       7
#     8   8   8   8   8   8   8
#     4  11  23  42  74  94 120 183 227 273 345 393
#     4  12  25  42  67 100 138 180 220 280 352 405
#     4  11  21  34  54  90 134 173 207 257 322 387
#     4  11  20  38  68  98 137 175 213 271 330 415
#     4  12  21  40  65  98 137 169 217 272 341 411
#     4  11  25  47  66  93 129 172 236 287 322 394
#     4  11  19  40  69  97 131 171 220 272 334 411
#
# _framework density 21.315885999999999
#
# number of rings (size 3 to 8) (size 9 to 14) (size 15 to 20)
#    0.000    0.714    7.143    1.286    0.000    2.857 
#    0.000    7.857    0.000    1.286    0.000    0.000 
#    0.000    0.000    0.000    0.000    0.000    0.000 
#
# Total GULP energy -693797.215773 kJ/mol
# GULP energy per Si atom -12389.235996 kJ/mol
# Density = 2.126737 g / cm^3
# Si number density = 21.315886 Si / 1000 Ang^3
#
#
#
# Elastic Constant Matrix: (Units=GPa)
#
#
# Indices 1 2 3 4 5 6 
#
# 1 131.5124 35.8034 49.3912 0.0000 0.0000 0.0000
# 2 35.8034 108.3754 32.7431 0.0000 0.0000 0.0000
# 3 49.3912 32.7431 114.2595 0.0000 0.0000 0.0000
# 4 0.0000 0.0000 0.0000 25.9927 0.0000 0.0000
# 5 0.0000 0.0000 0.0000 0.0000 19.2681 0.0000
# 6 0.0000 0.0000 0.0000 0.0000 0.0000 114.4689
#
#
#
# Elastic Compliance Matrix: (Units=1/GPa)
#
#
# Indices 1 2 3 4 5 6 
#
# 1 0.009485 -0.002074 -0.003506 0.000000 0.000000 0.000000
# 2 -0.002074 0.010555 -0.002128 0.000000 0.000000 0.000000
# 3 -0.003506 -0.002128 0.010877 0.000000 0.000000 0.000000
# 4 0.000000 0.000000 0.000000 0.038472 0.000000 0.000000
# 5 0.000000 0.000000 0.000000 0.000000 0.051899 0.000000
# 6 0.000000 0.000000 0.000000 0.000000 0.000000 0.008736
#
#
# Mechanical properties :
#
#
# Convention : Reuss Voigt Hill
#
# Bulk Modulus (GPa) = 64.51031 65.55808 65.03419
# Shear Modulus (GPa) = 33.19848 47.69324 40.44586
#
# Velocity S-wave (km/s) = 3.95074 4.73530 4.36070
# Velocity P-wave (km/s) = 7.15128 7.79229 7.47865
#
# Compressibility (1/GPa) = 0.01550140
#
# Stress axis : x y z
#
# Youngs Moduli (GPa) = 105.42726 94.73764 91.93464
#
# Poissons Ratio (x) = 0.19652 0.32230
# Poissons Ratio (y) = 0.21870 0.19565
# Poissons Ratio (z) = 0.36960 0.20162
#
# Static dielectric constant tensor:
#      x y z
#    x 3.823180 0.000000 0.000000 
#    y 0.000000 3.400220 0.000000 
#    z 0.000000 0.000000 4.007220 
# 
# 
# High freq. dielectric constant tensor:
#      x y z
#    x 1.815760 0.000000 0.000000 
#    y 0.000000 1.849070 0.000000 
#    z 0.000000 0.000000 1.851630 
# 
# From -- ./inp_files/15375.got.cif
#   From: 2010.03.12/outbox.cif.g09.slc.cpg/sg50_8_cif.got.tgz:15375.got - 2010.04.16 13:23:21.
