data_PCOD8205474
_publ_section_title
;
Structure prediction by ZEFSAII (Michael W. Deem and Ramdas Pophale) SiO2 
 PCOD8205474
Probable space group: P B A N
;
_chemical_formula_sum "Si O2"
_cell_formula_units_Z 36
_cell_length_a 19.408795
_cell_length_b 8.449159
_cell_length_c 10.949065
_cell_angle_alpha 90.000000
_cell_angle_beta 90.000000
_cell_angle_gamma 90.000000
_cell_volume 1795.515216
_symmetry_space_group_name_H-M "P B A N"
_symmetry_group_IT_number 50
_space_group.IT_coordinate_system_code '2'
_symmetry_cell_setting 'orthorhombic'
loop_
_space_group_symop_operation_xyz
x,y,z
1/2-x,1/2-y,z
x,1/2-y,-z
1/2-x,y,-z
-x,-y,-z
1/2+x,1/2+y,-z
-x,1/2+y,z
1/2+x,-y,z
loop_
_atom_site_type_symbol
_atom_site_label
_atom_site_fract_x
_atom_site_fract_y
_atom_site_fract_z
Si Si1 0.680484 0.992763 0.162744
Si Si2 0.250000 0.250000 0.000000
Si Si3 0.437038 0.403953 0.337292
Si Si4 0.727474 0.069677 0.630144
Si Si5 0.420698 0.036753 0.384497
Si Si6 0.750000 0.250000 0.000000
O O1 0.604411 0.986978 0.225165
O O2 0.733598 0.965044 0.271902
O O3 0.697717 0.152003 0.086745
O O4 0.693873 0.847632 0.074639
O O5 0.422867 0.217133 0.339224
O O6 0.418743 0.479925 0.468526
O O7 0.517952 0.439243 0.320174
O O8 0.750000 0.250000 0.641885
O O9 0.750000 0.999034 0.500000
O O10 0.647313 0.052025 0.660400
#
# Coordination Sequence:
#
# PCOD8205474 Si02
#       6
#     8   2   8   8   8   2
#     4  11  21  42  61  93 120 178 210 280 301 382
#     4  10  24  38  66  84 132 170 246 252 312 346
#     4  10  22  38  63  88 138 165 202 258 330 390
#     4  11  22  35  65  98 129 159 209 266 332 389
#     4  10  22  37  59 100 128 167 197 254 338 407
#     4  10  24  38  66  88 128 170 244 254 308 354
#
# _framework density 20.049954
#
# number of rings (size 3 to 8) (size 9 to 14) (size 15 to 20)
#    0.000    1.556    3.333    1.333    3.111    1.778 
#    0.000    0.000    0.000   22.667    0.000    0.000 
#    0.000    0.000    0.000    0.000    0.000    0.000 
#
# Total GULP energy -446243.138102 kJ/mol
# GULP energy per Si atom -12395.642725 kJ/mol
# Density = 2.000432 g / cm^3
# Si number density = 20.049954 Si / 1000 Ang^3
#
#
#
# Elastic Constant Matrix: (Units=GPa)
#
#
# Indices 1 2 3 4 5 6 
#
# 1 180.4894 59.8727 57.4599 0.0000 0.0000 0.0000
# 2 59.8727 102.5004 46.5316 0.0000 0.0000 0.0000
# 3 57.4599 46.5316 120.1621 0.0000 0.0000 0.0000
# 4 0.0000 0.0000 0.0000 75.6034 0.0000 0.0000
# 5 0.0000 0.0000 0.0000 0.0000 38.3810 0.0000
# 6 0.0000 0.0000 0.0000 0.0000 0.0000 31.0858
#
#
#
# Elastic Compliance Matrix: (Units=1/GPa)
#
#
# Indices 1 2 3 4 5 6 
#
# 1 0.007339 -0.003268 -0.002244 0.000000 0.000000 0.000000
# 2 -0.003268 0.013292 -0.003585 0.000000 0.000000 0.000000
# 3 -0.002244 -0.003585 0.010783 0.000000 0.000000 0.000000
# 4 0.000000 0.000000 0.000000 0.013227 0.000000 0.000000
# 5 0.000000 0.000000 0.000000 0.000000 0.026055 0.000000
# 6 0.000000 0.000000 0.000000 0.000000 0.000000 0.032169
#
#
# Mechanical properties :
#
#
# Convention : Reuss Voigt Hill
#
# Bulk Modulus (GPa) = 75.63531 81.20891 78.42211
# Shear Modulus (GPa) = 39.85169 44.96655 42.40912
#
# Velocity S-wave (km/s) = 4.46311 4.74088 4.60409
# Velocity P-wave (km/s) = 8.02275 8.39995 8.21351
#
# Compressibility (1/GPa) = 0.01322134
#
# Stress axis : x y z
#
# Youngs Moduli (GPa) = 136.25879 75.23122 92.73761
#
# Poissons Ratio (x) = 0.24587 0.20808
# Poissons Ratio (y) = 0.44533 0.33242
# Poissons Ratio (z) = 0.30574 0.26967
#
# Static dielectric constant tensor:
#      x y z
#    x 3.678360 0.000000 0.000000 
#    y 0.000000 3.608860 0.000000 
#    z 0.000000 0.000000 4.151710 
# 
# 
# High freq. dielectric constant tensor:
#      x y z
#    x 1.781030 0.000000 0.000000 
#    y 0.000000 1.784640 0.000000 
#    z 0.000000 0.000000 1.773880 
# 
# From -- ./inp_files/22194.got.cif
#   From: 2010.03.12/outbox.cif.g09.slc.cpg/sg50_12_cif.got.tgz:22194.got - 2010.04.16 13:23:21.
