data_PCOD8205141
_publ_section_title
;
Structure prediction by ZEFSAII (Michael W. Deem and Ramdas Pophale) SiO2 
 PCOD8205141
Probable space group: P B A N
;
_chemical_formula_sum "Si O2"
_cell_formula_units_Z 40
_cell_length_a 11.004219
_cell_length_b 20.357438
_cell_length_c 8.328384
_cell_angle_alpha 90.000000
_cell_angle_beta 90.000000
_cell_angle_gamma 90.000000
_cell_volume 1865.705479
_symmetry_space_group_name_H-M "P B A N"
_symmetry_group_IT_number 50
_space_group.IT_coordinate_system_code '2'
_symmetry_cell_setting 'orthorhombic'
loop_
_space_group_symop_operation_xyz
x,y,z
1/2-x,1/2-y,z
x,1/2-y,-z
1/2-x,y,-z
-x,-y,-z
1/2+x,1/2+y,-z
-x,1/2+y,z
1/2+x,-y,z
loop_
_atom_site_type_symbol
_atom_site_label
_atom_site_fract_x
_atom_site_fract_y
_atom_site_fract_z
Si Si1 0.250000 0.432779 0.000000
Si Si2 0.427813 0.375664 0.242584
Si Si3 0.492022 0.389427 0.594567
Si Si4 0.895765 0.488440 0.766618
Si Si5 0.750000 0.075255 0.500000
Si Si6 0.391558 0.239546 0.315256
O O1 0.303465 0.389382 0.145426
O O2 0.145834 0.479580 0.068284
O O3 0.407876 0.387934 0.433978
O O4 0.534953 0.422207 0.180777
O O5 0.459826 0.297960 0.216817
O O6 0.483729 0.461055 0.673792
O O7 0.633711 0.379226 0.545813
O O8 0.444549 0.333535 0.721738
O O9 0.782701 0.470566 0.651883
O O10 0.250000 0.250000 0.277580
O O11 0.422278 0.250000 0.500000
#
# Coordination Sequence:
#
# PCOD8205141 Si02
#       6
#     4   8   8   8   4   8
#     4  12  22  34  57  84 119 160 194 242 292 350
#     4  10  21  36  55  83 113 147 192 239 293 351
#     4  10  20  37  60  86 116 151 195 248 299 350
#     4  11  21  36  56  83 116 154 199 244 292 349
#     4  10  20  36  61  88 117 154 200 250 298 356
#     4   9  18  34  56  81 109 141 182 238 296 347
#
# _framework density 21.439612
#
# number of rings (size 3 to 8) (size 9 to 14) (size 15 to 20)
#    0.000    1.800    0.000    6.600    0.000    3.200 
#    0.000   17.000    0.000    0.000    0.000    5.600 
#    0.000    0.000    0.000    0.000    0.000    0.000 
#
# Total GULP energy -495725.804373 kJ/mol
# GULP energy per Si atom -12393.145109 kJ/mol
# Density = 2.139081 g / cm^3
# Si number density = 21.439612 Si / 1000 Ang^3
#
#
#
# Elastic Constant Matrix: (Units=GPa)
#
#
# Indices 1 2 3 4 5 6 
#
# 1 110.4817 63.0343 37.5965 0.0000 0.0000 0.0000
# 2 63.0343 151.8266 40.2275 0.0000 0.0000 0.0000
# 3 37.5965 40.2275 56.4419 0.0000 0.0000 0.0000
# 4 0.0000 0.0000 0.0000 17.7162 0.0000 0.0000
# 5 0.0000 0.0000 0.0000 0.0000 23.4959 0.0000
# 6 0.0000 0.0000 0.0000 0.0000 0.0000 30.8139
#
#
#
# Elastic Compliance Matrix: (Units=1/GPa)
#
#
# Indices 1 2 3 4 5 6 
#
# 1 0.013373 -0.003935 -0.006104 0.000000 0.000000 0.000000
# 2 -0.003935 0.009278 -0.003991 0.000000 0.000000 0.000000
# 3 -0.006104 -0.003991 0.024628 0.000000 0.000000 0.000000
# 4 0.000000 0.000000 0.000000 0.056445 0.000000 0.000000
# 5 0.000000 0.000000 0.000000 0.000000 0.042561 0.000000
# 6 0.000000 0.000000 0.000000 0.000000 0.000000 0.032453
#
#
# Mechanical properties :
#
#
# Convention : Reuss Voigt Hill
#
# Bulk Modulus (GPa) = 52.03186 66.71855 59.37521
# Shear Modulus (GPa) = 23.45176 26.26468 24.85822
#
# Velocity S-wave (km/s) = 3.31093 3.50387 3.40877
# Velocity P-wave (km/s) = 6.24004 6.89611 6.57626
#
# Compressibility (1/GPa) = 0.01921899
#
# Stress axis : x y z
#
# Youngs Moduli (GPa) = 74.77521 107.78515 40.60486
#
# Poissons Ratio (x) = 0.42415 0.24783
# Poissons Ratio (y) = 0.29425 0.16206
# Poissons Ratio (z) = 0.45639 0.43020
#
# Static dielectric constant tensor:
#      x y z
#    x 3.601620 0.000000 0.000000 
#    y 0.000000 4.299580 0.000000 
#    z 0.000000 0.000000 3.647290 
# 
# 
# High freq. dielectric constant tensor:
#      x y z
#    x 1.821690 0.000000 0.000000 
#    y 0.000000 1.850390 0.000000 
#    z 0.000000 0.000000 1.817280 
# 
# From -- ./inp_files/11344.got.cif
#   From: 2010.03.12/outbox.cif.g09.slc.cpg/sg50_6_cif.got.tgz:11344.got - 2010.04.16 13:23:21.
