data_PCOD8205578
_publ_section_title
;
Structure prediction by ZEFSAII (Michael W. Deem and Ramdas Pophale) SiO2 
 PCOD8205578
Probable space group: P B A N
;
_chemical_formula_sum "Si O2"
_cell_formula_units_Z 32
_cell_length_a 8.502364
_cell_length_b 11.531174
_cell_length_c 14.110263
_cell_angle_alpha 90.000000
_cell_angle_beta 90.000000
_cell_angle_gamma 90.000000
_cell_volume 1383.401773
_symmetry_space_group_name_H-M "P B A N"
_symmetry_group_IT_number 50
_space_group.IT_coordinate_system_code '2'
_symmetry_cell_setting 'orthorhombic'
loop_
_space_group_symop_operation_xyz
x,y,z
1/2-x,1/2-y,z
x,1/2-y,-z
1/2-x,y,-z
-x,-y,-z
1/2+x,1/2+y,-z
-x,1/2+y,z
1/2+x,-y,z
loop_
_atom_site_type_symbol
_atom_site_label
_atom_site_fract_x
_atom_site_fract_y
_atom_site_fract_z
Si Si1 0.314890 0.604643 0.153381
Si Si2 0.557624 0.035606 0.723859
Si Si3 0.015589 0.750000 0.000000
Si Si4 0.719226 0.615839 0.603880
Si Si5 0.250000 0.432142 0.000000
O O1 0.456614 0.534656 0.199779
O O2 0.175876 0.633582 0.230089
O O3 0.217370 0.515974 0.087527
O O4 0.378257 0.716009 0.092254
O O5 0.457934 0.096847 0.641315
O O6 0.663218 0.936536 0.678911
O O7 0.904892 0.641791 0.024692
O O8 0.750000 0.750000 0.597991
O O9 0.750000 0.559889 0.500000
#
# Coordination Sequence:
#
# PCOD8205578 Si02
#       5
#     8   8   4   8   4
#     4  11  23  45  62  98 135 182 239 285 341 401
#     4  10  23  43  71 102 140 173 236 287 333 426
#     4  11  24  41  70  86 132 196 232 302 346 394
#     4  10  22  45  74 105 140 179 218 281 362 417
#     4  11  24  45  58  94 134 185 246 287 342 406
#
# _framework density 23.131385999999999
#
# number of rings (size 3 to 8) (size 9 to 14) (size 15 to 20)
#    0.000    1.500    2.500    1.500    0.000    4.500 
#    4.500    3.750    0.000   13.500    0.000    0.000 
#    0.000    0.000    0.000    0.000    0.000    0.000 
#
# Total GULP energy -396564.178111 kJ/mol
# GULP energy per Si atom -12392.630566 kJ/mol
# Density = 2.307874 g / cm^3
# Si number density = 23.131386 Si / 1000 Ang^3
#
#
#
# Elastic Constant Matrix: (Units=GPa)
#
#
# Indices 1 2 3 4 5 6 
#
# 1 164.4543 41.3078 78.2861 0.0000 0.0000 0.0000
# 2 41.3078 82.2985 41.0126 0.0000 0.0000 0.0000
# 3 78.2861 41.0126 142.3782 0.0000 0.0000 0.0000
# 4 0.0000 0.0000 0.0000 42.8923 0.0000 0.0000
# 5 0.0000 0.0000 0.0000 0.0000 49.7924 0.0000
# 6 0.0000 0.0000 0.0000 0.0000 0.0000 33.8925
#
#
#
# Elastic Compliance Matrix: (Units=1/GPa)
#
#
# Indices 1 2 3 4 5 6 
#
# 1 0.008590 -0.002286 -0.004065 0.000000 0.000000 0.000000
# 2 -0.002286 0.014796 -0.003005 0.000000 0.000000 0.000000
# 3 -0.004065 -0.003005 0.010124 0.000000 0.000000 0.000000
# 4 0.000000 0.000000 0.000000 0.023314 0.000000 0.000000
# 5 0.000000 0.000000 0.000000 0.000000 0.020083 0.000000
# 6 0.000000 0.000000 0.000000 0.000000 0.000000 0.029505
#
#
# Mechanical properties :
#
#
# Convention : Reuss Voigt Hill
#
# Bulk Modulus (GPa) = 67.57449 78.92710 73.25079
# Shear Modulus (GPa) = 38.44489 40.55040 39.49765
#
# Velocity S-wave (km/s) = 4.08121 4.19148 4.13672
# Velocity P-wave (km/s) = 7.17532 7.59078 7.38597
#
# Compressibility (1/GPa) = 0.01479848
#
# Stress axis : x y z
#
# Youngs Moduli (GPa) = 116.41736 67.58680 98.77442
#
# Poissons Ratio (x) = 0.15450 0.40148
# Poissons Ratio (y) = 0.26612 0.29683
# Poissons Ratio (z) = 0.47319 0.20310
#
# Static dielectric constant tensor:
#      x y z
#    x 4.283220 0.000000 0.000000 
#    y 0.000000 3.998350 0.000000 
#    z 0.000000 0.000000 4.822610 
# 
# 
# High freq. dielectric constant tensor:
#      x y z
#    x 1.943730 0.000000 0.000000 
#    y 0.000000 1.905710 0.000000 
#    z 0.000000 0.000000 1.917710 
# 
# From -- ./inp_files/24445.got.cif
#   From: 2010.03.12/outbox.cif.g09.slc.cpg/sg50_13_cif.got.tgz:24445.got - 2010.04.16 13:23:21.
