data_PCOD8205714
_publ_section_title
;
Structure prediction by ZEFSAII (Michael W. Deem and Ramdas Pophale) SiO2 
 PCOD8205714
Probable space group: P B A N
;
_chemical_formula_sum "Si O2"
_cell_formula_units_Z 28
_cell_length_a 4.955622
_cell_length_b 22.811931
_cell_length_c 10.268924
_cell_angle_alpha 90.000000
_cell_angle_beta 90.000000
_cell_angle_gamma 90.000000
_cell_volume 1160.874205
_symmetry_space_group_name_H-M "P B A N"
_symmetry_group_IT_number 50
_space_group.IT_coordinate_system_code '2'
_symmetry_cell_setting 'orthorhombic'
loop_
_space_group_symop_operation_xyz
x,y,z
1/2-x,1/2-y,z
x,1/2-y,-z
1/2-x,y,-z
-x,-y,-z
1/2+x,1/2+y,-z
-x,1/2+y,z
1/2+x,-y,z
loop_
_atom_site_type_symbol
_atom_site_label
_atom_site_fract_x
_atom_site_fract_y
_atom_site_fract_z
Si Si1 0.517841 0.860286 0.582281
Si Si2 0.793013 0.539808 0.754112
Si Si3 0.010358 0.709273 0.839882
Si Si4 0.750000 0.883427 0.000000
O O1 0.250000 0.876622 0.500000
O O2 0.692710 0.916839 0.631021
O O3 0.422557 0.820326 0.701645
O O4 0.750000 0.826157 0.500000
O O5 0.597167 0.484455 0.751053
O O6 0.681282 0.575227 0.878872
O O7 0.750000 0.750000 0.831063
O O8 0.250000 0.750000 0.884397
O O9 0.989892 0.659061 0.950905
#
# Coordination Sequence:
#
# PCOD8205714 Si02
#       4
#     8   8   8   4
#     4  11  24  42  65  96 132 170 220 275 326 393
#     4  11  24  42  67  96 130 173 217 270 332 392
#     4  11  25  43  66  95 129 173 220 271 332 394
#     4  10  25  44  66  96 132 168 221 274 326 396
#
# _framework density 24.119751999999998
#
# number of rings (size 3 to 8) (size 9 to 14) (size 15 to 20)
#    0.000    1.143    0.000    4.714    0.000   18.286 
#    0.000    0.000    0.000    0.000    0.000    0.000 
#    0.000    0.000    0.000    0.000    0.000    0.000 
#
# Total GULP energy -346916.668083 kJ/mol
# GULP energy per Si atom -12389.881003 kJ/mol
# Density = 2.406485 g / cm^3
# Si number density = 24.119752 Si / 1000 Ang^3
#
#
#
# Elastic Constant Matrix: (Units=GPa)
#
#
# Indices 1 2 3 4 5 6 
#
# 1 128.1207 25.1314 33.8660 0.0000 0.0000 0.0000
# 2 25.1314 89.3629 21.2507 0.0000 0.0000 0.0000
# 3 33.8660 21.2507 116.4052 0.0000 0.0000 0.0000
# 4 0.0000 0.0000 0.0000 3.3270 0.0000 0.0000
# 5 0.0000 0.0000 0.0000 0.0000 28.2282 0.0000
# 6 0.0000 0.0000 0.0000 0.0000 0.0000 40.8317
#
#
#
# Elastic Compliance Matrix: (Units=1/GPa)
#
#
# Indices 1 2 3 4 5 6 
#
# 1 0.008767 -0.001943 -0.002196 0.000000 0.000000 0.000000
# 2 -0.001943 0.012129 -0.001649 0.000000 0.000000 0.000000
# 3 -0.002196 -0.001649 0.009531 0.000000 0.000000 0.000000
# 4 0.000000 0.000000 0.000000 0.300572 0.000000 0.000000
# 5 0.000000 0.000000 0.000000 0.000000 0.035426 0.000000
# 6 0.000000 0.000000 0.000000 0.000000 0.000000 0.024491
#
#
# Mechanical properties :
#
#
# Convention : Reuss Voigt Hill
#
# Bulk Modulus (GPa) = 53.04945 54.93166 53.99056
# Shear Modulus (GPa) = 12.23172 31.38677 21.80924
#
# Velocity S-wave (km/s) = 2.25439 3.61125 3.01027
# Velocity P-wave (km/s) = 5.36827 6.34131 5.87497
#
# Compressibility (1/GPa) = 0.01885034
#
# Stress axis : x y z
#
# Youngs Moduli (GPa) = 114.06771 82.44745 104.92612
#
# Poissons Ratio (x) = 0.16022 0.23039
# Poissons Ratio (y) = 0.22167 0.17301
# Poissons Ratio (z) = 0.25046 0.13595
#
# Static dielectric constant tensor:
#      x y z
#    x 3.815110 0.000000 0.000000 
#    y 0.000000 4.584720 0.000000 
#    z 0.000000 0.000000 4.669380 
# 
# 
# High freq. dielectric constant tensor:
#      x y z
#    x 1.954830 0.000000 0.000000 
#    y 0.000000 1.967710 0.000000 
#    z 0.000000 0.000000 1.978550 
# 
# From -- ./inp_files/7783.got.cif
#   From: 2010.03.12/outbox.cif.g09.slc.cpg/sg50_4_cif.got.tgz:7783.got - 2010.04.16 13:23:21.
