data_PCOD8205285
_publ_section_title
;
Structure prediction by ZEFSAII (Michael W. Deem and Ramdas Pophale) SiO2 
 PCOD8205285
Probable space group: P B A N
;
_chemical_formula_sum "Si O2"
_cell_formula_units_Z 26
_cell_length_a 20.524873
_cell_length_b 7.714690
_cell_length_c 8.086227
_cell_angle_alpha 90.000000
_cell_angle_beta 90.000000
_cell_angle_gamma 90.000000
_cell_volume 1280.397705
_symmetry_space_group_name_H-M "P B A N"
_symmetry_group_IT_number 50
_space_group.IT_coordinate_system_code '2'
_symmetry_cell_setting 'orthorhombic'
loop_
_space_group_symop_operation_xyz
x,y,z
1/2-x,1/2-y,z
x,1/2-y,-z
1/2-x,y,-z
-x,-y,-z
1/2+x,1/2+y,-z
-x,1/2+y,z
1/2+x,-y,z
loop_
_atom_site_type_symbol
_atom_site_label
_atom_site_fract_x
_atom_site_fract_y
_atom_site_fract_z
Si Si1 0.867401 0.596854 0.825905
Si Si2 0.565788 0.206765 0.687356
Si Si3 0.067592 0.425809 0.827649
Si Si4 0.750000 0.750000 0.000000
O O1 0.874645 0.432443 0.702886
O O2 0.887878 0.778436 0.737964
O O3 0.793566 0.619047 0.889880
O O4 0.919201 0.575454 0.976346
O O5 0.546787 0.250000 0.500000
O O6 0.506705 0.115465 0.782969
O O7 0.588642 0.384658 0.768735
#
# Coordination Sequence:
#
# PCOD8205285 Si02
#       4
#     8   8   8   2
#     4  10  22  38  62  82 116 152 210 240 289 343
#     4  12  22  33  56  94 128 151 182 236 309 363
#     4  10  21  34  56  87 121 156 184 235 292 359
#     4   8  20  44  62  78 100 162 204 256 274 332
#
# _framework density 20.306190000000001
#
# number of rings (size 3 to 8) (size 9 to 14) (size 15 to 20)
#    0.000    1.846    3.077    2.769    4.308    0.000 
#    0.000   12.308    0.000   22.154    0.000    0.000 
#    0.000    0.000    0.000    0.000    0.000    0.000 
#
# Total GULP energy -322165.144273 kJ/mol
# GULP energy per Si atom -12390.967087 kJ/mol
# Density = 2.025997 g / cm^3
# Si number density = 20.306190 Si / 1000 Ang^3
#
#
#
# Elastic Constant Matrix: (Units=GPa)
#
#
# Indices 1 2 3 4 5 6 
#
# 1 112.0983 46.2774 32.1601 0.0000 0.0000 0.0000
# 2 46.2774 185.8448 18.0971 0.0000 0.0000 0.0000
# 3 32.1601 18.0971 54.1040 0.0000 0.0000 0.0000
# 4 0.0000 0.0000 0.0000 18.7427 0.0000 0.0000
# 5 0.0000 0.0000 0.0000 0.0000 8.3188 0.0000
# 6 0.0000 0.0000 0.0000 0.0000 0.0000 20.2508
#
#
#
# Elastic Compliance Matrix: (Units=1/GPa)
#
#
# Indices 1 2 3 4 5 6 
#
# 1 0.011633 -0.002298 -0.006146 0.000000 0.000000 0.000000
# 2 -0.002298 0.006016 -0.000646 0.000000 0.000000 0.000000
# 3 -0.006146 -0.000646 0.022352 0.000000 0.000000 0.000000
# 4 0.000000 0.000000 0.000000 0.053354 0.000000 0.000000
# 5 0.000000 0.000000 0.000000 0.000000 0.120210 0.000000
# 6 0.000000 0.000000 0.000000 0.000000 0.000000 0.049381
#
#
# Mechanical properties :
#
#
# Convention : Reuss Voigt Hill
#
# Bulk Modulus (GPa) = 45.82869 60.56846 53.19858
# Shear Modulus (GPa) = 17.33703 26.49662 21.91682
#
# Velocity S-wave (km/s) = 2.92512 3.61620 3.28886
# Velocity P-wave (km/s) = 5.83320 6.87955 6.37787
#
# Compressibility (1/GPa) = 0.02182039
#
# Stress axis : x y z
#
# Youngs Moduli (GPa) = 85.96446 166.22235 44.73817
#
# Poissons Ratio (x) = 0.38201 0.27496
# Poissons Ratio (y) = 0.19756 0.02891
# Poissons Ratio (z) = 0.52833 0.10741
#
# Static dielectric constant tensor:
#      x y z
#    x 3.360730 0.000000 0.000000 
#    y 0.000000 4.385840 0.000000 
#    z 0.000000 0.000000 3.477780 
# 
# 
# High freq. dielectric constant tensor:
#      x y z
#    x 1.756770 0.000000 0.000000 
#    y 0.000000 1.825130 0.000000 
#    z 0.000000 0.000000 1.764000 
# 
# From -- ./inp_files/8904.got.cif
#   From: 2010.03.12/outbox.cif.g09.slc.cpg/sg50_5_cif.got.tgz:8904.got - 2010.04.16 13:23:21.
