data_PCOD8205191
_publ_section_title
;
Structure prediction by ZEFSAII (Michael W. Deem and Ramdas Pophale) SiO2 
 PCOD8205191
Probable space group: P B A N
;
_chemical_formula_sum "Si O2"
_cell_formula_units_Z 36
_cell_length_a 13.272948
_cell_length_b 26.390075
_cell_length_c 5.303839
_cell_angle_alpha 90.000000
_cell_angle_beta 90.000000
_cell_angle_gamma 90.000000
_cell_volume 1857.797396
_symmetry_space_group_name_H-M "P B A N"
_symmetry_group_IT_number 50
_space_group.IT_coordinate_system_code '2'
_symmetry_cell_setting 'orthorhombic'
loop_
_space_group_symop_operation_xyz
x,y,z
1/2-x,1/2-y,z
x,1/2-y,-z
1/2-x,y,-z
-x,-y,-z
1/2+x,1/2+y,-z
-x,1/2+y,z
1/2+x,-y,z
loop_
_atom_site_type_symbol
_atom_site_label
_atom_site_fract_x
_atom_site_fract_y
_atom_site_fract_z
Si Si1 0.651010 0.117324 0.139534
Si Si2 0.854928 0.556753 0.580877
Si Si3 0.750000 0.460317 0.500000
Si Si4 0.364305 0.771330 0.747388
Si Si5 0.474830 0.442380 0.063945
O O1 0.617418 0.168433 0.278024
O O2 0.677550 0.072623 0.328764
O O3 0.750000 0.136034 0.000000
O O4 0.571297 0.094726 0.940634
O O5 0.750000 0.584697 0.500000
O O6 0.827891 0.497542 0.647572
O O7 0.929649 0.561644 0.343212
O O8 0.901814 0.578809 0.838619
O O9 0.250000 0.750000 0.745482
O O10 0.420437 0.750000 0.500000
O O11 0.417682 0.750000 0.000000
O O12 0.500000 0.500000 0.000000
#
# Coordination Sequence:
#
# PCOD8205191 Si02
#       5
#     8   8   4   8   8
#     4  12  24  34  59  84 117 162 200 231 298 361
#     4  10  23  39  55  74 115 156 194 250 290 322
#     4  10  22  34  57  74 114 162 197 230 298 336
#     4  10  20  38  53  74 112 154 183 239 280 335
#     4  12  22  37  55  83 115 151 203 248 277 350
#
# _framework density 19.377783999999998
#
# number of rings (size 3 to 8) (size 9 to 14) (size 15 to 20)
#    0.667    0.444    4.444    4.000    3.111    0.000 
#    0.000    0.000    0.000    0.000    0.000    0.000 
#    0.000   13.333    0.000    0.000    0.000    0.000 
#
# Total GULP energy -445984.846703 kJ/mol
# GULP energy per Si atom -12388.467964 kJ/mol
# Density = 1.933368 g / cm^3
# Si number density = 19.377784 Si / 1000 Ang^3
#
#
#
# Elastic Constant Matrix: (Units=GPa)
#
#
# Indices 1 2 3 4 5 6 
#
# 1 68.1468 29.4450 20.2832 0.0000 0.0000 0.0000
# 2 29.4450 95.0949 25.2666 0.0000 0.0000 0.0000
# 3 20.2832 25.2666 111.9206 0.0000 0.0000 0.0000
# 4 0.0000 0.0000 0.0000 27.8991 0.0000 0.0000
# 5 0.0000 0.0000 0.0000 0.0000 23.1712 0.0000
# 6 0.0000 0.0000 0.0000 0.0000 0.0000 6.0722
#
#
#
# Elastic Compliance Matrix: (Units=1/GPa)
#
#
# Indices 1 2 3 4 5 6 
#
# 1 0.017375 -0.004833 -0.002058 0.000000 0.000000 0.000000
# 2 -0.004833 0.012531 -0.001953 0.000000 0.000000 0.000000
# 3 -0.002058 -0.001953 0.009749 0.000000 0.000000 0.000000
# 4 0.000000 0.000000 0.000000 0.035843 0.000000 0.000000
# 5 0.000000 0.000000 0.000000 0.000000 0.043157 0.000000
# 6 0.000000 0.000000 0.000000 0.000000 0.000000 0.164684
#
#
# Mechanical properties :
#
#
# Convention : Reuss Voigt Hill
#
# Bulk Modulus (GPa) = 45.52288 47.23910 46.38099
# Shear Modulus (GPa) = 16.21535 24.77300 20.49417
#
# Velocity S-wave (km/s) = 2.89589 3.57938 3.25562
# Velocity P-wave (km/s) = 5.89278 6.44310 6.17407
#
# Compressibility (1/GPa) = 0.02196698
#
# Stress axis : x y z
#
# Youngs Moduli (GPa) = 57.55388 79.80017 102.57732
#
# Poissons Ratio (x) = 0.38569 0.21108
# Poissons Ratio (y) = 0.27817 0.20034
# Poissons Ratio (z) = 0.11843 0.15586
#
# Static dielectric constant tensor:
#      x y z
#    x 3.458960 0.000000 0.000000 
#    y 0.000000 3.222450 0.000000 
#    z 0.000000 0.000000 4.206810 
# 
# 
# High freq. dielectric constant tensor:
#      x y z
#    x 1.720930 0.000000 0.000000 
#    y 0.000000 1.720180 0.000000 
#    z 0.000000 0.000000 1.773420 
# 
# From -- ./inp_files/3235.got.cif
#   From: 2010.03.12/outbox.cif.g09.slc.cpg/sg50_2_cif.got.tgz:3235.got - 2010.04.16 13:23:21.
