data_PCOD8205803
_publ_section_title
;
Structure prediction by ZEFSAII (Michael W. Deem and Ramdas Pophale) SiO2 
 PCOD8205803
Probable space group: P B A N
;
_chemical_formula_sum "Si O2"
_cell_formula_units_Z 40
_cell_length_a 17.877490
_cell_length_b 11.536709
_cell_length_c 9.016318
_cell_angle_alpha 90.000000
_cell_angle_beta 90.000000
_cell_angle_gamma 90.000000
_cell_volume 1859.592143
_symmetry_space_group_name_H-M "P B A N"
_symmetry_group_IT_number 50
_space_group.IT_coordinate_system_code '2'
_symmetry_cell_setting 'orthorhombic'
loop_
_space_group_symop_operation_xyz
x,y,z
1/2-x,1/2-y,z
x,1/2-y,-z
1/2-x,y,-z
-x,-y,-z
1/2+x,1/2+y,-z
-x,1/2+y,z
1/2+x,-y,z
loop_
_atom_site_type_symbol
_atom_site_label
_atom_site_fract_x
_atom_site_fract_y
_atom_site_fract_z
Si Si1 0.828471 0.212380 0.831443
Si Si2 0.855319 0.927252 0.387241
Si Si3 0.389087 0.181069 0.688523
Si Si4 0.944461 0.339025 0.635157
Si Si5 0.218950 0.036118 0.165005
O O1 0.750000 0.250000 0.754846
O O2 0.898563 0.276915 0.762981
O O3 0.834095 0.075042 0.809222
O O4 0.826696 0.250000 0.000000
O O5 0.897050 0.820239 0.306512
O O6 0.840902 0.875236 0.551712
O O7 0.782638 0.960582 0.291834
O O8 0.907661 0.038823 0.406841
O O9 0.472659 0.130672 0.692808
O O10 0.338057 0.144600 0.828157
O O11 0.948851 0.250000 0.500000
O O12 0.250000 0.031194 0.000000
#
# Coordination Sequence:
#
# PCOD8205803 Si02
#       5
#     8   8   8   8   8
#     4  11  22  46  69 101 138 172 224 284 339 394
#     4  11  23  45  66  97 137 177 225 278 335 405
#     4  11  26  42  65 100 141 178 218 284 343 403
#     4  12  24  43  71 103 134 178 228 278 344 404
#     4  12  24  45  72  98 134 182 232 279 334 413
#
# _framework density 21.510092
#
# number of rings (size 3 to 8) (size 9 to 14) (size 15 to 20)
#    0.000    0.600    6.000    3.000    2.800    3.600 
#    3.600    2.000    0.000    0.000    0.000    0.000 
#    0.000    0.000    0.000    0.000    0.000    0.000 
#
# Total GULP energy -495723.601869 kJ/mol
# GULP energy per Si atom -12393.090047 kJ/mol
# Density = 2.146113 g / cm^3
# Si number density = 21.510092 Si / 1000 Ang^3
#
#
#
# Elastic Constant Matrix: (Units=GPa)
#
#
# Indices 1 2 3 4 5 6 
#
# 1 113.1664 46.6752 47.0940 0.0000 0.0000 0.0000
# 2 46.6752 144.9070 24.2820 0.0000 0.0000 0.0000
# 3 47.0940 24.2820 57.5787 0.0000 0.0000 0.0000
# 4 0.0000 0.0000 0.0000 33.5699 0.0000 0.0000
# 5 0.0000 0.0000 0.0000 0.0000 13.6071 0.0000
# 6 0.0000 0.0000 0.0000 0.0000 0.0000 32.3222
#
#
#
# Elastic Compliance Matrix: (Units=1/GPa)
#
#
# Indices 1 2 3 4 5 6 
#
# 1 0.014428 -0.002873 -0.010589 0.000000 0.000000 0.000000
# 2 -0.002873 0.007998 -0.001023 0.000000 0.000000 0.000000
# 3 -0.010589 -0.001023 0.026460 0.000000 0.000000 0.000000
# 4 0.000000 0.000000 0.000000 0.029789 0.000000 0.000000
# 5 0.000000 0.000000 0.000000 0.000000 0.073491 0.000000
# 6 0.000000 0.000000 0.000000 0.000000 0.000000 0.030939
#
#
# Mechanical properties :
#
#
# Convention : Reuss Voigt Hill
#
# Bulk Modulus (GPa) = 50.21229 61.30606 55.75918
# Shear Modulus (GPa) = 22.86094 29.07321 25.96708
#
# Velocity S-wave (km/s) = 3.26360 3.68041 3.47825
# Velocity P-wave (km/s) = 6.13153 6.82814 6.48919
#
# Compressibility (1/GPa) = 0.01991544
#
# Stress axis : x y z
#
# Youngs Moduli (GPa) = 69.30852 125.03450 37.79275
#
# Poissons Ratio (x) = 0.35922 0.40020
# Poissons Ratio (y) = 0.19912 0.03866
# Poissons Ratio (z) = 0.73394 0.12791
#
# Static dielectric constant tensor:
#      x y z
#    x 4.100770 0.000000 0.000000 
#    y 0.000000 4.267240 0.000000 
#    z 0.000000 0.000000 3.843700 
# 
# 
# High freq. dielectric constant tensor:
#      x y z
#    x 1.845710 0.000000 0.000000 
#    y 0.000000 1.869070 0.000000 
#    z 0.000000 0.000000 1.827800 
# 
# From -- ./inp_files/11018.got.cif
#   From: 2010.03.12/outbox.cif.g09.slc.cpg/sg50_6_cif.got.tgz:11018.got - 2010.04.16 13:23:21.
