data_PCOD8205098
_publ_section_title
;
Structure prediction by ZEFSAII (Michael W. Deem and Ramdas Pophale) SiO2 
 PCOD8205098
Probable space group: P B A N
;
_chemical_formula_sum "Si O2"
_cell_formula_units_Z 52
_cell_length_a 23.593214
_cell_length_b 15.004019
_cell_length_c 7.611636
_cell_angle_alpha 90.000000
_cell_angle_beta 90.000000
_cell_angle_gamma 90.000000
_cell_volume 2694.466099
_symmetry_space_group_name_H-M "P B A N"
_symmetry_group_IT_number 50
_space_group.IT_coordinate_system_code '2'
_symmetry_cell_setting 'orthorhombic'
loop_
_space_group_symop_operation_xyz
x,y,z
1/2-x,1/2-y,z
x,1/2-y,-z
1/2-x,y,-z
-x,-y,-z
1/2+x,1/2+y,-z
-x,1/2+y,z
1/2+x,-y,z
loop_
_atom_site_type_symbol
_atom_site_label
_atom_site_fract_x
_atom_site_fract_y
_atom_site_fract_z
Si Si1 0.873144 0.474803 0.953069
Si Si2 0.492676 0.667083 0.234117
Si Si3 0.468855 0.641873 0.847413
Si Si4 0.750000 0.976738 0.000000
Si Si5 0.272876 0.153630 0.317255
Si Si6 0.894418 0.603354 0.634219
Si Si7 0.939034 0.514873 0.289599
O O1 0.904695 0.381789 0.909321
O O2 0.806355 0.461283 0.997051
O O3 0.884988 0.529789 0.780191
O O4 0.901266 0.526163 0.116374
O O5 0.465536 0.765350 0.260211
O O6 0.552820 0.667753 0.330716
O O7 0.453280 0.589882 0.319384
O O8 0.504276 0.650273 0.027810
O O9 0.500634 0.566525 0.731427
O O10 0.747041 0.914762 0.830005
O O11 0.250000 0.250000 0.264680
O O12 0.250000 0.115761 0.500000
O O13 0.339699 0.165826 0.352257
O O14 0.902425 0.553031 0.449200
#
# Coordination Sequence:
#
# PCOD8205098 Si02
#       7
#     8   8   8   4   8   8   8
#     4  10  20  38  55  80 112 148 191 236 279 336
#     4  10  20  35  54  87 111 149 189 225 287 347
#     4  10  20  35  57  79 118 150 181 235 288 336
#     4  10  21  36  60  77 102 156 194 228 288 326
#     4  10  22  38  51  79 115 147 192 235 269 333
#     4  11  21  35  58  81 113 151 190 225 279 347
#     4  11  20  37  58  80 119 150 180 237 286 335
#
# _framework density 19.298814
#
# number of rings (size 3 to 8) (size 9 to 14) (size 15 to 20)
#    0.000    1.692    3.077    2.538    0.000    4.308 
#    2.769    0.000    0.000    7.385    0.000    0.000 
#    0.000   11.077    0.000    0.000    0.000    0.000 
#
# Total GULP energy -644520.067904 kJ/mol
# GULP energy per Si atom -12394.616690 kJ/mol
# Density = 1.925489 g / cm^3
# Si number density = 19.298814 Si / 1000 Ang^3
#
#
#
# Elastic Constant Matrix: (Units=GPa)
#
#
# Indices 1 2 3 4 5 6 
#
# 1 133.1276 58.9946 38.5634 0.0000 0.0000 0.0000
# 2 58.9946 116.8939 30.8790 0.0000 0.0000 0.0000
# 3 38.5634 30.8790 80.9198 0.0000 0.0000 0.0000
# 4 0.0000 0.0000 0.0000 11.3079 0.0000 0.0000
# 5 0.0000 0.0000 0.0000 0.0000 25.3585 0.0000
# 6 0.0000 0.0000 0.0000 0.0000 0.0000 20.6867
#
#
#
# Elastic Compliance Matrix: (Units=1/GPa)
#
#
# Indices 1 2 3 4 5 6 
#
# 1 0.010406 -0.004384 -0.003286 0.000000 0.000000 0.000000
# 2 -0.004384 0.011360 -0.002246 0.000000 0.000000 0.000000
# 3 -0.003286 -0.002246 0.014781 0.000000 0.000000 0.000000
# 4 0.000000 0.000000 0.000000 0.088434 0.000000 0.000000
# 5 0.000000 0.000000 0.000000 0.000000 0.039434 0.000000
# 6 0.000000 0.000000 0.000000 0.000000 0.000000 0.048340
#
#
# Mechanical properties :
#
#
# Convention : Reuss Voigt Hill
#
# Bulk Modulus (GPa) = 59.82447 65.31281 62.56864
# Shear Modulus (GPa) = 20.99425 24.97091 22.98258
#
# Velocity S-wave (km/s) = 3.30184 3.60100 3.45466
# Velocity P-wave (km/s) = 6.75296 7.15583 6.95732
#
# Compressibility (1/GPa) = 0.01671557
#
# Stress axis : x y z
#
# Youngs Moduli (GPa) = 96.09688 88.02444 67.65364
#
# Poissons Ratio (x) = 0.38587 0.22233
# Poissons Ratio (y) = 0.42126 0.15195
# Poissons Ratio (z) = 0.31581 0.19771
#
# Static dielectric constant tensor:
#      x y z
#    x 3.840870 0.000000 0.000000 
#    y 0.000000 3.444230 0.000000 
#    z 0.000000 0.000000 3.644390 
# 
# 
# High freq. dielectric constant tensor:
#      x y z
#    x 1.742270 0.000000 0.000000 
#    y 0.000000 1.730160 0.000000 
#    z 0.000000 0.000000 1.765700 
# 
# From -- ./inp_files/16081.got.cif
#   From: 2010.03.12/outbox.cif.g09.slc.cpg/sg50_9_cif.got.tgz:16081.got - 2010.04.16 13:23:21.
