data_PCOD8205926
_publ_section_title
;
Structure prediction by ZEFSAII (Michael W. Deem and Ramdas Pophale) SiO2 
 PCOD8205926
Probable space group: P M M A
;
_chemical_formula_sum "Si O2"
_cell_formula_units_Z 48
_cell_length_a 8.555394
_cell_length_b 31.557057
_cell_length_c 9.055914
_cell_angle_alpha 90.000000
_cell_angle_beta 90.000000
_cell_angle_gamma 90.000000
_cell_volume 2444.943338
_symmetry_space_group_name_H-M "P M M A"
_symmetry_group_IT_number 51
_symmetry_cell_setting 'orthorhombic'
loop_
_space_group_symop_operation_xyz
x,y,z
1/2-x,-y,z
1/2+x,-y,-z
-x,y,-z
-x,-y,-z
1/2+x,y,-z
1/2-x,y,z
x,-y,z
loop_
_atom_site_type_symbol
_atom_site_label
_atom_site_fract_x
_atom_site_fract_y
_atom_site_fract_z
Si Si1 0.565060 0.085269 0.834533
Si Si2 0.934264 0.418420 0.162658
Si Si3 0.565018 0.000000 0.165389
Si Si4 0.935132 0.829591 0.164781
Si Si5 0.564478 0.664648 0.337951
Si Si6 0.064423 0.500000 0.663199
Si Si7 0.434594 0.257057 0.163263
O O1 0.750000 0.084133 0.834824
O O2 0.503653 0.128243 0.754004
O O3 0.498832 0.042750 0.754423
O O4 0.500000 0.086033 0.000000
O O5 0.750000 0.420957 0.153913
O O6 0.988598 0.375592 0.242287
O O7 0.000353 0.458588 0.252652
O O8 0.000000 0.419163 0.000000
O O9 0.750000 0.000000 0.165297
O O10 0.500000 0.000000 0.000000
O O11 0.750000 0.831579 0.166630
O O12 0.995710 0.785966 0.237447
O O13 0.000000 0.828627 0.000000
O O14 0.500000 0.656900 0.500000
O O15 0.750000 0.670879 0.339207
O O16 0.482336 0.705501 0.270720
O O17 0.250000 0.500000 0.657077
O O18 0.000000 0.500000 0.500000
O O19 0.250000 0.252916 0.152187
O O20 0.500000 0.265861 0.000000
#
# Coordination Sequence:
#
# PCOD8205926 Si02
#       7
#     8   8   4   8   8   4   8
#     4  10  16  23  33  49  74 108 150 197 247 302
#     4  10  22  38  59  85 115 147 187 229 272 321
#     4  10  16  22  30  44  68 104 149 196 245 300
#     4  10  17  27  42  62  87 118 157 204 253 307
#     4  11  23  39  57  81 109 142 179 221 270 325
#     4  10  21  38  58  86 118 152 189 230 274 324
#     4  11  21  35  54  77 103 135 173 218 265 318
#
# _framework density 19.632356999999999
#
# number of rings (size 3 to 8) (size 9 to 14) (size 15 to 20)
#    0.000    1.667    0.000   10.000    0.000    3.333 
#    0.000    0.000    0.000    0.000    0.000    0.000 
#    0.000    0.000    0.000    0.750    0.000   11.333 
#
# Total GULP energy -595077.175004 kJ/mol
# GULP energy per Si atom -12397.441146 kJ/mol
# Density = 1.958767 g / cm^3
# Si number density = 19.632357 Si / 1000 Ang^3
#
#
#
# Elastic Constant Matrix: (Units=GPa)
#
#
# Indices 1 2 3 4 5 6 
#
# 1 148.6764 64.8034 26.3961 0.0000 0.0000 0.0000
# 2 64.8034 210.7134 58.4658 0.0000 0.0000 0.0000
# 3 26.3961 58.4658 87.8355 0.0000 0.0000 0.0000
# 4 0.0000 0.0000 0.0000 3.0602 0.0000 0.0000
# 5 0.0000 0.0000 0.0000 0.0000 23.5361 0.0000
# 6 0.0000 0.0000 0.0000 0.0000 0.0000 23.8613
#
#
#
# Elastic Compliance Matrix: (Units=1/GPa)
#
#
# Indices 1 2 3 4 5 6 
#
# 1 0.007827 -0.002152 -0.000920 0.000000 0.000000 0.000000
# 2 -0.002152 0.006412 -0.003622 0.000000 0.000000 0.000000
# 3 -0.000920 -0.003622 0.014072 0.000000 0.000000 0.000000
# 4 0.000000 0.000000 0.000000 0.326781 0.000000 0.000000
# 5 0.000000 0.000000 0.000000 0.000000 0.042488 0.000000
# 6 0.000000 0.000000 0.000000 0.000000 0.000000 0.041909
#
#
# Mechanical properties :
#
#
# Convention : Reuss Voigt Hill
#
# Bulk Modulus (GPa) = 67.00204 82.95065 74.97634
# Shear Modulus (GPa) = 10.92057 29.92885 20.42471
#
# Velocity S-wave (km/s) = 2.36106 3.90868 3.22896
# Velocity P-wave (km/s) = 6.45254 7.91922 7.22320
#
# Compressibility (1/GPa) = 0.01492492
#
# Stress axis : x y z
#
# Youngs Moduli (GPa) = 127.75765 155.94549 71.06322
#
# Poissons Ratio (x) = 0.33560 0.06536
# Poissons Ratio (y) = 0.27494 0.25736
# Poissons Ratio (z) = 0.11751 0.56477
#
# Static dielectric constant tensor:
#      x y z
#    x 3.616970 0.000000 0.000000 
#    y 0.000000 5.382960 0.000000 
#    z 0.000000 0.000000 3.094830 
# 
# 
# High freq. dielectric constant tensor:
#      x y z
#    x 1.778580 0.000000 0.000000 
#    y 0.000000 1.804010 0.000000 
#    z 0.000000 0.000000 1.702900 
# 
# From -- ./inp_files/6130.got.cif
#   From: 2010.03.12/outbox.cif.g09.slc.cpg/sg51_4_cif.got.tgz:6130.got - 2010.04.16 13:43:02.
