data_PCOD8205012
_publ_section_title
;
Structure prediction by ZEFSAII (Michael W. Deem and Ramdas Pophale) SiO2 
 PCOD8205012
Probable space group: P B A N
;
_chemical_formula_sum "Si O2"
_cell_formula_units_Z 48
_cell_length_a 14.435222
_cell_length_b 8.614371
_cell_length_c 18.038876
_cell_angle_alpha 90.000000
_cell_angle_beta 90.000000
_cell_angle_gamma 90.000000
_cell_volume 2243.140684
_symmetry_space_group_name_H-M "P B A N"
_symmetry_group_IT_number 50
_space_group.IT_coordinate_system_code '2'
_symmetry_cell_setting 'orthorhombic'
loop_
_space_group_symop_operation_xyz
x,y,z
1/2-x,1/2-y,z
x,1/2-y,-z
1/2-x,y,-z
-x,-y,-z
1/2+x,1/2+y,-z
-x,1/2+y,z
1/2+x,-y,z
loop_
_atom_site_type_symbol
_atom_site_label
_atom_site_fract_x
_atom_site_fract_y
_atom_site_fract_z
Si Si1 0.735388 0.572698 0.586677
Si Si2 0.615220 0.965089 0.157085
Si Si3 0.884274 0.419617 0.684932
Si Si4 0.469150 0.765384 0.085994
Si Si5 0.078405 0.943813 0.321380
Si Si6 0.196644 0.909592 0.840804
O O1 0.750000 0.750000 0.611825
O O2 0.750000 0.552573 0.500000
O O3 0.804969 0.455718 0.626602
O O4 0.632922 0.519030 0.609784
O O5 0.564122 0.811141 0.128192
O O6 0.557895 0.102788 0.120207
O O7 0.611976 0.974343 0.245822
O O8 0.723957 0.968715 0.132425
O O9 0.907639 0.239049 0.683477
O O10 0.852175 0.470065 0.766673
O O11 0.971457 0.523826 0.663191
O O12 0.383289 0.886198 0.097302
O O13 0.490973 0.750000 0.000000
O O14 0.250000 0.750000 0.822150
#
# Coordination Sequence:
#
# PCOD8205012 Si02
#       6
#     8   8   8   8   8   8
#     4  11  26  46  68 100 138 176 225 285 345 407
#     4  11  21  40  65  94 130 177 226 272 336 406
#     4  12  22  41  68  99 136 173 232 278 339 414
#     4  11  23  40  64  95 134 174 220 280 339 400
#     4  12  22  40  70  99 133 181 229 279 341 410
#     4  10  19  37  63  92 126 175 224 271 333 405
#
# _framework density 21.398567
#
# number of rings (size 3 to 8) (size 9 to 14) (size 15 to 20)
#    0.000    0.833    6.667    2.000    0.000    5.000 
#    0.000    0.833    0.000    1.000    0.000    0.000 
#    0.000    0.000    0.000    0.000    0.000    0.000 
#
# Total GULP energy -595349.363736 kJ/mol
# GULP energy per Si atom -12403.111744 kJ/mol
# Density = 2.134986 g / cm^3
# Si number density = 21.398567 Si / 1000 Ang^3
#
#
#
# Elastic Constant Matrix: (Units=GPa)
#
#
# Indices 1 2 3 4 5 6 
#
# 1 128.2398 33.4507 30.4079 0.0000 0.0000 0.0000
# 2 33.4507 61.8248 35.8928 0.0000 0.0000 0.0000
# 3 30.4079 35.8928 108.2181 0.0000 0.0000 0.0000
# 4 0.0000 0.0000 0.0000 26.6103 0.0000 0.0000
# 5 0.0000 0.0000 0.0000 0.0000 33.6970 0.0000
# 6 0.0000 0.0000 0.0000 0.0000 0.0000 27.0460
#
#
#
# Elastic Compliance Matrix: (Units=1/GPa)
#
#
# Indices 1 2 3 4 5 6 
#
# 1 0.009195 -0.004304 -0.001156 0.000000 0.000000 0.000000
# 2 -0.004304 0.022046 -0.006103 0.000000 0.000000 0.000000
# 3 -0.001156 -0.006103 0.011590 0.000000 0.000000 0.000000
# 4 0.000000 0.000000 0.000000 0.037579 0.000000 0.000000
# 5 0.000000 0.000000 0.000000 0.000000 0.029676 0.000000
# 6 0.000000 0.000000 0.000000 0.000000 0.000000 0.036974
#
#
# Mechanical properties :
#
#
# Convention : Reuss Voigt Hill
#
# Bulk Modulus (GPa) = 50.74792 55.30950 53.02871
# Shear Modulus (GPa) = 28.28792 30.70607 29.49700
#
# Velocity S-wave (km/s) = 3.63981 3.79220 3.71679
# Velocity P-wave (km/s) = 6.43672 6.71400 6.57682
#
# Compressibility (1/GPa) = 0.01970524
#
# Stress axis : x y z
#
# Youngs Moduli (GPa) = 108.75935 45.35919 86.28417
#
# Poissons Ratio (x) = 0.19521 0.09976
# Poissons Ratio (y) = 0.46805 0.52658
# Poissons Ratio (z) = 0.12575 0.27682
#
# Static dielectric constant tensor:
#      x y z
#    x 4.358150 0.000000 0.000000 
#    y 0.000000 3.893610 0.000000 
#    z 0.000000 0.000000 3.974890 
# 
# 
# High freq. dielectric constant tensor:
#      x y z
#    x 1.859670 0.000000 0.000000 
#    y 0.000000 1.831870 0.000000 
#    z 0.000000 0.000000 1.825470 
# 
# From -- ./inp_files/28708.got.cif
#   From: 2010.03.12/outbox.cif.g09.slc.cpg/sg50_15_cif.got.tgz:28708.got - 2010.04.16 13:23:21.
