data_PCOD8205399
_publ_section_title
;
Structure prediction by ZEFSAII (Michael W. Deem and Ramdas Pophale) SiO2 
 PCOD8205399
Probable space group: P B A N
;
_chemical_formula_sum "Si O2"
_cell_formula_units_Z 34
_cell_length_a 23.508059
_cell_length_b 8.982066
_cell_length_c 7.389967
_cell_angle_alpha 90.000000
_cell_angle_beta 90.000000
_cell_angle_gamma 90.000000
_cell_volume 1560.398460
_symmetry_space_group_name_H-M "P B A N"
_symmetry_group_IT_number 50
_space_group.IT_coordinate_system_code '2'
_symmetry_cell_setting 'orthorhombic'
loop_
_space_group_symop_operation_xyz
x,y,z
1/2-x,1/2-y,z
x,1/2-y,-z
1/2-x,y,-z
-x,-y,-z
1/2+x,1/2+y,-z
-x,1/2+y,z
1/2+x,-y,z
loop_
_atom_site_type_symbol
_atom_site_label
_atom_site_fract_x
_atom_site_fract_y
_atom_site_fract_z
Si Si1 0.577550 0.001477 0.124452
Si Si2 0.000293 0.750000 0.000000
Si Si3 0.750000 0.750000 0.231867
Si Si4 0.826239 0.005768 0.167275
Si Si5 0.250000 0.750000 0.000000
Si Si6 0.652141 0.594775 0.557194
O O1 0.615586 0.001205 0.303341
O O2 0.539148 0.149259 0.131463
O O3 0.538392 0.855013 0.125263
O O4 0.615580 0.004538 0.944093
O O5 0.708814 0.644269 0.111757
O O6 0.712719 0.861600 0.355150
O O7 0.789863 0.152002 0.127957
O O8 0.839182 0.006611 0.380748
O O9 0.621171 0.750000 0.500000
#
# Coordination Sequence:
#
# PCOD8205399 Si02
#       6
#     8   4   4   8   2   8
#     4  11  23  43  65  90 124 164 214 269 320 373
#     4  10  23  44  66  88 122 164 215 278 330 368
#     4  10  21  39  66  93 123 170 217 247 292 379
#     4  11  23  42  64  96 133 170 210 251 311 382
#     4  12  26  38  62 104 144 172 190 244 330 380
#     4  10  21  39  65  96 124 164 215 258 303 376
#
# _framework density 21.789307000000001
#
# number of rings (size 3 to 8) (size 9 to 14) (size 15 to 20)
#    0.000    1.412    0.000    8.118    0.000    5.176 
#    0.000   30.588    0.000    0.000    0.000    0.000 
#    0.000    0.000    0.000    0.000    0.000    0.000 
#
# Total GULP energy -421613.314492 kJ/mol
# GULP energy per Si atom -12400.391603 kJ/mol
# Density = 2.173971 g / cm^3
# Si number density = 21.789307 Si / 1000 Ang^3
#
#
#
# Elastic Constant Matrix: (Units=GPa)
#
#
# Indices 1 2 3 4 5 6 
#
# 1 135.4929 67.9457 64.2769 0.0000 0.0000 0.0000
# 2 67.9457 138.8984 61.9687 0.0000 0.0000 0.0000
# 3 64.2769 61.9687 136.4652 0.0000 0.0000 0.0000
# 4 0.0000 0.0000 0.0000 25.3568 0.0000 0.0000
# 5 0.0000 0.0000 0.0000 0.0000 14.2388 0.0000
# 6 0.0000 0.0000 0.0000 0.0000 0.0000 24.1632
#
#
#
# Elastic Compliance Matrix: (Units=1/GPa)
#
#
# Indices 1 2 3 4 5 6 
#
# 1 0.010910 -0.003818 -0.003405 0.000000 0.000000 0.000000
# 2 -0.003818 0.010365 -0.002908 0.000000 0.000000 0.000000
# 3 -0.003405 -0.002908 0.010252 0.000000 0.000000 0.000000
# 4 0.000000 0.000000 0.000000 0.039437 0.000000 0.000000
# 5 0.000000 0.000000 0.000000 0.000000 0.070230 0.000000
# 6 0.000000 0.000000 0.000000 0.000000 0.000000 0.041385
#
#
# Mechanical properties :
#
#
# Convention : Reuss Voigt Hill
#
# Bulk Modulus (GPa) = 88.77330 88.80433 88.78882
# Shear Modulus (GPa) = 24.20157 27.19611 25.69884
#
# Velocity S-wave (km/s) = 3.33634 3.53674 3.43800
# Velocity P-wave (km/s) = 7.46135 7.58435 7.52310
#
# Compressibility (1/GPa) = 0.01126465
#
# Stress axis : x y z
#
# Youngs Moduli (GPa) = 91.65519 96.48182 97.53757
#
# Poissons Ratio (x) = 0.36836 0.33214
# Poissons Ratio (y) = 0.34993 0.28367
# Poissons Ratio (z) = 0.31211 0.28060
#
# Static dielectric constant tensor:
#      x y z
#    x 4.109660 0.000000 0.000000 
#    y 0.000000 4.040050 0.000000 
#    z 0.000000 0.000000 3.813980 
# 
# 
# High freq. dielectric constant tensor:
#      x y z
#    x 1.862570 0.000000 0.000000 
#    y 0.000000 1.857270 0.000000 
#    z 0.000000 0.000000 1.850080 
# 
# From -- ./inp_files/14971.got.cif
#   From: 2010.03.12/outbox.cif.g09.slc.cpg/sg50_8_cif.got.tgz:14971.got - 2010.04.16 13:23:21.
