data_PCOD8205757
_publ_section_title
;
Structure prediction by ZEFSAII (Michael W. Deem and Ramdas Pophale) SiO2 
 PCOD8205757
Probable space group: P B A N
;
_chemical_formula_sum "Si O2"
_cell_formula_units_Z 24
_cell_length_a 9.841763
_cell_length_b 14.088424
_cell_length_c 8.300834
_cell_angle_alpha 90.000000
_cell_angle_beta 90.000000
_cell_angle_gamma 90.000000
_cell_volume 1150.951558
_symmetry_space_group_name_H-M "P B A N"
_symmetry_group_IT_number 50
_space_group.IT_coordinate_system_code '2'
_symmetry_cell_setting 'orthorhombic'
loop_
_space_group_symop_operation_xyz
x,y,z
1/2-x,1/2-y,z
x,1/2-y,-z
1/2-x,y,-z
-x,-y,-z
1/2+x,1/2+y,-z
-x,1/2+y,z
1/2+x,-y,z
loop_
_atom_site_type_symbol
_atom_site_label
_atom_site_fract_x
_atom_site_fract_y
_atom_site_fract_z
Si Si1 0.810783 0.118243 0.822551
Si Si2 0.616611 0.546927 0.607860
Si Si3 0.436614 0.711541 0.676141
O O1 0.689379 0.141575 0.701377
O O2 0.927917 0.200543 0.804642
O O3 0.865602 0.016625 0.767773
O O4 0.750000 0.114376 0.000000
O O5 0.750000 0.560896 0.500000
O O6 0.500000 0.500000 0.500000
O O7 0.574558 0.649627 0.681715
O O8 0.419058 0.750000 0.500000
#
# Coordination Sequence:
#
# PCOD8205757 Si02
#       3
#     8   8   8
#     4  11  23  42  67  99 136 187 226 282 357 431
#     4  12  23  43  68 100 135 181 237 289 340 415
#     4  11  21  40  68  92 133 180 240 272 338 420
#
# _framework density 20.852309999999999
#
# number of rings (size 3 to 8) (size 9 to 14) (size 15 to 20)
#    0.000    0.667    6.667    4.000    0.000    2.000 
#    0.000    0.000    0.000    0.000    0.000    0.000 
#    0.000    0.000    0.000    0.000    0.000    0.000 
#
# Total GULP energy -297421.301394 kJ/mol
# GULP energy per Si atom -12392.554225 kJ/mol
# Density = 2.080485 g / cm^3
# Si number density = 20.852310 Si / 1000 Ang^3
#
#
#
# Elastic Constant Matrix: (Units=GPa)
#
#
# Indices 1 2 3 4 5 6 
#
# 1 110.7713 85.3613 45.2232 0.0000 0.0000 0.0000
# 2 85.3613 125.0676 108.1597 0.0000 0.0000 0.0000
# 3 45.2232 108.1597 140.4220 0.0000 0.0000 0.0000
# 4 0.0000 0.0000 0.0000 36.4415 0.0000 0.0000
# 5 0.0000 0.0000 0.0000 0.0000 15.1624 0.0000
# 6 0.0000 0.0000 0.0000 0.0000 0.0000 36.4197
#
#
#
# Elastic Compliance Matrix: (Units=1/GPa)
#
#
# Indices 1 2 3 4 5 6 
#
# 1 0.028517 -0.034507 0.017395 0.000000 0.000000 0.000000
# 2 -0.034507 0.065702 -0.039494 0.000000 0.000000 0.000000
# 3 0.017395 -0.039494 0.031939 0.000000 0.000000 0.000000
# 4 0.000000 0.000000 0.000000 0.027441 0.000000 0.000000
# 5 0.000000 0.000000 0.000000 0.000000 0.065952 0.000000
# 6 0.000000 0.000000 0.000000 0.000000 0.000000 0.027458
#
#
# Mechanical properties :
#
#
# Convention : Reuss Voigt Hill
#
# Bulk Modulus (GPa) = 77.23855 94.86103 86.04979
# Shear Modulus (GPa) = 13.71603 26.77249 20.24426
#
# Velocity S-wave (km/s) = 2.56749 3.58706 3.11921
# Velocity P-wave (km/s) = 6.77573 7.92127 7.37079
#
# Compressibility (1/GPa) = 0.01294690
#
# Stress axis : x y z
#
# Youngs Moduli (GPa) = 35.06640 15.22028 31.30943
#
# Poissons Ratio (x) = 0.52520 -0.54462
# Poissons Ratio (y) = 1.21003 1.23652
# Poissons Ratio (z) = -0.60997 0.60110
#
# Static dielectric constant tensor:
#      x y z
#    x 3.922370 0.000000 0.000000 
#    y 0.000000 5.480110 0.000000 
#    z 0.000000 0.000000 3.594480 
# 
# 
# High freq. dielectric constant tensor:
#      x y z
#    x 1.796550 0.000000 0.000000 
#    y 0.000000 1.830940 0.000000 
#    z 0.000000 0.000000 1.807290 
# 
# From -- ./inp_files/8472.got.cif
#   From: 2010.03.12/outbox.cif.g09.slc.cpg/sg50_5_cif.got.tgz:8472.got - 2010.04.16 13:23:21.
