data_PCOD8205288
_publ_section_title
;
Structure prediction by ZEFSAII (Michael W. Deem and Ramdas Pophale) SiO2 
 PCOD8205288
Probable space group: P B A N
;
_chemical_formula_sum "Si O2"
_cell_formula_units_Z 26
_cell_length_a 5.153228
_cell_length_b 12.910376
_cell_length_c 16.295884
_cell_angle_alpha 90.000000
_cell_angle_beta 90.000000
_cell_angle_gamma 90.000000
_cell_volume 1084.166973
_symmetry_space_group_name_H-M "P B A N"
_symmetry_group_IT_number 50
_space_group.IT_coordinate_system_code '2'
_symmetry_cell_setting 'orthorhombic'
loop_
_space_group_symop_operation_xyz
x,y,z
1/2-x,1/2-y,z
x,1/2-y,-z
1/2-x,y,-z
-x,-y,-z
1/2+x,1/2+y,-z
-x,1/2+y,z
1/2+x,-y,z
loop_
_atom_site_type_symbol
_atom_site_label
_atom_site_fract_x
_atom_site_fract_y
_atom_site_fract_z
Si Si1 0.001209 0.363413 0.036829
Si Si2 0.950036 0.571399 0.607266
Si Si3 0.750000 0.750000 0.500000
Si Si4 0.527570 0.435506 0.789513
O O1 0.015241 0.355926 0.135855
O O2 0.000782 0.250000 0.000000
O O3 0.750000 0.422444 0.000000
O O4 0.250000 0.423732 0.000000
O O5 0.698445 0.500316 0.588185
O O6 0.937755 0.676031 0.553793
O O7 0.968676 0.614207 0.700657
O O8 0.326629 0.530416 0.797510
#
# Coordination Sequence:
#
# PCOD8205288 Si02
#       4
#     8   8   2   8
#     4  10  21  35  54  82 116 154 198 251 299 359
#     4  10  24  44  66  98 134 168 218 272 322 398
#     4  12  24  42  76 100 130 178 216 270 348 392
#     4  10  21  39  60  84 120 162 202 255 318 373
#
# _framework density 23.981546999999999
#
# number of rings (size 3 to 8) (size 9 to 14) (size 15 to 20)
#    0.000    1.846    0.000    2.769    0.000    8.615 
#    0.000    6.154    0.000    0.000    0.000    0.000 
#    0.000    0.000    0.000    0.000    0.000    0.000 
#
# Total GULP energy -322120.484344 kJ/mol
# GULP energy per Si atom -12389.249398 kJ/mol
# Density = 2.392696 g / cm^3
# Si number density = 23.981547 Si / 1000 Ang^3
#
#
#
# Elastic Constant Matrix: (Units=GPa)
#
#
# Indices 1 2 3 4 5 6 
#
# 1 187.4529 15.6836 40.1430 0.0000 0.0000 0.0000
# 2 15.6836 112.9154 84.7598 0.0000 0.0000 0.0000
# 3 40.1430 84.7598 214.0272 0.0000 0.0000 0.0000
# 4 0.0000 0.0000 0.0000 50.3766 0.0000 0.0000
# 5 0.0000 0.0000 0.0000 0.0000 30.7139 0.0000
# 6 0.0000 0.0000 0.0000 0.0000 0.0000 -20.7119
#
#
#
# Elastic Compliance Matrix: (Units=1/GPa)
#
#
# Indices 1 2 3 4 5 6 
#
# 1 0.005558 0.000015 -0.001048 0.000000 0.000000 0.000000
# 2 0.000015 0.012603 -0.004994 0.000000 0.000000 0.000000
# 3 -0.001048 -0.004994 0.006847 0.000000 0.000000 0.000000
# 4 0.000000 0.000000 0.000000 0.019850 0.000000 0.000000
# 5 0.000000 0.000000 0.000000 0.000000 0.032559 0.000000
# 6 0.000000 0.000000 0.000000 0.000000 0.000000 -0.048282
#
#
# Mechanical properties :
#
#
# Convention : Reuss Voigt Hill
#
# Bulk Modulus (GPa) = 77.20297 88.39647 82.79972
# Shear Modulus (GPa) = 109.87392 36.99633 73.43512
#
# Velocity S-wave (km/s) = 6.77610 3.93198 5.53967
# Velocity P-wave (km/s) = 9.66867 7.58645 8.69015
#
# Compressibility (1/GPa) = 0.01295287
#
# Stress axis : x y z
#
# Youngs Moduli (GPa) = 179.92314 79.34826 146.05824
#
# Poissons Ratio (x) = -0.00119 0.15312
# Poissons Ratio (y) = -0.00270 0.72938
# Poissons Ratio (z) = 0.18863 0.39625
#
# Static dielectric constant tensor:
#      x y z
#    x 3.899320 0.000000 0.000000 
#    y 0.000000 3.672210 0.000000 
#    z 0.000000 0.000000 4.838670 
# 
# 
# High freq. dielectric constant tensor:
#      x y z
#    x 1.974890 0.000000 0.000000 
#    y 0.000000 1.926380 0.000000 
#    z 0.000000 0.000000 1.973980 
# 
# From -- ./inp_files/23573.got.cif
#   From: 2010.03.12/outbox.cif.g09.slc.cpg/sg50_12_cif.got.tgz:23573.got - 2010.04.16 13:23:21.
