data_PCOD8205552
_publ_section_title
;
Structure prediction by ZEFSAII (Michael W. Deem and Ramdas Pophale) SiO2 
 PCOD8205552
Probable space group: P B A N
;
_chemical_formula_sum "Si O2"
_cell_formula_units_Z 32
_cell_length_a 36.831006
_cell_length_b 5.142560
_cell_length_c 7.260733
_cell_angle_alpha 90.000000
_cell_angle_beta 90.000000
_cell_angle_gamma 90.000000
_cell_volume 1375.223913
_symmetry_space_group_name_H-M "P B A N"
_symmetry_group_IT_number 50
_space_group.IT_coordinate_system_code '2'
_symmetry_cell_setting 'orthorhombic'
loop_
_space_group_symop_operation_xyz
x,y,z
1/2-x,1/2-y,z
x,1/2-y,-z
1/2-x,y,-z
-x,-y,-z
1/2+x,1/2+y,-z
-x,1/2+y,z
1/2+x,-y,z
loop_
_atom_site_type_symbol
_atom_site_label
_atom_site_fract_x
_atom_site_fract_y
_atom_site_fract_z
Si Si1 0.021638 0.271752 0.784221
Si Si2 0.266181 0.499026 0.293602
Si Si3 0.159504 0.994923 0.123916
Si Si4 0.405098 0.014347 0.613440
O O1 0.057921 0.355833 0.683376
O O2 0.991124 0.483348 0.725459
O O3 0.029066 0.250000 0.000000
O O4 0.250000 0.750000 0.189955
O O5 0.250000 0.498732 0.500000
O O6 0.309915 0.488441 0.284217
O O7 0.250000 0.250000 0.187323
O O8 0.120651 0.944500 0.216620
O O9 0.169127 0.750000 0.000000
O O10 0.158454 0.250000 0.000000
O O11 0.386027 0.250000 0.500000
O O12 0.412198 0.750000 0.500000
#
# Coordination Sequence:
#
# PCOD8205552 Si02
#       4
#     8   8   8   8
#     4  10  22  42  69  99 137 181 227 283 342 399
#     4  10  23  41  70  98 132 176 213 285 336 413
#     4  12  27  46  71 101 138 179 231 283 335 410
#     4  12  27  43  70 101 140 187 226 282 341 406
#
# _framework density 23.268940000000001
#
# number of rings (size 3 to 8) (size 9 to 14) (size 15 to 20)
#    0.000    1.000    0.000    5.250    7.000    9.000 
#    0.000    0.000    0.000    0.000    0.000    0.000 
#    0.000    0.000    0.000    0.000    0.000    0.000 
#
# Total GULP energy -396639.372462 kJ/mol
# GULP energy per Si atom -12394.980389 kJ/mol
# Density = 2.321598 g / cm^3
# Si number density = 23.268940 Si / 1000 Ang^3
#
#
#
# Elastic Constant Matrix: (Units=GPa)
#
#
# Indices 1 2 3 4 5 6 
#
# 1 126.1668 32.4286 61.7398 0.0000 0.0000 0.0000
# 2 32.4286 205.2453 44.3022 0.0000 0.0000 0.0000
# 3 61.7398 44.3022 96.3446 0.0000 0.0000 0.0000
# 4 0.0000 0.0000 0.0000 21.2241 0.0000 0.0000
# 5 0.0000 0.0000 0.0000 0.0000 37.9658 0.0000
# 6 0.0000 0.0000 0.0000 0.0000 0.0000 34.5396
#
#
#
# Elastic Compliance Matrix: (Units=1/GPa)
#
#
# Indices 1 2 3 4 5 6 
#
# 1 0.011559 -0.000253 -0.007291 0.000000 0.000000 0.000000
# 2 -0.000253 0.005415 -0.002328 0.000000 0.000000 0.000000
# 3 -0.007291 -0.002328 0.016122 0.000000 0.000000 0.000000
# 4 0.000000 0.000000 0.000000 0.047116 0.000000 0.000000
# 5 0.000000 0.000000 0.000000 0.000000 0.026339 0.000000
# 6 0.000000 0.000000 0.000000 0.000000 0.000000 0.028952
#
#
# Mechanical properties :
#
#
# Convention : Reuss Voigt Hill
#
# Bulk Modulus (GPa) = 74.89237 78.29977 76.59607
# Shear Modulus (GPa) = 31.30922 38.03164 34.67043
#
# Velocity S-wave (km/s) = 3.67214 4.04720 3.86422
# Velocity P-wave (km/s) = 7.08766 7.45404 7.27316
#
# Compressibility (1/GPa) = 0.01335250
#
# Stress axis : x y z
#
# Youngs Moduli (GPa) = 86.51437 184.68543 62.02655
#
# Poissons Ratio (x) = 0.04664 0.45224
# Poissons Ratio (y) = 0.02185 0.14440
# Poissons Ratio (z) = 0.63078 0.42995
#
# Static dielectric constant tensor:
#      x y z
#    x 4.073610 0.000000 0.000000 
#    y 0.000000 -6.301130 0.000000 
#    z 0.000000 0.000000 4.301840 
# 
# 
# High freq. dielectric constant tensor:
#      x y z
#    x 1.920570 0.000000 0.000000 
#    y 0.000000 1.955370 0.000000 
#    z 0.000000 0.000000 1.916740 
# 
# From -- ./inp_files/16665.got.cif
#   From: 2010.03.12/outbox.cif.g09.slc.cpg/sg50_9_cif.got.tgz:16665.got - 2010.04.16 13:23:21.
