data_PCOD8205618
_publ_section_title
;
Structure prediction by ZEFSAII (Michael W. Deem and Ramdas Pophale) SiO2 
 PCOD8205618
Probable space group: P B A N
;
_chemical_formula_sum "Si O2"
_cell_formula_units_Z 64
_cell_length_a 19.341775
_cell_length_b 14.308135
_cell_length_c 11.068874
_cell_angle_alpha 90.000000
_cell_angle_beta 90.000000
_cell_angle_gamma 90.000000
_cell_volume 3063.252523
_symmetry_space_group_name_H-M "P B A N"
_symmetry_group_IT_number 50
_space_group.IT_coordinate_system_code '2'
_symmetry_cell_setting 'orthorhombic'
loop_
_space_group_symop_operation_xyz
x,y,z
1/2-x,1/2-y,z
x,1/2-y,-z
1/2-x,y,-z
-x,-y,-z
1/2+x,1/2+y,-z
-x,1/2+y,z
1/2+x,-y,z
loop_
_atom_site_type_symbol
_atom_site_label
_atom_site_fract_x
_atom_site_fract_y
_atom_site_fract_z
Si Si1 0.078348 0.116064 0.243385
Si Si2 0.322485 0.954683 0.742624
Si Si3 0.116434 0.721401 0.635493
Si Si4 0.536485 0.000361 0.629659
Si Si5 0.527477 0.806434 0.741787
Si Si6 0.169132 0.898478 0.732496
Si Si7 0.671830 0.461305 0.012580
Si Si8 0.050755 0.087505 0.981011
O O1 0.078808 0.220980 0.297207
O O2 0.016675 0.047613 0.280119
O O3 0.149777 0.061276 0.272336
O O4 0.062046 0.141638 0.105081
O O5 0.357466 0.885385 0.645427
O O6 0.240821 0.954695 0.715741
O O7 0.345886 0.920656 0.878411
O O8 0.098056 0.750000 0.500000
O O9 0.174995 0.791923 0.686376
O O10 0.048201 0.733885 0.714703
O O11 0.609979 0.052095 0.650010
O O12 0.500000 0.000000 0.500000
O O13 0.548884 0.892189 0.657955
O O14 0.526581 0.839433 0.880697
O O15 0.157975 0.888571 0.878014
O O16 0.626275 0.548952 0.054109
O O17 0.750000 0.497137 0.000000
O O18 0.000000 0.000000 0.000000
#
# Coordination Sequence:
#
# PCOD8205618 Si02
#       8
#     8   8   8   8   8   8   8   8
#     4  11  23  40  62  95 131 168 215 276 331 393
#     4  10  23  42  64  93 133 172 215 279 338 407
#     4  12  25  41  61  95 132 171 225 280 338 410
#     4  12  24  42  64  93 130 172 220 272 330 391
#     4  12  23  39  67  94 129 171 222 274 337 401
#     4  11  22  41  66  92 129 175 220 273 343 401
#     4   9  19  38  64  90 128 166 210 265 334 398
#     4  11  19  38  63  94 129 166 215 269 328 387
#
# _framework density 20.892825999999999
#
# number of rings (size 3 to 8) (size 9 to 14) (size 15 to 20)
#    0.000    1.000    5.000    2.250    0.000    1.500 
#    2.250    2.500    0.000    0.750    0.000    1.750 
#    0.000    0.000    0.000    0.000    0.000    0.000 
#
# Total GULP energy -792920.126921 kJ/mol
# GULP energy per Si atom -12389.376983 kJ/mol
# Density = 2.084527 g / cm^3
# Si number density = 20.892826 Si / 1000 Ang^3
#
#
#
# Elastic Constant Matrix: (Units=GPa)
#
#
# Indices 1 2 3 4 5 6 
#
# 1 101.9861 39.8652 46.4567 0.0000 0.0000 0.0000
# 2 39.8652 137.0246 42.3287 0.0000 0.0000 0.0000
# 3 46.4567 42.3287 104.8682 0.0000 0.0000 0.0000
# 4 0.0000 0.0000 0.0000 30.2799 0.0000 0.0000
# 5 0.0000 0.0000 0.0000 0.0000 28.4023 0.0000
# 6 0.0000 0.0000 0.0000 0.0000 0.0000 30.9947
#
#
#
# Elastic Compliance Matrix: (Units=1/GPa)
#
#
# Indices 1 2 3 4 5 6 
#
# 1 0.012872 -0.002266 -0.004788 0.000000 0.000000 0.000000
# 2 -0.002266 0.008736 -0.002523 0.000000 0.000000 0.000000
# 3 -0.004788 -0.002523 0.012675 0.000000 0.000000 0.000000
# 4 0.000000 0.000000 0.000000 0.033025 0.000000 0.000000
# 5 0.000000 0.000000 0.000000 0.000000 0.035208 0.000000
# 6 0.000000 0.000000 0.000000 0.000000 0.000000 0.032264
#
#
# Mechanical properties :
#
#
# Convention : Reuss Voigt Hill
#
# Bulk Modulus (GPa) = 66.08948 66.79778 66.44363
# Shear Modulus (GPa) = 31.45124 32.28393 31.86759
#
# Velocity S-wave (km/s) = 3.88411 3.93519 3.90973
# Velocity P-wave (km/s) = 7.19836 7.25869 7.22859
#
# Compressibility (1/GPa) = 0.01513100
#
# Stress axis : x y z
#
# Youngs Moduli (GPa) = 77.68900 114.46310 78.89611
#
# Poissons Ratio (x) = 0.25936 0.37773
# Poissons Ratio (y) = 0.17604 0.19902
# Poissons Ratio (z) = 0.37195 0.28874
#
# Static dielectric constant tensor:
#      x y z
#    x 3.881410 0.000000 0.000000 
#    y 0.000000 3.749330 0.000000 
#    z 0.000000 0.000000 4.131330 
# 
# 
# High freq. dielectric constant tensor:
#      x y z
#    x 1.810550 0.000000 0.000000 
#    y 0.000000 1.807330 0.000000 
#    z 0.000000 0.000000 1.825860 
# 
# From -- ./inp_files/21952.got.cif
#   From: 2010.03.12/outbox.cif.g09.slc.cpg/sg50_11_cif.got.tgz:21952.got - 2010.04.16 13:23:21.
