data_PCOD8205380
_publ_section_title
;
Structure prediction by ZEFSAII (Michael W. Deem and Ramdas Pophale) SiO2 
 PCOD8205380
Probable space group: P B A N
;
_chemical_formula_sum "Si O2"
_cell_formula_units_Z 64
_cell_length_a 14.289543
_cell_length_b 24.632898
_cell_length_c 8.545302
_cell_angle_alpha 90.000000
_cell_angle_beta 90.000000
_cell_angle_gamma 90.000000
_cell_volume 3007.885249
_symmetry_space_group_name_H-M "P B A N"
_symmetry_group_IT_number 50
_space_group.IT_coordinate_system_code '2'
_symmetry_cell_setting 'orthorhombic'
loop_
_space_group_symop_operation_xyz
x,y,z
1/2-x,1/2-y,z
x,1/2-y,-z
1/2-x,y,-z
-x,-y,-z
1/2+x,1/2+y,-z
-x,1/2+y,z
1/2+x,-y,z
loop_
_atom_site_type_symbol
_atom_site_label
_atom_site_fract_x
_atom_site_fract_y
_atom_site_fract_z
Si Si1 0.015110 0.052105 0.818762
Si Si2 0.856862 0.306352 0.055462
Si Si3 0.492695 0.829147 0.694751
Si Si4 0.684651 0.008759 0.724985
Si Si5 0.922385 0.091066 0.113146
Si Si6 0.353386 0.259154 0.317415
Si Si7 0.377125 0.016638 0.611113
Si Si8 0.554842 0.631835 0.626622
O O1 0.020210 0.114264 0.769742
O O2 0.122105 0.032968 0.825489
O O3 0.965635 0.013145 0.689601
O O4 0.966097 0.048264 0.989052
O O5 0.887717 0.312815 0.239608
O O6 0.899919 0.250000 0.000000
O O7 0.750000 0.309748 0.000000
O O8 0.910394 0.351321 0.961842
O O9 0.568983 0.783503 0.747223
O O10 0.492817 0.837665 0.506969
O O11 0.647714 0.015091 0.547456
O O12 0.791699 0.990234 0.733219
O O13 0.673609 0.066985 0.813393
O O14 0.993419 0.098994 0.252540
O O15 0.250000 0.250000 0.240065
O O16 0.343318 0.250000 0.500000
O O17 0.383292 0.321897 0.287941
O O18 0.384842 0.080649 0.562006
#
# Coordination Sequence:
#
# PCOD8205380 Si02
#       8
#     8   8   8   8   8   8   8   8
#     4  11  22  41  60  88 126 172 212 262 332 387
#     4  10  23  44  67  92 122 166 221 274 340 401
#     4  10  21  38  68  88 129 167 211 270 329 388
#     4  11  23  38  60  91 126 164 216 266 322 390
#     4  11  24  39  63  88 125 169 216 267 325 402
#     4   9  20  35  63  98 126 163 217 270 320 390
#     4  11  24  38  62  93 129 169 213 270 327 399
#     4  11  21  40  62  93 129 170 216 262 330 396
#
# _framework density 21.277407
#
# number of rings (size 3 to 8) (size 9 to 14) (size 15 to 20)
#    0.000    1.500    2.500    2.250    5.250    1.000 
#    0.000    0.000    0.000    6.375    0.000    0.000 
#    0.000    0.000    0.000    0.000    0.000    0.000 
#
# Total GULP energy -792898.089334 kJ/mol
# GULP energy per Si atom -12389.032646 kJ/mol
# Density = 2.122898 g / cm^3
# Si number density = 21.277407 Si / 1000 Ang^3
#
#
#
# Elastic Constant Matrix: (Units=GPa)
#
#
# Indices 1 2 3 4 5 6 
#
# 1 85.7374 27.9082 16.2217 0.0000 0.0000 0.0000
# 2 27.9082 135.8713 19.1595 0.0000 0.0000 0.0000
# 3 16.2217 19.1595 67.8533 0.0000 0.0000 0.0000
# 4 0.0000 0.0000 0.0000 1.4135 0.0000 0.0000
# 5 0.0000 0.0000 0.0000 0.0000 26.3052 0.0000
# 6 0.0000 0.0000 0.0000 0.0000 0.0000 28.1490
#
#
#
# Elastic Compliance Matrix: (Units=1/GPa)
#
#
# Indices 1 2 3 4 5 6 
#
# 1 0.012872 -0.002302 -0.002427 0.000000 0.000000 0.000000
# 2 -0.002302 0.008077 -0.001730 0.000000 0.000000 0.000000
# 3 -0.002427 -0.001730 0.015807 0.000000 0.000000 0.000000
# 4 0.000000 0.000000 0.000000 0.707460 0.000000 0.000000
# 5 0.000000 0.000000 0.000000 0.000000 0.038015 0.000000
# 6 0.000000 0.000000 0.000000 0.000000 0.000000 0.035525
#
#
# Mechanical properties :
#
#
# Convention : Reuss Voigt Hill
#
# Bulk Modulus (GPa) = 41.95247 46.22677 44.08962
# Shear Modulus (GPa) = 5.96217 26.25171 16.10694
#
# Velocity S-wave (km/s) = 1.67577 3.51634 2.75434
# Velocity P-wave (km/s) = 4.84809 6.18539 5.55711
#
# Compressibility (1/GPa) = 0.02383650
#
# Stress axis : x y z
#
# Youngs Moduli (GPa) = 77.68799 123.81356 63.26480
#
# Poissons Ratio (x) = 0.28497 0.15357
# Poissons Ratio (y) = 0.17881 0.10947
# Poissons Ratio (z) = 0.18858 0.21424
#
# Static dielectric constant tensor:
#      x y z
#    x 4.041840 0.000000 0.000000 
#    y 0.000000 4.280060 0.000000 
#    z 0.000000 0.000000 4.006940 
# 
# 
# High freq. dielectric constant tensor:
#      x y z
#    x 1.820650 0.000000 0.000000 
#    y 0.000000 1.855340 0.000000 
#    z 0.000000 0.000000 1.822490 
# 
# From -- ./inp_files/13488.got.cif
#   From: 2010.03.12/outbox.cif.g09.slc.cpg/sg50_7_cif.got.tgz:13488.got - 2010.04.16 13:23:21.
