data_PCOD8205709
_publ_section_title
;
Structure prediction by ZEFSAII (Michael W. Deem and Ramdas Pophale) SiO2 
 PCOD8205709
Probable space group: P B A N
;
_chemical_formula_sum "Si O2"
_cell_formula_units_Z 44
_cell_length_a 29.548015
_cell_length_b 4.973350
_cell_length_c 14.405552
_cell_angle_alpha 90.000000
_cell_angle_beta 90.000000
_cell_angle_gamma 90.000000
_cell_volume 2116.933615
_symmetry_space_group_name_H-M "P B A N"
_symmetry_group_IT_number 50
_space_group.IT_coordinate_system_code '2'
_symmetry_cell_setting 'orthorhombic'
loop_
_space_group_symop_operation_xyz
x,y,z
1/2-x,1/2-y,z
x,1/2-y,-z
1/2-x,y,-z
-x,-y,-z
1/2+x,1/2+y,-z
-x,1/2+y,z
1/2+x,-y,z
loop_
_atom_site_type_symbol
_atom_site_label
_atom_site_fract_x
_atom_site_fract_y
_atom_site_fract_z
Si Si1 0.750000 0.750000 0.195216
Si Si2 0.333062 0.083186 0.691793
Si Si3 0.361654 0.250000 0.500000
Si Si4 0.028940 0.771669 0.304010
Si Si5 0.620770 0.085607 0.770511
Si Si6 0.575005 0.250000 0.500000
Si Si7 0.680090 0.006360 0.937002
O O1 0.715800 0.912311 0.260610
O O2 0.722021 0.547411 0.131135
O O3 0.328919 0.165942 0.584415
O O4 0.370080 0.279489 0.739185
O O5 0.350707 0.780147 0.702385
O O6 0.394090 0.496353 0.524342
O O7 0.068838 0.674758 0.235756
O O8 0.043336 0.781352 0.411165
O O9 0.986994 0.573830 0.283183
O O10 0.636628 0.104482 0.877684
O O11 0.667589 0.750000 0.000000
O O12 0.696279 0.250000 0.000000
#
# Coordination Sequence:
#
# PCOD8205709 Si02
#       7
#     4   8   4   8   8   4   8
#     4  10  25  39  64  96 126 152 208 257 301 364
#     4  11  22  39  60  87 124 174 204 248 298 357
#     4  12  20  38  62  80 129 174 211 242 288 362
#     4  12  23  38  62  92 124 160 203 258 306 356
#     4  11  23  42  61  88 126 162 202 248 318 378
#     4  12  22  39  58  93 121 162 215 253 300 349
#     4  11  24  42  67  94 122 156 200 261 324 378
#
# _framework density 20.784780999999999
#
# number of rings (size 3 to 8) (size 9 to 14) (size 15 to 20)
#    0.000    0.727    3.636    5.182    0.000    9.091 
#    0.000    0.000    0.000    8.727    0.000    0.000 
#    0.000    0.000    0.000    0.000    0.000    0.000 
#
# Total GULP energy -545687.618966 kJ/mol
# GULP energy per Si atom -12401.991340 kJ/mol
# Density = 2.073747 g / cm^3
# Si number density = 20.784781 Si / 1000 Ang^3
#
#
#
# Elastic Constant Matrix: (Units=GPa)
#
#
# Indices 1 2 3 4 5 6 
#
# 1 106.4853 15.4047 50.0608 0.0000 0.0000 0.0000
# 2 15.4047 90.9635 24.0606 0.0000 0.0000 0.0000
# 3 50.0608 24.0606 112.4489 0.0000 0.0000 0.0000
# 4 0.0000 0.0000 0.0000 30.1131 0.0000 0.0000
# 5 0.0000 0.0000 0.0000 0.0000 -396.4902 0.0000
# 6 0.0000 0.0000 0.0000 0.0000 0.0000 24.9336
#
#
#
# Elastic Compliance Matrix: (Units=1/GPa)
#
#
# Indices 1 2 3 4 5 6 
#
# 1 0.011913 -0.000652 -0.005164 0.000000 0.000000 0.000000
# 2 -0.000652 0.011689 -0.002211 0.000000 0.000000 0.000000
# 3 -0.005164 -0.002211 0.011665 0.000000 0.000000 0.000000
# 4 0.000000 0.000000 0.000000 0.033208 0.000000 0.000000
# 5 0.000000 0.000000 0.000000 0.000000 -0.002522 0.000000
# 6 0.000000 0.000000 0.000000 0.000000 0.000000 0.040106
#
#
# Mechanical properties :
#
#
# Convention : Reuss Voigt Hill
#
# Bulk Modulus (GPa) = 52.04698 54.32776 53.18737
# Shear Modulus (GPa) = 38.90550 -53.59724 -7.34587
#
# Velocity S-wave (km/s) = 4.33115 -5.08358 -1.88200
# Velocity P-wave (km/s) = 7.07864 2.87437 4.57412
#
# Compressibility (1/GPa) = 0.01921341
#
# Stress axis : x y z
#
# Youngs Moduli (GPa) = 83.94222 85.55365 85.72665
#
# Poissons Ratio (x) = 0.05574 0.44270
# Poissons Ratio (y) = 0.05469 0.18954
# Poissons Ratio (z) = 0.43348 0.18915
#
# Static dielectric constant tensor:
#      x y z
#    x 3.743480 0.000000 0.000000 
#    y 0.000000 3.268100 0.000000 
#    z 0.000000 0.000000 3.816850 
# 
# 
# High freq. dielectric constant tensor:
#      x y z
#    x 1.799650 0.000000 0.000000 
#    y 0.000000 1.832930 0.000000 
#    z 0.000000 0.000000 1.806360 
# 
# From -- ./inp_files/27601.got.cif
#   From: 2010.03.12/outbox.cif.g09.slc.cpg/sg50_14_cif.got.tgz:27601.got - 2010.04.16 13:23:21.
