data_PCOD8205352
_publ_section_title
;
Structure prediction by ZEFSAII (Michael W. Deem and Ramdas Pophale) SiO2 
 PCOD8205352
Probable space group: P B A N
;
_chemical_formula_sum "Si O2"
_cell_formula_units_Z 48
_cell_length_a 17.001934
_cell_length_b 5.290827
_cell_length_c 20.403392
_cell_angle_alpha 90.000000
_cell_angle_beta 90.000000
_cell_angle_gamma 90.000000
_cell_volume 1835.372671
_symmetry_space_group_name_H-M "P B A N"
_symmetry_group_IT_number 50
_space_group.IT_coordinate_system_code '2'
_symmetry_cell_setting 'orthorhombic'
loop_
_space_group_symop_operation_xyz
x,y,z
1/2-x,1/2-y,z
x,1/2-y,-z
1/2-x,y,-z
-x,-y,-z
1/2+x,1/2+y,-z
-x,1/2+y,z
1/2+x,-y,z
loop_
_atom_site_type_symbol
_atom_site_label
_atom_site_fract_x
_atom_site_fract_y
_atom_site_fract_z
Si Si1 0.044932 0.537080 0.115308
Si Si2 0.223643 0.500399 0.273894
Si Si3 0.967524 0.339072 0.427419
Si Si4 0.453831 0.964574 0.270778
Si Si5 0.291015 0.503622 0.414560
Si Si6 0.282474 0.500101 0.926556
O O1 0.059501 0.525901 0.192831
O O2 0.124061 0.498359 0.074922
O O3 0.988733 0.307819 0.093905
O O4 0.250000 0.750000 0.232847
O O5 0.133940 0.502206 0.298988
O O6 0.281318 0.500766 0.336642
O O7 0.250000 0.250000 0.233287
O O8 0.997457 0.250000 0.500000
O O9 0.883006 0.469893 0.430506
O O10 0.025011 0.557056 0.392861
O O11 0.489056 0.693606 0.293450
O O12 0.250000 0.750000 0.446035
O O13 0.250000 0.250000 0.444614
O O14 0.250000 0.250000 0.889959
O O15 0.250000 0.750000 0.889800
O O16 0.250000 0.500100 0.000000
#
# Coordination Sequence:
#
# PCOD8205352 Si02
#       6
#     8   8   8   8   8   8
#     4  10  21  38  60  85 114 150 193 242 294 348
#     4  10  21  38  57  85 120 154 194 238 291 350
#     4  10  21  39  62  87 116 152 194 240 288 339
#     4  10  21  38  60  86 116 152 195 242 292 348
#     4  10  21  39  58  86 122 155 196 239 291 351
#     4  10  21  38  56  83 117 150 193 238 292 354
#
# _framework density 26.152729000000001
#
# number of rings (size 3 to 8) (size 9 to 14) (size 15 to 20)
#    0.000    2.000    0.000    3.000    0.000    1.667 
#    0.000   30.833    0.000    0.000    0.000    0.000 
#    0.000    0.000    0.000    0.000    0.000    0.000 
#
# Total GULP energy -594882.898310 kJ/mol
# GULP energy per Si atom -12393.393715 kJ/mol
# Density = 2.609320 g / cm^3
# Si number density = 26.152729 Si / 1000 Ang^3
#
#
#
# Elastic Constant Matrix: (Units=GPa)
#
#
# Indices 1 2 3 4 5 6 
#
# 1 171.9115 94.6683 0.1491 0.0000 0.0000 0.0000
# 2 94.6683 307.3160 14.3199 0.0000 0.0000 0.0000
# 3 0.1491 14.3199 43.9868 0.0000 0.0000 0.0000
# 4 0.0000 0.0000 0.0000 -3.2101 0.0000 0.0000
# 5 0.0000 0.0000 0.0000 0.0000 615.6449 0.0000
# 6 0.0000 0.0000 0.0000 0.0000 0.0000 60.2770
#
#
#
# Elastic Compliance Matrix: (Units=1/GPa)
#
#
# Indices 1 2 3 4 5 6 
#
# 1 0.007026 -0.002197 0.000691 0.000000 0.000000 0.000000
# 2 -0.002197 0.003991 -0.001292 0.000000 0.000000 0.000000
# 3 0.000691 -0.001292 0.023152 0.000000 0.000000 0.000000
# 4 0.000000 0.000000 0.000000 -0.311515 0.000000 0.000000
# 5 0.000000 0.000000 0.000000 0.000000 0.001624 0.000000
# 6 0.000000 0.000000 0.000000 0.000000 0.000000 0.016590
#
#
# Mechanical properties :
#
#
# Convention : Reuss Voigt Hill
#
# Bulk Modulus (GPa) = 34.99570 82.38768 58.69169
# Shear Modulus (GPa) = -20.49072 162.14749 70.82838
#
# Velocity S-wave (km/s) = -2.80215 7.88256 5.20974
# Velocity P-wave (km/s) = 1.71492 10.69660 7.66023
#
# Compressibility (1/GPa) = 0.02857494
#
# Stress axis : x y z
#
# Youngs Moduli (GPa) = 142.32973 250.57549 43.19231
#
# Poissons Ratio (x) = 0.55040 -0.02986
# Poissons Ratio (y) = 0.31263 0.05579
# Poissons Ratio (z) = -0.09839 0.32368
#
# Static dielectric constant tensor:
#      x y z
#    x 4.269600 0.000000 0.000000 
#    y 0.000000 7.356280 0.000000 
#    z 0.000000 0.000000 4.504540 
# 
# 
# High freq. dielectric constant tensor:
#      x y z
#    x 2.038670 0.000000 0.000000 
#    y 0.000000 2.091220 0.000000 
#    z 0.000000 0.000000 2.042210 
# 
# From -- ./inp_files/32248.got.cif
#   From: 2010.03.12/outbox.cif.g09.slc.cpg/sg50_17_cif.got.tgz:32248.got - 2010.04.16 13:23:21.
