data_PCOD8205045
_publ_section_title
;
Structure prediction by ZEFSAII (Michael W. Deem and Ramdas Pophale) SiO2 
 PCOD8205045
Probable space group: P B A N
;
_chemical_formula_sum "Si O2"
_cell_formula_units_Z 48
_cell_length_a 15.489169
_cell_length_b 26.232670
_cell_length_c 6.775576
_cell_angle_alpha 90.000000
_cell_angle_beta 90.000000
_cell_angle_gamma 90.000000
_cell_volume 2753.067346
_symmetry_space_group_name_H-M "P B A N"
_symmetry_group_IT_number 50
_space_group.IT_coordinate_system_code '2'
_symmetry_cell_setting 'orthorhombic'
loop_
_space_group_symop_operation_xyz
x,y,z
1/2-x,1/2-y,z
x,1/2-y,-z
1/2-x,y,-z
-x,-y,-z
1/2+x,1/2+y,-z
-x,1/2+y,z
1/2+x,-y,z
loop_
_atom_site_type_symbol
_atom_site_label
_atom_site_fract_x
_atom_site_fract_y
_atom_site_fract_z
Si Si1 0.654181 0.054087 0.733123
Si Si2 0.985654 0.406226 0.454645
Si Si3 0.159212 0.457354 0.532483
Si Si4 0.106565 0.807483 0.495620
Si Si5 0.260496 0.844333 0.228422
Si Si6 0.418435 0.979279 0.877560
O O1 0.561433 0.072839 0.650603
O O2 0.730181 0.096107 0.706715
O O3 0.677522 0.003463 0.617924
O O4 0.648656 0.043550 0.966460
O O5 0.973095 0.345147 0.446912
O O6 0.946145 0.433083 0.262877
O O7 0.086411 0.418652 0.459365
O O8 0.250000 0.427210 0.500000
O O9 0.131414 0.477422 0.749737
O O10 0.071204 0.750000 0.500000
O O11 0.180313 0.817869 0.333986
O O12 0.149627 0.817563 0.708881
O O13 0.250000 0.835918 0.000000
O O14 0.500000 0.000000 0.000000
#
# Coordination Sequence:
#
# PCOD8205045 Si02
#       6
#     8   8   8   8   8   8
#     4  10  20  32  50  75 106 148 172 206 257 329
#     4  10  20  37  50  72 104 139 181 225 263 315
#     4  11  23  32  49  77 110 140 178 221 263 322
#     4  10  22  37  54  73 103 143 183 229 276 314
#     4  10  20  32  52  80 110 135 176 219 264 326
#     4  11  18  35  54  74 108 146 181 207 265 332
#
# _framework density 17.435098
#
# number of rings (size 3 to 8) (size 9 to 14) (size 15 to 20)
#    0.000    1.667    3.333    3.000    9.333    1.333 
#    0.000    0.000    0.000    0.500    0.000    0.000 
#    0.000    0.000    2.000    0.000    0.000    0.000 
#
# Total GULP energy -594884.608961 kJ/mol
# GULP energy per Si atom -12393.429353 kJ/mol
# Density = 1.739542 g / cm^3
# Si number density = 17.435098 Si / 1000 Ang^3
#
#
#
# Elastic Constant Matrix: (Units=GPa)
#
#
# Indices 1 2 3 4 5 6 
#
# 1 86.9710 34.5575 26.0058 0.0000 0.0000 0.0000
# 2 34.5575 105.1370 28.6795 0.0000 0.0000 0.0000
# 3 26.0058 28.6795 115.3717 0.0000 0.0000 0.0000
# 4 0.0000 0.0000 0.0000 8.5373 0.0000 0.0000
# 5 0.0000 0.0000 0.0000 0.0000 19.6908 0.0000
# 6 0.0000 0.0000 0.0000 0.0000 0.0000 8.2955
#
#
#
# Elastic Compliance Matrix: (Units=1/GPa)
#
#
# Indices 1 2 3 4 5 6 
#
# 1 0.013688 -0.003924 -0.002110 0.000000 0.000000 0.000000
# 2 -0.003924 0.011328 -0.001932 0.000000 0.000000 0.000000
# 3 -0.002110 -0.001932 0.009623 0.000000 0.000000 0.000000
# 4 0.000000 0.000000 0.000000 0.117133 0.000000 0.000000
# 5 0.000000 0.000000 0.000000 0.000000 0.050785 0.000000
# 6 0.000000 0.000000 0.000000 0.000000 0.000000 0.120547
#
#
# Mechanical properties :
#
#
# Convention : Reuss Voigt Hill
#
# Bulk Modulus (GPa) = 53.44998 53.99612 53.72305
# Shear Modulus (GPa) = 14.48135 21.85384 18.16760
#
# Velocity S-wave (km/s) = 2.88512 3.54424 3.23152
# Velocity P-wave (km/s) = 6.46696 6.91273 6.69356
#
# Compressibility (1/GPa) = 0.01870908
#
# Stress axis : x y z
#
# Youngs Moduli (GPa) = 73.05652 88.27756 103.91318
#
# Poissons Ratio (x) = 0.34636 0.21927
# Poissons Ratio (y) = 0.28664 0.20071
# Poissons Ratio (z) = 0.15416 0.17051
#
# Static dielectric constant tensor:
#      x y z
#    x 3.175720 0.000000 0.000000 
#    y 0.000000 3.119130 0.000000 
#    z 0.000000 0.000000 3.503890 
# 
# 
# High freq. dielectric constant tensor:
#      x y z
#    x 1.655500 0.000000 0.000000 
#    y 0.000000 1.640740 0.000000 
#    z 0.000000 0.000000 1.688250 
# 
# From -- ./inp_files/3557.got.cif
#   From: 2010.03.12/outbox.cif.g09.slc.cpg/sg50_2_cif.got.tgz:3557.got - 2010.04.16 13:23:21.
