data_PCOD8205593
_publ_section_title
;
Structure prediction by ZEFSAII (Michael W. Deem and Ramdas Pophale) SiO2 
 PCOD8205593
Probable space group: P B A N
;
_chemical_formula_sum "Si O2"
_cell_formula_units_Z 58
_cell_length_a 26.978378
_cell_length_b 8.837160
_cell_length_c 11.876582
_cell_angle_alpha 90.000000
_cell_angle_beta 90.000000
_cell_angle_gamma 90.000000
_cell_volume 2831.522553
_symmetry_space_group_name_H-M "P B A N"
_symmetry_group_IT_number 50
_space_group.IT_coordinate_system_code '2'
_symmetry_cell_setting 'orthorhombic'
loop_
_space_group_symop_operation_xyz
x,y,z
1/2-x,1/2-y,z
x,1/2-y,-z
1/2-x,y,-z
-x,-y,-z
1/2+x,1/2+y,-z
-x,1/2+y,z
1/2+x,-y,z
loop_
_atom_site_type_symbol
_atom_site_label
_atom_site_fract_x
_atom_site_fract_y
_atom_site_fract_z
Si Si1 0.899555 0.917803 0.364234
Si Si2 0.761581 0.573853 0.126632
Si Si3 0.250000 0.750000 0.500000
Si Si4 0.351925 0.902706 0.798778
Si Si5 0.306162 0.891872 0.297276
Si Si6 0.547110 0.177828 0.116229
Si Si7 0.088961 0.423423 0.618236
Si Si8 0.008744 0.551170 0.249416
O O1 0.886279 0.740638 0.364032
O O2 0.908948 0.977003 0.489910
O O3 0.855484 0.010684 0.308489
O O4 0.949062 0.938612 0.292342
O O5 0.750000 0.750000 0.140769
O O6 0.819638 0.538312 0.147683
O O7 0.731249 0.484508 0.220249
O O8 0.750000 0.518779 0.000000
O O9 0.283112 0.858766 0.420486
O O10 0.316493 0.763966 0.767419
O O11 0.393975 0.854211 0.888393
O O12 0.379469 0.955211 0.686203
O O13 0.534348 0.291006 0.218087
O O14 0.517263 0.022833 0.139446
O O15 0.529397 0.250000 0.000000
O O16 0.031641 0.420557 0.653967
#
# Coordination Sequence:
#
# PCOD8205593 Si02
#       8
#     8   8   2   8   8   8   8   8
#     4  11  22  39  65  93 130 169 219 262 330 389
#     4  11  26  47  70  97 134 177 229 277 335 398
#     4  12  24  44  64 104 132 172 218 282 340 404
#     4  11  23  43  66  98 133 167 222 276 328 401
#     4  12  24  42  70  96 134 171 221 276 339 398
#     4  11  24  40  65  93 128 171 220 272 329 385
#     4  10  23  40  62  95 130 172 212 266 327 394
#     4  11  21  42  61  91 130 167 217 265 321 400
#
# _framework density 20.48368
#
# number of rings (size 3 to 8) (size 9 to 14) (size 15 to 20)
#    0.000    0.966    4.138    2.483    1.931    0.552 
#    0.000    0.000    0.000    0.000    0.000    0.000 
#    0.000    0.000    0.000    0.000    0.000    0.000 
#
# Total GULP energy -719460.462629 kJ/mol
# GULP energy per Si atom -12404.490735 kJ/mol
# Density = 2.043706 g / cm^3
# Si number density = 20.483680 Si / 1000 Ang^3
#
#
#
# Elastic Constant Matrix: (Units=GPa)
#
#
# Indices 1 2 3 4 5 6 
#
# 1 116.6748 37.9877 39.2908 0.0000 0.0000 0.0000
# 2 37.9877 79.4770 17.6335 0.0000 0.0000 0.0000
# 3 39.2908 17.6335 90.1378 0.0000 0.0000 0.0000
# 4 0.0000 0.0000 0.0000 35.3661 0.0000 0.0000
# 5 0.0000 0.0000 0.0000 0.0000 18.0782 0.0000
# 6 0.0000 0.0000 0.0000 0.0000 0.0000 33.6396
#
#
#
# Elastic Compliance Matrix: (Units=1/GPa)
#
#
# Indices 1 2 3 4 5 6 
#
# 1 0.011432 -0.004556 -0.004092 0.000000 0.000000 0.000000
# 2 -0.004556 0.014969 -0.000942 0.000000 0.000000 0.000000
# 3 -0.004092 -0.000942 0.013062 0.000000 0.000000 0.000000
# 4 0.000000 0.000000 0.000000 0.028276 0.000000 0.000000
# 5 0.000000 0.000000 0.000000 0.000000 0.055315 0.000000
# 6 0.000000 0.000000 0.000000 0.000000 0.000000 0.029727
#
#
# Mechanical properties :
#
#
# Convention : Reuss Voigt Hill
#
# Bulk Modulus (GPa) = 49.30400 52.90150 51.10275
# Shear Modulus (GPa) = 27.97620 30.17530 29.07575
#
# Velocity S-wave (km/s) = 3.69966 3.84231 3.77166
# Velocity P-wave (km/s) = 6.50938 6.75031 6.63094
#
# Compressibility (1/GPa) = 0.02028233
#
# Stress axis : x y z
#
# Youngs Moduli (GPa) = 87.47118 66.80406 76.55721
#
# Poissons Ratio (x) = 0.30439 0.31327
# Poissons Ratio (y) = 0.39856 0.07214
# Poissons Ratio (z) = 0.35793 0.06295
#
# Static dielectric constant tensor:
#      x y z
#    x 3.780270 0.000000 0.000000 
#    y 0.000000 3.742730 0.000000 
#    z 0.000000 0.000000 3.627390 
# 
# 
# High freq. dielectric constant tensor:
#      x y z
#    x 1.811150 0.000000 0.000000 
#    y 0.000000 1.809260 0.000000 
#    z 0.000000 0.000000 1.798720 
# 
# From -- ./inp_files/19393.got.cif
#   From: 2010.03.12/outbox.cif.g09.slc.cpg/sg50_10_cif.got.tgz:19393.got - 2010.04.16 13:23:21.
