data_PCOD8205866
_publ_section_title
;
Structure prediction by ZEFSAII (Michael W. Deem and Ramdas Pophale) SiO2 
 PCOD8205866
Probable space group: P B A N
;
_chemical_formula_sum "Si O2"
_cell_formula_units_Z 40
_cell_length_a 8.777119
_cell_length_b 23.917790
_cell_length_c 8.731259
_cell_angle_alpha 90.000000
_cell_angle_beta 90.000000
_cell_angle_gamma 90.000000
_cell_volume 1832.946994
_symmetry_space_group_name_H-M "P B A N"
_symmetry_group_IT_number 50
_space_group.IT_coordinate_system_code '2'
_symmetry_cell_setting 'orthorhombic'
loop_
_space_group_symop_operation_xyz
x,y,z
1/2-x,1/2-y,z
x,1/2-y,-z
1/2-x,y,-z
-x,-y,-z
1/2+x,1/2+y,-z
-x,1/2+y,z
1/2+x,-y,z
loop_
_atom_site_type_symbol
_atom_site_label
_atom_site_fract_x
_atom_site_fract_y
_atom_site_fract_z
Si Si1 0.851264 0.873062 0.145144
Si Si2 0.406868 0.186681 0.444553
Si Si3 0.331340 0.573731 0.147934
Si Si4 0.875445 0.105281 0.388128
Si Si5 0.167895 0.463074 0.660956
O O1 0.899931 0.822045 0.260281
O O2 0.756661 0.920755 0.229342
O O3 0.011142 0.898992 0.091940
O O4 0.750000 0.851181 0.000000
O O5 0.409658 0.250000 0.500000
O O6 0.250000 0.157390 0.500000
O O7 0.549768 0.159032 0.530207
O O8 0.216770 0.619044 0.230097
O O9 0.354742 0.523142 0.263773
O O10 0.250000 0.548887 0.000000
O O11 0.750000 0.079525 0.500000
O O12 0.996004 0.056934 0.361282
O O13 0.250000 0.467547 0.500000
#
# Coordination Sequence:
#
# PCOD8205866 Si02
#       5
#     8   8   8   8   8
#     4  12  24  45  71  99 143 184 227 288 352 421
#     4  11  24  48  76 103 128 176 238 289 356 428
#     4  12  27  41  64 103 144 187 232 286 349 407
#     4  12  22  43  69 102 136 178 231 291 343 409
#     4  12  23  42  68  99 143 193 237 274 333 423
#
# _framework density 21.822780000000002
#
# number of rings (size 3 to 8) (size 9 to 14) (size 15 to 20)
#    0.000    0.200    6.000    3.600    0.000    5.200 
#    0.000    4.000    0.000    1.200    0.000    0.000 
#    0.000    0.000    0.000    0.000    0.000    0.000 
#
# Total GULP energy -495700.628894 kJ/mol
# GULP energy per Si atom -12392.515722 kJ/mol
# Density = 2.177311 g / cm^3
# Si number density = 21.822780 Si / 1000 Ang^3
#
#
#
# Elastic Constant Matrix: (Units=GPa)
#
#
# Indices 1 2 3 4 5 6 
#
# 1 171.4964 39.4550 64.3372 0.0000 0.0000 0.0000
# 2 39.4550 86.4714 50.9943 0.0000 0.0000 0.0000
# 3 64.3372 50.9943 132.7047 0.0000 0.0000 0.0000
# 4 0.0000 0.0000 0.0000 31.2389 0.0000 0.0000
# 5 0.0000 0.0000 0.0000 0.0000 53.1352 0.0000
# 6 0.0000 0.0000 0.0000 0.0000 0.0000 14.7642
#
#
#
# Elastic Compliance Matrix: (Units=1/GPa)
#
#
# Indices 1 2 3 4 5 6 
#
# 1 0.007296 -0.001607 -0.002920 0.000000 0.000000 0.000000
# 2 -0.001607 0.015307 -0.005103 0.000000 0.000000 0.000000
# 3 -0.002920 -0.005103 0.010912 0.000000 0.000000 0.000000
# 4 0.000000 0.000000 0.000000 0.032011 0.000000 0.000000
# 5 0.000000 0.000000 0.000000 0.000000 0.018820 0.000000
# 6 0.000000 0.000000 0.000000 0.000000 0.000000 0.067732
#
#
# Mechanical properties :
#
#
# Convention : Reuss Voigt Hill
#
# Bulk Modulus (GPa) = 70.14765 77.80505 73.97635
# Shear Modulus (GPa) = 28.39468 35.55340 31.97404
#
# Velocity S-wave (km/s) = 3.61106 4.04070 3.83190
# Velocity P-wave (km/s) = 7.04275 7.58289 7.31780
#
# Compressibility (1/GPa) = 0.01425564
#
# Stress axis : x y z
#
# Youngs Moduli (GPa) = 137.05944 65.32898 91.64336
#
# Poissons Ratio (x) = 0.10500 0.26757
# Poissons Ratio (y) = 0.22029 0.46764
# Poissons Ratio (z) = 0.40016 0.33336
#
# Static dielectric constant tensor:
#      x y z
#    x 4.617540 0.000000 0.000000 
#    y 0.000000 3.516460 0.000000 
#    z 0.000000 0.000000 3.594820 
# 
# 
# High freq. dielectric constant tensor:
#      x y z
#    x 1.887910 0.000000 0.000000 
#    y 0.000000 1.818490 0.000000 
#    z 0.000000 0.000000 1.871480 
# 
# From -- ./inp_files/9471.got.cif
#   From: 2010.03.12/outbox.cif.g09.slc.cpg/sg50_5_cif.got.tgz:9471.got - 2010.04.16 13:23:21.
