data_PCOD8205430
_publ_section_title
;
Structure prediction by ZEFSAII (Michael W. Deem and Ramdas Pophale) SiO2 
 PCOD8205430
Probable space group: P B A N
;
_chemical_formula_sum "Si O2"
_cell_formula_units_Z 56
_cell_length_a 16.340592
_cell_length_b 15.058234
_cell_length_c 11.135604
_cell_angle_alpha 90.000000
_cell_angle_beta 90.000000
_cell_angle_gamma 90.000000
_cell_volume 2740.031821
_symmetry_space_group_name_H-M "P B A N"
_symmetry_group_IT_number 50
_space_group.IT_coordinate_system_code '2'
_symmetry_cell_setting 'orthorhombic'
loop_
_space_group_symop_operation_xyz
x,y,z
1/2-x,1/2-y,z
x,1/2-y,-z
1/2-x,y,-z
-x,-y,-z
1/2+x,1/2+y,-z
-x,1/2+y,z
1/2+x,-y,z
loop_
_atom_site_type_symbol
_atom_site_label
_atom_site_fract_x
_atom_site_fract_y
_atom_site_fract_z
Si Si1 0.416089 0.422633 0.918816
Si Si2 0.055524 0.387247 0.681495
Si Si3 0.344108 0.225355 0.228467
Si Si4 0.840283 0.905383 0.449105
Si Si5 0.910389 0.464651 0.139607
Si Si6 0.757982 0.353913 0.134373
Si Si7 0.620084 0.061240 0.713342
O O1 0.372178 0.329663 0.889103
O O2 0.514610 0.410817 0.921970
O O3 0.402819 0.493829 0.816480
O O4 0.380638 0.460177 0.044112
O O5 0.098187 0.311439 0.761823
O O6 0.091661 0.385451 0.548440
O O7 0.071136 0.484327 0.737099
O O8 0.956813 0.375466 0.678100
O O9 0.250000 0.250000 0.210909
O O10 0.356305 0.166020 0.346009
O O11 0.750000 0.890521 0.500000
O O12 0.849521 0.006069 0.402398
O O13 0.844967 0.390652 0.177706
O O14 0.750000 0.250000 0.125455
O O15 0.692424 0.379994 0.234225
O O16 0.750000 0.394906 0.000000
#
# Coordination Sequence:
#
# PCOD8205430 Si02
#       7
#     8   8   8   8   8   8   8
#     4   9  21  40  62  90 126 164 202 262 322 382
#     4  11  23  37  64  95 125 168 209 264 317 385
#     4  11  23  38  64  96 125 164 209 269 327 385
#     4  11  21  40  67  89 124 169 218 260 319 394
#     4  10  21  41  63  89 128 166 211 257 319 388
#     4  11  23  38  64  92 122 167 215 264 316 381
#     4  10  22  41  61  91 123 163 213 263 317 375
#
# _framework density 20.437719000000001
#
# number of rings (size 3 to 8) (size 9 to 14) (size 15 to 20)
#    0.000    1.571    2.857    1.714    4.000    0.571 
#    0.000    0.714    3.143    0.857    0.000    0.000 
#    0.000    0.000    0.000    0.000    0.000    0.000 
#
# Total GULP energy -694276.380661 kJ/mol
# GULP energy per Si atom -12397.792512 kJ/mol
# Density = 2.039120 g / cm^3
# Si number density = 20.437719 Si / 1000 Ang^3
#
#
#
# Elastic Constant Matrix: (Units=GPa)
#
#
# Indices 1 2 3 4 5 6 
#
# 1 124.8696 47.4865 23.5880 0.0000 0.0000 0.0000
# 2 47.4865 81.7650 16.8503 0.0000 0.0000 0.0000
# 3 23.5880 16.8503 62.2993 0.0000 0.0000 0.0000
# 4 0.0000 0.0000 0.0000 25.9388 0.0000 0.0000
# 5 0.0000 0.0000 0.0000 0.0000 30.3116 0.0000
# 6 0.0000 0.0000 0.0000 0.0000 0.0000 29.4592
#
#
#
# Elastic Compliance Matrix: (Units=1/GPa)
#
#
# Indices 1 2 3 4 5 6 
#
# 1 0.010632 -0.005661 -0.002495 0.000000 0.000000 0.000000
# 2 -0.005661 0.015966 -0.002175 0.000000 0.000000 0.000000
# 3 -0.002495 -0.002175 0.017584 0.000000 0.000000 0.000000
# 4 0.000000 0.000000 0.000000 0.038552 0.000000 0.000000
# 5 0.000000 0.000000 0.000000 0.000000 0.032991 0.000000
# 6 0.000000 0.000000 0.000000 0.000000 0.000000 0.033945
#
#
# Mechanical properties :
#
#
# Convention : Reuss Voigt Hill
#
# Bulk Modulus (GPa) = 42.51371 49.42038 45.96704
# Shear Modulus (GPa) = 28.06270 29.20919 28.63594
#
# Velocity S-wave (km/s) = 3.70953 3.78455 3.74723
# Velocity P-wave (km/s) = 6.26053 6.58260 6.42358
#
# Compressibility (1/GPa) = 0.02352182
#
# Stress axis : x y z
#
# Youngs Moduli (GPa) = 94.05277 62.63291 56.86875
#
# Poissons Ratio (x) = 0.35455 0.14186
# Poissons Ratio (y) = 0.53242 0.12369
# Poissons Ratio (z) = 0.23462 0.13623
#
# Static dielectric constant tensor:
#      x y z
#    x 4.184660 0.000000 0.000000 
#    y 0.000000 3.690010 0.000000 
#    z 0.000000 0.000000 3.941010 
# 
# 
# High freq. dielectric constant tensor:
#      x y z
#    x 1.805130 0.000000 0.000000 
#    y 0.000000 1.788220 0.000000 
#    z 0.000000 0.000000 1.797670 
# 
# From -- ./inp_files/21144.got.cif
#   From: 2010.03.12/outbox.cif.g09.slc.cpg/sg50_11_cif.got.tgz:21144.got - 2010.04.16 13:23:21.
