data_PCOD8205195
_publ_section_title
;
Structure prediction by ZEFSAII (Michael W. Deem and Ramdas Pophale) SiO2 
 PCOD8205195
Probable space group: P B A N
;
_chemical_formula_sum "Si O2"
_cell_formula_units_Z 42
_cell_length_a 20.722918
_cell_length_b 21.467971
_cell_length_c 5.148028
_cell_angle_alpha 90.000000
_cell_angle_beta 90.000000
_cell_angle_gamma 90.000000
_cell_volume 2290.249562
_symmetry_space_group_name_H-M "P B A N"
_symmetry_group_IT_number 50
_space_group.IT_coordinate_system_code '2'
_symmetry_cell_setting 'orthorhombic'
loop_
_space_group_symop_operation_xyz
x,y,z
1/2-x,1/2-y,z
x,1/2-y,-z
1/2-x,y,-z
-x,-y,-z
1/2+x,1/2+y,-z
-x,1/2+y,z
1/2+x,-y,z
loop_
_atom_site_type_symbol
_atom_site_label
_atom_site_fract_x
_atom_site_fract_y
_atom_site_fract_z
Si Si1 0.750000 0.250000 0.500000
Si Si2 0.644030 0.191290 0.189147
Si Si3 0.792217 0.433178 0.238569
Si Si4 0.962017 0.573299 0.742424
Si Si5 0.415694 0.491438 0.237405
Si Si6 0.500868 0.209979 0.260136
O O1 0.704391 0.200706 0.369670
O O2 0.664988 0.122437 0.098685
O O3 0.574657 0.190148 0.327747
O O4 0.645178 0.250000 0.000000
O O5 0.750000 0.418957 0.500000
O O6 0.844230 0.485944 0.310758
O O7 0.750000 0.458625 0.000000
O O8 0.937100 0.557134 0.456923
O O9 0.035256 0.549634 0.776735
O O10 0.959309 0.647848 0.774022
O O11 0.915953 0.543524 0.960609
O O12 0.473581 0.250000 0.500000
O O13 0.496905 0.250000 0.000000
#
# Coordination Sequence:
#
# PCOD8205195 Si02
#       6
#     2   8   8   8   8   8
#     4  12  18  36  44  66 104 160 198 216 262 284
#     4  11  23  34  48  72 110 156 196 231 261 303
#     4  12  24  38  56  81 114 148 199 239 270 328
#     4  10  20  38  58  78 111 144 191 233 284 341
#     4  10  21  37  58  80 106 152 188 231 289 330
#     4  11  22  36  56  83 112 144 188 238 274 320
#
# _framework density 18.338614
#
# number of rings (size 3 to 8) (size 9 to 14) (size 15 to 20)
#    0.000    1.143    3.810    3.714    0.000    0.000 
#    0.000    0.000    0.000    0.000    0.000    0.000 
#    0.000   53.333    0.000    0.000    0.000    0.000 
#
# Total GULP energy -520319.820241 kJ/mol
# GULP energy per Si atom -12388.567149 kJ/mol
# Density = 1.829687 g / cm^3
# Si number density = 18.338614 Si / 1000 Ang^3
#
#
#
# Elastic Constant Matrix: (Units=GPa)
#
#
# Indices 1 2 3 4 5 6 
#
# 1 54.9889 32.8614 12.9779 0.0000 0.0000 0.0000
# 2 32.8614 106.8755 28.0316 0.0000 0.0000 0.0000
# 3 12.9779 28.0316 94.7546 0.0000 0.0000 0.0000
# 4 0.0000 0.0000 0.0000 24.3944 0.0000 0.0000
# 5 0.0000 0.0000 0.0000 0.0000 15.0383 0.0000
# 6 0.0000 0.0000 0.0000 0.0000 0.0000 23.3621
#
#
#
# Elastic Compliance Matrix: (Units=1/GPa)
#
#
# Indices 1 2 3 4 5 6 
#
# 1 0.022388 -0.006591 -0.001117 0.000000 0.000000 0.000000
# 2 -0.006591 0.012084 -0.002672 0.000000 0.000000 0.000000
# 3 -0.001117 -0.002672 0.011497 0.000000 0.000000 0.000000
# 4 0.000000 0.000000 0.000000 0.040993 0.000000 0.000000
# 5 0.000000 0.000000 0.000000 0.000000 0.066497 0.000000
# 6 0.000000 0.000000 0.000000 0.000000 0.000000 0.042804
#
#
# Mechanical properties :
#
#
# Convention : Reuss Voigt Hill
#
# Bulk Modulus (GPa) = 39.66713 44.92897 42.29805
# Shear Modulus (GPa) = 22.18030 24.74216 23.46123
#
# Velocity S-wave (km/s) = 3.48154 3.67711 3.58066
# Velocity P-wave (km/s) = 6.15133 6.52541 6.34113
#
# Compressibility (1/GPa) = 0.02520979
#
# Stress axis : x y z
#
# Youngs Moduli (GPa) = 44.66753 82.75391 86.97913
#
# Poissons Ratio (x) = 0.54541 0.09711
# Poissons Ratio (y) = 0.29439 0.23242
# Poissons Ratio (z) = 0.04987 0.22113
#
# Static dielectric constant tensor:
#      x y z
#    x 2.851130 0.000000 0.000000 
#    y 0.000000 3.431740 0.000000 
#    z 0.000000 0.000000 3.319030 
# 
# 
# High freq. dielectric constant tensor:
#      x y z
#    x 1.683570 0.000000 0.000000 
#    y 0.000000 1.707150 0.000000 
#    z 0.000000 0.000000 1.714530 
# 
# From -- ./inp_files/5243.got.cif
#   From: 2010.03.12/outbox.cif.g09.slc.cpg/sg50_3_cif.got.tgz:5243.got - 2010.04.16 13:23:21.
