data_PCOD8205871
_publ_section_title
;
Structure prediction by ZEFSAII (Michael W. Deem and Ramdas Pophale) SiO2 
 PCOD8205871
Probable space group: P B A N
;
_chemical_formula_sum "Si O2"
_cell_formula_units_Z 38
_cell_length_a 9.405734
_cell_length_b 24.220558
_cell_length_c 7.732594
_cell_angle_alpha 90.000000
_cell_angle_beta 90.000000
_cell_angle_gamma 90.000000
_cell_volume 1761.578678
_symmetry_space_group_name_H-M "P B A N"
_symmetry_group_IT_number 50
_space_group.IT_coordinate_system_code '2'
_symmetry_cell_setting 'orthorhombic'
loop_
_space_group_symop_operation_xyz
x,y,z
1/2-x,1/2-y,z
x,1/2-y,-z
1/2-x,y,-z
-x,-y,-z
1/2+x,1/2+y,-z
-x,1/2+y,z
1/2+x,-y,z
loop_
_atom_site_type_symbol
_atom_site_label
_atom_site_fract_x
_atom_site_fract_y
_atom_site_fract_z
Si Si1 0.750000 0.513536 0.000000
Si Si2 0.446865 0.396033 0.145819
Si Si3 0.777177 0.812552 0.299109
Si Si4 0.750000 0.250000 0.000000
Si Si5 0.417051 0.657525 0.170339
Si Si6 0.291196 0.568711 0.686231
O O1 0.884479 0.550813 0.049275
O O2 0.717167 0.477738 0.167934
O O3 0.324448 0.352781 0.191540
O O4 0.543281 0.411354 0.312944
O O5 0.560676 0.370493 0.014766
O O6 0.750000 0.750000 0.234915
O O7 0.750000 0.818599 0.500000
O O8 0.937076 0.831566 0.269337
O O9 0.655426 0.215646 0.133444
O O10 0.316611 0.619372 0.286624
O O11 0.250000 0.542736 0.500000
#
# Coordination Sequence:
#
# PCOD8205871 Si02
#       6
#     4   8   8   2   8   8
#     4  12  25  46  73  99 136 185 240 290 350 414
#     4  12  23  46  72 100 138 182 234 292 344 415
#     4  11  25  43  68 104 143 181 233 283 347 423
#     4  12  22  40  80 100 140 184 238 272 360 428
#     4  12  23  45  70 102 136 184 231 283 346 419
#     4  12  27  46  70 101 142 183 234 292 352 413
#
# _framework density 21.571558
#
# number of rings (size 3 to 8) (size 9 to 14) (size 15 to 20)
#    0.000    0.211    6.316    3.158    0.000    2.526 
#    0.000    0.000    0.000    0.000    0.000    0.000 
#    0.000    0.000    0.000    0.000    0.000    0.000 
#
# Total GULP energy -471335.567324 kJ/mol
# GULP energy per Si atom -12403.567561 kJ/mol
# Density = 2.152246 g / cm^3
# Si number density = 21.571558 Si / 1000 Ang^3
#
#
#
# Elastic Constant Matrix: (Units=GPa)
#
#
# Indices 1 2 3 4 5 6 
#
# 1 148.9259 62.5670 52.9944 0.0000 0.0000 0.0000
# 2 62.5670 137.9290 54.5614 0.0000 0.0000 0.0000
# 3 52.9944 54.5614 125.4226 0.0000 0.0000 0.0000
# 4 0.0000 0.0000 0.0000 26.7735 0.0000 0.0000
# 5 0.0000 0.0000 0.0000 0.0000 33.1407 0.0000
# 6 0.0000 0.0000 0.0000 0.0000 0.0000 54.9725
#
#
#
# Elastic Compliance Matrix: (Units=1/GPa)
#
#
# Indices 1 2 3 4 5 6 
#
# 1 0.008860 -0.003066 -0.002410 0.000000 0.000000 0.000000
# 2 -0.003066 0.009818 -0.002976 0.000000 0.000000 0.000000
# 3 -0.002410 -0.002976 0.010286 0.000000 0.000000 0.000000
# 4 0.000000 0.000000 0.000000 0.037350 0.000000 0.000000
# 5 0.000000 0.000000 0.000000 0.000000 0.030174 0.000000
# 6 0.000000 0.000000 0.000000 0.000000 0.000000 0.018191
#
#
# Mechanical properties :
#
#
# Convention : Reuss Voigt Hill
#
# Bulk Modulus (GPa) = 82.91111 83.61369 83.26240
# Shear Modulus (GPa) = 36.87232 39.12098 37.99665
#
# Velocity S-wave (km/s) = 4.13886 4.26319 4.20148
# Velocity P-wave (km/s) = 7.83320 7.94219 7.88788
#
# Compressibility (1/GPa) = 0.01206111
#
# Stress axis : x y z
#
# Youngs Moduli (GPa) = 112.86187 101.85463 97.22160
#
# Poissons Ratio (x) = 0.31227 0.23431
# Poissons Ratio (y) = 0.34602 0.28929
# Poissons Ratio (z) = 0.27200 0.30308
#
# Static dielectric constant tensor:
#      x y z
#    x 4.202340 0.000000 0.000000 
#    y 0.000000 4.159190 0.000000 
#    z 0.000000 0.000000 3.913460 
# 
# 
# High freq. dielectric constant tensor:
#      x y z
#    x 1.871030 0.000000 0.000000 
#    y 0.000000 1.857530 0.000000 
#    z 0.000000 0.000000 1.842650 
# 
# From -- ./inp_files/9581.got.cif
#   From: 2010.03.12/outbox.cif.g09.slc.cpg/sg50_5_cif.got.tgz:9581.got - 2010.04.16 13:23:21.
