data_PCOD8205423
_publ_section_title
;
Structure prediction by ZEFSAII (Michael W. Deem and Ramdas Pophale) SiO2 
 PCOD8205423
Probable space group: P B A N
;
_chemical_formula_sum "Si O2"
_cell_formula_units_Z 64
_cell_length_a 33.570880
_cell_length_b 11.606252
_cell_length_c 7.663152
_cell_angle_alpha 90.000000
_cell_angle_beta 90.000000
_cell_angle_gamma 90.000000
_cell_volume 2985.809954
_symmetry_space_group_name_H-M "P B A N"
_symmetry_group_IT_number 50
_space_group.IT_coordinate_system_code '2'
_symmetry_cell_setting 'orthorhombic'
loop_
_space_group_symop_operation_xyz
x,y,z
1/2-x,1/2-y,z
x,1/2-y,-z
1/2-x,y,-z
-x,-y,-z
1/2+x,1/2+y,-z
-x,1/2+y,z
1/2+x,-y,z
loop_
_atom_site_type_symbol
_atom_site_label
_atom_site_fract_x
_atom_site_fract_y
_atom_site_fract_z
Si Si1 0.321090 0.019005 0.778184
Si Si2 0.945754 0.483244 0.842005
Si Si3 0.818756 0.375916 0.561759
Si Si4 0.083181 0.199071 0.681977
Si Si5 0.479873 0.349155 0.123077
Si Si6 0.833231 0.770414 0.193226
Si Si7 0.735884 0.561993 0.319954
Si Si8 0.863414 0.123974 0.080186
O O1 0.333655 0.941595 0.612832
O O2 0.337354 0.144331 0.720086
O O3 0.273373 0.039266 0.808718
O O4 0.339354 0.968746 0.959240
O O5 0.936617 0.571843 0.682670
O O6 0.909796 0.404790 0.909739
O O7 0.982333 0.403487 0.775299
O O8 0.957743 0.553699 0.013266
O O9 0.807214 0.250000 0.500000
O O10 0.779588 0.433891 0.640350
O O11 0.850783 0.377640 0.717110
O O12 0.097706 0.250000 0.500000
O O13 0.052636 0.294916 0.749504
O O14 0.122614 0.175692 0.798198
O O15 0.497684 0.250000 0.000000
O O16 0.799359 0.854933 0.261423
O O17 0.818971 0.750000 0.000000
O O18 0.750000 0.620209 0.500000
O O19 0.856371 0.250000 0.000000
#
# Coordination Sequence:
#
# PCOD8205423 Si02
#       8
#     8   8   8   8   8   8   8   8
#     4  11  25  43  68  96 132 176 227 289 346 407
#     4  10  21  40  67  93 129 169 219 276 335 415
#     4  11  24  45  64  92 133 178 226 281 340 412
#     4  11  24  38  64  97 133 175 217 273 346 417
#     4   9  19  41  66  95 127 168 216 265 338 417
#     4  12  25  44  69  99 136 176 233 283 347 423
#     4  10  25  43  69  96 135 176 227 286 354 408
#     4  12  24  43  68  98 131 178 234 282 345 412
#
# _framework density 21.434722000000001
#
# number of rings (size 3 to 8) (size 9 to 14) (size 15 to 20)
#    0.000    1.250    1.250    4.875    5.250    6.750 
#    0.000    1.250    0.000    0.000    0.000    0.000 
#    0.000    0.000    0.000    0.000    0.000    0.000 
#
# Total GULP energy -793076.860588 kJ/mol
# GULP energy per Si atom -12391.825947 kJ/mol
# Density = 2.138594 g / cm^3
# Si number density = 21.434722 Si / 1000 Ang^3
#
#
#
# Elastic Constant Matrix: (Units=GPa)
#
#
# Indices 1 2 3 4 5 6 
#
# 1 153.8008 66.9429 44.9351 0.0000 0.0000 0.0000
# 2 66.9429 124.5495 45.3903 0.0000 0.0000 0.0000
# 3 44.9351 45.3903 86.6281 0.0000 0.0000 0.0000
# 4 0.0000 0.0000 0.0000 31.2444 0.0000 0.0000
# 5 0.0000 0.0000 0.0000 0.0000 20.7687 0.0000
# 6 0.0000 0.0000 0.0000 0.0000 0.0000 39.7612
#
#
#
# Elastic Compliance Matrix: (Units=1/GPa)
#
#
# Indices 1 2 3 4 5 6 
#
# 1 0.008944 -0.003852 -0.002621 0.000000 0.000000 0.000000
# 2 -0.003852 0.011583 -0.004071 0.000000 0.000000 0.000000
# 3 -0.002621 -0.004071 0.015036 0.000000 0.000000 0.000000
# 4 0.000000 0.000000 0.000000 0.032006 0.000000 0.000000
# 5 0.000000 0.000000 0.000000 0.000000 0.048149 0.000000
# 6 0.000000 0.000000 0.000000 0.000000 0.000000 0.025150
#
#
# Mechanical properties :
#
#
# Convention : Reuss Voigt Hill
#
# Bulk Modulus (GPa) = 69.08411 75.50167 72.29289
# Shear Modulus (GPa) = 29.97916 32.20220 31.09068
#
# Velocity S-wave (km/s) = 3.74388 3.88021 3.81265
# Velocity P-wave (km/s) = 7.14064 7.44145 7.29260
#
# Compressibility (1/GPa) = 0.01447511
#
# Stress axis : x y z
#
# Youngs Moduli (GPa) = 111.80141 86.33335 66.50589
#
# Poissons Ratio (x) = 0.33257 0.17432
# Poissons Ratio (y) = 0.43068 0.27074
# Poissons Ratio (z) = 0.29305 0.35146
#
# Static dielectric constant tensor:
#      x y z
#    x 3.967450 0.000000 0.000000 
#    y 0.000000 4.629990 0.000000 
#    z 0.000000 0.000000 3.859080 
# 
# 
# High freq. dielectric constant tensor:
#      x y z
#    x 1.847190 0.000000 0.000000 
#    y 0.000000 1.860630 0.000000 
#    z 0.000000 0.000000 1.827510 
# 
# From -- ./inp_files/17122.got.cif
#   From: 2010.03.12/outbox.cif.g09.slc.cpg/sg50_9_cif.got.tgz:17122.got - 2010.04.16 13:23:21.
