data_PCOD8205009
_publ_section_title
;
Structure prediction by ZEFSAII (Michael W. Deem and Ramdas Pophale) SiO2 
 PCOD8205009
Probable space group: P B A N
;
_chemical_formula_sum "Si O2"
_cell_formula_units_Z 58
_cell_length_a 8.367855
_cell_length_b 23.008681
_cell_length_c 14.664274
_cell_angle_alpha 90.000000
_cell_angle_beta 90.000000
_cell_angle_gamma 90.000000
_cell_volume 2823.361158
_symmetry_space_group_name_H-M "P B A N"
_symmetry_group_IT_number 50
_space_group.IT_coordinate_system_code '2'
_symmetry_cell_setting 'orthorhombic'
loop_
_space_group_symop_operation_xyz
x,y,z
1/2-x,1/2-y,z
x,1/2-y,-z
1/2-x,y,-z
-x,-y,-z
1/2+x,1/2+y,-z
-x,1/2+y,z
1/2+x,-y,z
loop_
_atom_site_type_symbol
_atom_site_label
_atom_site_fract_x
_atom_site_fract_y
_atom_site_fract_z
Si Si1 0.931345 0.573256 0.777522
Si Si2 0.573893 0.558629 0.535616
Si Si3 0.084103 0.683844 0.845050
Si Si4 0.435889 0.633912 0.393205
Si Si5 0.142098 0.850853 0.718774
Si Si6 0.750000 0.250000 0.000000
Si Si7 0.573082 0.949136 0.247987
Si Si8 0.065365 0.245628 0.686501
O O1 0.743458 0.565406 0.797030
O O2 0.010187 0.618433 0.850123
O O3 0.950350 0.597661 0.675430
O O4 0.021452 0.512079 0.787201
O O5 0.750000 0.567752 0.500000
O O6 0.500000 0.500000 0.500000
O O7 0.465519 0.611508 0.495702
O O8 0.575121 0.557122 0.643422
O O9 0.247717 0.685491 0.787361
O O10 0.128555 0.709241 0.943287
O O11 0.956285 0.723816 0.791140
O O12 0.252185 0.622694 0.362477
O O13 0.479953 0.701960 0.384793
O O14 0.059092 0.901314 0.779758
O O15 0.010033 0.809176 0.674016
O O16 0.250000 0.250000 0.661791
#
# Coordination Sequence:
#
# PCOD8205009 Si02
#       8
#     8   8   8   8   8   2   8   8
#     4  10  20  36  56  90 116 166 205 255 298 384
#     4  12  24  35  52  84 120 160 208 278 317 344
#     4  10  21  38  66  94 124 149 198 246 314 379
#     4  10  20  35  54  82 121 154 220 259 316 354
#     4  10  20  36  60  85 116 165 206 250 298 389
#     4  12  20  44  70 104 124 154 182 264 322 376
#     4  12  21  36  61  84 123 166 218 255 307 356
#     4  10  19  37  62  87 118 166 208 253 300 388
#
# _framework density 20.542891000000001
#
# number of rings (size 3 to 8) (size 9 to 14) (size 15 to 20)
#    0.000    1.655    4.138    4.552    1.931    0.000 
#    0.000    1.034    0.000    6.621    0.000    0.000 
#    0.000    0.000    0.000    0.000    0.000    0.000 
#
# Total GULP energy -719087.595275 kJ/mol
# GULP energy per Si atom -12398.061988 kJ/mol
# Density = 2.049613 g / cm^3
# Si number density = 20.542891 Si / 1000 Ang^3
#
#
#
# Elastic Constant Matrix: (Units=GPa)
#
#
# Indices 1 2 3 4 5 6 
#
# 1 132.0715 43.9451 18.9928 0.0000 0.0000 0.0000
# 2 43.9451 127.7165 27.9699 0.0000 0.0000 0.0000
# 3 18.9928 27.9699 68.1729 0.0000 0.0000 0.0000
# 4 0.0000 0.0000 0.0000 25.8173 0.0000 0.0000
# 5 0.0000 0.0000 0.0000 0.0000 19.3196 0.0000
# 6 0.0000 0.0000 0.0000 0.0000 0.0000 41.3810
#
#
#
# Elastic Compliance Matrix: (Units=1/GPa)
#
#
# Indices 1 2 3 4 5 6 
#
# 1 0.008655 -0.002692 -0.001307 0.000000 0.000000 0.000000
# 2 -0.002692 0.009440 -0.003123 0.000000 0.000000 0.000000
# 3 -0.001307 -0.003123 0.016314 0.000000 0.000000 0.000000
# 4 0.000000 0.000000 0.000000 0.038734 0.000000 0.000000
# 5 0.000000 0.000000 0.000000 0.000000 0.051761 0.000000
# 6 0.000000 0.000000 0.000000 0.000000 0.000000 0.024166
#
#
# Mechanical properties :
#
#
# Convention : Reuss Voigt Hill
#
# Bulk Modulus (GPa) = 49.58961 56.64185 53.11573
# Shear Modulus (GPa) = 29.40566 33.10712 31.25639
#
# Velocity S-wave (km/s) = 3.78753 4.01884 3.90490
# Velocity P-wave (km/s) = 6.58172 7.01193 6.80023
#
# Compressibility (1/GPa) = 0.02016551
#
# Stress axis : x y z
#
# Youngs Moduli (GPa) = 115.53602 105.93162 61.29699
#
# Poissons Ratio (x) = 0.28516 0.08011
# Poissons Ratio (y) = 0.31102 0.19144
# Poissons Ratio (z) = 0.15099 0.33083
#
# Static dielectric constant tensor:
#      x y z
#    x 4.063410 0.000000 0.000000 
#    y 0.000000 3.896830 0.000000 
#    z 0.000000 0.000000 3.259930 
# 
# 
# High freq. dielectric constant tensor:
#      x y z
#    x 1.819710 0.000000 0.000000 
#    y 0.000000 1.821100 0.000000 
#    z 0.000000 0.000000 1.738050 
# 
# From -- ./inp_files/25396.got.cif
#   From: 2010.03.12/outbox.cif.g09.slc.cpg/sg50_13_cif.got.tgz:25396.got - 2010.04.16 13:23:21.
