data_PCOD8205457
_publ_section_title
;
Structure prediction by ZEFSAII (Michael W. Deem and Ramdas Pophale) SiO2 
 PCOD8205457
Probable space group: P B A N
;
_chemical_formula_sum "Si O2"
_cell_formula_units_Z 32
_cell_length_a 5.236217
_cell_length_b 16.051073
_cell_length_c 18.078827
_cell_angle_alpha 90.000000
_cell_angle_beta 90.000000
_cell_angle_gamma 90.000000
_cell_volume 1519.469389
_symmetry_space_group_name_H-M "P B A N"
_symmetry_group_IT_number 50
_space_group.IT_coordinate_system_code '2'
_symmetry_cell_setting 'orthorhombic'
loop_
_space_group_symop_operation_xyz
x,y,z
1/2-x,1/2-y,z
x,1/2-y,-z
1/2-x,y,-z
-x,-y,-z
1/2+x,1/2+y,-z
-x,1/2+y,z
1/2+x,-y,z
loop_
_atom_site_type_symbol
_atom_site_label
_atom_site_fract_x
_atom_site_fract_y
_atom_site_fract_z
Si Si1 0.250000 0.750000 0.000000
Si Si2 0.603085 0.331195 0.382124
Si Si3 0.027829 0.056247 0.248837
Si Si4 0.509502 0.200356 0.859081
Si Si5 0.250000 0.553830 0.500000
Si Si6 0.250000 0.250000 0.500000
O O1 0.431607 0.692990 0.947396
O O2 0.750000 0.250000 0.351958
O O3 0.464197 0.375465 0.313944
O O4 0.792816 0.393792 0.424183
O O5 0.408721 0.309839 0.447344
O O6 0.015433 0.107075 0.172166
O O7 0.284911 0.003472 0.253993
O O8 0.250000 0.250000 0.843139
O O9 0.750000 0.250000 0.821726
O O10 0.500000 0.500000 0.500000
#
# Coordination Sequence:
#
# PCOD8205457 Si02
#       6
#     2   8   8   8   4   2
#     4   8  22  40  78 108 134 182 236 272 326 396
#     4  12  26  44  67  98 128 184 238 286 342 418
#     4  12  28  46  68 104 144 182 223 288 357 407
#     4  10  21  43  74 105 136 183 234 270 329 409
#     4  12  24  42  63  93 132 168 214 284 350 400
#     4  12  24  44  72  92 128 168 254 286 338 390
#
# _framework density 21.059982000000002
#
# number of rings (size 3 to 8) (size 9 to 14) (size 15 to 20)
#    0.750    0.000    2.500    4.875    5.250    0.000 
#    0.000    1.250    0.000    0.000    0.000    0.000 
#    0.000    0.000    0.000    0.000    0.000    0.000 
#
# Total GULP energy -396680.471057 kJ/mol
# GULP energy per Si atom -12396.264721 kJ/mol
# Density = 2.101205 g / cm^3
# Si number density = 21.059982 Si / 1000 Ang^3
#
#
#
# Elastic Constant Matrix: (Units=GPa)
#
#
# Indices 1 2 3 4 5 6 
#
# 1 110.0194 33.7655 7.3768 0.0000 0.0000 0.0000
# 2 33.7655 112.3858 43.5928 0.0000 0.0000 0.0000
# 3 7.3768 43.5928 116.5504 0.0000 0.0000 0.0000
# 4 0.0000 0.0000 0.0000 10.5137 0.0000 0.0000
# 5 0.0000 0.0000 0.0000 0.0000 62.7859 0.0000
# 6 0.0000 0.0000 0.0000 0.0000 0.0000 19.9498
#
#
#
# Elastic Compliance Matrix: (Units=1/GPa)
#
#
# Indices 1 2 3 4 5 6 
#
# 1 0.010046 -0.003242 0.000577 0.000000 0.000000 0.000000
# 2 -0.003242 0.011454 -0.004079 0.000000 0.000000 0.000000
# 3 0.000577 -0.004079 0.010069 0.000000 0.000000 0.000000
# 4 0.000000 0.000000 0.000000 0.095114 0.000000 0.000000
# 5 0.000000 0.000000 0.000000 0.000000 0.015927 0.000000
# 6 0.000000 0.000000 0.000000 0.000000 0.000000 0.050126
#
#
# Mechanical properties :
#
#
# Convention : Reuss Voigt Hill
#
# Bulk Modulus (GPa) = 55.30772 56.49176 55.89974
# Shear Modulus (GPa) = 23.55710 35.59791 29.57750
#
# Velocity S-wave (km/s) = 3.34813 4.11580 3.75165
# Velocity P-wave (km/s) = 6.42384 7.03341 6.73552
#
# Compressibility (1/GPa) = 0.01808066
#
# Stress axis : x y z
#
# Youngs Moduli (GPa) = 99.54637 87.30532 99.31382
#
# Poissons Ratio (x) = 0.28303 -0.05727
# Poissons Ratio (y) = 0.32271 0.40509
# Poissons Ratio (z) = -0.05741 0.35611
#
# Static dielectric constant tensor:
#      x y z
#    x 3.907300 0.000000 0.000000 
#    y 0.000000 3.595280 0.000000 
#    z 0.000000 0.000000 3.818190 
# 
# 
# High freq. dielectric constant tensor:
#      x y z
#    x 1.837010 0.000000 0.000000 
#    y 0.000000 1.827470 0.000000 
#    z 0.000000 0.000000 1.822270 
# 
# From -- ./inp_files/27977.got.cif
#   From: 2010.03.12/outbox.cif.g09.slc.cpg/sg50_14_cif.got.tgz:27977.got - 2010.04.16 13:23:21.
