data_PCOD8205869
_publ_section_title
;
Structure prediction by ZEFSAII (Michael W. Deem and Ramdas Pophale) SiO2 
 PCOD8205869
Probable space group: P B A N
;
_chemical_formula_sum "Si O2"
_cell_formula_units_Z 48
_cell_length_a 28.895323
_cell_length_b 9.147197
_cell_length_c 8.525920
_cell_angle_alpha 90.000000
_cell_angle_beta 90.000000
_cell_angle_gamma 90.000000
_cell_volume 2253.496247
_symmetry_space_group_name_H-M "P B A N"
_symmetry_group_IT_number 50
_space_group.IT_coordinate_system_code '2'
_symmetry_cell_setting 'orthorhombic'
loop_
_space_group_symop_operation_xyz
x,y,z
1/2-x,1/2-y,z
x,1/2-y,-z
1/2-x,y,-z
-x,-y,-z
1/2+x,1/2+y,-z
-x,1/2+y,z
1/2+x,-y,z
loop_
_atom_site_type_symbol
_atom_site_label
_atom_site_fract_x
_atom_site_fract_y
_atom_site_fract_z
Si Si1 0.530022 0.888438 0.601755
Si Si2 0.114573 0.438123 0.851861
Si Si3 0.471456 0.887045 0.894629
Si Si4 0.301968 0.926798 0.329024
Si Si5 0.196756 0.592842 0.692191
Si Si6 0.883988 0.890112 0.214329
O O1 0.543637 0.750000 0.500000
O O2 0.503350 0.828281 0.754462
O O3 0.577874 0.961168 0.667794
O O4 0.500000 0.000000 0.500000
O O5 0.071898 0.540675 0.801427
O O6 0.163841 0.508050 0.811223
O O7 0.113961 0.284314 0.761783
O O8 0.105116 0.425451 0.035814
O O9 0.455272 0.750000 0.000000
O O10 0.500000 0.000000 0.000000
O O11 0.314476 0.937951 0.511623
O O12 0.249144 0.962740 0.283657
O O13 0.310929 0.762973 0.269008
O O14 0.333363 0.046165 0.244953
#
# Coordination Sequence:
#
# PCOD8205869 Si02
#       6
#     8   8   8   8   8   8
#     4  12  27  44  66  98 132 172 227 283 336 402
#     4  11  25  42  66  94 131 177 221 268 335 405
#     4  12  25  46  69  94 136 182 222 278 346 411
#     4   9  21  42  67  96 135 167 217 276 329 396
#     4   9  21  42  67  98 129 173 218 270 332 398
#     4  11  25  43  63  95 133 173 218 277 332 397
#
# _framework density 21.300236999999999
#
# number of rings (size 3 to 8) (size 9 to 14) (size 15 to 20)
#    0.000    1.333    1.667    4.000    7.000    1.333 
#    0.000    5.000    0.000    0.000    0.000    0.000 
#    0.000    0.000    0.000    0.000    0.000    0.000 
#
# Total GULP energy -595130.274562 kJ/mol
# GULP energy per Si atom -12398.547387 kJ/mol
# Density = 2.125176 g / cm^3
# Si number density = 21.300237 Si / 1000 Ang^3
#
#
#
# Elastic Constant Matrix: (Units=GPa)
#
#
# Indices 1 2 3 4 5 6 
#
# 1 139.2738 54.9501 43.0164 0.0000 0.0000 0.0000
# 2 54.9501 90.2321 29.0194 0.0000 0.0000 0.0000
# 3 43.0164 29.0194 79.0659 0.0000 0.0000 0.0000
# 4 0.0000 0.0000 0.0000 36.4271 0.0000 0.0000
# 5 0.0000 0.0000 0.0000 0.0000 47.4235 0.0000
# 6 0.0000 0.0000 0.0000 0.0000 0.0000 39.9994
#
#
#
# Elastic Compliance Matrix: (Units=1/GPa)
#
#
# Indices 1 2 3 4 5 6 
#
# 1 0.010352 -0.005094 -0.003762 0.000000 0.000000 0.000000
# 2 -0.005094 0.015073 -0.002761 0.000000 0.000000 0.000000
# 3 -0.003762 -0.002761 0.015708 0.000000 0.000000 0.000000
# 4 0.000000 0.000000 0.000000 0.027452 0.000000 0.000000
# 5 0.000000 0.000000 0.000000 0.000000 0.021087 0.000000
# 6 0.000000 0.000000 0.000000 0.000000 0.000000 0.025000
#
#
# Mechanical properties :
#
#
# Convention : Reuss Voigt Hill
#
# Bulk Modulus (GPa) = 55.87144 62.50485 59.18815
# Shear Modulus (GPa) = 34.75311 36.87574 35.81442
#
# Velocity S-wave (km/s) = 4.04367 4.16533 4.10495
# Velocity P-wave (km/s) = 6.93463 7.24856 7.09333
#
# Compressibility (1/GPa) = 0.01789823
#
# Stress axis : x y z
#
# Youngs Moduli (GPa) = 96.59890 66.34529 63.66250
#
# Poissons Ratio (x) = 0.33798 0.23952
# Poissons Ratio (y) = 0.49210 0.17574
# Poissons Ratio (z) = 0.36344 0.18315
#
# Static dielectric constant tensor:
#      x y z
#    x 3.965150 0.000000 0.000000 
#    y 0.000000 4.014450 0.000000 
#    z 0.000000 0.000000 3.923100 
# 
# 
# High freq. dielectric constant tensor:
#      x y z
#    x 1.845870 0.000000 0.000000 
#    y 0.000000 1.827100 0.000000 
#    z 0.000000 0.000000 1.838930 
# 
# From -- ./inp_files/16930.got.cif
#   From: 2010.03.12/outbox.cif.g09.slc.cpg/sg50_9_cif.got.tgz:16930.got - 2010.04.16 13:23:21.
