data_PCOD8205240
_publ_section_title
;
Structure prediction by ZEFSAII (Michael W. Deem and Ramdas Pophale) SiO2 
 PCOD8205240
Probable space group: P B A N
;
_chemical_formula_sum "Si O2"
_cell_formula_units_Z 64
_cell_length_a 29.518700
_cell_length_b 12.612285
_cell_length_c 9.099782
_cell_angle_alpha 90.000000
_cell_angle_beta 90.000000
_cell_angle_gamma 90.000000
_cell_volume 3387.832980
_symmetry_space_group_name_H-M "P B A N"
_symmetry_group_IT_number 50
_space_group.IT_coordinate_system_code '2'
_symmetry_cell_setting 'orthorhombic'
loop_
_space_group_symop_operation_xyz
x,y,z
1/2-x,1/2-y,z
x,1/2-y,-z
1/2-x,y,-z
-x,-y,-z
1/2+x,1/2+y,-z
-x,1/2+y,z
1/2+x,-y,z
loop_
_atom_site_type_symbol
_atom_site_label
_atom_site_fract_x
_atom_site_fract_y
_atom_site_fract_z
Si Si1 0.696223 0.371154 0.018932
Si Si2 0.644707 0.005614 0.723354
Si Si3 0.105089 0.869894 0.466667
Si Si4 0.066386 0.120923 0.158760
Si Si5 0.155327 0.000277 0.242108
Si Si6 0.196852 0.131095 0.487666
Si Si7 0.515503 0.459925 0.653449
Si Si8 0.566160 0.860666 0.825905
O O1 0.675482 0.419218 0.170845
O O2 0.678160 0.250000 0.000000
O O3 0.750000 0.371250 0.000000
O O4 0.681880 0.447485 0.888885
O O5 0.677930 0.939759 0.619634
O O6 0.612850 0.925583 0.813160
O O7 0.608975 0.070654 0.623113
O O8 0.114530 0.750000 0.500000
O O9 0.058168 0.884243 0.378854
O O10 0.144595 0.909515 0.360143
O O11 0.111536 0.053754 0.173221
O O12 0.075688 0.239000 0.218464
O O13 0.027124 0.062699 0.249376
O O14 0.049359 0.126725 0.992113
O O15 0.184574 0.088794 0.325796
O O16 0.177093 0.250000 0.500000
O O17 0.250000 0.131143 0.500000
O O18 0.500000 0.500000 0.500000
O O19 0.474937 0.395548 0.724357
#
# Coordination Sequence:
#
# PCOD8205240 Si02
#       8
#     8   8   8   8   8   8   8   8
#     4  11  23  39  63  93 122 158 201 250 306 363
#     4  11  21  39  62  86 120 159 199 244 301 355
#     4  10  22  38  58  86 116 158 200 244 296 351
#     4  10  23  40  59  86 118 160 198 243 298 357
#     4  10  20  40  60  83 124 155 200 248 296 361
#     4  10  21  37  58  87 119 155 198 245 301 358
#     4  11  23  38  58  88 119 151 198 249 291 347
#     4  11  22  39  62  84 120 158 201 243 296 361
#
# _framework density 18.891131999999999
#
# number of rings (size 3 to 8) (size 9 to 14) (size 15 to 20)
#    0.000    1.500    2.500    2.625    1.750    0.000 
#    0.000    0.000    0.000    9.000    0.000    0.000 
#    0.000    0.000    0.000    0.000    0.000    0.000 
#
# Total GULP energy -793416.844121 kJ/mol
# GULP energy per Si atom -12397.138189 kJ/mol
# Density = 1.884814 g / cm^3
# Si number density = 18.891132 Si / 1000 Ang^3
#
#
#
# Elastic Constant Matrix: (Units=GPa)
#
#
# Indices 1 2 3 4 5 6 
#
# 1 72.5272 35.2776 30.9634 0.0000 0.0000 0.0000
# 2 35.2776 142.4013 54.4607 0.0000 0.0000 0.0000
# 3 30.9634 54.4607 113.7753 0.0000 0.0000 0.0000
# 4 0.0000 0.0000 0.0000 7.3592 0.0000 0.0000
# 5 0.0000 0.0000 0.0000 0.0000 22.4309 0.0000
# 6 0.0000 0.0000 0.0000 0.0000 0.0000 70.8796
#
#
#
# Elastic Compliance Matrix: (Units=1/GPa)
#
#
# Indices 1 2 3 4 5 6 
#
# 1 0.016528 -0.002906 -0.003107 0.000000 0.000000 0.000000
# 2 -0.002906 0.009107 -0.003568 0.000000 0.000000 0.000000
# 3 -0.003107 -0.003568 0.011343 0.000000 0.000000 0.000000
# 4 0.000000 0.000000 0.000000 0.135885 0.000000 0.000000
# 5 0.000000 0.000000 0.000000 0.000000 0.044581 0.000000
# 6 0.000000 0.000000 0.000000 0.000000 0.000000 0.014108
#
#
# Mechanical properties :
#
#
# Convention : Reuss Voigt Hill
#
# Bulk Modulus (GPa) = 56.13294 63.34525 59.73910
# Shear Modulus (GPa) = 19.48151 34.00073 26.74112
#
# Velocity S-wave (km/s) = 3.21479 4.24704 3.76645
# Velocity P-wave (km/s) = 6.59987 7.59304 7.11381
#
# Compressibility (1/GPa) = 0.01781485
#
# Stress axis : x y z
#
# Youngs Moduli (GPa) = 60.50357 109.80442 88.16153
#
# Poissons Ratio (x) = 0.31913 0.27390
# Poissons Ratio (y) = 0.17584 0.31459
# Poissons Ratio (z) = 0.18797 0.39182
#
# Static dielectric constant tensor:
#      x y z
#    x 3.368440 0.000000 0.000000 
#    y 0.000000 3.770330 0.000000 
#    z 0.000000 0.000000 3.553340 
# 
# 
# High freq. dielectric constant tensor:
#      x y z
#    x 1.734240 0.000000 0.000000 
#    y 0.000000 1.745060 0.000000 
#    z 0.000000 0.000000 1.747220 
# 
# From -- ./inp_files/11834.got.cif
#   From: 2010.03.12/outbox.cif.g09.slc.cpg/sg50_6_cif.got.tgz:11834.got - 2010.04.16 13:23:21.
