data_PCOD8205580
_publ_section_title
;
Structure prediction by ZEFSAII (Michael W. Deem and Ramdas Pophale) SiO2 
 PCOD8205580
Probable space group: P B A N
;
_chemical_formula_sum "Si O2"
_cell_formula_units_Z 38
_cell_length_a 11.203208
_cell_length_b 26.962678
_cell_length_c 5.287778
_cell_angle_alpha 90.000000
_cell_angle_beta 90.000000
_cell_angle_gamma 90.000000
_cell_volume 1597.271115
_symmetry_space_group_name_H-M "P B A N"
_symmetry_group_IT_number 50
_space_group.IT_coordinate_system_code '2'
_symmetry_cell_setting 'orthorhombic'
loop_
_space_group_symop_operation_xyz
x,y,z
1/2-x,1/2-y,z
x,1/2-y,-z
1/2-x,y,-z
-x,-y,-z
1/2+x,1/2+y,-z
-x,1/2+y,z
1/2+x,-y,z
loop_
_atom_site_type_symbol
_atom_site_label
_atom_site_fract_x
_atom_site_fract_y
_atom_site_fract_z
Si Si1 0.680596 0.842472 0.750107
Si Si2 0.250000 0.750000 0.000000
Si Si3 0.429171 0.699983 0.346187
Si Si4 0.907290 0.053199 0.228728
Si Si5 0.441681 0.058521 0.261254
Si Si6 0.250000 0.620539 0.500000
O O1 0.750000 0.824215 0.500000
O O2 0.553766 0.815613 0.771631
O O3 0.664883 0.901684 0.741554
O O4 0.750000 0.825726 0.000000
O O5 0.331122 0.711011 0.140094
O O6 0.448653 0.750000 0.500000
O O7 0.370623 0.653584 0.491322
O O8 0.782581 0.083358 0.265908
O O9 0.991555 0.062896 0.471557
O O10 0.879614 0.994569 0.216495
O O11 0.968726 0.071149 0.969783
#
# Coordination Sequence:
#
# PCOD8205580 Si02
#       6
#     8   2   8   8   8   4
#     4  12  29  50  78 106 152 205 253 302 368 456
#     4  12  26  48  86 106 152 188 242 342 402 444
#     4  12  28  50  76 113 148 193 256 322 394 447
#     4  10  23  40  73 107 150 192 246 303 369 443
#     4  10  22  46  67 105 151 198 246 299 360 445
#     4  12  23  46  76 114 150 194 249 324 388 462
#
# _framework density 23.790576000000001
#
# number of rings (size 3 to 8) (size 9 to 14) (size 15 to 20)
#    0.000    0.842    4.211    1.263    7.368    1.263 
#    0.000    0.000    0.000    0.000    0.000    0.000 
#    0.000    0.000    0.000    0.000    0.000    0.000 
#
# Total GULP energy -471092.174227 kJ/mol
# GULP energy per Si atom -12397.162480 kJ/mol
# Density = 2.373643 g / cm^3
# Si number density = 23.790576 Si / 1000 Ang^3
#
#
#
# Elastic Constant Matrix: (Units=GPa)
#
#
# Indices 1 2 3 4 5 6 
#
# 1 150.0154 62.0544 56.4952 0.0000 0.0000 0.0000
# 2 62.0544 126.0015 26.1357 0.0000 0.0000 0.0000
# 3 56.4952 26.1357 142.3345 0.0000 0.0000 0.0000
# 4 0.0000 0.0000 0.0000 24.3768 0.0000 0.0000
# 5 0.0000 0.0000 0.0000 0.0000 45.5876 0.0000
# 6 0.0000 0.0000 0.0000 0.0000 0.0000 37.9710
#
#
#
# Elastic Compliance Matrix: (Units=1/GPa)
#
#
# Indices 1 2 3 4 5 6 
#
# 1 0.009474 -0.004040 -0.003019 0.000000 0.000000 0.000000
# 2 -0.004040 0.009973 -0.000228 0.000000 0.000000 0.000000
# 3 -0.003019 -0.000228 0.008266 0.000000 0.000000 0.000000
# 4 0.000000 0.000000 0.000000 0.041023 0.000000 0.000000
# 5 0.000000 0.000000 0.000000 0.000000 0.021936 0.000000
# 6 0.000000 0.000000 0.000000 0.000000 0.000000 0.026336
#
#
# Mechanical properties :
#
#
# Convention : Reuss Voigt Hill
#
# Bulk Modulus (GPa) = 76.10072 78.63576 77.36824
# Shear Modulus (GPa) = 36.77575 39.83147 38.30361
#
# Velocity S-wave (km/s) = 3.93595 4.09620 4.01687
# Velocity P-wave (km/s) = 7.26036 7.44963 7.35560
#
# Compressibility (1/GPa) = 0.01314048
#
# Stress axis : x y z
#
# Youngs Moduli (GPa) = 105.55480 100.26926 120.98230
#
# Poissons Ratio (x) = 0.40505 0.36519
# Poissons Ratio (y) = 0.42640 0.02757
# Poissons Ratio (z) = 0.31862 0.02285
#
# Static dielectric constant tensor:
#      x y z
#    x 4.106470 0.000000 0.000000 
#    y 0.000000 4.281010 0.000000 
#    z 0.000000 0.000000 4.388670 
# 
# 
# High freq. dielectric constant tensor:
#      x y z
#    x 1.937490 0.000000 0.000000 
#    y 0.000000 1.962450 0.000000 
#    z 0.000000 0.000000 1.944200 
# 
# From -- ./inp_files/2454.got.cif
#   From: 2010.03.12/outbox.cif.g09.slc.cpg/sg50_2_cif.got.tgz:2454.got - 2010.04.16 13:23:21.
