data_PCOD8205932
_publ_section_title
;
Structure prediction by ZEFSAII (Michael W. Deem and Ramdas Pophale) SiO2 
 PCOD8205932
Probable space group: P M M A
;
_chemical_formula_sum "Si O2"
_cell_formula_units_Z 52
_cell_length_a 8.687974
_cell_length_b 26.851983
_cell_length_c 13.703948
_cell_angle_alpha 90.000000
_cell_angle_beta 90.000000
_cell_angle_gamma 90.000000
_cell_volume 3196.984849
_symmetry_space_group_name_H-M "P M M A"
_symmetry_group_IT_number 51
_symmetry_cell_setting 'orthorhombic'
loop_
_space_group_symop_operation_xyz
x,y,z
1/2-x,-y,z
1/2+x,-y,-z
-x,y,-z
-x,-y,-z
1/2+x,y,-z
1/2-x,y,z
x,-y,z
loop_
_atom_site_type_symbol
_atom_site_label
_atom_site_fract_x
_atom_site_fract_y
_atom_site_fract_z
Si Si1 0.427267 0.403196 0.894637
Si Si2 0.432934 0.848363 0.603992
Si Si3 0.931808 0.887278 0.101786
Si Si4 0.568330 0.945396 0.290781
Si Si5 0.430969 0.500000 0.109011
Si Si6 0.429441 0.292958 0.892544
Si Si7 0.068103 0.797432 0.212418
O O1 0.250000 0.417225 0.904619
O O2 0.509888 0.449192 0.837264
O O3 0.450268 0.348659 0.846955
O O4 0.500000 0.398703 0.000000
O O5 0.500000 0.833287 0.500000
O O6 0.250000 0.845874 0.602704
O O7 0.491761 0.904152 0.632356
O O8 0.493730 0.809278 0.682977
O O9 0.750000 0.879701 0.094995
O O10 0.977400 0.928582 0.181804
O O11 0.007182 0.834707 0.129449
O O12 0.000000 0.906318 0.000000
O O13 0.750000 0.948958 0.299129
O O14 0.494908 0.000000 0.312367
O O15 0.250000 0.500000 0.107253
O O16 0.500000 0.500000 0.000000
O O17 0.250000 0.278595 0.898972
O O18 0.518348 0.257800 0.817375
O O19 0.500000 0.287726 0.000000
O O20 0.250000 0.801593 0.220800
#
# Coordination Sequence:
#
# PCOD8205932 Si02
#       7
#     8   8   8   8   4   8   8
#     4   9  16  25  37  53  77 110 149 189 226 263
#     4  10  20  35  54  73  93 115 142 176 217 267
#     4  10  19  31  47  66  91 121 152 184 218 260
#     4   8  16  31  49  69  93 119 146 178 215 256
#     4  10  16  22  34  50  74 108 149 192 227 260
#     4  10  19  30  44  64  90 120 154 191 229 268
#     4  11  21  33  49  67  89 116 148 185 224 267
#
# _framework density 16.265326999999999
#
# number of rings (size 3 to 8) (size 9 to 14) (size 15 to 20)
#    0.000    2.308    0.000    6.231    0.000    2.462 
#    0.000    0.000    0.000   15.692    0.000    0.000 
#    0.000    0.000    0.000    0.692    0.000    9.154 
#
# Total GULP energy -644521.656470 kJ/mol
# GULP energy per Si atom -12394.647240 kJ/mol
# Density = 1.622831 g / cm^3
# Si number density = 16.265327 Si / 1000 Ang^3
#
#
#
# Elastic Constant Matrix: (Units=GPa)
#
#
# Indices 1 2 3 4 5 6 
#
# 1 104.9937 40.7240 28.1458 0.0000 0.0000 0.0000
# 2 40.7240 115.0236 31.8257 0.0000 0.0000 0.0000
# 3 28.1458 31.8257 77.6020 0.0000 0.0000 0.0000
# 4 0.0000 0.0000 0.0000 9.4634 0.0000 0.0000
# 5 0.0000 0.0000 0.0000 0.0000 21.8851 0.0000
# 6 0.0000 0.0000 0.0000 0.0000 0.0000 21.1746
#
#
#
# Elastic Compliance Matrix: (Units=1/GPa)
#
#
# Indices 1 2 3 4 5 6 
#
# 1 0.011569 -0.003311 -0.002838 0.000000 0.000000 0.000000
# 2 -0.003311 0.010754 -0.003210 0.000000 0.000000 0.000000
# 3 -0.002838 -0.003210 0.015232 0.000000 0.000000 0.000000
# 4 0.000000 0.000000 0.000000 0.105670 0.000000 0.000000
# 5 0.000000 0.000000 0.000000 0.000000 0.045693 0.000000
# 6 0.000000 0.000000 0.000000 0.000000 0.000000 0.047226
#
#
# Mechanical properties :
#
#
# Convention : Reuss Voigt Hill
#
# Bulk Modulus (GPa) = 53.08409 55.44558 54.26484
# Shear Modulus (GPa) = 19.14665 23.63288 21.38976
#
# Velocity S-wave (km/s) = 3.43468 3.81591 3.63030
# Velocity P-wave (km/s) = 6.95964 7.31964 7.14190
#
# Compressibility (1/GPa) = 0.01883804
#
# Stress axis : x y z
#
# Youngs Moduli (GPa) = 86.43469 92.98767 65.65108
#
# Poissons Ratio (x) = 0.30786 0.18634
# Poissons Ratio (y) = 0.28617 0.21071
# Poissons Ratio (z) = 0.24533 0.29845
#
# Static dielectric constant tensor:
#      x y z
#    x 3.082390 0.000000 0.000000 
#    y 0.000000 3.859300 0.000000 
#    z 0.000000 0.000000 2.708870 
# 
# 
# High freq. dielectric constant tensor:
#      x y z
#    x 1.635570 0.000000 0.000000 
#    y 0.000000 1.634450 0.000000 
#    z 0.000000 0.000000 1.574880 
# 
# From -- ./inp_files/22425.got.cif
#   From: 2010.03.12/outbox.cif.g09.slc.cpg/sg51_12_cif.got.tgz:22425.got - 2010.04.16 13:43:02.
