data_PCOD8205046
_publ_section_title
;
Structure prediction by ZEFSAII (Michael W. Deem and Ramdas Pophale) SiO2 
 PCOD8205046
Probable space group: P B A N
;
_chemical_formula_sum "Si O2"
_cell_formula_units_Z 40
_cell_length_a 15.025050
_cell_length_b 26.456745
_cell_length_c 4.900936
_cell_angle_alpha 90.000000
_cell_angle_beta 90.000000
_cell_angle_gamma 90.000000
_cell_volume 1948.190264
_symmetry_space_group_name_H-M "P B A N"
_symmetry_group_IT_number 50
_space_group.IT_coordinate_system_code '2'
_symmetry_cell_setting 'orthorhombic'
loop_
_space_group_symop_operation_xyz
x,y,z
1/2-x,1/2-y,z
x,1/2-y,-z
1/2-x,y,-z
-x,-y,-z
1/2+x,1/2+y,-z
-x,1/2+y,z
1/2+x,-y,z
loop_
_atom_site_type_symbol
_atom_site_label
_atom_site_fract_x
_atom_site_fract_y
_atom_site_fract_z
Si Si1 0.309306 0.029648 0.748871
Si Si2 0.044687 0.802984 0.909817
Si Si3 0.846874 0.171743 0.591829
Si Si4 0.421367 0.934924 0.557576
Si Si5 0.968511 0.909311 0.944845
O O1 0.250000 0.050852 0.500000
O O2 0.368772 0.075363 0.865779
O O3 0.370165 0.985660 0.627120
O O4 0.250000 0.008774 0.000000
O O5 0.079974 0.801603 0.601149
O O6 0.973687 0.848291 0.937641
O O7 0.998886 0.750000 0.000000
O O8 0.131521 0.811655 0.100596
O O9 0.750000 0.190024 0.500000
O O10 0.852274 0.111071 0.579938
O O11 0.459448 0.936410 0.251622
O O12 0.507123 0.928103 0.752768
#
# Coordination Sequence:
#
# PCOD8205046 Si02
#       5
#     8   8   8   8   8
#     4  12  23  35  56  84 111 141 181 228 274 319
#     4  10  21  35  53  75 101 142 184 220 268 320
#     4  10  20  32  50  78 110 139 174 219 262 313
#     4  10  20  36  55  77 110 149 180 208 262 329
#     4  10  21  38  56  77 108 144 182 222 265 325
#
# _framework density 20.531877000000001
#
# number of rings (size 3 to 8) (size 9 to 14) (size 15 to 20)
#    0.000    1.600    0.000    5.400    0.000    5.600 
#    0.000    0.000    0.000    0.600    0.000    1.400 
#    0.000    0.000    0.000    0.000    0.000    0.000 
#
# Total GULP energy -496089.128425 kJ/mol
# GULP energy per Si atom -12402.228211 kJ/mol
# Density = 2.048515 g / cm^3
# Si number density = 20.531877 Si / 1000 Ang^3
#
#
#
# Elastic Constant Matrix: (Units=GPa)
#
#
# Indices 1 2 3 4 5 6 
#
# 1 63.4007 42.9668 7.1979 0.0000 0.0000 0.0000
# 2 42.9668 125.1770 14.5913 0.0000 0.0000 0.0000
# 3 7.1979 14.5913 74.0360 0.0000 0.0000 0.0000
# 4 0.0000 0.0000 0.0000 28.1203 0.0000 0.0000
# 5 0.0000 0.0000 0.0000 0.0000 24.6782 0.0000
# 6 0.0000 0.0000 0.0000 0.0000 0.0000 7.7603
#
#
#
# Elastic Compliance Matrix: (Units=1/GPa)
#
#
# Indices 1 2 3 4 5 6 
#
# 1 0.020582 -0.006992 -0.000623 0.000000 0.000000 0.000000
# 2 -0.006992 0.010552 -0.001400 0.000000 0.000000 0.000000
# 3 -0.000623 -0.001400 0.013843 0.000000 0.000000 0.000000
# 4 0.000000 0.000000 0.000000 0.035562 0.000000 0.000000
# 5 0.000000 0.000000 0.000000 0.000000 0.040522 0.000000
# 6 0.000000 0.000000 0.000000 0.000000 0.000000 0.128861
#
#
# Mechanical properties :
#
#
# Convention : Reuss Voigt Hill
#
# Bulk Modulus (GPa) = 37.10928 43.56951 40.33939
# Shear Modulus (GPa) = 18.05485 25.30227 21.67856
#
# Velocity S-wave (km/s) = 2.96861 3.51428 3.25291
# Velocity P-wave (km/s) = 5.46474 6.14275 5.81364
#
# Compressibility (1/GPa) = 0.02694744
#
# Stress axis : x y z
#
# Youngs Moduli (GPa) = 48.58619 94.76984 72.23660
#
# Poissons Ratio (x) = 0.66264 0.04500
# Poissons Ratio (y) = 0.33972 0.10112
# Poissons Ratio (z) = 0.03027 0.13266
#
# Static dielectric constant tensor:
#      x y z
#    x 3.442580 0.000000 0.000000 
#    y 0.000000 3.787370 0.000000 
#    z 0.000000 0.000000 4.032090 
# 
# 
# High freq. dielectric constant tensor:
#      x y z
#    x 1.760180 0.000000 0.000000 
#    y 0.000000 1.798820 0.000000 
#    z 0.000000 0.000000 1.829720 
# 
# From -- ./inp_files/2382.got.cif
#   From: 2010.03.12/outbox.cif.g09.slc.cpg/sg50_2_cif.got.tgz:2382.got - 2010.04.16 13:23:21.
