data_PCOD8205913
_publ_section_title
;
Structure prediction by ZEFSAII (Michael W. Deem and Ramdas Pophale) SiO2 
 PCOD8205913
Probable space group: P B A N
;
_chemical_formula_sum "Si O2"
_cell_formula_units_Z 22
_cell_length_a 10.702113
_cell_length_b 14.563614
_cell_length_c 4.648070
_cell_angle_alpha 90.000000
_cell_angle_beta 90.000000
_cell_angle_gamma 90.000000
_cell_volume 724.454896
_symmetry_space_group_name_H-M "P B A N"
_symmetry_group_IT_number 50
_space_group.IT_coordinate_system_code '2'
_symmetry_cell_setting 'orthorhombic'
loop_
_space_group_symop_operation_xyz
x,y,z
1/2-x,1/2-y,z
x,1/2-y,-z
1/2-x,y,-z
-x,-y,-z
1/2+x,1/2+y,-z
-x,1/2+y,z
1/2+x,-y,z
loop_
_atom_site_type_symbol
_atom_site_label
_atom_site_fract_x
_atom_site_fract_y
_atom_site_fract_z
Si Si1 0.750000 0.533350 0.000000
Si Si2 0.069635 0.876609 0.882526
Si Si3 0.898899 0.848374 0.396708
Si Si4 0.250000 0.750000 0.500000
O O1 0.871713 0.469145 0.015058
O O2 0.775444 0.599439 0.725766
O O3 0.170408 0.813970 0.715213
O O4 0.959798 0.905570 0.660946
O O5 0.005986 0.672612 0.843710
O O6 0.853189 0.750000 0.500000
#
# Coordination Sequence:
#
# PCOD8205913 Si02
#       4
#     4   8   8   2
#     4  12  30  55  89 136 176 242 284 379 451 520
#     4  12  28  52  88 130 179 229 309 356 440 531
#     4  12  29  55  87 131 181 234 298 364 443 538
#     4  12  28  54  90 134 164 244 286 376 438 526
#
# _framework density 30.367661999999999
#
# number of rings (size 3 to 8) (size 9 to 14) (size 15 to 20)
#    0.000    0.000    1.818    5.455    5.091    8.727 
#    3.273    3.636    0.000    4.364    0.000    0.000 
#    0.000    0.000    0.000    0.000    0.000    0.000 
#
# Total GULP energy -272810.962774 kJ/mol
# GULP energy per Si atom -12400.498308 kJ/mol
# Density = 3.029854 g / cm^3
# Si number density = 30.367662 Si / 1000 Ang^3
#
#
#
# Elastic Constant Matrix: (Units=GPa)
#
#
# Indices 1 2 3 4 5 6 
#
# 1 232.8127 104.7568 92.0819 0.0000 0.0000 0.0000
# 2 104.7568 216.2207 105.9339 0.0000 0.0000 0.0000
# 3 92.0819 105.9339 214.6713 0.0000 0.0000 0.0000
# 4 0.0000 0.0000 0.0000 58.2543 0.0000 0.0000
# 5 0.0000 0.0000 0.0000 0.0000 49.3565 0.0000
# 6 0.0000 0.0000 0.0000 0.0000 0.0000 6.8492
#
#
#
# Elastic Compliance Matrix: (Units=1/GPa)
#
#
# Indices 1 2 3 4 5 6 
#
# 1 0.005819 -0.002105 -0.001457 0.000000 0.000000 0.000000
# 2 -0.002105 0.006861 -0.002483 0.000000 0.000000 0.000000
# 3 -0.001457 -0.002483 0.006508 0.000000 0.000000 0.000000
# 4 0.000000 0.000000 0.000000 0.017166 0.000000 0.000000
# 5 0.000000 0.000000 0.000000 0.000000 0.020261 0.000000
# 6 0.000000 0.000000 0.000000 0.000000 0.000000 0.146002
#
#
# Mechanical properties :
#
#
# Convention : Reuss Voigt Hill
#
# Bulk Modulus (GPa) = 140.87842 141.02779 140.95310
# Shear Modulus (GPa) = 23.03365 46.95413 34.99389
#
# Velocity S-wave (km/s) = 2.75706 3.93643 3.39830
# Velocity P-wave (km/s) = 7.52508 8.19765 7.86856
#
# Compressibility (1/GPa) = 0.00709832
#
# Stress axis : x y z
#
# Youngs Moduli (GPa) = 171.85316 145.74443 153.64609
#
# Poissons Ratio (x) = 0.30684 0.22387
# Poissons Ratio (y) = 0.36181 0.38147
# Poissons Ratio (z) = 0.25040 0.36185
#
# Static dielectric constant tensor:
#      x y z
#    x 6.361170 0.000000 0.000000 
#    y 0.000000 5.619760 0.000000 
#    z 0.000000 0.000000 6.177230 
# 
# 
# High freq. dielectric constant tensor:
#      x y z
#    x 2.290560 0.000000 0.000000 
#    y 0.000000 2.247150 0.000000 
#    z 0.000000 0.000000 2.273690 
# 
# From -- ./inp_files/1595.got.cif
#   From: 2010.03.12/outbox.cif.g09.slc.cpg/sg50_1_cif.got.tgz:1595.got - 2010.04.16 13:23:21.
