data_PCOD8205936
_publ_section_title
;
Structure prediction by ZEFSAII (Michael W. Deem and Ramdas Pophale) SiO2 
 PCOD8205936
Probable space group: P M M A
;
_chemical_formula_sum "Si O2"
_cell_formula_units_Z 40
_cell_length_a 8.896569
_cell_length_b 20.990073
_cell_length_c 14.287896
_cell_angle_alpha 90.000000
_cell_angle_beta 90.000000
_cell_angle_gamma 90.000000
_cell_volume 2668.116452
_symmetry_space_group_name_H-M "P M M A"
_symmetry_group_IT_number 51
_symmetry_cell_setting 'orthorhombic'
loop_
_space_group_symop_operation_xyz
x,y,z
1/2-x,-y,z
1/2+x,-y,-z
-x,y,-z
-x,-y,-z
1/2+x,y,-z
1/2-x,y,z
x,-y,z
loop_
_atom_site_type_symbol
_atom_site_label
_atom_site_fract_x
_atom_site_fract_y
_atom_site_fract_z
Si Si1 0.575722 0.262640 0.400076
Si Si2 0.926727 0.500000 0.399381
Si Si3 0.074520 0.877473 0.600547
Si Si4 0.428786 0.000000 0.396073
Si Si5 0.926808 0.573236 0.903779
Si Si6 0.072262 0.620217 0.721911
O O1 0.500000 0.272058 0.500000
O O2 0.750000 0.273765 0.419461
O O3 0.548130 0.192361 0.354005
O O4 0.516355 0.314631 0.326616
O O5 0.750000 0.500000 0.413564
O O6 0.980737 0.561996 0.343085
O O7 0.000000 0.500000 0.500000
O O8 0.250000 0.893942 0.591803
O O9 0.000000 0.872429 0.500000
O O10 0.990723 0.935659 0.655478
O O11 0.500000 0.000000 0.500000
O O12 0.250000 0.000000 0.398046
O O13 0.750000 0.581954 0.911200
O O14 0.972585 0.500000 0.884505
O O15 0.990538 0.616759 0.821191
O O16 0.000000 0.597280 0.000000
O O17 0.250000 0.618677 0.738825
#
# Coordination Sequence:
#
# PCOD8205936 Si02
#       6
#     8   4   8   4   8   8
#     4   9  18  29  42  59  83 114 147 178 211 249
#     4  10  20  30  43  60  83 112 143 178 212 242
#     4   9  15  24  36  52  74 103 137 173 208 244
#     4  10  16  22  34  52  72  98 133 174 211 244
#     4  10  20  33  50  69  85 104 132 171 217 264
#     4  10  19  32  46  63  85 112 141 175 215 254
#
# _framework density 14.991849999999999
#
# number of rings (size 3 to 8) (size 9 to 14) (size 15 to 20)
#    0.000    2.400    1.000    3.900    0.000    3.200 
#    0.000    0.000    0.000    0.000    0.000    0.000 
#    0.000    0.000    0.000    0.900    0.000   10.100 
#
# Total GULP energy -495772.733806 kJ/mol
# GULP energy per Si atom -12394.318345 kJ/mol
# Density = 1.495773 g / cm^3
# Si number density = 14.991850 Si / 1000 Ang^3
#
#
#
# Elastic Constant Matrix: (Units=GPa)
#
#
# Indices 1 2 3 4 5 6 
#
# 1 69.9183 47.3135 34.4429 0.0000 0.0000 0.0000
# 2 47.3135 138.6526 51.8845 0.0000 0.0000 0.0000
# 3 34.4429 51.8845 86.3672 0.0000 0.0000 0.0000
# 4 0.0000 0.0000 0.0000 5.3384 0.0000 0.0000
# 5 0.0000 0.0000 0.0000 0.0000 22.5828 0.0000
# 6 0.0000 0.0000 0.0000 0.0000 0.0000 18.8374
#
#
#
# Elastic Compliance Matrix: (Units=1/GPa)
#
#
# Indices 1 2 3 4 5 6 
#
# 1 0.020166 -0.004995 -0.005041 0.000000 0.000000 0.000000
# 2 -0.004995 0.010541 -0.004340 0.000000 0.000000 0.000000
# 3 -0.005041 -0.004340 0.016197 0.000000 0.000000 0.000000
# 4 0.000000 0.000000 0.000000 0.187320 0.000000 0.000000
# 5 0.000000 0.000000 0.000000 0.000000 0.044281 0.000000
# 6 0.000000 0.000000 0.000000 0.000000 0.000000 0.053086
#
#
# Mechanical properties :
#
#
# Convention : Reuss Voigt Hill
#
# Bulk Modulus (GPa) = 55.09708 62.46887 58.78298
# Shear Modulus (GPa) = 13.64649 20.10488 16.87569
#
# Velocity S-wave (km/s) = 3.02033 3.66601 3.35872
# Velocity P-wave (km/s) = 6.99959 7.72519 7.37132
#
# Compressibility (1/GPa) = 0.01814978
#
# Stress axis : x y z
#
# Youngs Moduli (GPa) = 49.58870 94.86847 61.74173
#
# Poissons Ratio (x) = 0.47385 0.31127
# Poissons Ratio (y) = 0.24769 0.26799
# Poissons Ratio (z) = 0.25000 0.41177
#
# Static dielectric constant tensor:
#      x y z
#    x 2.867310 0.000000 0.000000 
#    y 0.000000 3.852810 0.000000 
#    z 0.000000 0.000000 2.527880 
# 
# 
# High freq. dielectric constant tensor:
#      x y z
#    x 1.584350 0.000000 0.000000 
#    y 0.000000 1.582080 0.000000 
#    z 0.000000 0.000000 1.520160 
# 
# From -- ./inp_files/21346.got.cif
#   From: 2010.03.12/outbox.cif.g09.slc.cpg/sg51_11_cif.got.tgz:21346.got - 2010.04.16 13:43:02.
