data_PCOD8205085
_publ_section_title
;
Structure prediction by ZEFSAII (Michael W. Deem and Ramdas Pophale) SiO2 
 PCOD8205085
Probable space group: P B A N
;
_chemical_formula_sum "Si O2"
_cell_formula_units_Z 40
_cell_length_a 12.087269
_cell_length_b 17.255515
_cell_length_c 8.978310
_cell_angle_alpha 90.000000
_cell_angle_beta 90.000000
_cell_angle_gamma 90.000000
_cell_volume 1872.624536
_symmetry_space_group_name_H-M "P B A N"
_symmetry_group_IT_number 50
_space_group.IT_coordinate_system_code '2'
_symmetry_cell_setting 'orthorhombic'
loop_
_space_group_symop_operation_xyz
x,y,z
1/2-x,1/2-y,z
x,1/2-y,-z
1/2-x,y,-z
-x,-y,-z
1/2+x,1/2+y,-z
-x,1/2+y,z
1/2+x,-y,z
loop_
_atom_site_type_symbol
_atom_site_label
_atom_site_fract_x
_atom_site_fract_y
_atom_site_fract_z
Si Si1 0.843454 0.608370 0.623109
Si Si2 0.687072 0.322076 0.844962
Si Si3 0.203407 0.560442 0.339675
Si Si4 0.933538 0.772925 0.162313
Si Si5 0.014738 0.673511 0.411255
O O1 0.750000 0.627372 0.500000
O O2 0.836740 0.525206 0.706291
O O3 0.846834 0.667673 0.761998
O O4 0.956477 0.617017 0.529579
O O5 0.750000 0.250000 0.761150
O O6 0.698966 0.404516 0.761574
O O7 0.556797 0.307615 0.860560
O O8 0.750000 0.331275 0.000000
O O9 0.250000 0.546418 0.500000
O O10 0.109421 0.624686 0.333535
O O11 0.936430 0.699501 0.274388
O O12 0.886619 0.750000 0.000000
O O13 0.058814 0.750000 0.500000
#
# Coordination Sequence:
#
# PCOD8205085 Si02
#       5
#     8   8   8   8   8
#     4  10  24  42  56  84 131 170 210 263 312 364
#     4  11  20  37  64  97 134 150 199 267 330 379
#     4  11  21  35  60  92 125 163 207 261 323 380
#     4  11  21  40  68  95 118 168 215 263 319 387
#     4  10  20  34  59  86 119 162 210 260 310 364
#
# _framework density 21.360396999999999
#
# number of rings (size 3 to 8) (size 9 to 14) (size 15 to 20)
#    0.000    1.400    4.000    3.000    0.000    5.200 
#    0.000   10.000    0.000    0.000    0.000    0.000 
#    0.000    0.000    0.000    0.000    0.000    0.000 
#
# Total GULP energy -495681.149065 kJ/mol
# GULP energy per Si atom -12392.028727 kJ/mol
# Density = 2.131178 g / cm^3
# Si number density = 21.360397 Si / 1000 Ang^3
#
#
#
# Elastic Constant Matrix: (Units=GPa)
#
#
# Indices 1 2 3 4 5 6 
#
# 1 54.4271 34.0985 9.8396 0.0000 0.0000 0.0000
# 2 34.0985 140.8940 51.0477 0.0000 0.0000 0.0000
# 3 9.8396 51.0477 112.4459 0.0000 0.0000 0.0000
# 4 0.0000 0.0000 0.0000 57.8080 0.0000 0.0000
# 5 0.0000 0.0000 0.0000 0.0000 27.4041 0.0000
# 6 0.0000 0.0000 0.0000 0.0000 0.0000 36.1365
#
#
#
# Elastic Compliance Matrix: (Units=1/GPa)
#
#
# Indices 1 2 3 4 5 6 
#
# 1 0.021689 -0.005459 0.000581 0.000000 0.000000 0.000000
# 2 -0.005459 0.009869 -0.004003 0.000000 0.000000 0.000000
# 3 0.000581 -0.004003 0.010659 0.000000 0.000000 0.000000
# 4 0.000000 0.000000 0.000000 0.017299 0.000000 0.000000
# 5 0.000000 0.000000 0.000000 0.000000 0.036491 0.000000
# 6 0.000000 0.000000 0.000000 0.000000 0.000000 0.027673
#
#
# Mechanical properties :
#
#
# Convention : Reuss Voigt Hill
#
# Bulk Modulus (GPa) = 40.89268 55.30428 48.09848
# Shear Modulus (GPa) = 33.42395 38.45512 35.93953
#
# Velocity S-wave (km/s) = 3.96000 4.24760 4.10632
# Velocity P-wave (km/s) = 6.33202 7.07130 6.71185
#
# Compressibility (1/GPa) = 0.02445425
#
# Stress axis : x y z
#
# Youngs Moduli (GPa) = 46.10738 101.32803 93.81370
#
# Poissons Ratio (x) = 0.55318 -0.05446
# Poissons Ratio (y) = 0.25171 0.37549
# Poissons Ratio (z) = -0.02677 0.40557
#
# Static dielectric constant tensor:
#      x y z
#    x 3.504110 0.000000 0.000000 
#    y 0.000000 4.359990 0.000000 
#    z 0.000000 0.000000 3.965140 
# 
# 
# High freq. dielectric constant tensor:
#      x y z
#    x 1.827440 0.000000 0.000000 
#    y 0.000000 1.832820 0.000000 
#    z 0.000000 0.000000 1.835520 
# 
# From -- ./inp_files/11012.got.cif
#   From: 2010.03.12/outbox.cif.g09.slc.cpg/sg50_6_cif.got.tgz:11012.got - 2010.04.16 13:23:21.
