data_PCOD8205567
_publ_section_title
;
Structure prediction by ZEFSAII (Michael W. Deem and Ramdas Pophale) SiO2 
 PCOD8205567
Probable space group: P B A N
;
_chemical_formula_sum "Si O2"
_cell_formula_units_Z 40
_cell_length_a 9.404162
_cell_length_b 23.915044
_cell_length_c 8.203525
_cell_angle_alpha 90.000000
_cell_angle_beta 90.000000
_cell_angle_gamma 90.000000
_cell_volume 1844.980550
_symmetry_space_group_name_H-M "P B A N"
_symmetry_group_IT_number 50
_space_group.IT_coordinate_system_code '2'
_symmetry_cell_setting 'orthorhombic'
loop_
_space_group_symop_operation_xyz
x,y,z
1/2-x,1/2-y,z
x,1/2-y,-z
1/2-x,y,-z
-x,-y,-z
1/2+x,1/2+y,-z
-x,1/2+y,z
1/2+x,-y,z
loop_
_atom_site_type_symbol
_atom_site_label
_atom_site_fract_x
_atom_site_fract_y
_atom_site_fract_z
Si Si1 0.628833 0.007824 0.117650
Si Si2 0.607836 0.684922 0.894455
Si Si3 0.022643 0.878891 0.178128
Si Si4 0.912969 0.265114 0.314355
Si Si5 0.772300 0.590343 0.311112
O O1 0.642098 0.072433 0.175754
O O2 0.633945 0.964652 0.269169
O O3 0.750000 0.988300 0.000000
O O4 0.500000 0.000000 0.000000
O O5 0.525314 0.738706 0.817309
O O6 0.648454 0.646787 0.741744
O O7 0.750000 0.701555 0.000000
O O8 0.496068 0.650252 0.002536
O O9 0.070292 0.832029 0.306960
O O10 0.880170 0.911665 0.225601
O O11 0.750000 0.250000 0.269992
O O12 0.951545 0.250000 0.500000
O O13 0.750000 0.592712 0.500000
#
# Coordination Sequence:
#
# PCOD8205567 Si02
#       5
#     8   8   8   8   8
#     4  12  23  45  67  98 136 179 232 285 337 412
#     4  10  22  43  69  95 130 177 233 282 340 419
#     4  11  24  42  68  96 132 182 231 278 345 408
#     4  11  26  46  66 103 143 178 226 290 360 422
#     4  11  23  42  68 102 137 176 227 286 349 414
#
# _framework density 21.680446
#
# number of rings (size 3 to 8) (size 9 to 14) (size 15 to 20)
#    0.000    1.000    4.000    2.400    2.800    7.200 
#    3.600    5.000    0.000    0.000    0.000    0.000 
#    0.000    0.000    0.000    0.000    0.000    0.000 
#
# Total GULP energy -495798.207172 kJ/mol
# GULP energy per Si atom -12394.955179 kJ/mol
# Density = 2.163110 g / cm^3
# Si number density = 21.680446 Si / 1000 Ang^3
#
#
#
# Elastic Constant Matrix: (Units=GPa)
#
#
# Indices 1 2 3 4 5 6 
#
# 1 89.5980 39.0026 31.8511 0.0000 0.0000 0.0000
# 2 39.0026 173.2575 69.2669 0.0000 0.0000 0.0000
# 3 31.8511 69.2669 135.0109 0.0000 0.0000 0.0000
# 4 0.0000 0.0000 0.0000 109.1343 0.0000 0.0000
# 5 0.0000 0.0000 0.0000 0.0000 27.9070 0.0000
# 6 0.0000 0.0000 0.0000 0.0000 0.0000 40.1843
#
#
#
# Elastic Compliance Matrix: (Units=1/GPa)
#
#
# Indices 1 2 3 4 5 6 
#
# 1 0.012762 -0.002100 -0.001933 0.000000 0.000000 0.000000
# 2 -0.002100 0.007607 -0.003407 0.000000 0.000000 0.000000
# 3 -0.001933 -0.003407 0.009611 0.000000 0.000000 0.000000
# 4 0.000000 0.000000 0.000000 0.009163 0.000000 0.000000
# 5 0.000000 0.000000 0.000000 0.000000 0.035833 0.000000
# 6 0.000000 0.000000 0.000000 0.000000 0.000000 0.024885
#
#
# Mechanical properties :
#
#
# Convention : Reuss Voigt Hill
#
# Bulk Modulus (GPa) = 66.23030 75.34530 70.78780
# Shear Modulus (GPa) = 41.74465 52.62818 47.18642
#
# Velocity S-wave (km/s) = 4.39276 4.93226 4.67031
# Velocity P-wave (km/s) = 7.50621 8.20148 7.86154
#
# Compressibility (1/GPa) = 0.01509883
#
# Stress axis : x y z
#
# Youngs Moduli (GPa) = 78.35500 131.46402 104.04792
#
# Poissons Ratio (x) = 0.27608 0.20117
# Poissons Ratio (y) = 0.16455 0.35451
# Poissons Ratio (z) = 0.15150 0.44792
#
# Static dielectric constant tensor:
#      x y z
#    x 3.661530 0.000000 0.000000 
#    y 0.000000 11.841670 0.000000 
#    z 0.000000 0.000000 3.336570 
# 
# 
# High freq. dielectric constant tensor:
#      x y z
#    x 1.844480 0.000000 0.000000 
#    y 0.000000 1.872960 0.000000 
#    z 0.000000 0.000000 1.847980 
# 
# From -- ./inp_files/9530.got.cif
#   From: 2010.03.12/outbox.cif.g09.slc.cpg/sg50_5_cif.got.tgz:9530.got - 2010.04.16 13:23:21.
