data_PCOD8205862
_publ_section_title
;
Structure prediction by ZEFSAII (Michael W. Deem and Ramdas Pophale) SiO2 
 PCOD8205862
Probable space group: P B A N
;
_chemical_formula_sum "Si O2"
_cell_formula_units_Z 36
_cell_length_a 8.126264
_cell_length_b 23.279637
_cell_length_c 8.249260
_cell_angle_alpha 90.000000
_cell_angle_beta 90.000000
_cell_angle_gamma 90.000000
_cell_volume 1560.565937
_symmetry_space_group_name_H-M "P B A N"
_symmetry_group_IT_number 50
_space_group.IT_coordinate_system_code '2'
_symmetry_cell_setting 'orthorhombic'
loop_
_space_group_symop_operation_xyz
x,y,z
1/2-x,1/2-y,z
x,1/2-y,-z
1/2-x,y,-z
-x,-y,-z
1/2+x,1/2+y,-z
-x,1/2+y,z
1/2+x,-y,z
loop_
_atom_site_type_symbol
_atom_site_label
_atom_site_fract_x
_atom_site_fract_y
_atom_site_fract_z
Si Si1 0.988367 0.456920 0.849004
Si Si2 0.848213 0.841128 0.762501
Si Si3 0.250000 0.250000 0.000000
Si Si4 0.328592 0.545221 0.336991
Si Si5 0.497063 0.161978 0.411901
Si Si6 0.750000 0.250000 0.500000
O O1 0.798813 0.441782 0.810562
O O2 0.103841 0.399917 0.859213
O O3 0.050113 0.493274 0.697887
O O4 0.000000 0.500000 0.000000
O O5 0.871371 0.789629 0.890667
O O6 0.659888 0.833836 0.703749
O O7 0.960370 0.834767 0.604256
O O8 0.250000 0.522851 0.500000
O O9 0.426777 0.602179 0.368152
O O10 0.632670 0.211587 0.382582
#
# Coordination Sequence:
#
# PCOD8205862 Si02
#       6
#     8   8   2   8   8   2
#     4  12  27  45  72 111 160 200 247 312 393 464
#     4  11  26  48  72 108 146 200 252 311 384 457
#     4  12  28  46  72 106 152 194 244 308 400 470
#     4  12  24  44  72 111 143 195 254 314 370 447
#     4  11  24  45  77 105 143 192 264 319 364 455
#     4  12  20  42  72 106 136 186 244 320 384 426
#
# _framework density 23.068553000000001
#
# number of rings (size 3 to 8) (size 9 to 14) (size 15 to 20)
#    0.000    0.444    3.333    4.000    9.333    1.778 
#    0.000    0.000    0.000    2.667    0.000    0.000 
#    0.000    0.000    0.000    0.000    0.000    0.000 
#
# Total GULP energy -446215.637872 kJ/mol
# GULP energy per Si atom -12394.878830 kJ/mol
# Density = 2.301605 g / cm^3
# Si number density = 23.068553 Si / 1000 Ang^3
#
#
#
# Elastic Constant Matrix: (Units=GPa)
#
#
# Indices 1 2 3 4 5 6 
#
# 1 116.8223 55.9496 32.2599 0.0000 0.0000 0.0000
# 2 55.9496 189.8661 52.3969 0.0000 0.0000 0.0000
# 3 32.2599 52.3969 127.7849 0.0000 0.0000 0.0000
# 4 0.0000 0.0000 0.0000 33.6220 0.0000 0.0000
# 5 0.0000 0.0000 0.0000 0.0000 16.8855 0.0000
# 6 0.0000 0.0000 0.0000 0.0000 0.0000 -498.2850
#
#
#
# Elastic Compliance Matrix: (Units=1/GPa)
#
#
# Indices 1 2 3 4 5 6 
#
# 1 0.010221 -0.002593 -0.001517 0.000000 0.000000 0.000000
# 2 -0.002593 0.006597 -0.002050 0.000000 0.000000 0.000000
# 3 -0.001517 -0.002050 0.009049 0.000000 0.000000 0.000000
# 4 0.000000 0.000000 0.000000 0.029742 0.000000 0.000000
# 5 0.000000 0.000000 0.000000 0.000000 0.059222 0.000000
# 6 0.000000 0.000000 0.000000 0.000000 0.000000 -0.002007
#
#
# Mechanical properties :
#
#
# Convention : Reuss Voigt Hill
#
# Bulk Modulus (GPa) = 73.82236 79.52069 76.67153
# Shear Modulus (GPa) = 38.56199 -69.96436 -15.70119
#
# Velocity S-wave (km/s) = 4.09299 -5.51314 -2.61172
# Velocity P-wave (km/s) = 7.37614 2.44541 4.92075
#
# Compressibility (1/GPa) = 0.01354603
#
# Stress axis : x y z
#
# Youngs Moduli (GPa) = 97.83873 151.58723 110.50546
#
# Poissons Ratio (x) = 0.39310 0.16763
# Poissons Ratio (y) = 0.25372 0.22657
# Poissons Ratio (z) = 0.14842 0.31080
#
# Static dielectric constant tensor:
#      x y z
#    x 4.386600 0.000000 0.000000 
#    y 0.000000 4.365010 0.000000 
#    z 0.000000 0.000000 4.459580 
# 
# 
# High freq. dielectric constant tensor:
#      x y z
#    x 1.918180 0.000000 0.000000 
#    y 0.000000 1.927290 0.000000 
#    z 0.000000 0.000000 1.908130 
# 
# From -- ./inp_files/9315.got.cif
#   From: 2010.03.12/outbox.cif.g09.slc.cpg/sg50_5_cif.got.tgz:9315.got - 2010.04.16 13:23:21.
