data_PCOD8205450
_publ_section_title
;
Structure prediction by ZEFSAII (Michael W. Deem and Ramdas Pophale) SiO2 
 PCOD8205450
Probable space group: P B A N
;
_chemical_formula_sum "Si O2"
_cell_formula_units_Z 38
_cell_length_a 14.795701
_cell_length_b 8.403607
_cell_length_c 14.947382
_cell_angle_alpha 90.000000
_cell_angle_beta 90.000000
_cell_angle_gamma 90.000000
_cell_volume 1858.516470
_symmetry_space_group_name_H-M "P B A N"
_symmetry_group_IT_number 50
_space_group.IT_coordinate_system_code '2'
_symmetry_cell_setting 'orthorhombic'
loop_
_space_group_symop_operation_xyz
x,y,z
1/2-x,1/2-y,z
x,1/2-y,-z
1/2-x,y,-z
-x,-y,-z
1/2+x,1/2+y,-z
-x,1/2+y,z
1/2+x,-y,z
loop_
_atom_site_type_symbol
_atom_site_label
_atom_site_fract_x
_atom_site_fract_y
_atom_site_fract_z
Si Si1 0.388621 0.013481 0.306763
Si Si2 0.750000 0.750000 0.000000
Si Si3 0.039885 0.701499 0.603274
Si Si4 0.103678 0.451390 0.097050
Si Si5 0.456443 0.750000 0.000000
Si Si6 0.777322 0.066337 0.595124
O O1 0.427790 0.843477 0.333971
O O2 0.281471 0.025530 0.329826
O O3 0.442875 0.145965 0.362215
O O4 0.399761 0.040976 0.202765
O O5 0.807643 0.638838 0.935252
O O6 0.032712 0.750000 0.500000
O O7 0.114410 0.557737 0.612080
O O8 0.105470 0.629934 0.057104
O O9 0.015591 0.354260 0.067751
O O10 0.750000 0.250000 0.594123
O O11 0.750000 0.989496 0.500000
#
# Coordination Sequence:
#
# PCOD8205450 Si02
#       6
#     8   2   8   8   4   8
#     4  11  22  38  64  93 118 163 217 255 303 381
#     4  10  24  46  64  86 142 156 196 278 340 378
#     4  11  21  39  62  88 126 170 208 254 312 363
#     4  10  21  43  63  96 121 164 208 265 321 390
#     4   9  20  42  70  83 128 162 200 261 338 380
#     4   9  17  36  56  81 123 162 194 243 302 353
#
# _framework density 20.446414999999998
#
# number of rings (size 3 to 8) (size 9 to 14) (size 15 to 20)
#    0.000    1.895    4.211    1.895    0.000    0.421 
#   26.526    0.000    0.000    0.000    0.000    0.000 
#    0.000    0.000    0.000    0.000    0.000    0.000 
#
# Total GULP energy -471124.404531 kJ/mol
# GULP energy per Si atom -12398.010646 kJ/mol
# Density = 2.039988 g / cm^3
# Si number density = 20.446415 Si / 1000 Ang^3
#
#
#
# Elastic Constant Matrix: (Units=GPa)
#
#
# Indices 1 2 3 4 5 6 
#
# 1 100.8410 42.8142 70.2084 0.0000 0.0000 0.0000
# 2 42.8142 83.4736 49.4450 0.0000 0.0000 0.0000
# 3 70.2084 49.4450 167.8401 0.0000 0.0000 0.0000
# 4 0.0000 0.0000 0.0000 22.2438 0.0000 0.0000
# 5 0.0000 0.0000 0.0000 0.0000 41.5592 0.0000
# 6 0.0000 0.0000 0.0000 0.0000 0.0000 13.5138
#
#
#
# Elastic Compliance Matrix: (Units=1/GPa)
#
#
# Indices 1 2 3 4 5 6 
#
# 1 0.015536 -0.004990 -0.005029 0.000000 0.000000 0.000000
# 2 -0.004990 0.016115 -0.002660 0.000000 0.000000 0.000000
# 3 -0.005029 -0.002660 0.008845 0.000000 0.000000 0.000000
# 4 0.000000 0.000000 0.000000 0.044956 0.000000 0.000000
# 5 0.000000 0.000000 0.000000 0.000000 0.024062 0.000000
# 6 0.000000 0.000000 0.000000 0.000000 0.000000 0.073998
#
#
# Mechanical properties :
#
#
# Convention : Reuss Voigt Hill
#
# Bulk Modulus (GPa) = 66.05546 75.23222 70.64384
# Shear Modulus (GPa) = 23.37349 28.10918 25.74133
#
# Velocity S-wave (km/s) = 3.38473 3.71182 3.55204
# Velocity P-wave (km/s) = 6.90304 7.43268 7.17275
#
# Compressibility (1/GPa) = 0.01513879
#
# Stress axis : x y z
#
# Youngs Moduli (GPa) = 64.36457 62.05450 113.05370
#
# Poissons Ratio (x) = 0.30965 0.56855
# Poissons Ratio (y) = 0.32117 0.30073
# Poissons Ratio (z) = 0.32369 0.16507
#
# Static dielectric constant tensor:
#      x y z
#    x 4.128470 0.000000 0.000000 
#    y 0.000000 3.656420 0.000000 
#    z 0.000000 0.000000 3.620440 
# 
# 
# High freq. dielectric constant tensor:
#      x y z
#    x 1.803360 0.000000 0.000000 
#    y 0.000000 1.787400 0.000000 
#    z 0.000000 0.000000 1.797450 
# 
# From -- ./inp_files/26241.got.cif
#   From: 2010.03.12/outbox.cif.g09.slc.cpg/sg50_14_cif.got.tgz:26241.got - 2010.04.16 13:23:21.
