data_PCOD8205901
_publ_section_title
;
Structure prediction by ZEFSAII (Michael W. Deem and Ramdas Pophale) SiO2 
 PCOD8205901
Probable space group: P B A N
;
_chemical_formula_sum "Si O2"
_cell_formula_units_Z 48
_cell_length_a 28.587324
_cell_length_b 9.334341
_cell_length_c 8.529226
_cell_angle_alpha 90.000000
_cell_angle_beta 90.000000
_cell_angle_gamma 90.000000
_cell_volume 2275.971337
_symmetry_space_group_name_H-M "P B A N"
_symmetry_group_IT_number 50
_space_group.IT_coordinate_system_code '2'
_symmetry_cell_setting 'orthorhombic'
loop_
_space_group_symop_operation_xyz
x,y,z
1/2-x,1/2-y,z
x,1/2-y,-z
1/2-x,y,-z
-x,-y,-z
1/2+x,1/2+y,-z
-x,1/2+y,z
1/2+x,-y,z
loop_
_atom_site_type_symbol
_atom_site_label
_atom_site_fract_x
_atom_site_fract_y
_atom_site_fract_z
Si Si1 0.613712 0.103576 0.413243
Si Si2 0.637639 0.861351 0.626496
Si Si3 0.947298 0.765470 0.182494
Si Si4 0.982919 0.021748 0.675179
Si Si5 0.799584 0.433375 0.826653
Si Si6 0.193024 0.895645 0.181118
O O1 0.628212 0.250000 0.500000
O O2 0.564642 0.118160 0.321015
O O3 0.654881 0.041037 0.300273
O O4 0.605855 0.980583 0.541913
O O5 0.659611 0.750000 0.500000
O O6 0.603943 0.774556 0.741803
O O7 0.677805 0.943951 0.721270
O O8 0.974657 0.631978 0.251289
O O9 0.978063 0.904804 0.218062
O O10 0.939401 0.750000 0.000000
O O11 0.000000 0.000000 0.500000
O O12 0.819207 0.273078 0.808880
O O13 0.745936 0.429495 0.769281
O O14 0.810198 0.467335 0.008941
#
# Coordination Sequence:
#
# PCOD8205901 Si02
#       6
#     8   8   8   8   8   8
#     4  12  23  40  68 101 132 178 229 272 339 411
#     4  12  24  43  67  99 140 180 219 280 350 406
#     4  12  27  46  68  99 135 178 227 279 335 411
#     4  12  24  47  70  95 134 179 220 281 341 401
#     4   9  20  41  68  96 139 175 225 288 343 398
#     4   9  20  41  67 101 131 178 231 285 335 399
#
# _framework density 21.089897000000001
#
# number of rings (size 3 to 8) (size 9 to 14) (size 15 to 20)
#    0.000    1.000    5.000    3.000    2.333    0.667 
#    3.000    1.667    0.000    2.000    0.000    0.000 
#    0.000    0.000    0.000    0.000    0.000    0.000 
#
# Total GULP energy -595054.686416 kJ/mol
# GULP energy per Si atom -12396.972634 kJ/mol
# Density = 2.104190 g / cm^3
# Si number density = 21.089897 Si / 1000 Ang^3
#
#
#
# Elastic Constant Matrix: (Units=GPa)
#
#
# Indices 1 2 3 4 5 6 
#
# 1 104.5764 31.8362 55.2085 0.0000 0.0000 0.0000
# 2 31.8362 110.2182 54.5111 0.0000 0.0000 0.0000
# 3 55.2085 54.5111 130.2292 0.0000 0.0000 0.0000
# 4 0.0000 0.0000 0.0000 39.6877 0.0000 0.0000
# 5 0.0000 0.0000 0.0000 0.0000 29.7671 0.0000
# 6 0.0000 0.0000 0.0000 0.0000 0.0000 34.9515
#
#
#
# Elastic Compliance Matrix: (Units=1/GPa)
#
#
# Indices 1 2 3 4 5 6 
#
# 1 0.012453 -0.001243 -0.004759 0.000000 0.000000 0.000000
# 2 -0.001243 0.011566 -0.004314 0.000000 0.000000 0.000000
# 3 -0.004759 -0.004314 0.011502 0.000000 0.000000 0.000000
# 4 0.000000 0.000000 0.000000 0.025197 0.000000 0.000000
# 5 0.000000 0.000000 0.000000 0.000000 0.033594 0.000000
# 6 0.000000 0.000000 0.000000 0.000000 0.000000 0.028611
#
#
# Mechanical properties :
#
#
# Convention : Reuss Voigt Hill
#
# Bulk Modulus (GPa) = 67.16713 69.79282 68.47997
# Shear Modulus (GPa) = 33.66591 34.44579 34.05585
#
# Velocity S-wave (km/s) = 3.99971 4.04578 4.02281
# Velocity P-wave (km/s) = 7.29708 7.41547 7.35652
#
# Compressibility (1/GPa) = 0.01488823
#
# Stress axis : x y z
#
# Youngs Moduli (GPa) = 80.30028 86.46273 86.94176
#
# Poissons Ratio (x) = 0.10751 0.41374
# Poissons Ratio (y) = 0.09985 0.37507
# Poissons Ratio (z) = 0.38214 0.37300
#
# Static dielectric constant tensor:
#      x y z
#    x 3.739250 0.000000 0.000000 
#    y 0.000000 3.688070 0.000000 
#    z 0.000000 0.000000 3.839730 
# 
# 
# High freq. dielectric constant tensor:
#      x y z
#    x 1.826460 0.000000 0.000000 
#    y 0.000000 1.824210 0.000000 
#    z 0.000000 0.000000 1.829760 
# 
# From -- ./inp_files/16911.got.cif
#   From: 2010.03.12/outbox.cif.g09.slc.cpg/sg50_9_cif.got.tgz:16911.got - 2010.04.16 13:23:21.
