data_PCOD8205770
_publ_section_title
;
Structure prediction by ZEFSAII (Michael W. Deem and Ramdas Pophale) SiO2 
 PCOD8205770
Probable space group: P B A N
;
_chemical_formula_sum "Si O2"
_cell_formula_units_Z 40
_cell_length_a 11.636296
_cell_length_b 12.176230
_cell_length_c 12.384407
_cell_angle_alpha 90.000000
_cell_angle_beta 90.000000
_cell_angle_gamma 90.000000
_cell_volume 1754.699771
_symmetry_space_group_name_H-M "P B A N"
_symmetry_group_IT_number 50
_space_group.IT_coordinate_system_code '2'
_symmetry_cell_setting 'orthorhombic'
loop_
_space_group_symop_operation_xyz
x,y,z
1/2-x,1/2-y,z
x,1/2-y,-z
1/2-x,y,-z
-x,-y,-z
1/2+x,1/2+y,-z
-x,1/2+y,z
1/2+x,-y,z
loop_
_atom_site_type_symbol
_atom_site_label
_atom_site_fract_x
_atom_site_fract_y
_atom_site_fract_z
Si Si1 0.654365 0.959639 0.428583
Si Si2 0.004877 0.834141 0.420042
Si Si3 0.214272 0.411758 0.801865
Si Si4 0.060991 0.285443 0.180628
Si Si5 0.182725 0.652224 0.887071
O O1 0.750000 0.021112 0.500000
O O2 0.603049 0.865211 0.504840
O O3 0.709614 0.898282 0.326604
O O4 0.568018 0.053314 0.389091
O O5 0.074677 0.750000 0.500000
O O6 0.974769 0.777893 0.306320
O O7 0.116404 0.332245 0.853261
O O8 0.341845 0.378075 0.840197
O O9 0.190492 0.537199 0.828533
O O10 0.951629 0.313031 0.104681
O O11 0.250000 0.750000 0.821860
O O12 0.250000 0.642155 0.000000
#
# Coordination Sequence:
#
# PCOD8205770 Si02
#       5
#     8   8   8   8   8
#     4  11  22  36  61 100 147 197 239 279 351 417
#     4  11  22  36  61  98 147 196 236 286 341 438
#     4  11  24  44  75 110 145 193 243 312 357 450
#     4  11  24  44  74 108 147 193 250 298 374 444
#     4  11  28  52  75 104 141 191 242 321 391 439
#
# _framework density 22.795922999999998
#
# number of rings (size 3 to 8) (size 9 to 14) (size 15 to 20)
#    0.000    1.000    6.000    0.000    2.800    3.200 
#    3.600    1.000    0.000    0.000    0.000    0.000 
#    0.000    0.000    0.000    0.000    0.000    0.000 
#
# Total GULP energy -495675.508231 kJ/mol
# GULP energy per Si atom -12391.887706 kJ/mol
# Density = 2.274404 g / cm^3
# Si number density = 22.795923 Si / 1000 Ang^3
#
#
#
# Elastic Constant Matrix: (Units=GPa)
#
#
# Indices 1 2 3 4 5 6 
#
# 1 156.9150 49.3509 44.2318 0.0000 0.0000 0.0000
# 2 49.3509 136.6092 16.0989 0.0000 0.0000 0.0000
# 3 44.2318 16.0989 77.8962 0.0000 0.0000 0.0000
# 4 0.0000 0.0000 0.0000 23.7258 0.0000 0.0000
# 5 0.0000 0.0000 0.0000 0.0000 37.5159 0.0000
# 6 0.0000 0.0000 0.0000 0.0000 0.0000 22.8818
#
#
#
# Elastic Compliance Matrix: (Units=1/GPa)
#
#
# Indices 1 2 3 4 5 6 
#
# 1 0.008356 -0.002521 -0.004224 0.000000 0.000000 0.000000
# 2 -0.002521 0.008263 -0.000276 0.000000 0.000000 0.000000
# 3 -0.004224 -0.000276 0.015293 0.000000 0.000000 0.000000
# 4 0.000000 0.000000 0.000000 0.042148 0.000000 0.000000
# 5 0.000000 0.000000 0.000000 0.000000 0.026655 0.000000
# 6 0.000000 0.000000 0.000000 0.000000 0.000000 0.043703
#
#
# Mechanical properties :
#
#
# Convention : Reuss Voigt Hill
#
# Bulk Modulus (GPa) = 55.95836 65.64262 60.80049
# Shear Modulus (GPa) = 30.41010 34.27395 32.34203
#
# Velocity S-wave (km/s) = 3.65638 3.88172 3.77073
# Velocity P-wave (km/s) = 6.51355 6.99633 6.75925
#
# Compressibility (1/GPa) = 0.01787043
#
# Stress axis : x y z
#
# Youngs Moduli (GPa) = 119.66813 121.01483 65.38842
#
# Poissons Ratio (x) = 0.30508 0.27620
# Poissons Ratio (y) = 0.30169 0.01807
# Poissons Ratio (z) = 0.50548 0.03344
#
# Static dielectric constant tensor:
#      x y z
#    x 4.174690 0.000000 0.000000 
#    y 0.000000 4.443020 0.000000 
#    z 0.000000 0.000000 3.895270 
# 
# 
# High freq. dielectric constant tensor:
#      x y z
#    x 1.897450 0.000000 0.000000 
#    y 0.000000 1.912910 0.000000 
#    z 0.000000 0.000000 1.886660 
# 
# From -- ./inp_files/25785.got.cif
#   From: 2010.03.12/outbox.cif.g09.slc.cpg/sg50_13_cif.got.tgz:25785.got - 2010.04.16 13:23:21.
