data_PCOD8205118
_publ_section_title
;
Structure prediction by ZEFSAII (Michael W. Deem and Ramdas Pophale) SiO2 
 PCOD8205118
Probable space group: P B A N
;
_chemical_formula_sum "Si O2"
_cell_formula_units_Z 40
_cell_length_a 8.555499
_cell_length_b 25.228626
_cell_length_c 7.691269
_cell_angle_alpha 90.000000
_cell_angle_beta 90.000000
_cell_angle_gamma 90.000000
_cell_volume 1660.110301
_symmetry_space_group_name_H-M "P B A N"
_symmetry_group_IT_number 50
_space_group.IT_coordinate_system_code '2'
_symmetry_cell_setting 'orthorhombic'
loop_
_space_group_symop_operation_xyz
x,y,z
1/2-x,1/2-y,z
x,1/2-y,-z
1/2-x,y,-z
-x,-y,-z
1/2+x,1/2+y,-z
-x,1/2+y,z
1/2+x,-y,z
loop_
_atom_site_type_symbol
_atom_site_label
_atom_site_fract_x
_atom_site_fract_y
_atom_site_fract_z
Si Si1 0.862279 0.054635 0.666261
Si Si2 0.061897 0.974312 0.822000
Si Si3 0.416204 0.137638 0.809849
Si Si4 0.923567 0.243769 0.206534
Si Si5 0.428608 0.149600 0.221252
O O1 0.750000 0.056127 0.500000
O O2 0.749670 0.033390 0.823614
O O3 0.935889 0.112121 0.702588
O O4 0.007162 0.013397 0.665240
O O5 0.995263 0.917565 0.765858
O O6 0.000000 0.000000 0.000000
O O7 0.510761 0.187190 0.729412
O O8 0.246451 0.135872 0.717119
O O9 0.418688 0.144401 0.015151
O O10 0.750000 0.250000 0.282539
O O11 0.031743 0.290789 0.281304
O O12 0.921244 0.250000 0.000000
#
# Coordination Sequence:
#
# PCOD8205118 Si02
#       5
#     8   8   8   8   8
#     4  12  26  43  63  94 136 181 223 278 348 420
#     4  12  24  40  66  92 127 170 228 281 336 402
#     4  10  20  35  61  95 126 167 217 287 333 393
#     4   9  17  31  56  92 131 163 207 275 345 393
#     4  10  20  36  60  92 132 168 216 271 345 402
#
# _framework density 24.094785000000002
#
# number of rings (size 3 to 8) (size 9 to 14) (size 15 to 20)
#    0.000    1.400    2.000    4.200    2.800    4.000 
#    0.000    0.000    0.000    5.400    0.000    5.600 
#    0.000    0.000    0.000    0.000    0.000    0.000 
#
# Total GULP energy -495705.582349 kJ/mol
# GULP energy per Si atom -12392.639559 kJ/mol
# Density = 2.403994 g / cm^3
# Si number density = 24.094785 Si / 1000 Ang^3
#
#
#
# Elastic Constant Matrix: (Units=GPa)
#
#
# Indices 1 2 3 4 5 6 
#
# 1 153.8743 64.7992 5.3132 0.0000 0.0000 0.0000
# 2 64.7992 203.2583 10.2885 0.0000 0.0000 0.0000
# 3 5.3132 10.2885 46.0530 0.0000 0.0000 0.0000
# 4 0.0000 0.0000 0.0000 3.5799 0.0000 0.0000
# 5 0.0000 0.0000 0.0000 0.0000 23.0659 0.0000
# 6 0.0000 0.0000 0.0000 0.0000 0.0000 56.4431
#
#
#
# Elastic Compliance Matrix: (Units=1/GPa)
#
#
# Indices 1 2 3 4 5 6 
#
# 1 0.007512 -0.002378 -0.000335 0.000000 0.000000 0.000000
# 2 -0.002378 0.005729 -0.001006 0.000000 0.000000 0.000000
# 3 -0.000335 -0.001006 0.021977 0.000000 0.000000 0.000000
# 4 0.000000 0.000000 0.000000 0.279341 0.000000 0.000000
# 5 0.000000 0.000000 0.000000 0.000000 0.043354 0.000000
# 6 0.000000 0.000000 0.000000 0.000000 0.000000 0.017717
#
#
# Mechanical properties :
#
#
# Convention : Reuss Voigt Hill
#
# Bulk Modulus (GPa) = 35.99648 62.66528 49.33088
# Shear Modulus (GPa) = 12.74447 38.13676 25.44061
#
# Velocity S-wave (km/s) = 2.30234 3.98273 3.25292
# Velocity P-wave (km/s) = 4.69464 6.87123 5.88445
#
# Compressibility (1/GPa) = 0.02778050
#
# Stress axis : x y z
#
# Youngs Moduli (GPa) = 133.12536 174.55710 45.50122
#
# Poissons Ratio (x) = 0.41506 0.01526
# Poissons Ratio (y) = 0.31654 0.04575
# Poissons Ratio (z) = 0.04465 0.17552
#
# Static dielectric constant tensor:
#      x y z
#    x 5.199280 0.000000 0.000000 
#    y 0.000000 4.618700 0.000000 
#    z 0.000000 0.000000 3.917580 
# 
# 
# High freq. dielectric constant tensor:
#      x y z
#    x 1.975470 0.000000 0.000000 
#    y 0.000000 1.970040 0.000000 
#    z 0.000000 0.000000 1.919810 
# 
# From -- ./inp_files/9559.got.cif
#   From: 2010.03.12/outbox.cif.g09.slc.cpg/sg50_5_cif.got.tgz:9559.got - 2010.04.16 13:23:21.
