data_PCOD8205330
_publ_section_title
;
Structure prediction by ZEFSAII (Michael W. Deem and Ramdas Pophale) SiO2 
 PCOD8205330
Probable space group: P B A N
;
_chemical_formula_sum "Si O2"
_cell_formula_units_Z 54
_cell_length_a 16.946271
_cell_length_b 5.190757
_cell_length_c 29.114148
_cell_angle_alpha 90.000000
_cell_angle_beta 90.000000
_cell_angle_gamma 90.000000
_cell_volume 2560.996181
_symmetry_space_group_name_H-M "P B A N"
_symmetry_group_IT_number 50
_space_group.IT_coordinate_system_code '2'
_symmetry_cell_setting 'orthorhombic'
loop_
_space_group_symop_operation_xyz
x,y,z
1/2-x,1/2-y,z
x,1/2-y,-z
1/2-x,y,-z
-x,-y,-z
1/2+x,1/2+y,-z
-x,1/2+y,z
1/2+x,-y,z
loop_
_atom_site_type_symbol
_atom_site_label
_atom_site_fract_x
_atom_site_fract_y
_atom_site_fract_z
Si Si1 0.446404 0.750000 0.500000
Si Si2 0.299376 0.000818 0.919789
Si Si3 0.051243 0.021261 0.354023
Si Si4 0.670604 0.392054 0.571420
Si Si5 0.299220 0.495783 0.187061
Si Si6 0.965966 0.163240 0.948727
Si Si7 0.549679 0.476866 0.750842
Si Si8 0.750000 0.750000 0.500000
O O1 0.500000 0.500000 0.500000
O O2 0.393371 0.787925 0.453972
O O3 0.250000 0.750000 0.930702
O O4 0.379481 0.962001 0.948189
O O5 0.250000 0.250000 0.936768
O O6 0.321125 0.023427 0.866404
O O7 0.079510 0.005284 0.301409
O O8 0.006020 0.284006 0.365539
O O9 0.130980 0.019628 0.384011
O O10 0.750000 0.250000 0.588004
O O11 0.691636 0.593698 0.532163
O O12 0.250000 0.250000 0.203096
O O13 0.378914 0.490253 0.214971
O O14 0.250000 0.750000 0.198551
O O15 0.976384 0.445728 0.924543
O O16 0.993049 0.250000 0.000000
O O17 0.514449 0.196243 0.760751
#
# Coordination Sequence:
#
# PCOD8205330 Si02
#       8
#     4   8   8   8   8   8   8   2
#     4  12  24  40  63  85 112 152 190 228 286 344
#     4  10  21  37  57  85 120 159 202 253 305 369
#     4  10  24  44  64  90 120 157 198 238 291 355
#     4  12  25  42  62  89 121 154 191 249 290 346
#     4  10  21  37  59  89 125 157 198 248 304 362
#     4  10  21  37  56  81 115 154 202 257 306 357
#     4  10  21  40  63  90 122 156 200 246 291 360
#     4  12  24  44  60  88 128 142 198 242 294 338
#
# _framework density 21.085545
#
# number of rings (size 3 to 8) (size 9 to 14) (size 15 to 20)
#    0.000    1.481    1.481    3.111    2.074    2.074 
#    1.333    0.741    0.000    0.000    0.000    0.000 
#    0.000    0.000    0.000    0.000    0.000    0.000 
#
# Total GULP energy -669445.824892 kJ/mol
# GULP energy per Si atom -12397.144905 kJ/mol
# Density = 2.103755 g / cm^3
# Si number density = 21.085545 Si / 1000 Ang^3
#
#
#
# Elastic Constant Matrix: (Units=GPa)
#
#
# Indices 1 2 3 4 5 6 
#
# 1 107.8454 44.3644 28.6033 0.0000 0.0000 0.0000
# 2 44.3644 154.2538 21.3439 0.0000 0.0000 0.0000
# 3 28.6033 21.3439 30.7219 0.0000 0.0000 0.0000
# 4 0.0000 0.0000 0.0000 -11.2548 0.0000 0.0000
# 5 0.0000 0.0000 0.0000 0.0000 62.0156 0.0000
# 6 0.0000 0.0000 0.0000 0.0000 0.0000 22.7323
#
#
#
# Elastic Compliance Matrix: (Units=1/GPa)
#
#
# Indices 1 2 3 4 5 6 
#
# 1 0.013002 -0.002284 -0.010518 0.000000 0.000000 0.000000
# 2 -0.002284 0.007574 -0.003135 0.000000 0.000000 0.000000
# 3 -0.010518 -0.003135 0.044521 0.000000 0.000000 0.000000
# 4 0.000000 0.000000 0.000000 -0.088851 0.000000 0.000000
# 5 0.000000 0.000000 0.000000 0.000000 0.016125 0.000000
# 6 0.000000 0.000000 0.000000 0.000000 0.000000 0.043990
#
#
# Mechanical properties :
#
#
# Convention : Reuss Voigt Hill
#
# Bulk Modulus (GPa) = 30.10107 53.49382 41.79744
# Shear Modulus (GPa) = 63.04377 27.93257 45.48817
#
# Velocity S-wave (km/s) = 5.47393 3.64363 4.64973
# Velocity P-wave (km/s) = 7.36604 6.56706 6.97800
#
# Compressibility (1/GPa) = 0.03322142
#
# Stress axis : x y z
#
# Youngs Moduli (GPa) = 76.91203 132.03892 22.46118
#
# Poissons Ratio (x) = 0.30158 0.23626
# Poissons Ratio (y) = 0.17567 0.07042
# Poissons Ratio (z) = 0.80900 0.41396
#
# Static dielectric constant tensor:
#      x y z
#    x 3.435740 0.000000 0.000000 
#    y 0.000000 4.184940 0.000000 
#    z 0.000000 0.000000 3.736460 
# 
# 
# High freq. dielectric constant tensor:
#      x y z
#    x 1.828910 0.000000 0.000000 
#    y 0.000000 1.850540 0.000000 
#    z 0.000000 0.000000 1.811820 
# 
# From -- ./inp_files/32544.got.cif
#   From: 2010.03.12/outbox.cif.g09.slc.cpg/sg50_17_cif.got.tgz:32544.got - 2010.04.16 13:23:21.
