data_PCOD8205604
_publ_section_title
;
Structure prediction by ZEFSAII (Michael W. Deem and Ramdas Pophale) SiO2 
 PCOD8205604
Probable space group: P B A N
;
_chemical_formula_sum "Si O2"
_cell_formula_units_Z 32
_cell_length_a 28.675387
_cell_length_b 5.431311
_cell_length_c 8.952921
_cell_angle_alpha 90.000000
_cell_angle_beta 90.000000
_cell_angle_gamma 90.000000
_cell_volume 1394.372187
_symmetry_space_group_name_H-M "P B A N"
_symmetry_group_IT_number 50
_space_group.IT_coordinate_system_code '2'
_symmetry_cell_setting 'orthorhombic'
loop_
_space_group_symop_operation_xyz
x,y,z
1/2-x,1/2-y,z
x,1/2-y,-z
1/2-x,y,-z
-x,-y,-z
1/2+x,1/2+y,-z
-x,1/2+y,z
1/2+x,-y,z
loop_
_atom_site_type_symbol
_atom_site_label
_atom_site_fract_x
_atom_site_fract_y
_atom_site_fract_z
Si Si1 0.671862 0.250000 0.000000
Si Si2 0.626053 0.936174 0.248864
Si Si3 0.706744 0.932755 0.748820
Si Si4 0.671182 0.250000 0.500000
Si Si5 0.525704 0.729623 0.676055
O O1 0.637274 0.413944 0.900769
O O2 0.707752 0.097622 0.897133
O O3 0.657646 0.698608 0.252779
O O4 0.573999 0.833503 0.243489
O O5 0.636044 0.094753 0.396955
O O6 0.750000 0.750000 0.749779
O O7 0.707472 0.094088 0.599126
O O8 0.533148 0.750000 0.500000
O O9 0.492221 0.501179 0.725603
#
# Coordination Sequence:
#
# PCOD8205604 Si02
#       5
#     4   8   8   4   8
#     4  10  26  45  70  94 138 188 238 280 353 426
#     4  11  24  43  69 101 140 181 234 291 351 422
#     4  11  25  45  70 100 137 183 232 286 353 422
#     4  10  24  41  70 102 136 174 228 292 355 408
#     4  10  23  40  70 105 142 186 237 299 371 431
#
# _framework density 22.949397999999999
#
# number of rings (size 3 to 8) (size 9 to 14) (size 15 to 20)
#    0.000    1.500    0.000    3.000   12.250   10.000 
#    0.000    5.000    0.000    0.000    0.000    0.000 
#    0.000    0.000    0.000    0.000    0.000    0.000 
#
# Total GULP energy -396783.921742 kJ/mol
# GULP energy per Si atom -12399.497554 kJ/mol
# Density = 2.289716 g / cm^3
# Si number density = 22.949398 Si / 1000 Ang^3
#
#
#
# Elastic Constant Matrix: (Units=GPa)
#
#
# Indices 1 2 3 4 5 6 
#
# 1 154.4511 67.3934 55.7997 0.0000 0.0000 0.0000
# 2 67.3934 156.1407 66.1198 0.0000 0.0000 0.0000
# 3 55.7997 66.1198 143.0189 0.0000 0.0000 0.0000
# 4 0.0000 0.0000 0.0000 -445.4737 0.0000 0.0000
# 5 0.0000 0.0000 0.0000 0.0000 31.1834 0.0000
# 6 0.0000 0.0000 0.0000 0.0000 0.0000 48.2847
#
#
#
# Elastic Compliance Matrix: (Units=1/GPa)
#
#
# Indices 1 2 3 4 5 6 
#
# 1 0.008410 -0.002786 -0.001993 0.000000 0.000000 0.000000
# 2 -0.002786 0.008886 -0.003021 0.000000 0.000000 0.000000
# 3 -0.001993 -0.003021 0.009167 0.000000 0.000000 0.000000
# 4 0.000000 0.000000 0.000000 -0.002245 0.000000 0.000000
# 5 0.000000 0.000000 0.000000 0.000000 0.032068 0.000000
# 6 0.000000 0.000000 0.000000 0.000000 0.000000 0.020710
#
#
# Mechanical properties :
#
#
# Convention : Reuss Voigt Hill
#
# Bulk Modulus (GPa) = 92.06397 92.47071 92.26734
# Shear Modulus (GPa) = 51.96458 -55.58127 -1.80835
#
# Velocity S-wave (km/s) = 4.76364 -4.92662 -0.88864
# Velocity P-wave (km/s) = 8.39402 2.83171 6.26411
#
# Compressibility (1/GPa) = 0.01086201
#
# Stress axis : x y z
#
# Youngs Moduli (GPa) = 118.90158 112.53172 109.09151
#
# Poissons Ratio (x) = 0.31351 0.21746
# Poissons Ratio (y) = 0.33125 0.32960
# Poissons Ratio (z) = 0.23701 0.34000
#
# Static dielectric constant tensor:
#      x y z
#    x 3.922310 0.000000 0.000000 
#    y 0.000000 4.766400 0.000000 
#    z 0.000000 0.000000 4.205430 
# 
# 
# High freq. dielectric constant tensor:
#      x y z
#    x 1.901840 0.000000 0.000000 
#    y 0.000000 1.930950 0.000000 
#    z 0.000000 0.000000 1.904470 
# 
# From -- ./inp_files/8014.got.cif
#   From: 2010.03.12/outbox.cif.g09.slc.cpg/sg50_5_cif.got.tgz:8014.got - 2010.04.16 13:23:21.
