data_PCOD8205575
_publ_section_title
;
Structure prediction by ZEFSAII (Michael W. Deem and Ramdas Pophale) SiO2 
 PCOD8205575
Probable space group: P B A N
;
_chemical_formula_sum "Si O2"
_cell_formula_units_Z 44
_cell_length_a 8.451838
_cell_length_b 14.468344
_cell_length_c 15.984536
_cell_angle_alpha 90.000000
_cell_angle_beta 90.000000
_cell_angle_gamma 90.000000
_cell_volume 1954.654593
_symmetry_space_group_name_H-M "P B A N"
_symmetry_group_IT_number 50
_space_group.IT_coordinate_system_code '2'
_symmetry_cell_setting 'orthorhombic'
loop_
_space_group_symop_operation_xyz
x,y,z
1/2-x,1/2-y,z
x,1/2-y,-z
1/2-x,y,-z
-x,-y,-z
1/2+x,1/2+y,-z
-x,1/2+y,z
1/2+x,-y,z
loop_
_atom_site_type_symbol
_atom_site_label
_atom_site_fract_x
_atom_site_fract_y
_atom_site_fract_z
Si Si1 0.546140 0.607136 0.907964
Si Si2 0.250000 0.250000 0.500000
Si Si3 0.813329 0.526890 0.653107
Si Si4 0.009028 0.684631 0.618118
Si Si5 0.750000 0.413872 0.500000
Si Si6 0.497517 0.123459 0.715061
Si Si7 0.250000 0.250000 0.000000
Si Si8 0.750000 0.041168 0.000000
O O1 0.552502 0.629815 0.810356
O O2 0.633300 0.694290 0.942927
O O3 0.367802 0.602823 0.943931
O O4 0.645907 0.516733 0.933622
O O5 0.142963 0.313144 0.441850
O O6 0.954702 0.599281 0.676859
O O7 0.845286 0.483079 0.560777
O O8 0.641361 0.572404 0.663191
O O9 0.842722 0.438585 0.713868
O O10 0.036727 0.777304 0.672312
O O11 0.153617 0.656946 0.558959
#
# Coordination Sequence:
#
# PCOD8205575 Si02
#       8
#     8   2   8   8   4   8   2   4
#     4  10  22  44  70 107 136 185 226 294 342 455
#     4  12  22  40  66  88 124 186 226 276 338 412
#     4  12  25  46  67 102 133 187 235 297 354 412
#     4  12  26  45  67  98 133 186 235 296 354 411
#     4  12  27  49  66  94 142 184 250 286 340 436
#     4  12  26  44  72 103 143 177 235 294 371 405
#     4  10  24  40  72 106 140 178 236 266 368 436
#     4   9  20  46  76  97 140 186 234 269 370 428
#
# _framework density 22.510369000000001
#
# number of rings (size 3 to 8) (size 9 to 14) (size 15 to 20)
#    0.000    0.727    3.636    3.273    2.545    3.636 
#    0.000    1.818    0.000    0.000    0.000    0.000 
#    0.000    0.000    0.000    0.000    0.000    0.000 
#
# Total GULP energy -545211.396641 kJ/mol
# GULP energy per Si atom -12391.168105 kJ/mol
# Density = 2.245913 g / cm^3
# Si number density = 22.510369 Si / 1000 Ang^3
#
#
#
# Elastic Constant Matrix: (Units=GPa)
#
#
# Indices 1 2 3 4 5 6 
#
# 1 101.7026 53.0720 34.5816 0.0000 0.0000 0.0000
# 2 53.0720 157.8781 57.4056 0.0000 0.0000 0.0000
# 3 34.5816 57.4056 130.9415 0.0000 0.0000 0.0000
# 4 0.0000 0.0000 0.0000 28.0109 0.0000 0.0000
# 5 0.0000 0.0000 0.0000 0.0000 90.8140 0.0000
# 6 0.0000 0.0000 0.0000 0.0000 0.0000 37.6150
#
#
#
# Elastic Compliance Matrix: (Units=1/GPa)
#
#
# Indices 1 2 3 4 5 6 
#
# 1 0.012234 -0.003495 -0.001699 0.000000 0.000000 0.000000
# 2 -0.003495 0.008534 -0.002818 0.000000 0.000000 0.000000
# 3 -0.001699 -0.002818 0.009321 0.000000 0.000000 0.000000
# 4 0.000000 0.000000 0.000000 0.035700 0.000000 0.000000
# 5 0.000000 0.000000 0.000000 0.000000 0.011012 0.000000
# 6 0.000000 0.000000 0.000000 0.000000 0.000000 0.026585
#
#
# Mechanical properties :
#
#
# Convention : Reuss Voigt Hill
#
# Bulk Modulus (GPa) = 71.09853 75.62673 73.36263
# Shear Modulus (GPa) = 40.29082 47.65218 43.97150
#
# Velocity S-wave (km/s) = 4.23529 4.60597 4.42451
# Velocity P-wave (km/s) = 7.45454 7.87121 7.66571
#
# Compressibility (1/GPa) = 0.01406499
#
# Stress axis : x y z
#
# Youngs Moduli (GPa) = 81.73961 117.18486 107.28283
#
# Poissons Ratio (x) = 0.40954 0.18225
# Poissons Ratio (y) = 0.28567 0.30234
# Poissons Ratio (z) = 0.13886 0.33025
#
# Static dielectric constant tensor:
#      x y z
#    x 4.270280 0.000000 0.000000 
#    y 0.000000 4.317370 0.000000 
#    z 0.000000 0.000000 3.954930 
# 
# 
# High freq. dielectric constant tensor:
#      x y z
#    x 1.897350 0.000000 0.000000 
#    y 0.000000 1.904900 0.000000 
#    z 0.000000 0.000000 1.870270 
# 
# From -- ./inp_files/28677.got.cif
#   From: 2010.03.12/outbox.cif.g09.slc.cpg/sg50_15_cif.got.tgz:28677.got - 2010.04.16 13:23:21.
