data_PCOD8205822
_publ_section_title
;
Structure prediction by ZEFSAII (Michael W. Deem and Ramdas Pophale) SiO2 
 PCOD8205822
Probable space group: P B A N
;
_chemical_formula_sum "Si O2"
_cell_formula_units_Z 34
_cell_length_a 9.430366
_cell_length_b 13.034312
_cell_length_c 12.742987
_cell_angle_alpha 90.000000
_cell_angle_beta 90.000000
_cell_angle_gamma 90.000000
_cell_volume 1566.346716
_symmetry_space_group_name_H-M "P B A N"
_symmetry_group_IT_number 50
_space_group.IT_coordinate_system_code '2'
_symmetry_cell_setting 'orthorhombic'
loop_
_space_group_symop_operation_xyz
x,y,z
1/2-x,1/2-y,z
x,1/2-y,-z
1/2-x,y,-z
-x,-y,-z
1/2+x,1/2+y,-z
-x,1/2+y,z
1/2+x,-y,z
loop_
_atom_site_type_symbol
_atom_site_label
_atom_site_fract_x
_atom_site_fract_y
_atom_site_fract_z
Si Si1 0.200170 0.553872 0.274914
Si Si2 0.750000 0.750000 0.500000
Si Si3 0.069651 0.067655 0.407406
Si Si4 0.513961 0.250000 0.000000
Si Si5 0.250000 0.750000 0.839647
Si Si6 0.619740 0.948076 0.934188
O O1 0.306428 0.497825 0.353353
O O2 0.288726 0.650607 0.229649
O O3 0.141795 0.476287 0.186749
O O4 0.059324 0.596328 0.331105
O O5 0.856854 0.824454 0.563116
O O6 0.000000 0.000000 0.500000
O O7 0.617461 0.208299 0.908346
O O8 0.408671 0.327819 0.942999
O O9 0.750000 0.986941 0.000000
O O10 0.500000 0.000000 0.000000
#
# Coordination Sequence:
#
# PCOD8205822 Si02
#       6
#     8   2   8   4   4   8
#     4  12  26  46  77 108 149 196 252 308 381 456
#     4  12  28  52  82 102 158 184 250 328 396 446
#     4  12  27  53  75 111 146 192 253 323 384 457
#     4  11  23  42  66 104 152 196 234 296 356 434
#     4  11  24  40  71 110 146 194 243 290 371 446
#     4  12  24  45  68 104 149 189 238 298 354 440
#
# _framework density 21.706561000000001
#
# number of rings (size 3 to 8) (size 9 to 14) (size 15 to 20)
#    0.000    0.235    4.706    4.588    3.294    1.882 
#    0.000    0.000    0.000    0.000    0.000    0.000 
#    0.000    0.000    0.000    0.000    0.000    0.000 
#
# Total GULP energy -421343.057605 kJ/mol
# GULP energy per Si atom -12392.442871 kJ/mol
# Density = 2.165716 g / cm^3
# Si number density = 21.706561 Si / 1000 Ang^3
#
#
#
# Elastic Constant Matrix: (Units=GPa)
#
#
# Indices 1 2 3 4 5 6 
#
# 1 148.3210 48.7022 69.3581 0.0000 0.0000 0.0000
# 2 48.7022 146.9072 70.7460 0.0000 0.0000 0.0000
# 3 69.3581 70.7460 138.6162 0.0000 0.0000 0.0000
# 4 0.0000 0.0000 0.0000 45.0809 0.0000 0.0000
# 5 0.0000 0.0000 0.0000 0.0000 37.9561 0.0000
# 6 0.0000 0.0000 0.0000 0.0000 0.0000 23.5924
#
#
#
# Elastic Compliance Matrix: (Units=1/GPa)
#
#
# Indices 1 2 3 4 5 6 
#
# 1 0.008927 -0.001072 -0.003920 0.000000 0.000000 0.000000
# 2 -0.001072 0.009154 -0.004136 0.000000 0.000000 0.000000
# 3 -0.003920 -0.004136 0.011286 0.000000 0.000000 0.000000
# 4 0.000000 0.000000 0.000000 0.022182 0.000000 0.000000
# 5 0.000000 0.000000 0.000000 0.000000 0.026346 0.000000
# 6 0.000000 0.000000 0.000000 0.000000 0.000000 0.042387
#
#
# Mechanical properties :
#
#
# Convention : Reuss Voigt Hill
#
# Bulk Modulus (GPa) = 89.98649 90.16191 90.07420
# Shear Modulus (GPa) = 35.15168 37.66175 36.40671
#
# Velocity S-wave (km/s) = 4.02855 4.16990 4.09983
# Velocity P-wave (km/s) = 7.94889 8.05053 7.99987
#
# Compressibility (1/GPa) = 0.01111278
#
# Stress axis : x y z
#
# Youngs Moduli (GPa) = 112.01953 109.24254 88.60436
#
# Poissons Ratio (x) = 0.11709 0.34730
# Poissons Ratio (y) = 0.12007 0.36643
# Poissons Ratio (z) = 0.43908 0.45179
#
# Static dielectric constant tensor:
#      x y z
#    x 3.173340 0.000000 0.000000 
#    y 0.000000 2.705270 0.000000 
#    z 0.000000 0.000000 4.093730 
# 
# 
# High freq. dielectric constant tensor:
#      x y z
#    x 1.874700 0.000000 0.000000 
#    y 0.000000 1.859680 0.000000 
#    z 0.000000 0.000000 1.858470 
# 
# From -- ./inp_files/18552.got.cif
#   From: 2010.03.12/outbox.cif.g09.slc.cpg/sg50_10_cif.got.tgz:18552.got - 2010.04.16 13:23:21.
