data_PCOD8205821
_publ_section_title
;
Structure prediction by ZEFSAII (Michael W. Deem and Ramdas Pophale) SiO2 
 PCOD8205821
Probable space group: P B A N
;
_chemical_formula_sum "Si O2"
_cell_formula_units_Z 34
_cell_length_a 18.800690
_cell_length_b 10.399119
_cell_length_c 7.939517
_cell_angle_alpha 90.000000
_cell_angle_beta 90.000000
_cell_angle_gamma 90.000000
_cell_volume 1552.259832
_symmetry_space_group_name_H-M "P B A N"
_symmetry_group_IT_number 50
_space_group.IT_coordinate_system_code '2'
_symmetry_cell_setting 'orthorhombic'
loop_
_space_group_symop_operation_xyz
x,y,z
1/2-x,1/2-y,z
x,1/2-y,-z
1/2-x,y,-z
-x,-y,-z
1/2+x,1/2+y,-z
-x,1/2+y,z
1/2+x,-y,z
loop_
_atom_site_type_symbol
_atom_site_label
_atom_site_fract_x
_atom_site_fract_y
_atom_site_fract_z
Si Si1 0.607699 0.880701 0.392780
Si Si2 0.753312 0.601391 0.183346
Si Si3 0.360510 0.937074 0.337104
Si Si4 0.250000 0.750000 0.500000
Si Si5 0.488219 0.624986 0.886804
O O1 0.618762 0.750000 0.500000
O O2 0.677149 0.929000 0.291894
O O3 0.544086 0.862867 0.263359
O O4 0.591358 0.005259 0.511077
O O5 0.750000 0.750000 0.151109
O O6 0.682041 0.562732 0.278930
O O7 0.750000 0.531470 0.000000
O O8 0.301669 0.831987 0.382326
O O9 0.409896 0.877521 0.193118
O O10 0.496414 0.750000 0.000000
O O11 0.500000 0.500000 0.000000
#
# Coordination Sequence:
#
# PCOD8205821 Si02
#       5
#     8   8   8   2   8
#     4  12  24  45  76 108 141 190 250 305 362 440
#     4  11  23  41  73 107 140 179 237 305 364 424
#     4  12  26  47  72 106 146 193 247 301 368 445
#     4  12  28  40  72 104 144 192 244 290 364 448
#     4  12  30  50  74 108 151 198 248 308 380 442
#
# _framework density 21.903549999999999
#
# number of rings (size 3 to 8) (size 9 to 14) (size 15 to 20)
#    0.000    0.235    4.706    3.529    8.235    1.882 
#    0.000    0.000    0.000    0.000    0.000    0.000 
#    0.000    0.000    0.000    0.000    0.000    0.000 
#
# Total GULP energy -421544.463166 kJ/mol
# GULP energy per Si atom -12398.366564 kJ/mol
# Density = 2.185370 g / cm^3
# Si number density = 21.903550 Si / 1000 Ang^3
#
#
#
# Elastic Constant Matrix: (Units=GPa)
#
#
# Indices 1 2 3 4 5 6 
#
# 1 145.7183 47.5463 67.9201 0.0000 0.0000 0.0000
# 2 47.5463 115.8751 75.3855 0.0000 0.0000 0.0000
# 3 67.9201 75.3855 137.7246 0.0000 0.0000 0.0000
# 4 0.0000 0.0000 0.0000 12.0468 0.0000 0.0000
# 5 0.0000 0.0000 0.0000 0.0000 126.0003 0.0000
# 6 0.0000 0.0000 0.0000 0.0000 0.0000 -39.6979
#
#
#
# Elastic Compliance Matrix: (Units=1/GPa)
#
#
# Indices 1 2 3 4 5 6 
#
# 1 0.009027 -0.001255 -0.003765 0.000000 0.000000 0.000000
# 2 -0.001255 0.013577 -0.006813 0.000000 0.000000 0.000000
# 3 -0.003765 -0.006813 0.012847 0.000000 0.000000 0.000000
# 4 0.000000 0.000000 0.000000 0.083010 0.000000 0.000000
# 5 0.000000 0.000000 0.000000 0.000000 0.007936 0.000000
# 6 0.000000 0.000000 0.000000 0.000000 0.000000 -0.025190
#
#
# Mechanical properties :
#
#
# Convention : Reuss Voigt Hill
#
# Bulk Modulus (GPa) = 84.84799 86.78021 85.81410
# Shear Modulus (GPa) = 38.81986 33.56757 36.19372
#
# Velocity S-wave (km/s) = 4.21445 3.91899 4.06940
# Velocity P-wave (km/s) = 7.90590 7.75778 7.83219
#
# Compressibility (1/GPa) = 0.01178578
#
# Stress axis : x y z
#
# Youngs Moduli (GPa) = 110.78188 73.65371 77.84080
#
# Poissons Ratio (x) = 0.09240 0.29307
# Poissons Ratio (y) = 0.13898 0.53032
# Poissons Ratio (z) = 0.41709 0.50180
#
# Static dielectric constant tensor:
#      x y z
#    x 4.024200 0.000000 0.000000 
#    y 0.000000 3.990660 0.000000 
#    z 0.000000 0.000000 3.832110 
# 
# 
# High freq. dielectric constant tensor:
#      x y z
#    x 1.868120 0.000000 0.000000 
#    y 0.000000 1.859790 0.000000 
#    z 0.000000 0.000000 1.885230 
# 
# From -- ./inp_files/14937.got.cif
#   From: 2010.03.12/outbox.cif.g09.slc.cpg/sg50_8_cif.got.tgz:14937.got - 2010.04.16 13:23:21.
