data_PCOD8205790
_publ_section_title
;
Structure prediction by ZEFSAII (Michael W. Deem and Ramdas Pophale) SiO2 
 PCOD8205790
Probable space group: P B A N
;
_chemical_formula_sum "Si O2"
_cell_formula_units_Z 40
_cell_length_a 30.597772
_cell_length_b 7.546975
_cell_length_c 8.331854
_cell_angle_alpha 90.000000
_cell_angle_beta 90.000000
_cell_angle_gamma 90.000000
_cell_volume 1923.996894
_symmetry_space_group_name_H-M "P B A N"
_symmetry_group_IT_number 50
_space_group.IT_coordinate_system_code '2'
_symmetry_cell_setting 'orthorhombic'
loop_
_space_group_symop_operation_xyz
x,y,z
1/2-x,1/2-y,z
x,1/2-y,-z
1/2-x,y,-z
-x,-y,-z
1/2+x,1/2+y,-z
-x,1/2+y,z
1/2+x,-y,z
loop_
_atom_site_type_symbol
_atom_site_label
_atom_site_fract_x
_atom_site_fract_y
_atom_site_fract_z
Si Si1 0.050596 0.702904 0.316516
Si Si2 0.298689 0.450673 0.311125
Si Si3 0.974026 0.616830 0.877015
Si Si4 0.140765 0.758817 0.181066
Si Si5 0.198875 0.454705 0.317291
O O1 0.040139 0.750000 0.500000
O O2 0.054736 0.496643 0.252662
O O3 0.097380 0.792147 0.284777
O O4 0.009623 0.777322 0.223385
O O5 0.328017 0.573613 0.200925
O O6 0.248617 0.484992 0.260901
O O7 0.313290 0.248742 0.282866
O O8 0.305456 0.502122 0.495942
O O9 0.946960 0.750000 0.000000
O O10 0.000000 0.500000 0.000000
O O11 0.165963 0.578558 0.222098
O O12 0.124554 0.750000 0.000000
#
# Coordination Sequence:
#
# PCOD8205790 Si02
#       5
#     8   8   8   8   8
#     4  11  22  40  63  89 119 157 206 245 296 375
#     4   9  19  38  62  84 118 155 204 252 301 364
#     4   9  19  39  63  87 118 153 187 243 307 360
#     4  12  24  37  56  88 125 160 198 252 306 356
#     4   9  19  38  61  87 114 158 203 251 304 360
#
# _framework density 20.790054000000001
#
# number of rings (size 3 to 8) (size 9 to 14) (size 15 to 20)
#    0.000    2.000    0.000    6.000    0.000    4.000 
#   10.800    2.000    0.000    0.000    0.000    0.000 
#    0.000    0.000    0.000    0.000    0.000    0.000 
#
# Total GULP energy -495615.688630 kJ/mol
# GULP energy per Si atom -12390.392216 kJ/mol
# Density = 2.074273 g / cm^3
# Si number density = 20.790054 Si / 1000 Ang^3
#
#
#
# Elastic Constant Matrix: (Units=GPa)
#
#
# Indices 1 2 3 4 5 6 
#
# 1 66.5213 22.5180 27.4025 0.0000 0.0000 0.0000
# 2 22.5180 88.5514 47.5674 0.0000 0.0000 0.0000
# 3 27.4025 47.5674 114.8972 0.0000 0.0000 0.0000
# 4 0.0000 0.0000 0.0000 37.6112 0.0000 0.0000
# 5 0.0000 0.0000 0.0000 0.0000 16.9087 0.0000
# 6 0.0000 0.0000 0.0000 0.0000 0.0000 10.2344
#
#
#
# Elastic Compliance Matrix: (Units=1/GPa)
#
#
# Indices 1 2 3 4 5 6 
#
# 1 0.017190 -0.002789 -0.002945 0.000000 0.000000 0.000000
# 2 -0.002789 0.014975 -0.005534 0.000000 0.000000 0.000000
# 3 -0.002945 -0.005534 0.011697 0.000000 0.000000 0.000000
# 4 0.000000 0.000000 0.000000 0.026588 0.000000 0.000000
# 5 0.000000 0.000000 0.000000 0.000000 0.059141 0.000000
# 6 0.000000 0.000000 0.000000 0.000000 0.000000 0.097709
#
#
# Mechanical properties :
#
#
# Convention : Reuss Voigt Hill
#
# Bulk Modulus (GPa) = 46.89385 51.66061 49.27723
# Shear Modulus (GPa) = 19.45929 24.44966 21.95447
#
# Velocity S-wave (km/s) = 3.06271 3.43304 3.25315
# Velocity P-wave (km/s) = 5.92552 6.37315 6.15341
#
# Compressibility (1/GPa) = 0.02132476
#
# Stress axis : x y z
#
# Youngs Moduli (GPa) = 58.17283 66.77721 85.49154
#
# Poissons Ratio (x) = 0.18627 0.25177
# Poissons Ratio (y) = 0.16227 0.47315
# Poissons Ratio (z) = 0.17132 0.36958
#
# Static dielectric constant tensor:
#      x y z
#    x 3.540600 0.000000 0.000000 
#    y 0.000000 4.294110 0.000000 
#    z 0.000000 0.000000 3.806420 
# 
# 
# High freq. dielectric constant tensor:
#      x y z
#    x 1.797730 0.000000 0.000000 
#    y 0.000000 1.823950 0.000000 
#    z 0.000000 0.000000 1.815490 
# 
# From -- ./inp_files/15782.got.cif
#   From: 2010.03.12/outbox.cif.g09.slc.cpg/sg50_8_cif.got.tgz:15782.got - 2010.04.16 13:23:21.
