data_PCOD8205698
_publ_section_title
;
Structure prediction by ZEFSAII (Michael W. Deem and Ramdas Pophale) SiO2 
 PCOD8205698
Probable space group: P B A N
;
_chemical_formula_sum "Si O2"
_cell_formula_units_Z 24
_cell_length_a 8.115671
_cell_length_b 21.518834
_cell_length_c 5.283131
_cell_angle_alpha 90.000000
_cell_angle_beta 90.000000
_cell_angle_gamma 90.000000
_cell_volume 922.644820
_symmetry_space_group_name_H-M "P B A N"
_symmetry_group_IT_number 50
_space_group.IT_coordinate_system_code '2'
_symmetry_cell_setting 'orthorhombic'
loop_
_space_group_symop_operation_xyz
x,y,z
1/2-x,1/2-y,z
x,1/2-y,-z
1/2-x,y,-z
-x,-y,-z
1/2+x,1/2+y,-z
-x,1/2+y,z
1/2+x,-y,z
loop_
_atom_site_type_symbol
_atom_site_label
_atom_site_fract_x
_atom_site_fract_y
_atom_site_fract_z
Si Si1 0.936737 0.223656 0.748346
Si Si2 0.429694 0.400986 0.583431
Si Si3 0.146661 0.971460 0.755555
O O1 0.750000 0.250000 0.749474
O O2 0.028628 0.250000 0.500000
O O3 0.956186 0.149330 0.728772
O O4 0.025539 0.250000 0.000000
O O5 0.250000 0.376133 0.500000
O O6 0.431065 0.459068 0.785265
O O7 0.510257 0.419740 0.311905
O O8 0.250000 0.978693 0.500000
O O9 0.250000 0.951397 0.000000
#
# Coordination Sequence:
#
# PCOD8205698 Si02
#       3
#     8   8   8
#     4  10  24  46  72 105 138 199 254 305 373 451
#     4  10  24  46  75 111 156 195 257 326 385 466
#     4  10  24  45  74 111 152 205 248 311 397 475
#
# _framework density 26.012179
#
# number of rings (size 3 to 8) (size 9 to 14) (size 15 to 20)
#    0.000    2.000    0.000    0.000    4.667   20.667 
#    0.000    1.667    0.000    0.000    0.000    0.000 
#    0.000    0.000    0.000    0.000    0.000    0.000 
#
# Total GULP energy -297352.319094 kJ/mol
# GULP energy per Si atom -12389.679962 kJ/mol
# Density = 2.595297 g / cm^3
# Si number density = 26.012179 Si / 1000 Ang^3
#
#
#
# Elastic Constant Matrix: (Units=GPa)
#
#
# Indices 1 2 3 4 5 6 
#
# 1 128.2594 71.1751 41.2687 0.0000 0.0000 0.0000
# 2 71.1751 176.3583 73.6869 0.0000 0.0000 0.0000
# 3 41.2687 73.6869 206.8243 0.0000 0.0000 0.0000
# 4 0.0000 0.0000 0.0000 30.7125 0.0000 0.0000
# 5 0.0000 0.0000 0.0000 0.0000 31.2800 0.0000
# 6 0.0000 0.0000 0.0000 0.0000 0.0000 39.2934
#
#
#
# Elastic Compliance Matrix: (Units=1/GPa)
#
#
# Indices 1 2 3 4 5 6 
#
# 1 0.010124 -0.003809 -0.000663 0.000000 0.000000 0.000000
# 2 -0.003809 0.008095 -0.002124 0.000000 0.000000 0.000000
# 3 -0.000663 -0.002124 0.005724 0.000000 0.000000 0.000000
# 4 0.000000 0.000000 0.000000 0.032560 0.000000 0.000000
# 5 0.000000 0.000000 0.000000 0.000000 0.031969 0.000000
# 6 0.000000 0.000000 0.000000 0.000000 0.000000 0.025450
#
#
# Mechanical properties :
#
#
# Convention : Reuss Voigt Hill
#
# Bulk Modulus (GPa) = 93.01491 98.18925 95.60208
# Shear Modulus (GPa) = 38.25653 41.94461 40.10057
#
# Velocity S-wave (km/s) = 3.83915 4.01995 3.93059
# Velocity P-wave (km/s) = 7.44902 7.70558 7.57839
#
# Compressibility (1/GPa) = 0.01075096
#
# Stress axis : x y z
#
# Youngs Moduli (GPa) = 98.77925 123.53510 174.70049
#
# Poissons Ratio (x) = 0.47050 0.11584
# Poissons Ratio (y) = 0.37622 0.37107
# Poissons Ratio (z) = 0.06550 0.26240
#
# Static dielectric constant tensor:
#      x y z
#    x 4.867000 0.000000 0.000000 
#    y 0.000000 4.758780 0.000000 
#    z 0.000000 0.000000 6.272740 
# 
# 
# High freq. dielectric constant tensor:
#      x y z
#    x 2.031690 0.000000 0.000000 
#    y 0.000000 2.028830 0.000000 
#    z 0.000000 0.000000 2.055750 
# 
# From -- ./inp_files/786.got.cif
#   From: 2010.03.12/outbox.cif.g09.slc.cpg/sg50_1_cif.got.tgz:786.got - 2010.04.16 13:23:21.
