data_PCOD8205930
_publ_section_title
;
Structure prediction by ZEFSAII (Michael W. Deem and Ramdas Pophale) SiO2 
 PCOD8205930
Probable space group: P M M A
;
_chemical_formula_sum "Si O2"
_cell_formula_units_Z 52
_cell_length_a 8.818772
_cell_length_b 26.823694
_cell_length_c 13.656830
_cell_angle_alpha 90.000000
_cell_angle_beta 90.000000
_cell_angle_gamma 90.000000
_cell_volume 3230.551018
_symmetry_space_group_name_H-M "P M M A"
_symmetry_group_IT_number 51
_symmetry_cell_setting 'orthorhombic'
loop_
_space_group_symop_operation_xyz
x,y,z
1/2-x,-y,z
1/2+x,-y,-z
-x,y,-z
-x,-y,-z
1/2+x,y,-z
1/2-x,y,z
x,-y,z
loop_
_atom_site_type_symbol
_atom_site_label
_atom_site_fract_x
_atom_site_fract_y
_atom_site_fract_z
Si Si1 0.070500 0.000000 0.609019
Si Si2 0.426368 0.556465 0.777024
Si Si3 0.929438 0.610023 0.601926
Si Si4 0.926356 0.793679 0.606507
Si Si5 0.574131 0.351042 0.101414
Si Si6 0.074698 0.096058 0.395019
Si Si7 0.570788 0.702585 0.296712
O O1 0.000000 0.000000 0.500000
O O2 0.009613 0.949406 0.662772
O O3 0.250000 0.000000 0.607349
O O4 0.250000 0.565489 0.750648
O O5 0.458156 0.500000 0.810663
O O6 0.524492 0.568760 0.681630
O O7 0.475070 0.593173 0.865327
O O8 0.750000 0.613365 0.593759
O O9 0.000000 0.592104 0.500000
O O10 0.995176 0.664206 0.628084
O O11 0.750000 0.780126 0.596047
O O12 0.946615 0.849304 0.652969
O O13 0.000000 0.788114 0.500000
O O14 0.007496 0.757454 0.683211
O O15 0.750000 0.348804 0.082164
O O16 0.525989 0.312087 0.185808
O O17 0.500000 0.335386 0.000000
O O18 0.250000 0.081858 0.405787
O O19 0.000000 0.100776 0.500000
O O20 0.750000 0.700689 0.312636
#
# Coordination Sequence:
#
# PCOD8205930 Si02
#       7
#     4   8   8   8   8   8   8
#     4  10  16  22  34  50  72 106 149 190 225 258
#     4   9  19  36  53  70  94 119 144 176 213 254
#     4  11  21  33  49  68  91 119 151 182 214 255
#     4  10  19  29  43  64  89 119 153 188 225 263
#     4   9  19  34  52  72  91 114 141 173 216 262
#     4   9  16  25  36  52  77 109 147 187 224 259
#     4  10  20  34  49  66  90 117 146 181 221 262
#
# _framework density 16.096326000000001
#
# number of rings (size 3 to 8) (size 9 to 14) (size 15 to 20)
#    0.000    2.308    0.000    5.769    0.000    5.846 
#    0.000    0.000    0.000    0.000    0.000    0.000 
#    0.000    0.000    0.000    0.692    0.000    9.154 
#
# Total GULP energy -644575.530179 kJ/mol
# GULP energy per Si atom -12395.683273 kJ/mol
# Density = 1.605969 g / cm^3
# Si number density = 16.096326 Si / 1000 Ang^3
#
#
#
# Elastic Constant Matrix: (Units=GPa)
#
#
# Indices 1 2 3 4 5 6 
#
# 1 104.8381 49.3451 33.4707 0.0000 0.0000 0.0000
# 2 49.3451 121.9957 34.6418 0.0000 0.0000 0.0000
# 3 33.4707 34.6418 75.3178 0.0000 0.0000 0.0000
# 4 0.0000 0.0000 0.0000 24.2486 0.0000 0.0000
# 5 0.0000 0.0000 0.0000 0.0000 22.9114 0.0000
# 6 0.0000 0.0000 0.0000 0.0000 0.0000 27.4721
#
#
#
# Elastic Compliance Matrix: (Units=1/GPa)
#
#
# Indices 1 2 3 4 5 6 
#
# 1 0.012643 -0.004047 -0.003757 0.000000 0.000000 0.000000
# 2 -0.004047 0.010724 -0.003134 0.000000 0.000000 0.000000
# 3 -0.003757 -0.003134 0.016388 0.000000 0.000000 0.000000
# 4 0.000000 0.000000 0.000000 0.041240 0.000000 0.000000
# 5 0.000000 0.000000 0.000000 0.000000 0.043646 0.000000
# 6 0.000000 0.000000 0.000000 0.000000 0.000000 0.036401
#
#
# Mechanical properties :
#
#
# Convention : Reuss Voigt Hill
#
# Bulk Modulus (GPa) = 55.93161 59.67411 57.80286
# Shear Modulus (GPa) = 26.47230 27.23933 26.85581
#
# Velocity S-wave (km/s) = 4.05979 4.11818 4.08909
# Velocity P-wave (km/s) = 7.53653 7.73086 7.63431
#
# Compressibility (1/GPa) = 0.01787898
#
# Stress axis : x y z
#
# Youngs Moduli (GPa) = 79.09641 93.25025 61.01995
#
# Poissons Ratio (x) = 0.37738 0.22925
# Poissons Ratio (y) = 0.32010 0.19123
# Poissons Ratio (z) = 0.29717 0.29224
#
# Static dielectric constant tensor:
#      x y z
#    x 3.080740 0.000000 0.000000 
#    y 0.000000 3.727580 0.000000 
#    z 0.000000 0.000000 3.408180 
# 
# 
# High freq. dielectric constant tensor:
#      x y z
#    x 1.634610 0.000000 0.000000 
#    y 0.000000 1.627860 0.000000 
#    z 0.000000 0.000000 1.564710 
# 
# From -- ./inp_files/14645.got.cif
#   From: 2010.03.12/outbox.cif.g09.slc.cpg/sg51_8_cif.got.tgz:14645.got - 2010.04.16 13:43:02.
