data_PCOD8205977
_publ_section_title
;
Structure prediction by ZEFSAII (Michael W. Deem and Ramdas Pophale) SiO2 
 PCOD8205977
Probable space group: P M M A
;
_chemical_formula_sum "Si O2"
_cell_formula_units_Z 56
_cell_length_a 19.261663
_cell_length_b 14.109298
_cell_length_c 13.574150
_cell_angle_alpha 90.000000
_cell_angle_beta 90.000000
_cell_angle_gamma 90.000000
_cell_volume 3689.026971
_symmetry_space_group_name_H-M "P M M A"
_symmetry_group_IT_number 51
_symmetry_cell_setting 'orthorhombic'
loop_
_space_group_symop_operation_xyz
x,y,z
1/2-x,-y,z
1/2+x,-y,-z
-x,y,-z
-x,-y,-z
1/2+x,y,-z
1/2-x,y,z
x,-y,z
loop_
_atom_site_type_symbol
_atom_site_label
_atom_site_fract_x
_atom_site_fract_y
_atom_site_fract_z
Si Si1 0.473792 0.610425 0.891068
Si Si2 0.454841 0.892747 0.405350
Si Si3 0.828663 0.106154 0.464775
Si Si4 0.521071 0.715354 0.710709
Si Si5 0.422461 0.606636 0.457698
Si Si6 0.325356 0.391513 0.815027
Si Si7 0.370317 0.289217 0.633301
O O1 0.485613 0.500000 0.861802
O O2 0.521861 0.679774 0.823701
O O3 0.391431 0.637568 0.883008
O O4 0.500000 0.630815 0.000000
O O5 0.500000 0.856263 0.500000
O O6 0.374547 0.885229 0.436446
O O7 0.467293 0.827985 0.308670
O O8 0.476715 0.000000 0.378140
O O9 0.750000 0.128776 0.495959
O O10 0.854099 0.177868 0.379966
O O11 0.836155 0.000000 0.420564
O O12 0.578678 0.658685 0.648003
O O13 0.445654 0.687829 0.673836
O O14 0.500000 0.611658 0.500000
O O15 0.396959 0.500000 0.443172
O O16 0.366156 0.658845 0.527392
O O17 0.250000 0.376976 0.869517
O O18 0.335016 0.500000 0.783368
O O19 0.318787 0.331739 0.714169
#
# Coordination Sequence:
#
# PCOD8205977 Si02
#       7
#     8   8   8   8   8   8   8
#     4   9  18  31  47  67  88 111 147 197 240 273
#     4  10  17  28  44  64  88 116 152 182 211 258
#     4  10  19  28  39  58  88 123 153 182 213 250
#     4  10  16  26  43  64  85 114 148 182 223 264
#     4   9  15  22  35  59  87 114 143 173 205 251
#     4   9  17  28  43  64  89 117 146 176 219 276
#     4  10  16  25  39  61  90 117 143 174 211 263
#
# _framework density 15.180154999999999
#
# number of rings (size 3 to 8) (size 9 to 14) (size 15 to 20)
#    0.000    2.429    2.857    1.714    0.000    3.429 
#    0.000    0.000    0.000    1.286    0.000    0.000 
#    0.000    0.000    0.000    0.000    0.000    0.000 
#
# Total GULP energy -693851.508380 kJ/mol
# GULP energy per Si atom -12390.205507 kJ/mol
# Density = 1.514560 g / cm^3
# Si number density = 15.180155 Si / 1000 Ang^3
#
#
#
# Elastic Constant Matrix: (Units=GPa)
#
#
# Indices 1 2 3 4 5 6 
#
# 1 58.3363 15.5346 34.6297 0.0000 0.0000 0.0000
# 2 15.5346 90.6785 43.5315 0.0000 0.0000 0.0000
# 3 34.6297 43.5315 86.6449 0.0000 0.0000 0.0000
# 4 0.0000 0.0000 0.0000 19.4778 0.0000 0.0000
# 5 0.0000 0.0000 0.0000 0.0000 13.0362 0.0000
# 6 0.0000 0.0000 0.0000 0.0000 0.0000 14.8994
#
#
#
# Elastic Compliance Matrix: (Units=1/GPa)
#
#
# Indices 1 2 3 4 5 6 
#
# 1 0.022500 0.000609 -0.009299 0.000000 0.000000 0.000000
# 2 0.000609 0.014550 -0.007554 0.000000 0.000000 0.000000
# 3 -0.009299 -0.007554 0.019053 0.000000 0.000000 0.000000
# 4 0.000000 0.000000 0.000000 0.051341 0.000000 0.000000
# 5 0.000000 0.000000 0.000000 0.000000 0.076710 0.000000
# 6 0.000000 0.000000 0.000000 0.000000 0.000000 0.067117
#
#
# Mechanical properties :
#
#
# Convention : Reuss Voigt Hill
#
# Bulk Modulus (GPa) = 42.34320 47.00569 44.67445
# Shear Modulus (GPa) = 17.14521 18.94694 18.04608
#
# Velocity S-wave (km/s) = 3.36437 3.53673 3.45163
# Velocity P-wave (km/s) = 6.56097 6.90727 6.73635
#
# Compressibility (1/GPa) = 0.02361654
#
# Stress axis : x y z
#
# Youngs Moduli (GPa) = 44.44525 68.72972 52.48574
#
# Poissons Ratio (x) = -0.04189 0.48805
# Poissons Ratio (y) = -0.02709 0.39645
# Poissons Ratio (z) = 0.41328 0.51915
#
# Static dielectric constant tensor:
#      x y z
#    x 2.951820 0.000000 0.000000 
#    y 0.000000 3.018140 0.000000 
#    z 0.000000 0.000000 2.662450 
# 
# 
# High freq. dielectric constant tensor:
#      x y z
#    x 1.571590 0.000000 0.000000 
#    y 0.000000 1.587750 0.000000 
#    z 0.000000 0.000000 1.530530 
# 
# From -- ./inp_files/25264.got.cif
#   From: 2010.03.12/outbox.cif.g09.slc.cpg/sg51_13_cif.got.tgz:25264.got - 2010.04.16 13:43:02.
