data_PCOD8205740
_publ_section_title
;
Structure prediction by ZEFSAII (Michael W. Deem and Ramdas Pophale) SiO2 
 PCOD8205740
Probable space group: P B A N
;
_chemical_formula_sum "Si O2"
_cell_formula_units_Z 64
_cell_length_a 17.031916
_cell_length_b 19.454575
_cell_length_c 9.470424
_cell_angle_alpha 90.000000
_cell_angle_beta 90.000000
_cell_angle_gamma 90.000000
_cell_volume 3138.012560
_symmetry_space_group_name_H-M "P B A N"
_symmetry_group_IT_number 50
_space_group.IT_coordinate_system_code '2'
_symmetry_cell_setting 'orthorhombic'
loop_
_space_group_symop_operation_xyz
x,y,z
1/2-x,1/2-y,z
x,1/2-y,-z
1/2-x,y,-z
-x,-y,-z
1/2+x,1/2+y,-z
-x,1/2+y,z
1/2+x,-y,z
loop_
_atom_site_type_symbol
_atom_site_label
_atom_site_fract_x
_atom_site_fract_y
_atom_site_fract_z
Si Si1 0.813494 0.632212 0.105930
Si Si2 0.447315 0.308701 0.287143
Si Si3 0.290490 0.092060 0.357978
Si Si4 0.330658 0.947138 0.456475
Si Si5 0.342025 0.984820 0.980979
Si Si6 0.058481 0.920537 0.769452
Si Si7 0.064297 0.960242 0.289572
Si Si8 0.950303 0.657680 0.612662
O O1 0.871241 0.686498 0.182989
O O2 0.768094 0.594846 0.229662
O O3 0.750000 0.668695 0.000000
O O4 0.856234 0.568017 0.025028
O O5 0.514277 0.348924 0.197718
O O6 0.470403 0.230536 0.316173
O O7 0.439062 0.343372 0.442458
O O8 0.250000 0.120757 0.500000
O O9 0.367565 0.135492 0.321929
O O10 0.309207 0.012088 0.361249
O O11 0.250000 0.907741 0.500000
O O12 0.386274 0.899200 0.362972
O O13 0.375305 0.979732 0.588442
O O14 0.390155 0.950825 0.106622
O O15 0.250000 0.966894 0.000000
O O16 0.381669 0.948119 0.846726
O O17 0.994756 0.976889 0.725064
O O18 0.019436 0.891267 0.334652
#
# Coordination Sequence:
#
# PCOD8205740 Si02
#       8
#     8   8   8   8   8   8   8   8
#     4  11  23  39  62  94 135 172 209 257 323 401
#     4  11  24  43  62  94 132 173 216 265 322 377
#     4  11  20  36  61  91 128 171 212 257 316 389
#     4  11  21  34  62  95 124 155 214 271 321 373
#     4  11  24  40  63  95 134 163 204 267 336 380
#     4  12  22  39  66  92 126 169 210 267 324 375
#     4  12  22  38  65  96 120 165 220 266 315 381
#     4  11  24  41  65  93 130 172 219 268 318 376
#
# _framework density 20.395074000000001
#
# number of rings (size 3 to 8) (size 9 to 14) (size 15 to 20)
#    0.000    0.750    5.000    5.250    0.000    0.500 
#    0.000    3.125    0.000    4.500    0.000    0.000 
#    0.000    0.000    0.000    0.000    0.000    0.000 
#
# Total GULP energy -793191.474165 kJ/mol
# GULP energy per Si atom -12393.616784 kJ/mol
# Density = 2.034865 g / cm^3
# Si number density = 20.395074 Si / 1000 Ang^3
#
#
#
# Elastic Constant Matrix: (Units=GPa)
#
#
# Indices 1 2 3 4 5 6 
#
# 1 88.5055 21.2298 21.0246 0.0000 0.0000 0.0000
# 2 21.2298 68.6493 3.5723 0.0000 0.0000 0.0000
# 3 21.0246 3.5723 77.9028 0.0000 0.0000 0.0000
# 4 0.0000 0.0000 0.0000 24.8460 0.0000 0.0000
# 5 0.0000 0.0000 0.0000 0.0000 51.2693 0.0000
# 6 0.0000 0.0000 0.0000 0.0000 0.0000 69.6527
#
#
#
# Elastic Compliance Matrix: (Units=1/GPa)
#
#
# Indices 1 2 3 4 5 6 
#
# 1 0.013015 -0.003851 -0.003336 0.000000 0.000000 0.000000
# 2 -0.003851 0.015741 0.000318 0.000000 0.000000 0.000000
# 3 -0.003336 0.000318 0.013722 0.000000 0.000000 0.000000
# 4 0.000000 0.000000 0.000000 0.040248 0.000000 0.000000
# 5 0.000000 0.000000 0.000000 0.000000 0.019505 0.000000
# 6 0.000000 0.000000 0.000000 0.000000 0.000000 0.014357
#
#
# Mechanical properties :
#
#
# Convention : Reuss Voigt Hill
#
# Bulk Modulus (GPa) = 34.79564 36.30124 35.54844
# Shear Modulus (GPa) = 35.73794 41.76900 38.75347
#
# Velocity S-wave (km/s) = 4.19057 4.53039 4.36379
# Velocity P-wave (km/s) = 6.36493 6.72336 6.54660
#
# Compressibility (1/GPa) = 0.02873923
#
# Stress axis : x y z
#
# Youngs Moduli (GPa) = 76.83440 63.52722 72.87435
#
# Poissons Ratio (x) = 0.24466 0.24310
# Poissons Ratio (y) = 0.29591 -0.02314
# Poissons Ratio (z) = 0.25631 -0.02018
#
# Static dielectric constant tensor:
#      x y z
#    x 4.461090 0.000000 0.000000 
#    y 0.000000 3.344430 0.000000 
#    z 0.000000 0.000000 4.254320 
# 
# 
# High freq. dielectric constant tensor:
#      x y z
#    x 1.812680 0.000000 0.000000 
#    y 0.000000 1.752760 0.000000 
#    z 0.000000 0.000000 1.812730 
# 
# From -- ./inp_files/14605.got.cif
#   From: 2010.03.12/outbox.cif.g09.slc.cpg/sg50_8_cif.got.tgz:14605.got - 2010.04.16 13:23:21.
