data_PCOD8205189
_publ_section_title
;
Structure prediction by ZEFSAII (Michael W. Deem and Ramdas Pophale) SiO2 
 PCOD8205189
Probable space group: P B A N
;
_chemical_formula_sum "Si O2"
_cell_formula_units_Z 34
_cell_length_a 11.343445
_cell_length_b 22.395921
_cell_length_c 5.912547
_cell_angle_alpha 90.000000
_cell_angle_beta 90.000000
_cell_angle_gamma 90.000000
_cell_volume 1502.064225
_symmetry_space_group_name_H-M "P B A N"
_symmetry_group_IT_number 50
_space_group.IT_coordinate_system_code '2'
_symmetry_cell_setting 'orthorhombic'
loop_
_space_group_symop_operation_xyz
x,y,z
1/2-x,1/2-y,z
x,1/2-y,-z
1/2-x,y,-z
-x,-y,-z
1/2+x,1/2+y,-z
-x,1/2+y,z
1/2+x,-y,z
loop_
_atom_site_type_symbol
_atom_site_label
_atom_site_fract_x
_atom_site_fract_y
_atom_site_fract_z
Si Si1 0.069505 0.305496 0.160000
Si Si2 0.858897 0.473788 0.166570
Si Si3 0.250000 0.250000 0.500000
Si Si4 0.376780 0.864515 0.539165
Si Si5 0.037760 0.092048 0.143684
O O1 0.170524 0.292530 0.343558
O O2 0.948154 0.323975 0.283298
O O3 0.041593 0.250000 0.000000
O O4 0.113218 0.358896 0.995744
O O5 0.840878 0.430800 0.378887
O O6 0.878942 0.541837 0.261233
O O7 0.750000 0.472786 0.000000
O O8 0.969886 0.446984 0.038436
O O9 0.250000 0.832033 0.500000
O O10 0.454274 0.871785 0.314093
#
# Coordination Sequence:
#
# PCOD8205189 Si02
#       5
#     8   8   2   8   8
#     4  11  26  46  71  97 134 176 231 289 345 408
#     4  10  20  37  64  96 137 178 224 279 333 399
#     4  12  26  52  74  94 128 176 230 302 344 416
#     4  11  22  42  70 100 142 186 227 278 342 409
#     4  10  22  40  63  99 132 178 227 277 337 401
#
# _framework density 22.635518000000001
#
# number of rings (size 3 to 8) (size 9 to 14) (size 15 to 20)
#    0.000    1.412    2.353    2.471    0.000    3.765 
#    0.000    8.824    2.588    0.000    0.000    0.000 
#    0.000    0.000    0.000    0.000    0.000    0.000 
#
# Total GULP energy -421394.230003 kJ/mol
# GULP energy per Si atom -12393.947941 kJ/mol
# Density = 2.258400 g / cm^3
# Si number density = 22.635518 Si / 1000 Ang^3
#
#
#
# Elastic Constant Matrix: (Units=GPa)
#
#
# Indices 1 2 3 4 5 6 
#
# 1 109.3773 64.2962 48.9762 0.0000 0.0000 0.0000
# 2 64.2962 143.8667 56.8158 0.0000 0.0000 0.0000
# 3 48.9762 56.8158 113.4287 0.0000 0.0000 0.0000
# 4 0.0000 0.0000 0.0000 30.2774 0.0000 0.0000
# 5 0.0000 0.0000 0.0000 0.0000 38.3970 0.0000
# 6 0.0000 0.0000 0.0000 0.0000 0.0000 29.4877
#
#
#
# Elastic Compliance Matrix: (Units=1/GPa)
#
#
# Indices 1 2 3 4 5 6 
#
# 1 0.013418 -0.004623 -0.003478 0.000000 0.000000 0.000000
# 2 -0.004623 0.010258 -0.003142 0.000000 0.000000 0.000000
# 3 -0.003478 -0.003142 0.011892 0.000000 0.000000 0.000000
# 4 0.000000 0.000000 0.000000 0.033028 0.000000 0.000000
# 5 0.000000 0.000000 0.000000 0.000000 0.026044 0.000000
# 6 0.000000 0.000000 0.000000 0.000000 0.000000 0.033912
#
#
# Mechanical properties :
#
#
# Convention : Reuss Voigt Hill
#
# Bulk Modulus (GPa) = 76.44470 78.53879 77.49174
# Shear Modulus (GPa) = 32.17569 32.73806 32.45687
#
# Velocity S-wave (km/s) = 3.77433 3.80717 3.79078
# Velocity P-wave (km/s) = 7.26907 7.35517 7.31225
#
# Compressibility (1/GPa) = 0.01308135
#
# Stress axis : x y z
#
# Youngs Moduli (GPa) = 74.52946 97.48664 84.09359
#
# Poissons Ratio (x) = 0.45069 0.29246
# Poissons Ratio (y) = 0.34455 0.26422
# Poissons Ratio (z) = 0.25919 0.30630
#
# Static dielectric constant tensor:
#      x y z
#    x 4.013030 0.000000 0.000000 
#    y 0.000000 4.619620 0.000000 
#    z 0.000000 0.000000 4.138190 
# 
# 
# High freq. dielectric constant tensor:
#      x y z
#    x 1.887820 0.000000 0.000000 
#    y 0.000000 1.900180 0.000000 
#    z 0.000000 0.000000 1.895110 
# 
# From -- ./inp_files/2183.got.cif
#   From: 2010.03.12/outbox.cif.g09.slc.cpg/sg50_2_cif.got.tgz:2183.got - 2010.04.16 13:23:21.
