data_PCOD8205691
_publ_section_title
;
Structure prediction by ZEFSAII (Michael W. Deem and Ramdas Pophale) SiO2 
 PCOD8205691
Probable space group: P B A N
;
_chemical_formula_sum "Si O2"
_cell_formula_units_Z 56
_cell_length_a 14.904673
_cell_length_b 20.392776
_cell_length_c 8.692361
_cell_angle_alpha 90.000000
_cell_angle_beta 90.000000
_cell_angle_gamma 90.000000
_cell_volume 2642.022767
_symmetry_space_group_name_H-M "P B A N"
_symmetry_group_IT_number 50
_space_group.IT_coordinate_system_code '2'
_symmetry_cell_setting 'orthorhombic'
loop_
_space_group_symop_operation_xyz
x,y,z
1/2-x,1/2-y,z
x,1/2-y,-z
1/2-x,y,-z
-x,-y,-z
1/2+x,1/2+y,-z
-x,1/2+y,z
1/2+x,-y,z
loop_
_atom_site_type_symbol
_atom_site_label
_atom_site_fract_x
_atom_site_fract_y
_atom_site_fract_z
Si Si1 0.137007 0.444463 0.364483
Si Si2 0.283177 0.612978 0.165770
Si Si3 0.073044 0.779021 0.158060
Si Si4 0.104444 0.854887 0.695400
Si Si5 0.006490 0.530541 0.167079
Si Si6 0.172157 0.483478 0.692156
Si Si7 0.528613 0.822428 0.565662
O O1 0.154325 0.490342 0.511152
O O2 0.231881 0.447896 0.270343
O O3 0.054867 0.475566 0.271704
O O4 0.114793 0.370838 0.426096
O O5 0.340425 0.677090 0.126742
O O6 0.208691 0.624738 0.299946
O O7 0.341556 0.555122 0.235706
O O8 0.250000 0.588246 0.000000
O O9 0.105183 0.720396 0.263193
O O10 0.998980 0.818112 0.255152
O O11 0.032234 0.750000 0.000000
O O12 0.051665 0.858075 0.531807
O O13 0.060833 0.901280 0.827120
O O14 0.909854 0.554937 0.228847
O O15 0.000000 0.500000 0.000000
O O16 0.555235 0.750000 0.500000
#
# Coordination Sequence:
#
# PCOD8205691 Si02
#       7
#     8   8   8   8   8   8   8
#     4  11  24  45  69 103 132 183 233 293 354 418
#     4  12  23  39  63  99 140 178 226 282 350 426
#     4  11  24  40  66  95 135 184 229 286 348 418
#     4  11  23  41  63  96 136 180 234 276 350 423
#     4  12  25  41  68 100 144 182 226 295 352 424
#     4  11  25  41  70 100 136 179 230 286 353 421
#     4  10  24  45  68  94 133 176 237 291 350 426
#
# _framework density 21.195882000000001
#
# number of rings (size 3 to 8) (size 9 to 14) (size 15 to 20)
#    0.000    0.857    4.286    2.571    4.000    0.571 
#    0.000    3.571    0.000    0.000    0.000    1.000 
#    0.000    0.000    0.000    0.000    0.000    0.000 
#
# Total GULP energy -693984.994677 kJ/mol
# GULP energy per Si atom -12392.589191 kJ/mol
# Density = 2.114764 g / cm^3
# Si number density = 21.195882 Si / 1000 Ang^3
#
#
#
# Elastic Constant Matrix: (Units=GPa)
#
#
# Indices 1 2 3 4 5 6 
#
# 1 100.4399 30.9359 40.0019 0.0000 0.0000 0.0000
# 2 30.9359 100.4185 31.2485 0.0000 0.0000 0.0000
# 3 40.0019 31.2485 118.4066 0.0000 0.0000 0.0000
# 4 0.0000 0.0000 0.0000 33.8185 0.0000 0.0000
# 5 0.0000 0.0000 0.0000 0.0000 32.5564 0.0000
# 6 0.0000 0.0000 0.0000 0.0000 0.0000 31.4157
#
#
#
# Elastic Compliance Matrix: (Units=1/GPa)
#
#
# Indices 1 2 3 4 5 6 
#
# 1 0.012133 -0.002683 -0.003391 0.000000 0.000000 0.000000
# 2 -0.002683 0.011442 -0.002113 0.000000 0.000000 0.000000
# 3 -0.003391 -0.002113 0.010149 0.000000 0.000000 0.000000
# 4 0.000000 0.000000 0.000000 0.029570 0.000000 0.000000
# 5 0.000000 0.000000 0.000000 0.000000 0.030716 0.000000
# 6 0.000000 0.000000 0.000000 0.000000 0.000000 0.031831
#
#
# Mechanical properties :
#
#
# Convention : Reuss Voigt Hill
#
# Bulk Modulus (GPa) = 57.63646 58.18195 57.90921
# Shear Modulus (GPa) = 33.78414 34.03004 33.90709
#
# Velocity S-wave (km/s) = 3.99670 4.01122 4.00397
# Velocity P-wave (km/s) = 6.96775 6.99731 6.98255
#
# Compressibility (1/GPa) = 0.01735013
#
# Stress axis : x y z
#
# Youngs Moduli (GPa) = 82.42006 87.39407 98.53342
#
# Poissons Ratio (x) = 0.23444 0.33413
# Poissons Ratio (y) = 0.22110 0.20825
# Poissons Ratio (z) = 0.27949 0.18471
#
# Static dielectric constant tensor:
#      x y z
#    x 3.994750 0.000000 0.000000 
#    y 0.000000 3.960280 0.000000 
#    z 0.000000 0.000000 4.218420 
# 
# 
# High freq. dielectric constant tensor:
#      x y z
#    x 1.821880 0.000000 0.000000 
#    y 0.000000 1.833330 0.000000 
#    z 0.000000 0.000000 1.832770 
# 
# From -- ./inp_files/13281.got.cif
#   From: 2010.03.12/outbox.cif.g09.slc.cpg/sg50_7_cif.got.tgz:13281.got - 2010.04.16 13:23:21.
