data_PCOD8205916
_publ_section_title
;
Structure prediction by ZEFSAII (Michael W. Deem and Ramdas Pophale) SiO2 
 PCOD8205916
Probable space group: P B A N
;
_chemical_formula_sum "Si O2"
_cell_formula_units_Z 64
_cell_length_a 25.839300
_cell_length_b 9.364322
_cell_length_c 16.940130
_cell_angle_alpha 90.000000
_cell_angle_beta 90.000000
_cell_angle_gamma 90.000000
_cell_volume 4098.961337
_symmetry_space_group_name_H-M "P B A N"
_symmetry_group_IT_number 50
_space_group.IT_coordinate_system_code '2'
_symmetry_cell_setting 'orthorhombic'
loop_
_space_group_symop_operation_xyz
x,y,z
1/2-x,1/2-y,z
x,1/2-y,-z
1/2-x,y,-z
-x,-y,-z
1/2+x,1/2+y,-z
-x,1/2+y,z
1/2+x,-y,z
loop_
_atom_site_type_symbol
_atom_site_label
_atom_site_fract_x
_atom_site_fract_y
_atom_site_fract_z
Si Si1 0.310444 0.084636 0.150589
Si Si2 0.051098 0.416538 0.408818
Si Si3 0.448902 0.083462 0.591182
Si Si4 0.750000 0.920673 0.410942
Si Si5 0.151414 0.080867 0.318583
Si Si6 0.848586 0.580867 0.681417
Si Si7 0.810444 0.584636 0.150589
Si Si8 0.188466 0.588749 1.000000
O O1 0.343118 0.036366 0.227095
O O2 0.250000 0.056579 0.167872
O O3 0.319567 0.250000 0.129927
O O4 0.331806 0.991803 0.077831
O O5 0.065179 0.446143 0.500000
O O6 0.041234 0.250000 0.393913
O O7 0.097801 0.476560 0.354953
O O8 0.000000 0.500000 0.382754
O O9 0.402199 0.023440 0.645047
O O10 0.750000 0.750000 0.407808
O O11 0.750000 0.977269 0.500000
O O12 0.699319 0.983338 0.367837
O O13 0.800681 0.983338 0.367837
O O14 0.153212 0.250000 0.326930
O O15 0.156882 0.036366 0.227095
O O16 0.831806 0.491803 0.077831
O O17 0.167096 0.750000 0.000000
O O18 0.250000 0.585107 0.000000
#
# Coordination Sequence:
#
# PCOD8205916 Si02
#       8
#     8   8   8   8   8   8   8   8
#     4   9  15  25  41  61  85 111 139 171 209 253
#     4   9  17  29  44  62  85 114 148 183 215 247
#     4   9  17  29  44  62  85 114 148 183 215 247
#     4   9  14  20  34  59  89 114 136 169 215 257
#     4   9  15  24  39  62  88 112 140 176 215 253
#     4   9  15  24  39  62  88 112 140 176 215 253
#     4   9  15  25  41  61  85 111 139 171 209 253
#     4   9  17  27  39  57  84 115 144 169 200 246
#
# _framework density 15.613712
#
# number of rings (size 3 to 8) (size 9 to 14) (size 15 to 20)
#    0.000    3.000    1.250    1.125    0.000    4.500 
#    0.000    1.250    0.000    0.000    0.000    0.875 
#    0.000    6.000    0.000    0.000    0.000    0.000 
#
# Total GULP energy -793445.897717 kJ/mol
# GULP energy per Si atom -12397.592152 kJ/mol
# Density = 1.557817 g / cm^3
# Si number density = 15.613712 Si / 1000 Ang^3
#
#
#
# Elastic Constant Matrix: (Units=GPa)
#
#
# Indices 1 2 3 4 5 6 
#
# 1 108.0999 33.0710 73.9956 0.0000 0.0000 0.0000
# 2 33.0710 45.0797 46.4753 0.0000 0.0000 0.0000
# 3 73.9956 46.4753 139.8478 0.0000 0.0000 0.0000
# 4 0.0000 0.0000 0.0000 11.2209 0.0000 0.0000
# 5 0.0000 0.0000 0.0000 0.0000 20.1045 0.0000
# 6 0.0000 0.0000 0.0000 0.0000 0.0000 16.3702
#
#
#
# Elastic Compliance Matrix: (Units=1/GPa)
#
#
# Indices 1 2 3 4 5 6 
#
# 1 0.015033 -0.004302 -0.006524 0.000000 0.000000 0.000000
# 2 -0.004302 0.034975 -0.009347 0.000000 0.000000 0.000000
# 3 -0.006524 -0.009347 0.013709 0.000000 0.000000 0.000000
# 4 0.000000 0.000000 0.000000 0.089120 0.000000 0.000000
# 5 0.000000 0.000000 0.000000 0.000000 0.049740 0.000000
# 6 0.000000 0.000000 0.000000 0.000000 0.000000 0.061087
#
#
# Mechanical properties :
#
#
# Convention : Reuss Voigt Hill
#
# Bulk Modulus (GPa) = 42.78907 66.67902 54.73404
# Shear Modulus (GPa) = 16.03589 18.83816 17.43702
#
# Velocity S-wave (km/s) = 3.20822 3.47726 3.34545
# Velocity P-wave (km/s) = 6.41778 7.67593 7.07488
#
# Compressibility (1/GPa) = 0.02337046
#
# Stress axis : x y z
#
# Youngs Moduli (GPa) = 66.52103 28.59165 72.94406
#
# Poissons Ratio (x) = 0.12300 0.47592
# Poissons Ratio (y) = 0.28616 0.68182
# Poissons Ratio (z) = 0.43402 0.26725
#
# Static dielectric constant tensor:
#      x y z
#    x 2.878170 0.000000 0.000000 
#    y 0.000000 2.676880 0.000000 
#    z 0.000000 0.000000 3.103850 
# 
# 
# High freq. dielectric constant tensor:
#      x y z
#    x 1.569650 0.000000 0.000000 
#    y 0.000000 1.561370 0.000000 
#    z 0.000000 0.000000 1.606070 
# 
# From -- ./inp_files/29973.got.cif
#   From: 2010.03.12/outbox.cif.g09.slc.cpg/sg50_15_cif.got.tgz:29973.got - 2010.04.16 13:23:21.
