data_PCOD8205289
_publ_section_title
;
Structure prediction by ZEFSAII (Michael W. Deem and Ramdas Pophale) SiO2 
 PCOD8205289
Probable space group: P B A N
;
_chemical_formula_sum "Si O2"
_cell_formula_units_Z 40
_cell_length_a 12.870810
_cell_length_b 17.321523
_cell_length_c 9.061189
_cell_angle_alpha 90.000000
_cell_angle_beta 90.000000
_cell_angle_gamma 90.000000
_cell_volume 2020.119883
_symmetry_space_group_name_H-M "P B A N"
_symmetry_group_IT_number 50
_space_group.IT_coordinate_system_code '2'
_symmetry_cell_setting 'orthorhombic'
loop_
_space_group_symop_operation_xyz
x,y,z
1/2-x,1/2-y,z
x,1/2-y,-z
1/2-x,y,-z
-x,-y,-z
1/2+x,1/2+y,-z
-x,1/2+y,z
1/2+x,-y,z
loop_
_atom_site_type_symbol
_atom_site_label
_atom_site_fract_x
_atom_site_fract_y
_atom_site_fract_z
Si Si1 0.707079 0.532263 0.656328
Si Si2 0.110488 0.772483 0.832950
Si Si3 0.846673 0.515235 0.910872
Si Si4 0.034211 0.403655 0.843233
Si Si5 0.787295 0.351942 0.337368
O O1 0.750000 0.559658 0.500000
O O2 0.798825 0.556241 0.767510
O O3 0.598692 0.573771 0.696652
O O4 0.682531 0.441172 0.663948
O O5 0.113873 0.698414 0.721754
O O6 0.195473 0.834542 0.777863
O O7 0.997667 0.813866 0.828195
O O8 0.137065 0.750000 0.000000
O O9 0.929588 0.452928 0.858954
O O10 0.750000 0.475517 0.000000
O O11 0.897078 0.582302 0.011020
O O12 0.750000 0.326156 0.500000
#
# Coordination Sequence:
#
# PCOD8205289 Si02
#       5
#     8   8   8   8   8
#     4  10  21  38  61  89 121 155 198 247 303 359
#     4  11  22  33  56  86 116 153 197 238 300 367
#     4   9  19  34  56  80 120 151 193 249 289 340
#     4  10  21  35  57  88 117 154 202 242 306 351
#     4  10  21  38  56  86 128 154 179 245 313 361
#
# _framework density 19.800806000000001
#
# number of rings (size 3 to 8) (size 9 to 14) (size 15 to 20)
#    0.000    2.000    2.000    2.400    8.400    0.800 
#    0.000    2.000    0.000    5.400    0.000    1.400 
#    0.000    0.000    0.000    0.000    0.000    0.000 
#
# Total GULP energy -495678.589632 kJ/mol
# GULP energy per Si atom -12391.964741 kJ/mol
# Density = 1.975574 g / cm^3
# Si number density = 19.800806 Si / 1000 Ang^3
#
#
#
# Elastic Constant Matrix: (Units=GPa)
#
#
# Indices 1 2 3 4 5 6 
#
# 1 125.0414 44.8597 71.3768 0.0000 0.0000 0.0000
# 2 44.8597 75.8607 46.4174 0.0000 0.0000 0.0000
# 3 71.3768 46.4174 167.8390 0.0000 0.0000 0.0000
# 4 0.0000 0.0000 0.0000 19.6739 0.0000 0.0000
# 5 0.0000 0.0000 0.0000 0.0000 24.6914 0.0000
# 6 0.0000 0.0000 0.0000 0.0000 0.0000 41.6775
#
#
#
# Elastic Compliance Matrix: (Units=1/GPa)
#
#
# Indices 1 2 3 4 5 6 
#
# 1 0.011810 -0.004707 -0.003721 0.000000 0.000000 0.000000
# 2 -0.004707 0.017743 -0.002905 0.000000 0.000000 0.000000
# 3 -0.003721 -0.002905 0.008344 0.000000 0.000000 0.000000
# 4 0.000000 0.000000 0.000000 0.050829 0.000000 0.000000
# 5 0.000000 0.000000 0.000000 0.000000 0.040500 0.000000
# 6 0.000000 0.000000 0.000000 0.000000 0.000000 0.023994
#
#
# Mechanical properties :
#
#
# Convention : Reuss Voigt Hill
#
# Bulk Modulus (GPa) = 65.65563 77.11655 71.38609
# Shear Modulus (GPa) = 27.63005 30.94771 29.28888
#
# Velocity S-wave (km/s) = 3.73956 3.95771 3.85018
# Velocity P-wave (km/s) = 7.20248 7.74050 7.47633
#
# Compressibility (1/GPa) = 0.01523099
#
# Stress axis : x y z
#
# Youngs Moduli (GPa) = 84.67488 56.35942 119.84932
#
# Poissons Ratio (x) = 0.26529 0.44591
# Poissons Ratio (y) = 0.39858 0.34819
# Poissons Ratio (z) = 0.31504 0.16374
#
# Static dielectric constant tensor:
#      x y z
#    x 3.678400 0.000000 0.000000 
#    y 0.000000 3.425730 0.000000 
#    z 0.000000 0.000000 3.898470 
# 
# 
# High freq. dielectric constant tensor:
#      x y z
#    x 1.759330 0.000000 0.000000 
#    y 0.000000 1.740580 0.000000 
#    z 0.000000 0.000000 1.786090 
# 
# From -- ./inp_files/11328.got.cif
#   From: 2010.03.12/outbox.cif.g09.slc.cpg/sg50_6_cif.got.tgz:11328.got - 2010.04.16 13:23:21.
