data_PCOD8205166
_publ_section_title
;
Structure prediction by ZEFSAII (Michael W. Deem and Ramdas Pophale) SiO2 
 PCOD8205166
Probable space group: P B A N
;
_chemical_formula_sum "Si O2"
_cell_formula_units_Z 48
_cell_length_a 31.657546
_cell_length_b 8.199961
_cell_length_c 8.957367
_cell_angle_alpha 90.000000
_cell_angle_beta 90.000000
_cell_angle_gamma 90.000000
_cell_volume 2325.248655
_symmetry_space_group_name_H-M "P B A N"
_symmetry_group_IT_number 50
_space_group.IT_coordinate_system_code '2'
_symmetry_cell_setting 'orthorhombic'
loop_
_space_group_symop_operation_xyz
x,y,z
1/2-x,1/2-y,z
x,1/2-y,-z
1/2-x,y,-z
-x,-y,-z
1/2+x,1/2+y,-z
-x,1/2+y,z
1/2+x,-y,z
loop_
_atom_site_type_symbol
_atom_site_label
_atom_site_fract_x
_atom_site_fract_y
_atom_site_fract_z
Si Si1 0.397983 0.731537 0.661865
Si Si2 0.545364 0.770955 0.166543
Si Si3 0.658252 0.402821 0.905776
Si Si4 0.017768 0.926282 0.346044
Si Si5 0.204827 0.292511 0.827982
Si Si6 0.126983 0.090266 0.815082
O O1 0.376009 0.750000 0.500000
O O2 0.374584 0.840877 0.783328
O O3 0.447327 0.782064 0.641530
O O4 0.392746 0.541924 0.703066
O O5 0.524026 0.639216 0.271304
O O6 0.595178 0.739774 0.167806
O O7 0.538703 0.947468 0.233752
O O8 0.526582 0.750000 0.000000
O O9 0.693554 0.513353 0.820534
O O10 0.678438 0.250000 0.000000
O O11 0.632571 0.513786 0.021255
O O12 0.000000 0.000000 0.500000
O O13 0.250000 0.250000 0.751277
O O14 0.170062 0.172951 0.752130
O O15 0.207394 0.250000 0.000000
#
# Coordination Sequence:
#
# PCOD8205166 Si02
#       6
#     8   8   8   8   8   8
#     4  11  22  38  57  80 113 153 197 240 290 351
#     4  12  23  37  58  82 111 148 192 240 293 348
#     4   9  19  36  60  88 118 149 190 240 291 351
#     4  12  25  40  56  81 115 153 197 249 296 351
#     4   9  17  34  60  90 118 146 186 236 289 350
#     4  10  20  37  59  85 113 148 189 240 293 347
#
# _framework density 20.642952999999999
#
# number of rings (size 3 to 8) (size 9 to 14) (size 15 to 20)
#    0.000    1.500    0.000    7.500    0.000    2.000 
#    0.000   16.667    0.000    3.000    0.000    0.000 
#    0.000    0.000    0.000    0.000    0.000    0.000 
#
# Total GULP energy -594870.522153 kJ/mol
# GULP energy per Si atom -12393.135878 kJ/mol
# Density = 2.059597 g / cm^3
# Si number density = 20.642953 Si / 1000 Ang^3
#
#
#
# Elastic Constant Matrix: (Units=GPa)
#
#
# Indices 1 2 3 4 5 6 
#
# 1 125.5151 60.1384 25.6323 0.0000 0.0000 0.0000
# 2 60.1384 106.5136 20.1280 0.0000 0.0000 0.0000
# 3 25.6323 20.1280 84.7556 0.0000 0.0000 0.0000
# 4 0.0000 0.0000 0.0000 32.0583 0.0000 0.0000
# 5 0.0000 0.0000 0.0000 0.0000 14.1710 0.0000
# 6 0.0000 0.0000 0.0000 0.0000 0.0000 34.6388
#
#
#
# Elastic Compliance Matrix: (Units=1/GPa)
#
#
# Indices 1 2 3 4 5 6 
#
# 1 0.011230 -0.005967 -0.001979 0.000000 0.000000 0.000000
# 2 -0.005967 0.013000 -0.001283 0.000000 0.000000 0.000000
# 3 -0.001979 -0.001283 0.012702 0.000000 0.000000 0.000000
# 4 0.000000 0.000000 0.000000 0.031193 0.000000 0.000000
# 5 0.000000 0.000000 0.000000 0.000000 0.070566 0.000000
# 6 0.000000 0.000000 0.000000 0.000000 0.000000 0.028869
#
#
# Mechanical properties :
#
#
# Convention : Reuss Voigt Hill
#
# Bulk Modulus (GPa) = 54.12914 58.73132 56.43023
# Shear Modulus (GPa) = 26.01779 30.23267 28.12523
#
# Velocity S-wave (km/s) = 3.55402 3.83110 3.69516
# Velocity P-wave (km/s) = 6.56658 6.93416 6.75287
#
# Compressibility (1/GPa) = 0.01847434
#
# Stress axis : x y z
#
# Youngs Moduli (GPa) = 89.04577 76.92504 78.72866
#
# Poissons Ratio (x) = 0.45898 0.15583
# Poissons Ratio (y) = 0.53130 0.10099
# Poissons Ratio (z) = 0.17625 0.09867
#
# Static dielectric constant tensor:
#      x y z
#    x 4.007120 0.000000 0.000000 
#    y 0.000000 4.068470 0.000000 
#    z 0.000000 0.000000 3.635390 
# 
# 
# High freq. dielectric constant tensor:
#      x y z
#    x 1.794660 0.000000 0.000000 
#    y 0.000000 1.826530 0.000000 
#    z 0.000000 0.000000 1.789350 
# 
# From -- ./inp_files/10073.got.cif
#   From: 2010.03.12/outbox.cif.g09.slc.cpg/sg50_6_cif.got.tgz:10073.got - 2010.04.16 13:23:21.
