data_PCOD8205885
_publ_section_title
;
Structure prediction by ZEFSAII (Michael W. Deem and Ramdas Pophale) SiO2 
 PCOD8205885
Probable space group: P B A N
;
_chemical_formula_sum "Si O2"
_cell_formula_units_Z 38
_cell_length_a 13.740745
_cell_length_b 11.203108
_cell_length_c 11.157672
_cell_angle_alpha 90.000000
_cell_angle_beta 90.000000
_cell_angle_gamma 90.000000
_cell_volume 1717.601431
_symmetry_space_group_name_H-M "P B A N"
_symmetry_group_IT_number 50
_space_group.IT_coordinate_system_code '2'
_symmetry_cell_setting 'orthorhombic'
loop_
_space_group_symop_operation_xyz
x,y,z
1/2-x,1/2-y,z
x,1/2-y,-z
1/2-x,y,-z
-x,-y,-z
1/2+x,1/2+y,-z
-x,1/2+y,z
1/2+x,-y,z
loop_
_atom_site_type_symbol
_atom_site_label
_atom_site_fract_x
_atom_site_fract_y
_atom_site_fract_z
Si Si1 0.458052 0.138775 0.202527
Si Si2 0.576589 0.250000 0.000000
Si Si3 0.351613 0.930155 0.673599
Si Si4 0.644338 0.801051 0.376707
Si Si5 0.800756 0.451400 0.880814
Si Si6 0.750000 0.250000 0.500000
O O1 0.506950 0.164679 0.075672
O O2 0.535937 0.082060 0.291841
O O3 0.420034 0.261263 0.262799
O O4 0.370452 0.046868 0.181673
O O5 0.642353 0.329862 0.087678
O O6 0.284476 0.916971 0.790141
O O7 0.321365 0.830352 0.578985
O O8 0.344596 0.057924 0.611343
O O9 0.750000 0.750000 0.354977
O O10 0.598780 0.750000 0.500000
O O11 0.750000 0.505750 0.000000
#
# Coordination Sequence:
#
# PCOD8205885 Si02
#       6
#     8   4   8   8   8   2
#     4  12  27  44  76 106 146 195 248 303 373 448
#     4  12  25  44  71 106 146 192 239 302 371 438
#     4  12  27  49  75 112 145 195 252 303 375 451
#     4  11  25  49  72 102 147 192 240 310 369 433
#     4  12  26  47  72 106 151 193 241 311 372 441
#     4  12  28  48  80 108 150 200 248 312 376 448
#
# _framework density 22.123875999999999
#
# number of rings (size 3 to 8) (size 9 to 14) (size 15 to 20)
#    0.000    0.211    4.211    4.737    4.421    0.842 
#    0.000    0.000    0.000    0.000    0.000    0.000 
#    0.000    0.000    0.000    0.000    0.000    0.000 
#
# Total GULP energy -471442.644229 kJ/mol
# GULP energy per Si atom -12406.385374 kJ/mol
# Density = 2.207352 g / cm^3
# Si number density = 22.123876 Si / 1000 Ang^3
#
#
#
# Elastic Constant Matrix: (Units=GPa)
#
#
# Indices 1 2 3 4 5 6 
#
# 1 110.9539 41.3114 44.1136 0.0000 0.0000 0.0000
# 2 41.3114 145.2454 49.1103 0.0000 0.0000 0.0000
# 3 44.1136 49.1103 123.9614 0.0000 0.0000 0.0000
# 4 0.0000 0.0000 0.0000 55.4004 0.0000 0.0000
# 5 0.0000 0.0000 0.0000 0.0000 -33.8457 0.0000
# 6 0.0000 0.0000 0.0000 0.0000 0.0000 26.7726
#
#
#
# Elastic Compliance Matrix: (Units=1/GPa)
#
#
# Indices 1 2 3 4 5 6 
#
# 1 0.011021 -0.002088 -0.003095 0.000000 0.000000 0.000000
# 2 -0.002088 0.008345 -0.002563 0.000000 0.000000 0.000000
# 3 -0.003095 -0.002563 0.010184 0.000000 0.000000 0.000000
# 4 0.000000 0.000000 0.000000 0.018050 0.000000 0.000000
# 5 0.000000 0.000000 0.000000 0.000000 -0.029546 0.000000
# 6 0.000000 0.000000 0.000000 0.000000 0.000000 0.037352
#
#
# Mechanical properties :
#
#
# Convention : Reuss Voigt Hill
#
# Bulk Modulus (GPa) = 71.13388 72.13680 71.63534
# Shear Modulus (GPa) = 66.15166 26.04047 46.09606
#
# Velocity S-wave (km/s) = 5.47407 3.43451 4.56954
# Velocity P-wave (km/s) = 8.49567 6.95733 7.76469
#
# Compressibility (1/GPa) = 0.01405800
#
# Stress axis : x y z
#
# Youngs Moduli (GPa) = 90.73914 119.82523 98.19590
#
# Poissons Ratio (x) = 0.25022 0.30387
# Poissons Ratio (y) = 0.18948 0.25169
# Poissons Ratio (z) = 0.28080 0.30713
#
# Static dielectric constant tensor:
#      x y z
#    x 4.174090 0.000000 0.000000 
#    y 0.000000 3.696530 0.000000 
#    z 0.000000 0.000000 4.233680 
# 
# 
# High freq. dielectric constant tensor:
#      x y z
#    x 1.886370 0.000000 0.000000 
#    y 0.000000 1.876250 0.000000 
#    z 0.000000 0.000000 1.881270 
# 
# From -- ./inp_files/20943.got.cif
#   From: 2010.03.12/outbox.cif.g09.slc.cpg/sg50_11_cif.got.tgz:20943.got - 2010.04.16 13:23:21.
