data_PCOD8205795
_publ_section_title
;
Structure prediction by ZEFSAII (Michael W. Deem and Ramdas Pophale) SiO2 
 PCOD8205795
Probable space group: P B A N
;
_chemical_formula_sum "Si O2"
_cell_formula_units_Z 38
_cell_length_a 20.076681
_cell_length_b 8.927006
_cell_length_c 9.337513
_cell_angle_alpha 90.000000
_cell_angle_beta 90.000000
_cell_angle_gamma 90.000000
_cell_volume 1673.512516
_symmetry_space_group_name_H-M "P B A N"
_symmetry_group_IT_number 50
_space_group.IT_coordinate_system_code '2'
_symmetry_cell_setting 'orthorhombic'
loop_
_space_group_symop_operation_xyz
x,y,z
1/2-x,1/2-y,z
x,1/2-y,-z
1/2-x,y,-z
-x,-y,-z
1/2+x,1/2+y,-z
-x,1/2+y,z
1/2+x,-y,z
loop_
_atom_site_type_symbol
_atom_site_label
_atom_site_fract_x
_atom_site_fract_y
_atom_site_fract_z
Si Si1 0.144661 0.457948 0.140452
Si Si2 0.250000 0.250000 0.000000
Si Si3 0.821952 0.925018 0.466929
Si Si4 0.046683 0.074105 0.385581
Si Si5 0.401028 0.750000 0.000000
Si Si6 0.989650 0.839285 0.208485
O O1 0.153285 0.481317 0.311144
O O2 0.145960 0.608110 0.041145
O O3 0.075052 0.371104 0.110508
O O4 0.205721 0.353134 0.100419
O O5 0.815665 0.750000 0.500000
O O6 0.750000 0.000669 0.500000
O O7 0.877783 0.975625 0.580815
O O8 0.035833 0.252799 0.355301
O O9 0.000000 0.000000 0.500000
O O10 0.024215 0.998712 0.237697
O O11 0.450786 0.748846 0.134335
#
# Coordination Sequence:
#
# PCOD8205795 Si02
#       6
#     8   2   8   8   4   8
#     4  12  26  46  69 104 141 195 240 300 370 448
#     4  12  30  46  74  96 138 194 256 288 368 464
#     4  11  22  41  70 105 141 183 240 298 362 440
#     4  12  22  41  70 106 141 182 239 301 365 425
#     4  12  27  45  68 103 149 180 242 302 372 431
#     4  12  24  42  71 106 142 183 239 307 365 437
#
# _framework density 22.706731000000001
#
# number of rings (size 3 to 8) (size 9 to 14) (size 15 to 20)
#    0.000    0.211    6.316    3.158    2.947    0.421 
#    0.000    0.000    0.000    6.316    0.000    0.000 
#    0.000    0.000    0.000    0.000    0.000    0.000 
#
# Total GULP energy -470809.869159 kJ/mol
# GULP energy per Si atom -12389.733399 kJ/mol
# Density = 2.265505 g / cm^3
# Si number density = 22.706731 Si / 1000 Ang^3
#
#
#
# Elastic Constant Matrix: (Units=GPa)
#
#
# Indices 1 2 3 4 5 6 
#
# 1 175.0743 55.4450 37.0349 0.0000 0.0000 0.0000
# 2 55.4450 111.0262 35.1180 0.0000 0.0000 0.0000
# 3 37.0349 35.1180 75.9128 0.0000 0.0000 0.0000
# 4 0.0000 0.0000 0.0000 37.8187 0.0000 0.0000
# 5 0.0000 0.0000 0.0000 0.0000 36.3375 0.0000
# 6 0.0000 0.0000 0.0000 0.0000 0.0000 38.5475
#
#
#
# Elastic Compliance Matrix: (Units=1/GPa)
#
#
# Indices 1 2 3 4 5 6 
#
# 1 0.007066 -0.002856 -0.002126 0.000000 0.000000 0.000000
# 2 -0.002856 0.011705 -0.004022 0.000000 0.000000 0.000000
# 3 -0.002126 -0.004022 0.016071 0.000000 0.000000 0.000000
# 4 0.000000 0.000000 0.000000 0.026442 0.000000 0.000000
# 5 0.000000 0.000000 0.000000 0.000000 0.027520 0.000000
# 6 0.000000 0.000000 0.000000 0.000000 0.000000 0.025942
#
#
# Mechanical properties :
#
#
# Convention : Reuss Voigt Hill
#
# Bulk Modulus (GPa) = 59.40183 68.57880 63.99031
# Shear Modulus (GPa) = 36.13637 38.16844 37.15241
#
# Velocity S-wave (km/s) = 3.99361 4.10436 4.04937
# Velocity P-wave (km/s) = 6.89075 7.26145 7.07853
#
# Compressibility (1/GPa) = 0.01683450
#
# Stress axis : x y z
#
# Youngs Moduli (GPa) = 141.51971 85.43134 62.22557
#
# Poissons Ratio (x) = 0.24402 0.13229
# Poissons Ratio (y) = 0.40422 0.25024
# Poissons Ratio (z) = 0.30086 0.34356
#
# Static dielectric constant tensor:
#      x y z
#    x 5.649030 0.000000 0.000000 
#    y 0.000000 3.957990 0.000000 
#    z 0.000000 0.000000 3.844880 
# 
# 
# High freq. dielectric constant tensor:
#      x y z
#    x 1.908850 0.000000 0.000000 
#    y 0.000000 1.882140 0.000000 
#    z 0.000000 0.000000 1.895130 
# 
# From -- ./inp_files/15832.got.cif
#   From: 2010.03.12/outbox.cif.g09.slc.cpg/sg50_8_cif.got.tgz:15832.got - 2010.04.16 13:23:21.
