data_PCOD8205110
_publ_section_title
;
Structure prediction by ZEFSAII (Michael W. Deem and Ramdas Pophale) SiO2 
 PCOD8205110
Probable space group: P B A N
;
_chemical_formula_sum "Si O2"
_cell_formula_units_Z 56
_cell_length_a 20.216265
_cell_length_b 15.328555
_cell_length_c 8.991669
_cell_angle_alpha 90.000000
_cell_angle_beta 90.000000
_cell_angle_gamma 90.000000
_cell_volume 2786.393508
_symmetry_space_group_name_H-M "P B A N"
_symmetry_group_IT_number 50
_space_group.IT_coordinate_system_code '2'
_symmetry_cell_setting 'orthorhombic'
loop_
_space_group_symop_operation_xyz
x,y,z
1/2-x,1/2-y,z
x,1/2-y,-z
1/2-x,y,-z
-x,-y,-z
1/2+x,1/2+y,-z
-x,1/2+y,z
1/2+x,-y,z
loop_
_atom_site_type_symbol
_atom_site_label
_atom_site_fract_x
_atom_site_fract_y
_atom_site_fract_z
Si Si1 0.130184 0.425313 0.669406
Si Si2 0.047231 0.715812 0.834432
Si Si3 0.252645 0.506822 0.166028
Si Si4 0.077487 0.244392 0.667761
Si Si5 0.807992 0.297813 0.160064
Si Si6 0.510417 0.482239 0.828523
Si Si7 0.380096 0.450179 0.676176
O O1 0.201146 0.449984 0.730183
O O2 0.130648 0.320900 0.688604
O O3 0.070827 0.462503 0.766864
O O4 0.124953 0.460001 0.500955
O O5 0.120960 0.718599 0.762136
O O6 0.025638 0.617944 0.814782
O O7 0.990042 0.770529 0.754154
O O8 0.051054 0.750000 0.000000
O O9 0.286413 0.601736 0.150005
O O10 0.180535 0.498801 0.241415
O O11 0.250000 0.467126 0.000000
O O12 0.052866 0.250000 0.500000
O O13 0.112312 0.153235 0.715693
O O14 0.750000 0.250000 0.254921
O O15 0.811208 0.250000 0.000000
O O16 0.444438 0.502766 0.733543
O O17 0.500000 0.500000 0.000000
#
# Coordination Sequence:
#
# PCOD8205110 Si02
#       7
#     8   8   8   8   8   8   8
#     4  11  22  41  63  89 130 168 210 261 316 378
#     4  10  20  35  59  88 120 156 203 263 309 368
#     4  12  23  40  64  95 123 163 212 264 309 375
#     4   9  21  42  63  87 122 168 209 252 314 378
#     4  10  20  37  61  84 120 160 202 248 317 361
#     4  11  21  36  61  94 121 161 212 261 316 369
#     4  10  24  40  63  91 127 169 212 258 321 372
#
# _framework density 20.097664000000002
#
# number of rings (size 3 to 8) (size 9 to 14) (size 15 to 20)
#    0.000    1.571    2.857    2.571    0.000    2.857 
#    0.000    2.857    0.000    0.000    0.000    0.000 
#    0.000    0.000    0.000    0.000    0.000    0.000 
#
# Total GULP energy -693836.466626 kJ/mol
# GULP energy per Si atom -12389.936904 kJ/mol
# Density = 2.005192 g / cm^3
# Si number density = 20.097664 Si / 1000 Ang^3
#
#
#
# Elastic Constant Matrix: (Units=GPa)
#
#
# Indices 1 2 3 4 5 6 
#
# 1 134.0019 17.0999 32.9198 0.0000 0.0000 0.0000
# 2 17.0999 42.3857 10.3238 0.0000 0.0000 0.0000
# 3 32.9198 10.3238 89.8286 0.0000 0.0000 0.0000
# 4 0.0000 0.0000 0.0000 25.5601 0.0000 0.0000
# 5 0.0000 0.0000 0.0000 0.0000 29.2545 0.0000
# 6 0.0000 0.0000 0.0000 0.0000 0.0000 32.2100
#
#
#
# Elastic Compliance Matrix: (Units=1/GPa)
#
#
# Indices 1 2 3 4 5 6 
#
# 1 0.008501 -0.002748 -0.002800 0.000000 0.000000 0.000000
# 2 -0.002748 0.025160 -0.001885 0.000000 0.000000 0.000000
# 3 -0.002800 -0.001885 0.012375 0.000000 0.000000 0.000000
# 4 0.000000 0.000000 0.000000 0.039123 0.000000 0.000000
# 5 0.000000 0.000000 0.000000 0.000000 0.034183 0.000000
# 6 0.000000 0.000000 0.000000 0.000000 0.000000 0.031046
#
#
# Mechanical properties :
#
#
# Convention : Reuss Voigt Hill
#
# Bulk Modulus (GPa) = 32.07974 42.98928 37.53451
# Shear Modulus (GPa) = 28.46675 31.12977 29.79826
#
# Velocity S-wave (km/s) = 3.76762 3.93991 3.85473
# Velocity P-wave (km/s) = 5.90958 6.49105 6.20713
#
# Compressibility (1/GPa) = 0.03117232
#
# Stress axis : x y z
#
# Youngs Moduli (GPa) = 117.63349 39.74497 80.80881
#
# Poissons Ratio (x) = 0.10921 0.22623
# Poissons Ratio (y) = 0.32322 0.15230
# Poissons Ratio (z) = 0.32933 0.07491
#
# Static dielectric constant tensor:
#      x y z
#    x 4.287350 0.000000 0.000000 
#    y 0.000000 3.922190 0.000000 
#    z 0.000000 0.000000 3.991590 
# 
# 
# High freq. dielectric constant tensor:
#      x y z
#    x 1.804380 0.000000 0.000000 
#    y 0.000000 1.787220 0.000000 
#    z 0.000000 0.000000 1.769920 
# 
# From -- ./inp_files/15334.got.cif
#   From: 2010.03.12/outbox.cif.g09.slc.cpg/sg50_8_cif.got.tgz:15334.got - 2010.04.16 13:23:21.
