data_PCOD8205245
_publ_section_title
;
Structure prediction by ZEFSAII (Michael W. Deem and Ramdas Pophale) SiO2 
 PCOD8205245
Probable space group: P B A N
;
_chemical_formula_sum "Si O2"
_cell_formula_units_Z 32
_cell_length_a 15.837192
_cell_length_b 7.469085
_cell_length_c 11.903017
_cell_angle_alpha 90.000000
_cell_angle_beta 90.000000
_cell_angle_gamma 90.000000
_cell_volume 1407.999944
_symmetry_space_group_name_H-M "P B A N"
_symmetry_group_IT_number 50
_space_group.IT_coordinate_system_code '2'
_symmetry_cell_setting 'orthorhombic'
loop_
_space_group_symop_operation_xyz
x,y,z
1/2-x,1/2-y,z
x,1/2-y,-z
1/2-x,y,-z
-x,-y,-z
1/2+x,1/2+y,-z
-x,1/2+y,z
1/2+x,-y,z
loop_
_atom_site_type_symbol
_atom_site_label
_atom_site_fract_x
_atom_site_fract_y
_atom_site_fract_z
Si Si1 0.893444 0.980740 0.085885
Si Si2 0.974325 0.250000 0.500000
Si Si3 0.606055 0.558715 0.621534
Si Si4 0.250000 0.250000 0.500000
Si Si5 0.750000 0.750000 0.000000
Si Si6 0.932926 0.127602 0.849023
O O1 0.889844 0.176527 0.143943
O O2 0.912956 0.002176 0.954475
O O3 0.964287 0.860478 0.150523
O O4 0.805022 0.873596 0.085985
O O5 0.914841 0.415816 0.475070
O O6 0.033501 0.211826 0.390019
O O7 0.696718 0.632462 0.587372
O O8 0.607397 0.471060 0.743186
#
# Coordination Sequence:
#
# PCOD8205245 Si02
#       6
#     8   4   8   2   2   8
#     4  10  22  38  62  95 126 169 224 272 325 406
#     4   9  20  36  62  91 122 174 224 259 324 414
#     4  10  20  40  65  93 131 171 219 279 332 390
#     4  10  24  40  64 106 144 170 224 288 336 384
#     4  12  24  40  56  88 144 166 208 294 328 358
#     4  10  20  40  66  89 124 177 223 259 329 414
#
# _framework density 22.727270999999998
#
# number of rings (size 3 to 8) (size 9 to 14) (size 15 to 20)
#    0.000    2.000    0.000    4.500    0.000    3.500 
#    0.000   12.500    0.000    0.000    0.000    0.000 
#    0.000    0.000    0.000    0.000    0.000    0.000 
#
# Total GULP energy -396684.654634 kJ/mol
# GULP energy per Si atom -12396.395457 kJ/mol
# Density = 2.267554 g / cm^3
# Si number density = 22.727271 Si / 1000 Ang^3
#
#
#
# Elastic Constant Matrix: (Units=GPa)
#
#
# Indices 1 2 3 4 5 6 
#
# 1 160.4025 81.3232 57.6857 0.0000 0.0000 0.0000
# 2 81.3232 132.7907 56.9671 0.0000 0.0000 0.0000
# 3 57.6857 56.9671 133.9778 0.0000 0.0000 0.0000
# 4 0.0000 0.0000 0.0000 43.8033 0.0000 0.0000
# 5 0.0000 0.0000 0.0000 0.0000 17.3974 0.0000
# 6 0.0000 0.0000 0.0000 0.0000 0.0000 52.4388
#
#
#
# Elastic Compliance Matrix: (Units=1/GPa)
#
#
# Indices 1 2 3 4 5 6 
#
# 1 0.009447 -0.004942 -0.001966 0.000000 0.000000 0.000000
# 2 -0.004942 0.011796 -0.002888 0.000000 0.000000 0.000000
# 3 -0.001966 -0.002888 0.009538 0.000000 0.000000 0.000000
# 4 0.000000 0.000000 0.000000 0.022829 0.000000 0.000000
# 5 0.000000 0.000000 0.000000 0.000000 0.057480 0.000000
# 6 0.000000 0.000000 0.000000 0.000000 0.000000 0.019070
#
#
# Mechanical properties :
#
#
# Convention : Reuss Voigt Hill
#
# Bulk Modulus (GPa) = 89.37009 91.01366 90.19188
# Shear Modulus (GPa) = 32.57703 38.14089 35.35896
#
# Velocity S-wave (km/s) = 3.79012 4.10103 3.94863
# Velocity P-wave (km/s) = 7.65255 7.90933 7.78200
#
# Compressibility (1/GPa) = 0.01118943
#
# Stress axis : x y z
#
# Youngs Moduli (GPa) = 105.85393 84.77388 104.83943
#
# Poissons Ratio (x) = 0.41895 0.20613
# Poissons Ratio (y) = 0.52313 0.30276
# Poissons Ratio (z) = 0.20813 0.24481
#
# Static dielectric constant tensor:
#      x y z
#    x 4.059050 0.000000 0.000000 
#    y 0.000000 4.236020 0.000000 
#    z 0.000000 0.000000 3.792640 
# 
# 
# High freq. dielectric constant tensor:
#      x y z
#    x 1.880220 0.000000 0.000000 
#    y 0.000000 1.916100 0.000000 
#    z 0.000000 0.000000 1.880660 
# 
# From -- ./inp_files/20812.got.cif
#   From: 2010.03.12/outbox.cif.g09.slc.cpg/sg50_11_cif.got.tgz:20812.got - 2010.04.16 13:23:21.
