data_PCOD8205394
_publ_section_title
;
Structure prediction by ZEFSAII (Michael W. Deem and Ramdas Pophale) SiO2 
 PCOD8205394
Probable space group: P B A N
;
_chemical_formula_sum "Si O2"
_cell_formula_units_Z 56
_cell_length_a 20.353994
_cell_length_b 9.487289
_cell_length_c 13.957831
_cell_angle_alpha 90.000000
_cell_angle_beta 90.000000
_cell_angle_gamma 90.000000
_cell_volume 2695.316115
_symmetry_space_group_name_H-M "P B A N"
_symmetry_group_IT_number 50
_space_group.IT_coordinate_system_code '2'
_symmetry_cell_setting 'orthorhombic'
loop_
_space_group_symop_operation_xyz
x,y,z
1/2-x,1/2-y,z
x,1/2-y,-z
1/2-x,y,-z
-x,-y,-z
1/2+x,1/2+y,-z
-x,1/2+y,z
1/2+x,-y,z
loop_
_atom_site_type_symbol
_atom_site_label
_atom_site_fract_x
_atom_site_fract_y
_atom_site_fract_z
Si Si1 0.000879 0.462339 0.780737
Si Si2 0.548815 0.202309 0.108852
Si Si3 0.133006 0.099061 0.330940
Si Si4 0.751096 0.908247 0.817391
Si Si5 0.827349 0.413102 0.507019
Si Si6 0.805517 0.167638 0.899489
Si Si7 0.128815 0.425385 0.310303
O O1 0.011100 0.555656 0.876772
O O2 0.067495 0.453050 0.721122
O O3 0.981753 0.309294 0.816308
O O4 0.944731 0.534433 0.718172
O O5 0.623052 0.177020 0.145509
O O6 0.542184 0.250000 0.000000
O O7 0.198242 0.069575 0.269631
O O8 0.130062 0.266327 0.351505
O O9 0.137355 0.009495 0.427775
O O10 0.750000 0.750000 0.858082
O O11 0.677537 0.943981 0.781011
O O12 0.777519 0.007443 0.904120
O O13 0.849114 0.250000 0.500000
O O14 0.750000 0.430803 0.500000
O O15 0.849481 0.465959 0.609796
O O16 0.750000 0.250000 0.835738
O O17 0.808982 0.250000 0.000000
#
# Coordination Sequence:
#
# PCOD8205394 Si02
#       7
#     8   8   8   8   8   8   8
#     4  12  24  43  65 101 134 179 230 273 336 400
#     4  11  24  43  68  95 135 180 228 285 335 399
#     4  11  23  42  67  94 137 175 219 274 327 397
#     4  10  21  39  66  95 128 179 224 274 329 398
#     4  11  25  42  67 104 134 169 221 274 332 401
#     4  10  21  39  63  96 131 170 220 279 344 390
#     4  11  24  42  68  97 134 179 222 268 336 400
#
# _framework density 20.776782999999998
#
# number of rings (size 3 to 8) (size 9 to 14) (size 15 to 20)
#    0.000    1.143    4.286    1.714    2.000    2.286 
#    0.000    1.429    0.000    0.000    0.000    0.000 
#    0.000    0.000    0.000    0.000    0.000    0.000 
#
# Total GULP energy -694116.947608 kJ/mol
# GULP energy per Si atom -12394.945493 kJ/mol
# Density = 2.072949 g / cm^3
# Si number density = 20.776783 Si / 1000 Ang^3
#
#
#
# Elastic Constant Matrix: (Units=GPa)
#
#
# Indices 1 2 3 4 5 6 
#
# 1 110.1644 36.8276 21.0336 0.0000 0.0000 0.0000
# 2 36.8276 127.1259 44.9180 0.0000 0.0000 0.0000
# 3 21.0336 44.9180 65.5893 0.0000 0.0000 0.0000
# 4 0.0000 0.0000 0.0000 -0.1613 0.0000 0.0000
# 5 0.0000 0.0000 0.0000 0.0000 28.6930 0.0000
# 6 0.0000 0.0000 0.0000 0.0000 0.0000 26.2906
#
#
#
# Elastic Compliance Matrix: (Units=1/GPa)
#
#
# Indices 1 2 3 4 5 6 
#
# 1 0.010183 -0.002370 -0.001643 0.000000 0.000000 0.000000
# 2 -0.002370 0.010929 -0.006724 0.000000 0.000000 0.000000
# 3 -0.001643 -0.006724 0.020378 0.000000 0.000000 0.000000
# 4 0.000000 0.000000 0.000000 -6.199332 0.000000 0.000000
# 5 0.000000 0.000000 0.000000 0.000000 0.034852 0.000000
# 6 0.000000 0.000000 0.000000 0.000000 0.000000 0.038036
#
#
# Mechanical properties :
#
#
# Convention : Reuss Voigt Hill
#
# Bulk Modulus (GPa) = 49.95882 56.49312 53.22597
# Shear Modulus (GPa) = -0.82552 24.30447 11.73947
#
# Velocity S-wave (km/s) = -0.63102 3.42393 2.37961
# Velocity P-wave (km/s) = 4.85456 6.54833 5.76400
#
# Compressibility (1/GPa) = 0.02001649
#
# Stress axis : x y z
#
# Youngs Moduli (GPa) = 98.20156 91.50270 49.07153
#
# Poissons Ratio (x) = 0.21682 0.08062
# Poissons Ratio (y) = 0.23269 0.32998
# Poissons Ratio (z) = 0.16133 0.61531
#
# Static dielectric constant tensor:
#      x y z
#    x 4.249350 0.000000 0.000000 
#    y 0.000000 4.092190 0.000000 
#    z 0.000000 0.000000 3.893190 
# 
# 
# High freq. dielectric constant tensor:
#      x y z
#    x 1.831580 0.000000 0.000000 
#    y 0.000000 1.834920 0.000000 
#    z 0.000000 0.000000 1.787620 
# 
# From -- ./inp_files/25264.got.cif
#   From: 2010.03.12/outbox.cif.g09.slc.cpg/sg50_13_cif.got.tgz:25264.got - 2010.04.16 13:23:21.
