data_PCOD8205163
_publ_section_title
;
Structure prediction by ZEFSAII (Michael W. Deem and Ramdas Pophale) SiO2 
 PCOD8205163
Probable space group: P B A N
;
_chemical_formula_sum "Si O2"
_cell_formula_units_Z 64
_cell_length_a 11.392413
_cell_length_b 23.811860
_cell_length_c 11.380458
_cell_angle_alpha 90.000000
_cell_angle_beta 90.000000
_cell_angle_gamma 90.000000
_cell_volume 3087.228548
_symmetry_space_group_name_H-M "P B A N"
_symmetry_group_IT_number 50
_space_group.IT_coordinate_system_code '2'
_symmetry_cell_setting 'orthorhombic'
loop_
_space_group_symop_operation_xyz
x,y,z
1/2-x,1/2-y,z
x,1/2-y,-z
1/2-x,y,-z
-x,-y,-z
1/2+x,1/2+y,-z
-x,1/2+y,z
1/2+x,-y,z
loop_
_atom_site_type_symbol
_atom_site_label
_atom_site_fract_x
_atom_site_fract_y
_atom_site_fract_z
Si Si1 0.640351 0.596346 0.345485
Si Si2 0.291243 0.659320 0.378713
Si Si3 0.975199 0.784448 0.388265
Si Si4 0.596341 0.914111 0.392685
Si Si5 0.080721 0.599771 0.083192
Si Si6 0.996245 0.001503 0.777760
Si Si7 0.541577 0.320892 0.281736
Si Si8 0.343570 0.591739 0.162268
O O1 0.599402 0.661755 0.345857
O O2 0.780348 0.594888 0.324706
O O3 0.613109 0.570055 0.472322
O O4 0.579981 0.555825 0.248289
O O5 0.250000 0.628187 0.500000
O O6 0.387970 0.704067 0.420536
O O7 0.180600 0.684818 0.308662
O O8 0.365450 0.620244 0.288937
O O9 0.920987 0.750000 0.500000
O O10 0.981471 0.740404 0.278735
O O11 0.519610 0.857226 0.385477
O O12 0.519125 0.963799 0.337288
O O13 0.014776 0.648193 0.157366
O O14 0.213791 0.601700 0.122671
O O15 0.038384 0.537072 0.114346
O O16 0.069901 0.612762 0.943865
O O17 0.870292 0.025999 0.817532
#
# Coordination Sequence:
#
# PCOD8205163 Si02
#       8
#     8   8   8   8   8   8   8   8
#     4  11  22  37  56  87 123 160 202 246 301 375
#     4  11  20  34  58  88 121 150 193 250 300 368
#     4  12  21  36  59  87 121 157 205 243 307 369
#     4  10  22  38  53  84 127 158 199 245 308 371
#     4   9  21  38  58  82 119 154 200 250 305 356
#     4  11  20  37  59  83 117 156 203 254 302 354
#     4  10  21  36  57  83 117 162 195 249 307 349
#     4  10  20  37  58  87 115 155 200 245 304 365
#
# _framework density 20.730567000000001
#
# number of rings (size 3 to 8) (size 9 to 14) (size 15 to 20)
#    0.000    1.500    3.750    1.875    0.000    0.500 
#    4.500    0.625    0.000    3.000    0.000    0.000 
#    7.500    0.000    0.000    0.000    0.000    0.000 
#
# Total GULP energy -792888.028736 kJ/mol
# GULP energy per Si atom -12388.875449 kJ/mol
# Density = 2.068338 g / cm^3
# Si number density = 20.730567 Si / 1000 Ang^3
#
#
#
# Elastic Constant Matrix: (Units=GPa)
#
#
# Indices 1 2 3 4 5 6 
#
# 1 47.8572 24.9647 2.9890 0.0000 0.0000 0.0000
# 2 24.9647 118.5706 43.1571 0.0000 0.0000 0.0000
# 3 2.9890 43.1571 109.5186 0.0000 0.0000 0.0000
# 4 0.0000 0.0000 0.0000 17.5587 0.0000 0.0000
# 5 0.0000 0.0000 0.0000 0.0000 21.2855 0.0000
# 6 0.0000 0.0000 0.0000 0.0000 0.0000 26.8977
#
#
#
# Elastic Compliance Matrix: (Units=1/GPa)
#
#
# Indices 1 2 3 4 5 6 
#
# 1 0.023694 -0.005549 0.001540 0.000000 0.000000 0.000000
# 2 -0.005549 0.011146 -0.004241 0.000000 0.000000 0.000000
# 3 0.001540 -0.004241 0.010760 0.000000 0.000000 0.000000
# 4 0.000000 0.000000 0.000000 0.056952 0.000000 0.000000
# 5 0.000000 0.000000 0.000000 0.000000 0.046980 0.000000
# 6 0.000000 0.000000 0.000000 0.000000 0.000000 0.037178
#
#
# Mechanical properties :
#
#
# Convention : Reuss Voigt Hill
#
# Bulk Modulus (GPa) = 34.36423 46.46312 40.41367
# Shear Modulus (GPa) = 23.48416 26.80408 25.14412
#
# Velocity S-wave (km/s) = 3.36940 3.59970 3.48645
# Velocity P-wave (km/s) = 5.63469 6.30385 5.97864
#
# Compressibility (1/GPa) = 0.02910003
#
# Stress axis : x y z
#
# Youngs Moduli (GPa) = 42.20463 89.72094 92.93760
#
# Poissons Ratio (x) = 0.49789 -0.14313
# Poissons Ratio (y) = 0.23421 0.39411
# Poissons Ratio (z) = -0.06500 0.38047
#
# Static dielectric constant tensor:
#      x y z
#    x 3.707940 0.000000 0.000000 
#    y 0.000000 3.806920 0.000000 
#    z 0.000000 0.000000 4.082010 
# 
# 
# High freq. dielectric constant tensor:
#      x y z
#    x 1.801530 0.000000 0.000000 
#    y 0.000000 1.804770 0.000000 
#    z 0.000000 0.000000 1.797600 
# 
# From -- ./inp_files/20523.got.cif
#   From: 2010.03.12/outbox.cif.g09.slc.cpg/sg50_11_cif.got.tgz:20523.got - 2010.04.16 13:23:21.
