data_PCOD8205475
_publ_section_title
;
Structure prediction by ZEFSAII (Michael W. Deem and Ramdas Pophale) SiO2 
 PCOD8205475
Probable space group: P B A N
;
_chemical_formula_sum "Si O2"
_cell_formula_units_Z 40
_cell_length_a 19.829128
_cell_length_b 20.180720
_cell_length_c 5.297016
_cell_angle_alpha 90.000000
_cell_angle_beta 90.000000
_cell_angle_gamma 90.000000
_cell_volume 2119.686128
_symmetry_space_group_name_H-M "P B A N"
_symmetry_group_IT_number 50
_space_group.IT_coordinate_system_code '2'
_symmetry_cell_setting 'orthorhombic'
loop_
_space_group_symop_operation_xyz
x,y,z
1/2-x,1/2-y,z
x,1/2-y,-z
1/2-x,y,-z
-x,-y,-z
1/2+x,1/2+y,-z
-x,1/2+y,z
1/2+x,-y,z
loop_
_atom_site_type_symbol
_atom_site_label
_atom_site_fract_x
_atom_site_fract_y
_atom_site_fract_z
Si Si1 0.250000 0.447812 0.500000
Si Si2 0.384929 0.508805 0.424991
Si Si3 0.935806 0.625492 0.232875
Si Si4 0.109243 0.250000 0.500000
Si Si5 0.445974 0.944093 0.056060
Si Si6 0.315883 0.342322 0.862433
O O1 0.305789 0.494978 0.375354
O O2 0.293449 0.402583 0.686807
O O3 0.427388 0.440019 0.406213
O O4 0.400026 0.540549 0.698522
O O5 0.401936 0.560739 0.199315
O O6 0.937942 0.691179 0.401881
O O7 0.009055 0.622385 0.097583
O O8 0.872694 0.627635 0.044015
O O9 0.156810 0.222199 0.719581
O O10 0.500000 0.000000 0.000000
O O11 0.250000 0.315616 0.000000
#
# Coordination Sequence:
#
# PCOD8205475 Si02
#       6
#     4   8   8   4   8   8
#     4  12  22  35  60  82 118 155 202 242 296 354
#     4  11  22  38  59  83 112 153 196 244 291 353
#     4  11  23  37  56  78 112 156 204 245 291 344
#     4  12  26  37  54  80 112 167 206 250 288 345
#     4  10  22  37  60  80 108 152 200 243 295 342
#     4  12  24  39  51  78 120 163 205 244 282 338
#
# _framework density 18.870719000000001
#
# number of rings (size 3 to 8) (size 9 to 14) (size 15 to 20)
#    0.000    0.800    4.000    5.400    2.800    6.000 
#    0.000    0.000    0.000    0.000    0.000    0.000 
#    0.000    0.800    1.600    0.000    0.000    0.000 
#
# Total GULP energy -495821.463024 kJ/mol
# GULP energy per Si atom -12395.536576 kJ/mol
# Density = 1.882777 g / cm^3
# Si number density = 18.870719 Si / 1000 Ang^3
#
#
#
# Elastic Constant Matrix: (Units=GPa)
#
#
# Indices 1 2 3 4 5 6 
#
# 1 60.3122 45.9031 17.7197 0.0000 0.0000 0.0000
# 2 45.9031 72.6822 35.0448 0.0000 0.0000 0.0000
# 3 17.7197 35.0448 104.7672 0.0000 0.0000 0.0000
# 4 0.0000 0.0000 0.0000 19.4098 0.0000 0.0000
# 5 0.0000 0.0000 0.0000 0.0000 35.7497 0.0000
# 6 0.0000 0.0000 0.0000 0.0000 0.0000 18.2499
#
#
#
# Elastic Compliance Matrix: (Units=1/GPa)
#
#
# Indices 1 2 3 4 5 6 
#
# 1 0.032154 -0.021086 0.001615 0.000000 0.000000 0.000000
# 2 -0.021086 0.030232 -0.006546 0.000000 0.000000 0.000000
# 3 0.001615 -0.006546 0.011462 0.000000 0.000000 0.000000
# 4 0.000000 0.000000 0.000000 0.051520 0.000000 0.000000
# 5 0.000000 0.000000 0.000000 0.000000 0.027972 0.000000
# 6 0.000000 0.000000 0.000000 0.000000 0.000000 0.054795
#
#
# Mechanical properties :
#
#
# Convention : Reuss Voigt Hill
#
# Bulk Modulus (GPa) = 45.84400 48.34411 47.09406
# Shear Modulus (GPa) = 18.69571 23.95481 21.32526
#
# Velocity S-wave (km/s) = 3.15099 3.56675 3.36530
# Velocity P-wave (km/s) = 6.13065 6.52966 6.33330
#
# Compressibility (1/GPa) = 0.02181310
#
# Stress axis : x y z
#
# Youngs Moduli (GPa) = 31.10004 33.07759 87.24809
#
# Poissons Ratio (x) = 0.69747 -0.14090
# Poissons Ratio (y) = 0.65578 0.57115
# Poissons Ratio (z) = -0.05022 0.21653
#
# Static dielectric constant tensor:
#      x y z
#    x 4.216440 0.000000 0.000000 
#    y 0.000000 3.429010 0.000000 
#    z 0.000000 0.000000 3.941550 
# 
# 
# High freq. dielectric constant tensor:
#      x y z
#    x 1.722380 0.000000 0.000000 
#    y 0.000000 1.688560 0.000000 
#    z 0.000000 0.000000 1.754050 
# 
# From -- ./inp_files/4387.got.cif
#   From: 2010.03.12/outbox.cif.g09.slc.cpg/sg50_3_cif.got.tgz:4387.got - 2010.04.16 13:23:21.
