data_PCOD8205921
_publ_section_title
;
Structure prediction by ZEFSAII (Michael W. Deem and Ramdas Pophale) SiO2 
 PCOD8205921
Probable space group: P M M A
;
_chemical_formula_sum "Si O2"
_cell_formula_units_Z 48
_cell_length_a 8.863055
_cell_length_b 25.781948
_cell_length_c 15.355448
_cell_angle_alpha 90.000000
_cell_angle_beta 90.000000
_cell_angle_gamma 90.000000
_cell_volume 3508.824640
_symmetry_space_group_name_H-M "P M M A"
_symmetry_group_IT_number 51
_symmetry_cell_setting 'orthorhombic'
loop_
_space_group_symop_operation_xyz
x,y,z
1/2-x,-y,z
1/2+x,-y,-z
-x,y,-z
-x,-y,-z
1/2+x,y,-z
1/2-x,y,z
x,-y,z
loop_
_atom_site_type_symbol
_atom_site_label
_atom_site_fract_x
_atom_site_fract_y
_atom_site_fract_z
Si Si1 0.570868 0.843567 0.403247
Si Si2 0.580195 0.561757 0.913849
Si Si3 0.426003 0.943669 0.405937
Si Si4 0.425099 0.256182 0.406668
Si Si5 0.925098 0.629345 0.593879
Si Si6 0.924245 0.439009 0.261749
O O1 0.500000 0.843212 0.500000
O O2 0.750000 0.843886 0.404728
O O3 0.508670 0.895942 0.355274
O O4 0.509762 0.791024 0.355337
O O5 0.750000 0.583183 0.910942
O O6 0.578117 0.500000 0.916926
O O7 0.493790 0.581821 0.828488
O O8 0.500000 0.584339 0.000000
O O9 0.500000 0.947803 0.500000
O O10 0.250000 0.930653 0.415762
O O11 0.448692 0.000000 0.358743
O O12 0.500000 0.260980 0.500000
O O13 0.250000 0.241760 0.415954
O O14 0.447531 0.312981 0.363763
O O15 0.750000 0.616891 0.581897
O O16 0.000000 0.623933 0.500000
O O17 0.995844 0.587690 0.657614
O O18 0.750000 0.424095 0.261883
O O19 0.950717 0.500000 0.271635
#
# Coordination Sequence:
#
# PCOD8205921 Si02
#       6
#     8   8   8   8   8   8
#     4  10  16  21  31  44  58  76  99 129 165 204
#     4   9  16  27  44  64  84 103 122 145 174 211
#     4   9  15  21  28  38  54  75  97 123 158 200
#     4   9  16  26  38  50  63  80 107 141 176 212
#     4  10  20  32  45  58  73  96 124 156 191 225
#     4  10  20  32  45  61  80 101 124 150 182 222
#
# _framework density 13.679795
#
# number of rings (size 3 to 8) (size 9 to 14) (size 15 to 20)
#    0.000    2.500    0.000    6.000    0.000    6.333 
#    0.000    0.000    0.000    0.000    0.000    0.000 
#    0.000    0.000    0.000    0.000    0.000    0.000 
#
# Total GULP energy -594672.189804 kJ/mol
# GULP energy per Si atom -12389.003954 kJ/mol
# Density = 1.364866 g / cm^3
# Si number density = 13.679795 Si / 1000 Ang^3
#
#
#
# Elastic Constant Matrix: (Units=GPa)
#
#
# Indices 1 2 3 4 5 6 
#
# 1 131.5599 48.3203 36.6912 0.0000 0.0000 0.0000
# 2 48.3203 53.9957 30.0469 0.0000 0.0000 0.0000
# 3 36.6912 30.0469 54.9651 0.0000 0.0000 0.0000
# 4 0.0000 0.0000 0.0000 -0.0159 0.0000 0.0000
# 5 0.0000 0.0000 0.0000 0.0000 16.9769 0.0000
# 6 0.0000 0.0000 0.0000 0.0000 0.0000 20.0542
#
#
#
# Elastic Compliance Matrix: (Units=1/GPa)
#
#
# Indices 1 2 3 4 5 6 
#
# 1 0.011654 -0.008767 -0.002987 0.000000 0.000000 0.000000
# 2 -0.008767 0.033212 -0.012303 0.000000 0.000000 0.000000
# 3 -0.002987 -0.012303 0.026913 0.000000 0.000000 0.000000
# 4 0.000000 0.000000 0.000000-62.751277 0.000000 0.000000
# 5 0.000000 0.000000 0.000000 0.000000 0.058903 0.000000
# 6 0.000000 0.000000 0.000000 0.000000 0.000000 0.049865
#
#
# Mechanical properties :
#
#
# Convention : Reuss Voigt Hill
#
# Bulk Modulus (GPa) = 42.25732 52.29306 47.27519
# Shear Modulus (GPa) = -0.07998 15.76719 7.84360
#
# Velocity S-wave (km/s) = -0.24206 3.39866 2.39712
# Velocity P-wave (km/s) = 5.55691 7.32876 6.50346
#
# Compressibility (1/GPa) = 0.02366454
#
# Stress axis : x y z
#
# Youngs Moduli (GPa) = 85.80602 30.10977 37.15693
#
# Poissons Ratio (x) = 0.26397 0.11099
# Poissons Ratio (y) = 0.75226 0.45714
# Poissons Ratio (z) = 0.25631 0.37044
#
# Static dielectric constant tensor:
#      x y z
#    x 2.946320 0.000000 0.000000 
#    y 0.000000 3.685110 0.000000 
#    z 0.000000 0.000000 2.251910 
# 
# 
# High freq. dielectric constant tensor:
#      x y z
#    x 1.548070 0.000000 0.000000 
#    y 0.000000 1.524360 0.000000 
#    z 0.000000 0.000000 1.443600 
# 
# From -- ./inp_files/21959.got.cif
#   From: 2010.03.12/outbox.cif.g09.slc.cpg/sg51_11_cif.got.tgz:21959.got - 2010.04.16 13:43:02.
