data_PCOD8205509
_publ_section_title
;
Structure prediction by ZEFSAII (Michael W. Deem and Ramdas Pophale) SiO2 
 PCOD8205509
Probable space group: P B A N
;
_chemical_formula_sum "Si O2"
_cell_formula_units_Z 64
_cell_length_a 30.221955
_cell_length_b 11.293714
_cell_length_c 9.087763
_cell_angle_alpha 90.000000
_cell_angle_beta 90.000000
_cell_angle_gamma 90.000000
_cell_volume 3101.818148
_symmetry_space_group_name_H-M "P B A N"
_symmetry_group_IT_number 50
_space_group.IT_coordinate_system_code '2'
_symmetry_cell_setting 'orthorhombic'
loop_
_space_group_symop_operation_xyz
x,y,z
1/2-x,1/2-y,z
x,1/2-y,-z
1/2-x,y,-z
-x,-y,-z
1/2+x,1/2+y,-z
-x,1/2+y,z
1/2+x,-y,z
loop_
_atom_site_type_symbol
_atom_site_label
_atom_site_fract_x
_atom_site_fract_y
_atom_site_fract_z
Si Si1 0.620682 0.881529 0.974729
Si Si2 0.575029 0.056261 0.473765
Si Si3 0.987124 0.643488 0.595650
Si Si4 0.698408 0.880067 0.475746
Si Si5 0.854067 0.031286 0.297067
Si Si6 0.979500 0.625586 0.943014
Si Si7 0.151512 0.516668 0.752985
Si Si8 0.300439 0.752822 0.173885
O O1 0.643042 0.976382 0.081674
O O2 0.641070 0.750000 0.000000
O O3 0.569105 0.877127 0.011892
O O4 0.629022 0.928235 0.810547
O O5 0.541032 0.155883 0.416968
O O6 0.604510 0.091278 0.616421
O O7 0.606291 0.014766 0.340427
O O8 0.538472 0.961573 0.518097
O O9 0.966850 0.750000 0.500000
O O10 0.976336 0.638064 0.768055
O O11 0.677936 0.750000 0.500000
O O12 0.750000 0.877467 0.500000
O O13 0.677597 0.972750 0.585670
O O14 0.686762 0.923301 0.312060
O O15 0.825496 0.128320 0.215443
O O16 0.002678 0.750000 0.000000
O O17 0.000000 0.500000 0.000000
O O18 0.172790 0.646237 0.752563
O O19 0.250000 0.750000 0.233971
O O20 0.300267 0.750000 0.000000
#
# Coordination Sequence:
#
# PCOD8205509 Si02
#       8
#     8   8   8   8   8   8   8   8
#     4  11  23  40  65  94 131 170 231 276 340 405
#     4  10  25  41  63  93 130 167 230 265 345 387
#     4  11  25  42  66  93 135 181 224 285 336 413
#     4  10  22  40  64  95 129 165 212 268 329 400
#     4  11  22  43  66  94 129 171 221 272 335 404
#     4  11  26  46  68  99 136 183 232 294 354 410
#     4  11  23  42  67  96 128 175 221 272 339 408
#     4  11  24  43  68  98 135 174 216 280 348 412
#
# _framework density 20.63306
#
# number of rings (size 3 to 8) (size 9 to 14) (size 15 to 20)
#    0.000    1.250    2.500    2.250    8.750    3.500 
#    2.250    3.125    0.000    3.000    0.000    0.000 
#    0.000    0.000    0.000    0.000    0.000    0.000 
#
# Total GULP energy -793096.777272 kJ/mol
# GULP energy per Si atom -12392.137145 kJ/mol
# Density = 2.058610 g / cm^3
# Si number density = 20.633060 Si / 1000 Ang^3
#
#
#
# Elastic Constant Matrix: (Units=GPa)
#
#
# Indices 1 2 3 4 5 6 
#
# 1 102.0696 30.6718 22.2461 0.0000 0.0000 0.0000
# 2 30.6718 109.3867 22.5606 0.0000 0.0000 0.0000
# 3 22.2461 22.5606 93.5422 0.0000 0.0000 0.0000
# 4 0.0000 0.0000 0.0000 37.8488 0.0000 0.0000
# 5 0.0000 0.0000 0.0000 0.0000 42.7354 0.0000
# 6 0.0000 0.0000 0.0000 0.0000 0.0000 32.1287
#
#
#
# Elastic Compliance Matrix: (Units=1/GPa)
#
#
# Indices 1 2 3 4 5 6 
#
# 1 0.011035 -0.002687 -0.001976 0.000000 0.000000 0.000000
# 2 -0.002687 0.010275 -0.001839 0.000000 0.000000 0.000000
# 3 -0.001976 -0.001839 0.011604 0.000000 0.000000 0.000000
# 4 0.000000 0.000000 0.000000 0.026421 0.000000 0.000000
# 5 0.000000 0.000000 0.000000 0.000000 0.023400 0.000000
# 6 0.000000 0.000000 0.000000 0.000000 0.000000 0.031125
#
#
# Mechanical properties :
#
#
# Convention : Reuss Voigt Hill
#
# Bulk Modulus (GPa) = 50.22740 50.66173 50.44457
# Shear Modulus (GPa) = 37.45312 37.84391 37.64851
#
# Velocity S-wave (km/s) = 4.26514 4.28733 4.27625
# Velocity P-wave (km/s) = 6.97504 7.00823 6.99165
#
# Compressibility (1/GPa) = 0.01990945
#
# Stress axis : x y z
#
# Youngs Moduli (GPa) = 90.61797 97.32821 86.17753
#
# Poissons Ratio (x) = 0.26149 0.17033
# Poissons Ratio (y) = 0.24346 0.15849
# Poissons Ratio (z) = 0.17910 0.17899
#
# Static dielectric constant tensor:
#      x y z
#    x 4.071120 0.000000 0.000000 
#    y 0.000000 7.168750 0.000000 
#    z 0.000000 0.000000 4.012370 
# 
# 
# High freq. dielectric constant tensor:
#      x y z
#    x 1.811260 0.000000 0.000000 
#    y 0.000000 1.815400 0.000000 
#    z 0.000000 0.000000 1.814600 
# 
# From -- ./inp_files/17089.got.cif
#   From: 2010.03.12/outbox.cif.g09.slc.cpg/sg50_9_cif.got.tgz:17089.got - 2010.04.16 13:23:21.
