data_PCOD8205453
_publ_section_title
;
Structure prediction by ZEFSAII (Michael W. Deem and Ramdas Pophale) SiO2 
 PCOD8205453
Probable space group: P B A N
;
_chemical_formula_sum "Si O2"
_cell_formula_units_Z 48
_cell_length_a 23.032376
_cell_length_b 8.785174
_cell_length_c 11.001384
_cell_angle_alpha 90.000000
_cell_angle_beta 90.000000
_cell_angle_gamma 90.000000
_cell_volume 2226.057782
_symmetry_space_group_name_H-M "P B A N"
_symmetry_group_IT_number 50
_space_group.IT_coordinate_system_code '2'
_symmetry_cell_setting 'orthorhombic'
loop_
_space_group_symop_operation_xyz
x,y,z
1/2-x,1/2-y,z
x,1/2-y,-z
1/2-x,y,-z
-x,-y,-z
1/2+x,1/2+y,-z
-x,1/2+y,z
1/2+x,-y,z
loop_
_atom_site_type_symbol
_atom_site_label
_atom_site_fract_x
_atom_site_fract_y
_atom_site_fract_z
Si Si1 0.818403 0.930412 0.499443
Si Si2 0.536799 0.368152 0.895804
Si Si3 0.168199 0.568470 0.252852
Si Si4 0.140318 0.910007 0.261056
Si Si5 0.086833 0.394532 0.064196
Si Si6 0.267967 0.423882 0.131701
O O1 0.827578 0.750000 0.500000
O O2 0.750000 0.971679 0.500000
O O3 0.851017 0.998897 0.381665
O O4 0.852908 0.007257 0.610480
O O5 0.574339 0.361804 0.771530
O O6 0.469455 0.344700 0.854599
O O7 0.557194 0.250000 0.000000
O O8 0.552496 0.530702 0.952215
O O9 0.172805 0.749081 0.256876
O O10 0.129874 0.498521 0.142168
O O11 0.234134 0.516405 0.234252
O O12 0.165187 0.028921 0.157823
O O13 0.120455 0.250000 0.000000
O O14 0.250000 0.250000 0.150987
O O15 0.250000 0.482845 0.000000
#
# Coordination Sequence:
#
# PCOD8205453 Si02
#       6
#     8   8   8   8   8   8
#     4  11  25  45  64  87 124 175 224 268 324 392
#     4  10  21  43  65  99 132 169 210 261 331 385
#     4  12  24  41  65  94 126 169 219 267 326 383
#     4  12  24  41  66  92 129 167 217 272 322 388
#     4  10  23  39  69  97 133 172 211 260 321 398
#     4  11  25  38  58  93 131 168 208 261 326 393
#
# _framework density 21.562781000000001
#
# number of rings (size 3 to 8) (size 9 to 14) (size 15 to 20)
#    0.000    1.000    3.333    3.000    7.000    1.333 
#    0.000    0.833    0.000    0.000    0.000    0.000 
#    0.000    0.000    0.000    0.000    0.000    0.000 
#
# Total GULP energy -594761.671503 kJ/mol
# GULP energy per Si atom -12390.868156 kJ/mol
# Density = 2.151370 g / cm^3
# Si number density = 21.562781 Si / 1000 Ang^3
#
#
#
# Elastic Constant Matrix: (Units=GPa)
#
#
# Indices 1 2 3 4 5 6 
#
# 1 65.8381 14.3425 10.1936 0.0000 0.0000 0.0000
# 2 14.3425 116.6746 32.7488 0.0000 0.0000 0.0000
# 3 10.1936 32.7488 98.4390 0.0000 0.0000 0.0000
# 4 0.0000 0.0000 0.0000 39.3552 0.0000 0.0000
# 5 0.0000 0.0000 0.0000 0.0000 18.5841 0.0000
# 6 0.0000 0.0000 0.0000 0.0000 0.0000 25.3791
#
#
#
# Elastic Compliance Matrix: (Units=1/GPa)
#
#
# Indices 1 2 3 4 5 6 
#
# 1 0.015711 -0.001627 -0.001086 0.000000 0.000000 0.000000
# 2 -0.001627 0.009622 -0.003033 0.000000 0.000000 0.000000
# 3 -0.001086 -0.003033 0.011280 0.000000 0.000000 0.000000
# 4 0.000000 0.000000 0.000000 0.025410 0.000000 0.000000
# 5 0.000000 0.000000 0.000000 0.000000 0.053809 0.000000
# 6 0.000000 0.000000 0.000000 0.000000 0.000000 0.039403
#
#
# Mechanical properties :
#
#
# Convention : Reuss Voigt Hill
#
# Bulk Modulus (GPa) = 39.80395 43.94684 41.87539
# Shear Modulus (GPa) = 28.55524 31.57479 30.06501
#
# Velocity S-wave (km/s) = 3.64302 3.83079 3.73809
# Velocity P-wave (km/s) = 6.01624 6.32390 6.17199
#
# Compressibility (1/GPa) = 0.02512313
#
# Stress axis : x y z
#
# Youngs Moduli (GPa) = 63.64877 103.92839 88.65312
#
# Poissons Ratio (x) = 0.16905 0.09626
# Poissons Ratio (y) = 0.10353 0.26885
# Poissons Ratio (z) = 0.06911 0.31518
#
# Static dielectric constant tensor:
#      x y z
#    x 4.136800 0.000000 0.000000 
#    y 0.000000 4.098670 0.000000 
#    z 0.000000 0.000000 3.847880 
# 
# 
# High freq. dielectric constant tensor:
#      x y z
#    x 1.838370 0.000000 0.000000 
#    y 0.000000 1.865480 0.000000 
#    z 0.000000 0.000000 1.830420 
# 
# From -- ./inp_files/22785.got.cif
#   From: 2010.03.12/outbox.cif.g09.slc.cpg/sg50_12_cif.got.tgz:22785.got - 2010.04.16 13:23:21.
