data_PCOD8205648
_publ_section_title
;
Structure prediction by ZEFSAII (Michael W. Deem and Ramdas Pophale) SiO2 
 PCOD8205648
Probable space group: P B A N
;
_chemical_formula_sum "Si O2"
_cell_formula_units_Z 48
_cell_length_a 5.308819
_cell_length_b 28.649270
_cell_length_c 13.854740
_cell_angle_alpha 90.000000
_cell_angle_beta 90.000000
_cell_angle_gamma 90.000000
_cell_volume 2107.219901
_symmetry_space_group_name_H-M "P B A N"
_symmetry_group_IT_number 50
_space_group.IT_coordinate_system_code '2'
_symmetry_cell_setting 'orthorhombic'
loop_
_space_group_symop_operation_xyz
x,y,z
1/2-x,1/2-y,z
x,1/2-y,-z
1/2-x,y,-z
-x,-y,-z
1/2+x,1/2+y,-z
-x,1/2+y,z
1/2+x,-y,z
loop_
_atom_site_type_symbol
_atom_site_label
_atom_site_fract_x
_atom_site_fract_y
_atom_site_fract_z
Si Si1 0.553881 0.471690 0.156416
Si Si2 0.378062 0.199999 0.774050
Si Si3 0.750000 0.250000 0.653354
Si Si4 0.250000 0.895247 0.500000
Si Si5 0.082695 0.325117 0.406345
Si Si6 0.497840 0.872339 0.060266
Si Si7 0.438552 0.527190 0.617360
O O1 0.301559 0.499248 0.123945
O O2 0.569899 0.420988 0.110029
O O3 0.549874 0.462766 0.269873
O O4 0.250000 0.250000 0.801699
O O5 0.641380 0.209382 0.721326
O O6 0.214347 0.169834 0.697772
O O7 0.435146 0.169456 0.867193
O O8 0.537833 0.273351 0.586816
O O9 0.372987 0.864967 0.585373
O O10 0.038870 0.925083 0.557169
O O11 0.250000 0.330636 0.500000
O O12 0.750000 0.880326 0.000000
O O13 0.250000 0.856764 0.000000
O O14 0.667580 0.494113 0.586919
#
# Coordination Sequence:
#
# PCOD8205648 Si02
#       7
#     8   8   4   4   8   8   8
#     4  10  23  45  74 106 145 190 237 304 375 439
#     4  10  26  49  73 102 149 196 245 309 369 443
#     4  10  24  49  69  98 142 198 237 296 365 426
#     4  12  26  37  66 104 144 192 240 299 354 428
#     4  11  26  41  70 108 142 190 242 298 360 438
#     4  12  29  48  78 114 146 189 251 309 379 455
#     4  10  24  44  67  97 144 195 242 291 353 436
#
# _framework density 22.778827
#
# number of rings (size 3 to 8) (size 9 to 14) (size 15 to 20)
#    0.000    1.333    0.000    2.500   11.667   13.000 
#    0.000    0.000    0.000    0.000    0.000    0.000 
#    0.000    0.000    0.000    0.000    0.000    0.000 
#
# Total GULP energy -595145.917444 kJ/mol
# GULP energy per Si atom -12398.873280 kJ/mol
# Density = 2.272698 g / cm^3
# Si number density = 22.778827 Si / 1000 Ang^3
#
#
#
# Elastic Constant Matrix: (Units=GPa)
#
#
# Indices 1 2 3 4 5 6 
#
# 1 139.6649 45.7305 48.6291 0.0000 0.0000 0.0000
# 2 45.7305 123.7488 77.2885 0.0000 0.0000 0.0000
# 3 48.6291 77.2885 92.5769 0.0000 0.0000 0.0000
# 4 0.0000 0.0000 0.0000 33.7177 0.0000 0.0000
# 5 0.0000 0.0000 0.0000 0.0000 22.9372 0.0000
# 6 0.0000 0.0000 0.0000 0.0000 0.0000 22.6003
#
#
#
# Elastic Compliance Matrix: (Units=1/GPa)
#
#
# Indices 1 2 3 4 5 6 
#
# 1 0.008797 -0.000762 -0.003984 0.000000 0.000000 0.000000
# 2 -0.000762 0.016951 -0.013751 0.000000 0.000000 0.000000
# 3 -0.003984 -0.013751 0.024375 0.000000 0.000000 0.000000
# 4 0.000000 0.000000 0.000000 0.029658 0.000000 0.000000
# 5 0.000000 0.000000 0.000000 0.000000 0.043597 0.000000
# 6 0.000000 0.000000 0.000000 0.000000 0.000000 0.044247
#
#
# Mechanical properties :
#
#
# Convention : Reuss Voigt Hill
#
# Bulk Modulus (GPa) = 76.17865 77.69854 76.93860
# Shear Modulus (GPa) = 23.92370 28.14053 26.03212
#
# Velocity S-wave (km/s) = 3.24429 3.51861 3.38423
# Velocity P-wave (km/s) = 6.89559 7.11980 7.00859
#
# Compressibility (1/GPa) = 0.01312704
#
# Stress axis : x y z
#
# Youngs Moduli (GPa) = 113.67606 58.99317 41.02528
#
# Poissons Ratio (x) = 0.04497 0.16346
# Poissons Ratio (y) = 0.08666 0.56415
# Poissons Ratio (z) = 0.45294 0.81123
#
# Static dielectric constant tensor:
#      x y z
#    x 4.667850 0.000000 0.000000 
#    y 0.000000 4.053170 0.000000 
#    z 0.000000 0.000000 4.104420 
# 
# 
# High freq. dielectric constant tensor:
#      x y z
#    x 1.914970 0.000000 0.000000 
#    y 0.000000 1.903940 0.000000 
#    z 0.000000 0.000000 1.902210 
# 
# From -- ./inp_files/24101.got.cif
#   From: 2010.03.12/outbox.cif.g09.slc.cpg/sg50_13_cif.got.tgz:24101.got - 2010.04.16 13:23:21.
