data_PCOD8205157
_publ_section_title
;
Structure prediction by ZEFSAII (Michael W. Deem and Ramdas Pophale) SiO2 
 PCOD8205157
Probable space group: P B A N
;
_chemical_formula_sum "Si O2"
_cell_formula_units_Z 42
_cell_length_a 12.983278
_cell_length_b 8.360695
_cell_length_c 18.126099
_cell_angle_alpha 90.000000
_cell_angle_beta 90.000000
_cell_angle_gamma 90.000000
_cell_volume 1967.574043
_symmetry_space_group_name_H-M "P B A N"
_symmetry_group_IT_number 50
_space_group.IT_coordinate_system_code '2'
_symmetry_cell_setting 'orthorhombic'
loop_
_space_group_symop_operation_xyz
x,y,z
1/2-x,1/2-y,z
x,1/2-y,-z
1/2-x,y,-z
-x,-y,-z
1/2+x,1/2+y,-z
-x,1/2+y,z
1/2+x,-y,z
loop_
_atom_site_type_symbol
_atom_site_label
_atom_site_fract_x
_atom_site_fract_y
_atom_site_fract_z
Si Si1 0.444535 0.231724 0.680081
Si Si2 0.750000 0.250000 0.000000
Si Si3 0.121419 0.919019 0.378301
Si Si4 0.750000 0.750000 0.000000
Si Si5 0.250000 0.750000 0.256780
Si Si6 0.595628 0.501478 0.057128
Si Si7 0.089676 0.985499 0.779406
Si Si8 0.250000 0.750000 0.500000
O O1 0.507448 0.340861 0.621357
O O2 0.383032 0.350145 0.735457
O O3 0.375269 0.112749 0.629568
O O4 0.509241 0.112144 0.731157
O O5 0.671060 0.149867 0.949800
O O6 0.169515 0.844639 0.305659
O O7 0.180699 0.868681 0.451816
O O8 0.827650 0.650448 0.949436
O O9 0.192869 0.617914 0.207619
O O10 0.544999 0.515403 0.138613
O O11 0.500000 0.500000 0.000000
#
# Coordination Sequence:
#
# PCOD8205157 Si02
#       8
#     8   2   8   2   4   8   8   2
#     4   9  20  37  59  88 120 154 210 251 293 385
#     4  10  24  42  58  88 126 170 206 288 320 414
#     4   9  19  37  59  90 124 157 198 244 304 360
#     4  10  26  42  52  92 116 162 210 276 312 412
#     4   9  19  37  58  89 120 150 202 264 299 381
#     4  11  24  41  63  85 128 165 219 275 334 399
#     4  10  21  37  62  87 115 166 206 259 332 364
#     4  10  20  36  66  90 130 172 186 244 318 358
#
# _framework density 21.346084000000001
#
# number of rings (size 3 to 8) (size 9 to 14) (size 15 to 20)
#    0.000    2.286    0.000    1.143    5.333    3.048 
#    6.857    0.000    0.000   18.286    0.000    0.000 
#    0.000    0.000    0.000    0.000    0.000    0.000 
#
# Total GULP energy -520376.413340 kJ/mol
# GULP energy per Si atom -12389.914603 kJ/mol
# Density = 2.129750 g / cm^3
# Si number density = 21.346084 Si / 1000 Ang^3
#
#
#
# Elastic Constant Matrix: (Units=GPa)
#
#
# Indices 1 2 3 4 5 6 
#
# 1 79.8210 50.9371 39.0803 0.0000 0.0000 0.0000
# 2 50.9371 161.9167 54.5693 0.0000 0.0000 0.0000
# 3 39.0803 54.5693 132.1618 0.0000 0.0000 0.0000
# 4 0.0000 0.0000 0.0000 17.1270 0.0000 0.0000
# 5 0.0000 0.0000 0.0000 0.0000 41.0347 0.0000
# 6 0.0000 0.0000 0.0000 0.0000 0.0000 -526.1211
#
#
#
# Elastic Compliance Matrix: (Units=1/GPa)
#
#
# Indices 1 2 3 4 5 6 
#
# 1 0.016785 -0.004191 -0.003233 0.000000 0.000000 0.000000
# 2 -0.004191 0.008221 -0.002155 0.000000 0.000000 0.000000
# 3 -0.003233 -0.002155 0.009412 0.000000 0.000000 0.000000
# 4 0.000000 0.000000 0.000000 0.058387 0.000000 0.000000
# 5 0.000000 0.000000 0.000000 0.000000 0.024370 0.000000
# 6 0.000000 0.000000 0.000000 0.000000 0.000000 -0.001901
#
#
# Mechanical properties :
#
#
# Convention : Reuss Voigt Hill
#
# Bulk Modulus (GPa) = 65.52908 73.67478 69.60193
# Shear Modulus (GPa) = 35.83732 -78.30437 -21.23353
#
# Velocity S-wave (km/s) = 4.10185 -6.06324 -3.15735
# Velocity P-wave (km/s) = 7.29374 3.79840 4.40288
#
# Compressibility (1/GPa) = 0.01526040
#
# Stress axis : x y z
#
# Youngs Moduli (GPa) = 59.57600 121.64387 106.24378
#
# Poissons Ratio (x) = 0.50979 0.34349
# Poissons Ratio (y) = 0.24967 0.22896
# Poissons Ratio (z) = 0.19261 0.26215
#
# Static dielectric constant tensor:
#      x y z
#    x 1.185120 0.000000 0.000000 
#    y 0.000000 4.416920 0.000000 
#    z 0.000000 0.000000 3.519050 
# 
# 
# High freq. dielectric constant tensor:
#      x y z
#    x 1.825720 0.000000 0.000000 
#    y 0.000000 1.855110 0.000000 
#    z 0.000000 0.000000 1.820500 
# 
# From -- ./inp_files/30843.got.cif
#   From: 2010.03.12/outbox.cif.g09.slc.cpg/sg50_16_cif.got.tgz:30843.got - 2010.04.16 13:23:21.
