data_PCOD8205204
_publ_section_title
;
Structure prediction by ZEFSAII (Michael W. Deem and Ramdas Pophale) SiO2 
 PCOD8205204
Probable space group: P B A N
;
_chemical_formula_sum "Si O2"
_cell_formula_units_Z 28
_cell_length_a 20.437066
_cell_length_b 7.140821
_cell_length_c 8.897819
_cell_angle_alpha 90.000000
_cell_angle_beta 90.000000
_cell_angle_gamma 90.000000
_cell_volume 1298.524838
_symmetry_space_group_name_H-M "P B A N"
_symmetry_group_IT_number 50
_space_group.IT_coordinate_system_code '2'
_symmetry_cell_setting 'orthorhombic'
loop_
_space_group_symop_operation_xyz
x,y,z
1/2-x,1/2-y,z
x,1/2-y,-z
1/2-x,y,-z
-x,-y,-z
1/2+x,1/2+y,-z
-x,1/2+y,z
1/2+x,-y,z
loop_
_atom_site_type_symbol
_atom_site_label
_atom_site_fract_x
_atom_site_fract_y
_atom_site_fract_z
Si Si1 0.750000 0.250000 0.500000
Si Si2 0.667432 0.055815 0.245728
Si Si3 0.750000 0.250000 0.000000
Si Si4 0.087933 0.225460 0.675232
Si Si5 0.943609 0.308070 0.673979
O O1 0.705058 0.116138 0.397745
O O2 0.597788 0.158767 0.233714
O O3 0.648872 0.834285 0.246371
O O4 0.708235 0.107078 0.099437
O O5 0.096155 0.250000 0.500000
O O6 0.018514 0.311682 0.729620
O O7 0.090979 0.005651 0.709678
O O8 0.942719 0.250000 0.500000
#
# Coordination Sequence:
#
# PCOD8205204 Si02
#       5
#     2   8   2   8   8
#     4  10  20  38  62  82 122 174 212 266 296 386
#     4  11  21  42  61  90 128 167 221 257 320 384
#     4  10  28  46  62  78 140 196 208 268 306 382
#     4  11  18  32  63 102 126 150 198 273 340 377
#     4  11  18  33  63 101 128 148 198 275 337 377
#
# _framework density 21.562930000000001
#
# number of rings (size 3 to 8) (size 9 to 14) (size 15 to 20)
#    0.000    1.143    7.143    1.714    0.000    0.000 
#    0.000   17.857    0.000    0.000    0.000    0.000 
#    0.000    0.000    0.000    0.000    0.000    0.000 
#
# Total GULP energy -347114.271503 kJ/mol
# GULP energy per Si atom -12396.938268 kJ/mol
# Density = 2.151385 g / cm^3
# Si number density = 21.562930 Si / 1000 Ang^3
#
#
#
# Elastic Constant Matrix: (Units=GPa)
#
#
# Indices 1 2 3 4 5 6 
#
# 1 113.3436 39.2336 46.5189 0.0000 0.0000 0.0000
# 2 39.2336 138.6493 22.6025 0.0000 0.0000 0.0000
# 3 46.5189 22.6025 77.9780 0.0000 0.0000 0.0000
# 4 0.0000 0.0000 0.0000 13.5872 0.0000 0.0000
# 5 0.0000 0.0000 0.0000 0.0000 15.3776 0.0000
# 6 0.0000 0.0000 0.0000 0.0000 0.0000 11.9393
#
#
#
# Elastic Compliance Matrix: (Units=1/GPa)
#
#
# Indices 1 2 3 4 5 6 
#
# 1 0.012411 -0.002419 -0.006703 0.000000 0.000000 0.000000
# 2 -0.002419 0.008042 -0.000888 0.000000 0.000000 0.000000
# 3 -0.006703 -0.000888 0.017080 0.000000 0.000000 0.000000
# 4 0.000000 0.000000 0.000000 0.073599 0.000000 0.000000
# 5 0.000000 0.000000 0.000000 0.000000 0.065030 0.000000
# 6 0.000000 0.000000 0.000000 0.000000 0.000000 0.083757
#
#
# Mechanical properties :
#
#
# Convention : Reuss Voigt Hill
#
# Bulk Modulus (GPa) = 57.09913 60.74231 58.92072
# Shear Modulus (GPa) = 17.49625 22.95522 20.22573
#
# Velocity S-wave (km/s) = 2.85161 3.26631 3.06598
# Velocity P-wave (km/s) = 6.11391 6.51583 6.31807
#
# Compressibility (1/GPa) = 0.01751340
#
# Stress axis : x y z
#
# Youngs Moduli (GPa) = 80.57278 124.35119 58.54777
#
# Poissons Ratio (x) = 0.30084 0.39243
# Poissons Ratio (y) = 0.19493 0.05197
# Poissons Ratio (z) = 0.54006 0.11039
#
# Static dielectric constant tensor:
#      x y z
#    x 4.278860 0.000000 0.000000 
#    y 0.000000 1.797450 0.000000 
#    z 0.000000 0.000000 3.137680 
# 
# 
# High freq. dielectric constant tensor:
#      x y z
#    x 1.859190 0.000000 0.000000 
#    y 0.000000 1.855580 0.000000 
#    z 0.000000 0.000000 1.792630 
# 
# From -- ./inp_files/14784.got.cif
#   From: 2010.03.12/outbox.cif.g09.slc.cpg/sg50_8_cif.got.tgz:14784.got - 2010.04.16 13:23:21.
