data_PCOD8205188
_publ_section_title
;
Structure prediction by ZEFSAII (Michael W. Deem and Ramdas Pophale) SiO2 
 PCOD8205188
Probable space group: P B A N
;
_chemical_formula_sum "Si O2"
_cell_formula_units_Z 40
_cell_length_a 8.452332
_cell_length_b 12.754672
_cell_length_c 17.657182
_cell_angle_alpha 90.000000
_cell_angle_beta 90.000000
_cell_angle_gamma 90.000000
_cell_volume 1903.562916
_symmetry_space_group_name_H-M "P B A N"
_symmetry_group_IT_number 50
_space_group.IT_coordinate_system_code '2'
_symmetry_cell_setting 'orthorhombic'
loop_
_space_group_symop_operation_xyz
x,y,z
1/2-x,1/2-y,z
x,1/2-y,-z
1/2-x,y,-z
-x,-y,-z
1/2+x,1/2+y,-z
-x,1/2+y,z
1/2+x,-y,z
loop_
_atom_site_type_symbol
_atom_site_label
_atom_site_fract_x
_atom_site_fract_y
_atom_site_fract_z
Si Si1 0.504788 0.002564 0.821652
Si Si2 0.753167 0.133980 0.738182
Si Si3 0.669036 0.077862 0.582570
Si Si4 0.744151 0.628337 0.911037
Si Si5 0.200172 0.359290 0.583771
O O1 0.594304 0.075026 0.762044
O O2 0.415017 0.078998 0.878710
O O3 0.400021 0.928184 0.770346
O O4 0.609335 0.928758 0.873410
O O5 0.750000 0.250000 0.773346
O O6 0.760500 0.144099 0.646605
O O7 0.750000 0.097011 0.500000
O O8 0.485382 0.110586 0.584280
O O9 0.692576 0.957214 0.610901
O O10 0.750000 0.750000 0.889960
O O11 0.750000 0.609448 0.000000
O O12 0.250000 0.250000 0.628554
O O13 0.250000 0.335659 0.500000
#
# Coordination Sequence:
#
# PCOD8205188 Si02
#       5
#     8   8   8   8   8
#     4  10  22  40  59  88 125 156 195 241 287 357
#     4  11  24  40  60  85 118 162 200 243 305 354
#     4  11  23  41  62  87 118 154 208 265 307 362
#     4  10  20  37  64  93 121 156 194 236 287 344
#     4  10  22  39  59  84 113 146 189 251 318 369
#
# _framework density 21.013224999999998
#
# number of rings (size 3 to 8) (size 9 to 14) (size 15 to 20)
#    0.000    1.600    0.000    5.400    0.000    6.800 
#    0.000    6.000    0.000   10.800    0.000    0.000 
#    0.000    0.000    0.000    0.000    0.000    0.000 
#
# Total GULP energy -495708.566135 kJ/mol
# GULP energy per Si atom -12392.714153 kJ/mol
# Density = 2.096540 g / cm^3
# Si number density = 21.013225 Si / 1000 Ang^3
#
#
#
# Elastic Constant Matrix: (Units=GPa)
#
#
# Indices 1 2 3 4 5 6 
#
# 1 118.6650 76.5871 42.9592 0.0000 0.0000 0.0000
# 2 76.5871 169.6302 56.0497 0.0000 0.0000 0.0000
# 3 42.9592 56.0497 110.1806 0.0000 0.0000 0.0000
# 4 0.0000 0.0000 0.0000 22.3978 0.0000 0.0000
# 5 0.0000 0.0000 0.0000 0.0000 8.0963 0.0000
# 6 0.0000 0.0000 0.0000 0.0000 0.0000 67.9026
#
#
#
# Elastic Compliance Matrix: (Units=1/GPa)
#
#
# Indices 1 2 3 4 5 6 
#
# 1 0.012394 -0.004807 -0.002387 0.000000 0.000000 0.000000
# 2 -0.004807 0.008951 -0.002679 0.000000 0.000000 0.000000
# 3 -0.002387 -0.002679 0.011370 0.000000 0.000000 0.000000
# 4 0.000000 0.000000 0.000000 0.044647 0.000000 0.000000
# 5 0.000000 0.000000 0.000000 0.000000 0.123513 0.000000
# 6 0.000000 0.000000 0.000000 0.000000 0.000000 0.014727
#
#
# Mechanical properties :
#
#
# Convention : Reuss Voigt Hill
#
# Bulk Modulus (GPa) = 77.11301 83.29642 80.20471
# Shear Modulus (GPa) = 20.86206 34.53800 27.70003
#
# Velocity S-wave (km/s) = 3.15430 4.05857 3.63467
# Velocity P-wave (km/s) = 7.07412 7.85422 7.47435
#
# Compressibility (1/GPa) = 0.01296798
#
# Stress axis : x y z
#
# Youngs Moduli (GPa) = 80.68649 111.72278 87.95443
#
# Poissons Ratio (x) = 0.53705 0.20994
# Poissons Ratio (y) = 0.38786 0.23564
# Poissons Ratio (z) = 0.19259 0.29931
#
# Static dielectric constant tensor:
#      x y z
#    x 4.200950 0.000000 0.000000 
#    y 0.000000 4.838430 0.000000 
#    z 0.000000 0.000000 3.713090 
# 
# 
# High freq. dielectric constant tensor:
#      x y z
#    x 1.829110 0.000000 0.000000 
#    y 0.000000 1.848010 0.000000 
#    z 0.000000 0.000000 1.815580 
# 
# From -- ./inp_files/28494.got.cif
#   From: 2010.03.12/outbox.cif.g09.slc.cpg/sg50_15_cif.got.tgz:28494.got - 2010.04.16 13:23:21.
