data_PCOD8205303
_publ_section_title
;
Structure prediction by ZEFSAII (Michael W. Deem and Ramdas Pophale) SiO2 
 PCOD8205303
Probable space group: P B A N
;
_chemical_formula_sum "Si O2"
_cell_formula_units_Z 36
_cell_length_a 20.744897
_cell_length_b 14.451164
_cell_length_c 6.112643
_cell_angle_alpha 90.000000
_cell_angle_beta 90.000000
_cell_angle_gamma 90.000000
_cell_volume 1832.496462
_symmetry_space_group_name_H-M "P B A N"
_symmetry_group_IT_number 50
_space_group.IT_coordinate_system_code '2'
_symmetry_cell_setting 'orthorhombic'
loop_
_space_group_symop_operation_xyz
x,y,z
1/2-x,1/2-y,z
x,1/2-y,-z
1/2-x,y,-z
-x,-y,-z
1/2+x,1/2+y,-z
-x,1/2+y,z
1/2+x,-y,z
loop_
_atom_site_type_symbol
_atom_site_label
_atom_site_fract_x
_atom_site_fract_y
_atom_site_fract_z
Si Si1 0.049953 0.507807 0.699320
Si Si2 0.750000 0.877536 0.000000
Si Si3 0.308214 0.008051 0.619252
Si Si4 0.969447 0.856200 0.039190
Si Si5 0.652151 0.829630 0.674942
O O1 0.121622 0.540994 0.627145
O O2 0.000000 0.500000 0.500000
O O3 0.029961 0.586230 0.872114
O O4 0.054440 0.406240 0.815394
O O5 0.792264 0.948320 0.854012
O O6 0.702037 0.807348 0.870532
O O7 0.250000 0.947476 0.500000
O O8 0.313843 0.086679 0.439831
O O9 0.915901 0.858733 0.226437
O O10 0.989790 0.750000 0.000000
O O11 0.642351 0.750000 0.500000
#
# Coordination Sequence:
#
# PCOD8205303 Si02
#       5
#     8   4   8   8   8
#     4  11  22  41  63  86 121 159 206 254 310 367
#     4  10  22  37  50  80 125 160 198 234 291 366
#     4  10  21  36  57  83 113 157 201 243 300 362
#     4  11  24  38  59  88 123 159 201 255 308 363
#     4  11  22  35  53  82 124 164 198 234 292 368
#
# _framework density 19.645330999999999
#
# number of rings (size 3 to 8) (size 9 to 14) (size 15 to 20)
#    0.000    1.333    4.444    1.333    0.000    4.889 
#    0.000    0.000    0.000    0.000    0.000   11.667 
#    0.000    0.000    0.000    0.000    0.000    0.000 
#
# Total GULP energy -445991.353492 kJ/mol
# GULP energy per Si atom -12388.648708 kJ/mol
# Density = 1.960062 g / cm^3
# Si number density = 19.645331 Si / 1000 Ang^3
#
#
#
# Elastic Constant Matrix: (Units=GPa)
#
#
# Indices 1 2 3 4 5 6 
#
# 1 154.8125 26.1188 52.2929 0.0000 0.0000 0.0000
# 2 26.1188 64.7981 19.9271 0.0000 0.0000 0.0000
# 3 52.2929 19.9271 100.9419 0.0000 0.0000 0.0000
# 4 0.0000 0.0000 0.0000 44.5552 0.0000 0.0000
# 5 0.0000 0.0000 0.0000 0.0000 47.1678 0.0000
# 6 0.0000 0.0000 0.0000 0.0000 0.0000 25.3056
#
#
#
# Elastic Compliance Matrix: (Units=1/GPa)
#
#
# Indices 1 2 3 4 5 6 
#
# 1 0.008089 -0.002099 -0.003776 0.000000 0.000000 0.000000
# 2 -0.002099 0.016975 -0.002263 0.000000 0.000000 0.000000
# 3 -0.003776 -0.002263 0.012310 0.000000 0.000000 0.000000
# 4 0.000000 0.000000 0.000000 0.022444 0.000000 0.000000
# 5 0.000000 0.000000 0.000000 0.000000 0.021201 0.000000
# 6 0.000000 0.000000 0.000000 0.000000 0.000000 0.039517
#
#
# Mechanical properties :
#
#
# Convention : Reuss Voigt Hill
#
# Bulk Modulus (GPa) = 47.40268 57.47001 52.43634
# Shear Modulus (GPa) = 34.75953 38.21997 36.48975
#
# Velocity S-wave (km/s) = 4.21093 4.41557 4.31446
# Velocity P-wave (km/s) = 6.91551 7.43731 7.18115
#
# Compressibility (1/GPa) = 0.02109585
#
# Stress axis : x y z
#
# Youngs Moduli (GPa) = 123.62290 58.91079 81.23643
#
# Poissons Ratio (x) = 0.12367 0.30676
# Poissons Ratio (y) = 0.25952 0.18388
# Poissons Ratio (z) = 0.46682 0.13334
#
# Static dielectric constant tensor:
#      x y z
#    x 3.707700 0.000000 0.000000 
#    y 0.000000 3.208730 0.000000 
#    z 0.000000 0.000000 3.930740 
# 
# 
# High freq. dielectric constant tensor:
#      x y z
#    x 1.783950 0.000000 0.000000 
#    y 0.000000 1.704310 0.000000 
#    z 0.000000 0.000000 1.796030 
# 
# From -- ./inp_files/5015.got.cif
#   From: 2010.03.12/outbox.cif.g09.slc.cpg/sg50_3_cif.got.tgz:5015.got - 2010.04.16 13:23:21.
