data_PCOD8205034
_publ_section_title
;
Structure prediction by ZEFSAII (Michael W. Deem and Ramdas Pophale) SiO2 
 PCOD8205034
Probable space group: P B A N
;
_chemical_formula_sum "Si O2"
_cell_formula_units_Z 46
_cell_length_a 12.944135
_cell_length_b 17.926338
_cell_length_c 10.412832
_cell_angle_alpha 90.000000
_cell_angle_beta 90.000000
_cell_angle_gamma 90.000000
_cell_volume 2416.203316
_symmetry_space_group_name_H-M "P B A N"
_symmetry_group_IT_number 50
_space_group.IT_coordinate_system_code '2'
_symmetry_cell_setting 'orthorhombic'
loop_
_space_group_symop_operation_xyz
x,y,z
1/2-x,1/2-y,z
x,1/2-y,-z
1/2-x,y,-z
-x,-y,-z
1/2+x,1/2+y,-z
-x,1/2+y,z
1/2+x,-y,z
loop_
_atom_site_type_symbol
_atom_site_label
_atom_site_fract_x
_atom_site_fract_y
_atom_site_fract_z
Si Si1 0.367669 0.585149 0.000781
Si Si2 0.651742 0.615996 0.335511
Si Si3 0.388807 0.401218 0.377958
Si Si4 0.902867 0.733097 0.203576
Si Si5 0.506784 0.994161 0.798934
Si Si6 0.250000 0.250000 0.000000
Si Si7 0.570331 0.250000 0.000000
O O1 0.438996 0.558613 0.882457
O O2 0.250000 0.555353 0.000000
O O3 0.418368 0.551688 0.128352
O O4 0.362033 0.675065 0.995420
O O5 0.592415 0.611795 0.471454
O O6 0.768244 0.587878 0.349496
O O7 0.650663 0.699595 0.280996
O O8 0.596924 0.562412 0.235803
O O9 0.432915 0.329813 0.303818
O O10 0.453717 0.471857 0.328312
O O11 0.004517 0.759749 0.130191
O O12 0.823285 0.700709 0.094013
#
# Coordination Sequence:
#
# PCOD8205034 Si02
#       7
#     8   8   8   8   8   2   4
#     4  11  23  39  62  86 115 153 193 243 287 350
#     4  11  22  38  60  85 117 155 194 236 283 346
#     4  11  22  38  60  85 117 155 194 236 283 346
#     4  11  20  36  57  88 114 150 192 236 290 339
#     4  11  23  40  56  88 121 149 190 238 298 343
#     4  10  20  28  60  84 118 144 174 252 290 332
#     4  11  21  39  59  82 116 148 194 236 288 338
#
# _framework density 19.038132000000001
#
# number of rings (size 3 to 8) (size 9 to 14) (size 15 to 20)
#    0.000    1.043    5.217    2.348    0.000    1.391 
#    3.130    0.000    0.000    0.000    0.000    2.435 
#    0.000    0.000    0.000    0.000    0.000    0.000 
#
# Total GULP energy -570341.351485 kJ/mol
# GULP energy per Si atom -12398.725032 kJ/mol
# Density = 1.899480 g / cm^3
# Si number density = 19.038132 Si / 1000 Ang^3
#
#
#
# Elastic Constant Matrix: (Units=GPa)
#
#
# Indices 1 2 3 4 5 6 
#
# 1 72.4402 20.5408 19.2799 0.0000 0.0000 0.0000
# 2 20.5408 94.8646 26.2273 0.0000 0.0000 0.0000
# 3 19.2799 26.2273 90.6498 0.0000 0.0000 0.0000
# 4 0.0000 0.0000 0.0000 25.1425 0.0000 0.0000
# 5 0.0000 0.0000 0.0000 0.0000 30.3310 0.0000
# 6 0.0000 0.0000 0.0000 0.0000 0.0000 15.8431
#
#
#
# Elastic Compliance Matrix: (Units=1/GPa)
#
#
# Indices 1 2 3 4 5 6 
#
# 1 0.015203 -0.002606 -0.002479 0.000000 0.000000 0.000000
# 2 -0.002606 0.011905 -0.002890 0.000000 0.000000 0.000000
# 3 -0.002479 -0.002890 0.012395 0.000000 0.000000 0.000000
# 4 0.000000 0.000000 0.000000 0.039773 0.000000 0.000000
# 5 0.000000 0.000000 0.000000 0.000000 0.032970 0.000000
# 6 0.000000 0.000000 0.000000 0.000000 0.000000 0.063119
#
#
# Mechanical properties :
#
#
# Convention : Reuss Voigt Hill
#
# Bulk Modulus (GPa) = 42.46040 43.33894 42.89967
# Shear Modulus (GPa) = 25.10453 27.05709 26.08081
#
# Velocity S-wave (km/s) = 3.63525 3.77398 3.70526
# Velocity P-wave (km/s) = 6.32229 6.46562 6.39436
#
# Compressibility (1/GPa) = 0.02355136
#
# Stress axis : x y z
#
# Youngs Moduli (GPa) = 65.77442 84.00035 80.67804
#
# Poissons Ratio (x) = 0.21895 0.20004
# Poissons Ratio (y) = 0.17144 0.23316
# Poissons Ratio (z) = 0.16308 0.24276
#
# Static dielectric constant tensor:
#      x y z
#    x 3.350420 0.000000 0.000000 
#    y 0.000000 3.320450 0.000000 
#    z 0.000000 0.000000 3.650060 
# 
# 
# High freq. dielectric constant tensor:
#      x y z
#    x 1.734820 0.000000 0.000000 
#    y 0.000000 1.733430 0.000000 
#    z 0.000000 0.000000 1.748100 
# 
# From -- ./inp_files/20233.got.cif
#   From: 2010.03.12/outbox.cif.g09.slc.cpg/sg50_11_cif.got.tgz:20233.got - 2010.04.16 13:23:21.
