data_PCOD8205020
_publ_section_title
;
Structure prediction by ZEFSAII (Michael W. Deem and Ramdas Pophale) SiO2 
 PCOD8205020
Probable space group: P B A N
;
_chemical_formula_sum "Si O2"
_cell_formula_units_Z 56
_cell_length_a 13.922836
_cell_length_b 20.020021
_cell_length_c 9.903277
_cell_angle_alpha 90.000000
_cell_angle_beta 90.000000
_cell_angle_gamma 90.000000
_cell_volume 2760.394560
_symmetry_space_group_name_H-M "P B A N"
_symmetry_group_IT_number 50
_space_group.IT_coordinate_system_code '2'
_symmetry_cell_setting 'orthorhombic'
loop_
_space_group_symop_operation_xyz
x,y,z
1/2-x,1/2-y,z
x,1/2-y,-z
1/2-x,y,-z
-x,-y,-z
1/2+x,1/2+y,-z
-x,1/2+y,z
1/2+x,-y,z
loop_
_atom_site_type_symbol
_atom_site_label
_atom_site_fract_x
_atom_site_fract_y
_atom_site_fract_z
Si Si1 0.062226 0.657060 0.727482
Si Si2 0.013540 0.893195 0.984144
Si Si3 0.970319 0.190281 0.268515
Si Si4 0.732233 0.365518 0.353033
Si Si5 0.367064 0.998666 0.360365
Si Si6 0.529116 0.591131 0.529488
Si Si7 0.644826 0.511103 0.058846
O O1 0.022796 0.731434 0.706631
O O2 0.177742 0.652563 0.741897
O O3 0.033246 0.611150 0.601534
O O4 0.015299 0.631525 0.863663
O O5 0.001326 0.830409 0.883730
O O6 0.110022 0.934183 0.948129
O O7 0.922182 0.941884 0.967057
O O8 0.861438 0.167252 0.290890
O O9 0.044438 0.155696 0.375085
O O10 0.750000 0.333503 0.500000
O O11 0.720275 0.446033 0.371064
O O12 0.469072 0.960491 0.377702
O O13 0.370900 0.056980 0.477006
O O14 0.359950 0.034100 0.214913
O O15 0.750000 0.516831 0.000000
#
# Coordination Sequence:
#
# PCOD8205020 Si02
#       7
#     8   8   8   8   8   8   8
#     4  12  22  37  62  84 126 171 202 252 315 387
#     4  11  24  40  60  93 124 163 211 261 320 372
#     4  11  23  39  56  90 127 164 214 249 311 392
#     4  11  21  36  55  91 125 163 203 251 316 379
#     4  10  19  38  57  86 120 155 214 255 305 371
#     4  10  20  36  59  83 120 161 209 254 301 369
#     4  11  22  41  64  88 128 160 212 268 321 379
#
# _framework density 20.286954000000001
#
# number of rings (size 3 to 8) (size 9 to 14) (size 15 to 20)
#    0.000    1.143    7.143    2.143    0.000    0.571 
#    2.571    1.429    0.000    1.714    0.000    0.000 
#    0.000    0.000    0.000    0.000    0.000    0.000 
#
# Total GULP energy -694231.444662 kJ/mol
# GULP energy per Si atom -12396.990083 kJ/mol
# Density = 2.024078 g / cm^3
# Si number density = 20.286954 Si / 1000 Ang^3
#
#
#
# Elastic Constant Matrix: (Units=GPa)
#
#
# Indices 1 2 3 4 5 6 
#
# 1 57.2900 33.6012 29.6651 0.0000 0.0000 0.0000
# 2 33.6012 91.6095 21.2535 0.0000 0.0000 0.0000
# 3 29.6651 21.2535 110.5086 0.0000 0.0000 0.0000
# 4 0.0000 0.0000 0.0000 31.1192 0.0000 0.0000
# 5 0.0000 0.0000 0.0000 0.0000 22.0784 0.0000
# 6 0.0000 0.0000 0.0000 0.0000 0.0000 19.8817
#
#
#
# Elastic Compliance Matrix: (Units=1/GPa)
#
#
# Indices 1 2 3 4 5 6 
#
# 1 0.024731 -0.007882 -0.005123 0.000000 0.000000 0.000000
# 2 -0.007882 0.013938 -0.000565 0.000000 0.000000 0.000000
# 3 -0.005123 -0.000565 0.010533 0.000000 0.000000 0.000000
# 4 0.000000 0.000000 0.000000 0.032135 0.000000 0.000000
# 5 0.000000 0.000000 0.000000 0.000000 0.045293 0.000000
# 6 0.000000 0.000000 0.000000 0.000000 0.000000 0.050297
#
#
# Mechanical properties :
#
#
# Convention : Reuss Voigt Hill
#
# Bulk Modulus (GPa) = 45.32693 47.60528 46.46611
# Shear Modulus (GPa) = 23.64955 26.27509 24.96232
#
# Velocity S-wave (km/s) = 3.41801 3.60275 3.51160
# Velocity P-wave (km/s) = 6.16186 6.38932 6.27662
#
# Compressibility (1/GPa) = 0.02206194
#
# Stress axis : x y z
#
# Youngs Moduli (GPa) = 40.43538 71.74585 94.94116
#
# Poissons Ratio (x) = 0.56553 0.48636
# Poissons Ratio (y) = 0.31873 0.05361
# Poissons Ratio (z) = 0.20714 0.04051
#
# Static dielectric constant tensor:
#      x y z
#    x 3.392680 0.000000 0.000000 
#    y 0.000000 3.889820 0.000000 
#    z 0.000000 0.000000 3.834420 
# 
# 
# High freq. dielectric constant tensor:
#      x y z
#    x 1.750690 0.000000 0.000000 
#    y 0.000000 1.783960 0.000000 
#    z 0.000000 0.000000 1.807620 
# 
# From -- ./inp_files/13283.got.cif
#   From: 2010.03.12/outbox.cif.g09.slc.cpg/sg50_7_cif.got.tgz:13283.got - 2010.04.16 13:23:21.
