data_PCOD8205211
_publ_section_title
;
Structure prediction by ZEFSAII (Michael W. Deem and Ramdas Pophale) SiO2 
 PCOD8205211
Probable space group: P B A N
;
_chemical_formula_sum "Si O2"
_cell_formula_units_Z 46
_cell_length_a 10.325585
_cell_length_b 23.281061
_cell_length_c 9.509517
_cell_angle_alpha 90.000000
_cell_angle_beta 90.000000
_cell_angle_gamma 90.000000
_cell_volume 2285.998252
_symmetry_space_group_name_H-M "P B A N"
_symmetry_group_IT_number 50
_space_group.IT_coordinate_system_code '2'
_symmetry_cell_setting 'orthorhombic'
loop_
_space_group_symop_operation_xyz
x,y,z
1/2-x,1/2-y,z
x,1/2-y,-z
1/2-x,y,-z
-x,-y,-z
1/2+x,1/2+y,-z
-x,1/2+y,z
1/2+x,-y,z
loop_
_atom_site_type_symbol
_atom_site_label
_atom_site_fract_x
_atom_site_fract_y
_atom_site_fract_z
Si Si1 0.557514 0.473364 0.642932
Si Si2 0.522728 0.186696 0.552986
Si Si3 0.373413 0.343225 0.178676
Si Si4 0.160305 0.390124 0.375479
Si Si5 0.750000 0.750000 0.000000
Si Si6 0.750000 0.394070 0.500000
Si Si7 0.889014 0.963736 0.924006
O O1 0.500000 0.500000 0.500000
O O2 0.436403 0.435538 0.697699
O O3 0.682077 0.433757 0.616090
O O4 0.608305 0.518317 0.758362
O O5 0.560804 0.250000 0.500000
O O6 0.469595 0.184014 0.709410
O O7 0.418427 0.162390 0.443499
O O8 0.646309 0.146678 0.571956
O O9 0.241952 0.366249 0.247556
O O10 0.347443 0.288794 0.085445
O O11 0.426449 0.396035 0.082276
O O12 0.250000 0.418133 0.500000
O O13 0.750000 0.974674 0.000000
O O14 0.000000 0.000000 0.000000
#
# Coordination Sequence:
#
# PCOD8205211 Si02
#       7
#     8   8   8   8   2   4   8
#     4  11  24  38  67  94 134 172 215 273 333 407
#     4  10  20  38  64  93 126 161 211 278 335 389
#     4  11  23  41  64  91 129 167 222 269 332 391
#     4   9  19  37  61  96 123 159 211 272 332 389
#     4  12  24  40  62  88 122 176 228 272 302 404
#     4  10  23  38  62 100 126 163 212 266 340 398
#     4  12  27  44  67  98 142 183 225 276 349 425
#
# _framework density 20.122499000000001
#
# number of rings (size 3 to 8) (size 9 to 14) (size 15 to 20)
#    0.000    1.391    0.870    5.478    8.522    2.435 
#    0.000    0.000    0.000    0.000    0.000    0.000 
#    0.000    0.000    0.000    0.000    0.000    0.000 
#
# Total GULP energy -570194.408075 kJ/mol
# GULP energy per Si atom -12395.530610 kJ/mol
# Density = 2.007670 g / cm^3
# Si number density = 20.122499 Si / 1000 Ang^3
#
#
#
# Elastic Constant Matrix: (Units=GPa)
#
#
# Indices 1 2 3 4 5 6 
#
# 1 95.1248 47.2195 39.6852 0.0000 0.0000 0.0000
# 2 47.2195 141.9571 58.0845 0.0000 0.0000 0.0000
# 3 39.6852 58.0845 104.7439 0.0000 0.0000 0.0000
# 4 0.0000 0.0000 0.0000 32.1962 0.0000 0.0000
# 5 0.0000 0.0000 0.0000 0.0000 30.1413 0.0000
# 6 0.0000 0.0000 0.0000 0.0000 0.0000 54.0953
#
#
#
# Elastic Compliance Matrix: (Units=1/GPa)
#
#
# Indices 1 2 3 4 5 6 
#
# 1 0.013460 -0.003092 -0.003385 0.000000 0.000000 0.000000
# 2 -0.003092 0.009822 -0.004275 0.000000 0.000000 0.000000
# 3 -0.003385 -0.004275 0.013200 0.000000 0.000000 0.000000
# 4 0.000000 0.000000 0.000000 0.031060 0.000000 0.000000
# 5 0.000000 0.000000 0.000000 0.000000 0.033177 0.000000
# 6 0.000000 0.000000 0.000000 0.000000 0.000000 0.018486
#
#
# Mechanical properties :
#
#
# Convention : Reuss Voigt Hill
#
# Bulk Modulus (GPa) = 66.76604 70.20049 68.48326
# Shear Modulus (GPa) = 34.31672 36.40901 35.36286
#
# Velocity S-wave (km/s) = 4.13412 4.25828 4.19666
# Velocity P-wave (km/s) = 7.48597 7.69023 7.58878
#
# Compressibility (1/GPa) = 0.01497767
#
# Stress axis : x y z
#
# Youngs Moduli (GPa) = 74.29681 101.80987 75.75564
#
# Poissons Ratio (x) = 0.31481 0.25642
# Poissons Ratio (y) = 0.22973 0.32388
# Poissons Ratio (z) = 0.25148 0.43527
#
# Static dielectric constant tensor:
#      x y z
#    x 3.424310 0.000000 0.000000 
#    y 0.000000 3.918740 0.000000 
#    z 0.000000 0.000000 3.617940 
# 
# 
# High freq. dielectric constant tensor:
#      x y z
#    x 1.788370 0.000000 0.000000 
#    y 0.000000 1.796940 0.000000 
#    z 0.000000 0.000000 1.781280 
# 
# From -- ./inp_files/11582.got.cif
#   From: 2010.03.12/outbox.cif.g09.slc.cpg/sg50_6_cif.got.tgz:11582.got - 2010.04.16 13:23:21.
