data_PCOD8205881
_publ_section_title
;
Structure prediction by ZEFSAII (Michael W. Deem and Ramdas Pophale) SiO2 
 PCOD8205881
Probable space group: P B A N
;
_chemical_formula_sum "Si O2"
_cell_formula_units_Z 26
_cell_length_a 15.838034
_cell_length_b 9.855610
_cell_length_c 6.830701
_cell_angle_alpha 90.000000
_cell_angle_beta 90.000000
_cell_angle_gamma 90.000000
_cell_volume 1066.227933
_symmetry_space_group_name_H-M "P B A N"
_symmetry_group_IT_number 50
_space_group.IT_coordinate_system_code '2'
_symmetry_cell_setting 'orthorhombic'
loop_
_space_group_symop_operation_xyz
x,y,z
1/2-x,1/2-y,z
x,1/2-y,-z
1/2-x,y,-z
-x,-y,-z
1/2+x,1/2+y,-z
-x,1/2+y,z
1/2+x,-y,z
loop_
_atom_site_type_symbol
_atom_site_label
_atom_site_fract_x
_atom_site_fract_y
_atom_site_fract_z
Si Si1 0.750000 0.750000 0.000000
Si Si2 0.622537 0.841927 0.684569
Si Si3 0.042416 0.623376 0.882846
Si Si4 0.348928 0.598382 0.466169
O O1 0.691347 0.659576 0.141545
O O2 0.651811 0.750000 0.500000
O O3 0.530683 0.798845 0.759672
O O4 0.609261 0.997905 0.621264
O O5 0.118135 0.559298 0.751483
O O6 0.083368 0.750000 0.000000
O O7 0.000000 0.500000 0.000000
O O8 0.381319 0.750000 0.500000
O O9 0.250000 0.583032 0.500000
#
# Coordination Sequence:
#
# PCOD8205881 Si02
#       4
#     2   8   8   8
#     4  12  26  44  80 116 140 194 258 326 368 450
#     4  12  25  47  76 107 150 191 253 312 380 441
#     4  12  25  45  73 111 145 196 251 306 373 451
#     4  11  25  46  70 104 151 197 240 305 375 445
#
# _framework density 24.385031000000001
#
# number of rings (size 3 to 8) (size 9 to 14) (size 15 to 20)
#    0.000    0.308    1.538    7.846    4.308    0.000 
#    0.000    1.538    0.000    0.000    0.000    0.000 
#    0.000    0.000    0.000    0.000    0.000    0.000 
#
# Total GULP energy -322331.910365 kJ/mol
# GULP energy per Si atom -12397.381168 kJ/mol
# Density = 2.432953 g / cm^3
# Si number density = 24.385031 Si / 1000 Ang^3
#
#
#
# Elastic Constant Matrix: (Units=GPa)
#
#
# Indices 1 2 3 4 5 6 
#
# 1 134.6935 11.0251 73.7581 0.0000 0.0000 0.0000
# 2 11.0251 129.4825 55.9517 0.0000 0.0000 0.0000
# 3 73.7581 55.9517 162.5390 0.0000 0.0000 0.0000
# 4 0.0000 0.0000 0.0000 44.1822 0.0000 0.0000
# 5 0.0000 0.0000 0.0000 0.0000 67.3087 0.0000
# 6 0.0000 0.0000 0.0000 0.0000 0.0000 22.1240
#
#
#
# Elastic Compliance Matrix: (Units=1/GPa)
#
#
# Indices 1 2 3 4 5 6 
#
# 1 0.010065 0.001312 -0.005019 0.000000 0.000000 0.000000
# 2 0.001312 0.009244 -0.003777 0.000000 0.000000 0.000000
# 3 -0.005019 -0.003777 0.009730 0.000000 0.000000 0.000000
# 4 0.000000 0.000000 0.000000 0.022634 0.000000 0.000000
# 5 0.000000 0.000000 0.000000 0.000000 0.014857 0.000000
# 6 0.000000 0.000000 0.000000 0.000000 0.000000 0.045200
#
#
# Mechanical properties :
#
#
# Convention : Reuss Voigt Hill
#
# Bulk Modulus (GPa) = 71.07285 78.68719 74.88002
# Shear Modulus (GPa) = 38.05513 45.78833 41.92173
#
# Velocity S-wave (km/s) = 3.95472 4.33797 4.15077
# Velocity P-wave (km/s) = 7.07548 7.57822 7.33116
#
# Compressibility (1/GPa) = 0.01407007
#
# Stress axis : x y z
#
# Youngs Moduli (GPa) = 99.35088 108.18341 102.77257
#
# Poissons Ratio (x) = -0.14191 0.51582
# Poissons Ratio (y) = -0.13033 0.38820
# Poissons Ratio (z) = 0.49865 0.40863
#
# Static dielectric constant tensor:
#      x y z
#    x 4.297080 0.000000 0.000000 
#    y 0.000000 4.406560 0.000000 
#    z 0.000000 0.000000 4.700560 
# 
# 
# High freq. dielectric constant tensor:
#      x y z
#    x 1.969150 0.000000 0.000000 
#    y 0.000000 1.974900 0.000000 
#    z 0.000000 0.000000 1.979420 
# 
# From -- ./inp_files/3906.got.cif
#   From: 2010.03.12/outbox.cif.g09.slc.cpg/sg50_2_cif.got.tgz:3906.got - 2010.04.16 13:23:21.
