data_PCOD8205540
_publ_section_title
;
Structure prediction by ZEFSAII (Michael W. Deem and Ramdas Pophale) SiO2 
 PCOD8205540
Probable space group: P B A N
;
_chemical_formula_sum "Si O2"
_cell_formula_units_Z 34
_cell_length_a 5.569203
_cell_length_b 30.743956
_cell_length_c 8.477560
_cell_angle_alpha 90.000000
_cell_angle_beta 90.000000
_cell_angle_gamma 90.000000
_cell_volume 1451.522160
_symmetry_space_group_name_H-M "P B A N"
_symmetry_group_IT_number 50
_space_group.IT_coordinate_system_code '2'
_symmetry_cell_setting 'orthorhombic'
loop_
_space_group_symop_operation_xyz
x,y,z
1/2-x,1/2-y,z
x,1/2-y,-z
1/2-x,y,-z
-x,-y,-z
1/2+x,1/2+y,-z
-x,1/2+y,z
1/2+x,-y,z
loop_
_atom_site_type_symbol
_atom_site_label
_atom_site_fract_x
_atom_site_fract_y
_atom_site_fract_z
Si Si1 0.080246 0.608779 0.741775
Si Si2 0.750000 0.880982 0.000000
Si Si3 0.461063 0.679245 0.781190
Si Si4 0.750000 0.250000 0.000000
Si Si5 0.750000 0.653164 0.500000
Si Si6 0.259053 0.981602 0.319292
O O1 0.208639 0.654508 0.775960
O O2 0.265873 0.570767 0.696573
O O3 0.904132 0.618297 0.597913
O O4 0.950345 0.591817 0.904338
O O5 0.652187 0.850517 0.135417
O O6 0.577727 0.685016 0.605750
O O7 0.421149 0.723064 0.881175
O O8 0.250000 0.996690 0.500000
O O9 0.507941 0.999923 0.242019
#
# Coordination Sequence:
#
# PCOD8205540 Si02
#       6
#     8   4   8   2   4   8
#     4  11  22  43  68 100 138 182 233 289 351 429
#     4  10  22  41  72  93 126 186 229 270 358 429
#     4  11  23  45  70 100 133 180 228 289 343 439
#     4  12  24  46  74  98 142 178 234 282 372 430
#     4  10  24  40  73 102 130 182 228 284 354 415
#     4  10  23  38  63 100 141 187 239 301 359 422
#
# _framework density 23.423686
#
# number of rings (size 3 to 8) (size 9 to 14) (size 15 to 20)
#    0.000    1.412    2.353    2.118   11.529    0.471 
#    0.000    4.706    0.000    0.000    0.000    0.000 
#    0.000    0.000    0.000    0.000    0.000    0.000 
#
# Total GULP energy -421287.777703 kJ/mol
# GULP energy per Si atom -12390.816991 kJ/mol
# Density = 2.337037 g / cm^3
# Si number density = 23.423686 Si / 1000 Ang^3
#
#
#
# Elastic Constant Matrix: (Units=GPa)
#
#
# Indices 1 2 3 4 5 6 
#
# 1 129.7836 33.5051 39.9997 0.0000 0.0000 0.0000
# 2 33.5051 100.6419 28.6934 0.0000 0.0000 0.0000
# 3 39.9997 28.6934 111.3038 0.0000 0.0000 0.0000
# 4 0.0000 0.0000 0.0000 22.6154 0.0000 0.0000
# 5 0.0000 0.0000 0.0000 0.0000 43.2499 0.0000
# 6 0.0000 0.0000 0.0000 0.0000 0.0000 27.0644
#
#
#
# Elastic Compliance Matrix: (Units=1/GPa)
#
#
# Indices 1 2 3 4 5 6 
#
# 1 0.009121 -0.002269 -0.002693 0.000000 0.000000 0.000000
# 2 -0.002269 0.011289 -0.002095 0.000000 0.000000 0.000000
# 3 -0.002693 -0.002095 0.010492 0.000000 0.000000 0.000000
# 4 0.000000 0.000000 0.000000 0.044218 0.000000 0.000000
# 5 0.000000 0.000000 0.000000 0.000000 0.023121 0.000000
# 6 0.000000 0.000000 0.000000 0.000000 0.000000 0.036949
#
#
# Mechanical properties :
#
#
# Convention : Reuss Voigt Hill
#
# Bulk Modulus (GPa) = 59.56339 60.68064 60.12202
# Shear Modulus (GPa) = 32.27908 34.55467 33.41687
#
# Velocity S-wave (km/s) = 3.71624 3.84500 3.78117
# Velocity P-wave (km/s) = 6.62554 6.75825 6.69223
#
# Compressibility (1/GPa) = 0.01678884
#
# Stress axis : x y z
#
# Youngs Moduli (GPa) = 109.63971 88.58375 95.30856
#
# Poissons Ratio (x) = 0.20097 0.25666
# Poissons Ratio (y) = 0.24874 0.19966
# Poissons Ratio (z) = 0.29525 0.18557
#
# Static dielectric constant tensor:
#      x y z
#    x 4.588010 0.000000 0.000000 
#    y 0.000000 3.745100 0.000000 
#    z 0.000000 0.000000 4.300610 
# 
# 
# High freq. dielectric constant tensor:
#      x y z
#    x 1.944780 0.000000 0.000000 
#    y 0.000000 1.889590 0.000000 
#    z 0.000000 0.000000 1.929210 
# 
# From -- ./inp_files/8047.got.cif
#   From: 2010.03.12/outbox.cif.g09.slc.cpg/sg50_5_cif.got.tgz:8047.got - 2010.04.16 13:23:21.
