data_PCOD8205726
_publ_section_title
;
Structure prediction by ZEFSAII (Michael W. Deem and Ramdas Pophale) SiO2 
 PCOD8205726
Probable space group: P B A N
;
_chemical_formula_sum "Si O2"
_cell_formula_units_Z 18
_cell_length_a 28.883328
_cell_length_b 5.086361
_cell_length_c 4.982371
_cell_angle_alpha 90.000000
_cell_angle_beta 90.000000
_cell_angle_gamma 90.000000
_cell_volume 731.965271
_symmetry_space_group_name_H-M "P B A N"
_symmetry_group_IT_number 50
_space_group.IT_coordinate_system_code '2'
_symmetry_cell_setting 'orthorhombic'
loop_
_space_group_symop_operation_xyz
x,y,z
1/2-x,1/2-y,z
x,1/2-y,-z
1/2-x,y,-z
-x,-y,-z
1/2+x,1/2+y,-z
-x,1/2+y,z
1/2+x,-y,z
loop_
_atom_site_type_symbol
_atom_site_label
_atom_site_fract_x
_atom_site_fract_y
_atom_site_fract_z
Si Si1 0.402908 0.250000 0.500000
Si Si2 0.170001 0.005872 0.183283
Si Si3 0.250000 0.250000 0.500000
Si Si4 0.532324 0.750000 0.000000
O O1 0.369064 0.497626 0.419420
O O2 0.435809 0.310689 0.746752
O O3 0.220023 0.053859 0.315961
O O4 0.170907 0.750000 0.000000
O O5 0.155637 0.250000 0.000000
O O6 0.500000 0.500000 0.000000
#
# Coordination Sequence:
#
# PCOD8205726 Si02
#       4
#     4   8   2   4
#     4  11  26  51  78 116 154 202 256 315 390 461
#     4  11  26  47  78 109 155 202 258 318 384 464
#     4  10  26  46  76 116 152 208 260 328 388 462
#     4  12  28  48  80 113 154 197 252 320 388 464
#
# _framework density 24.591329999999999
#
# number of rings (size 3 to 8) (size 9 to 14) (size 15 to 20)
#    0.000    0.889    2.222    2.000    3.111   16.000 
#    0.000    0.000    4.889    0.000    0.000    0.000 
#    0.000    0.000    0.000    0.000    0.000    0.000 
#
# Total GULP energy -223071.865231 kJ/mol
# GULP energy per Si atom -12392.881402 kJ/mol
# Density = 2.453536 g / cm^3
# Si number density = 24.591330 Si / 1000 Ang^3
#
#
#
# Elastic Constant Matrix: (Units=GPa)
#
#
# Indices 1 2 3 4 5 6 
#
# 1 223.1266 92.1069 116.5461 0.0000 0.0000 0.0000
# 2 92.1069 198.8843 91.4315 0.0000 0.0000 0.0000
# 3 116.5461 91.4315 203.9743 0.0000 0.0000 0.0000
# 4 0.0000 0.0000 0.0000 56.0733 0.0000 0.0000
# 5 0.0000 0.0000 0.0000 0.0000 46.5478 0.0000
# 6 0.0000 0.0000 0.0000 0.0000 0.0000 8.4675
#
#
#
# Elastic Compliance Matrix: (Units=1/GPa)
#
#
# Indices 1 2 3 4 5 6 
#
# 1 0.006827 -0.001724 -0.003128 0.000000 0.000000 0.000000
# 2 -0.001724 0.006768 -0.002049 0.000000 0.000000 0.000000
# 3 -0.003128 -0.002049 0.007609 0.000000 0.000000 0.000000
# 4 0.000000 0.000000 0.000000 0.017834 0.000000 0.000000
# 5 0.000000 0.000000 0.000000 0.000000 0.021483 0.000000
# 6 0.000000 0.000000 0.000000 0.000000 0.000000 0.118099
#
#
# Mechanical properties :
#
#
# Convention : Reuss Voigt Hill
#
# Bulk Modulus (GPa) = 135.09757 136.23935 135.66846
# Shear Modulus (GPa) = 25.65560 43.94444 34.80002
#
# Velocity S-wave (km/s) = 3.23349 4.23187 3.76591
# Velocity P-wave (km/s) = 8.30644 8.91066 8.61385
#
# Compressibility (1/GPa) = 0.00740206
#
# Stress axis : x y z
#
# Youngs Moduli (GPa) = 146.47016 147.74756 131.43195
#
# Poissons Ratio (x) = 0.25467 0.41116
# Poissons Ratio (y) = 0.25247 0.26931
# Poissons Ratio (z) = 0.45821 0.30274
#
# Static dielectric constant tensor:
#      x y z
#    x 4.963770 0.000000 0.000000 
#    y 0.000000 5.691710 0.000000 
#    z 0.000000 0.000000 5.085900 
# 
# 
# High freq. dielectric constant tensor:
#      x y z
#    x 2.007170 0.000000 0.000000 
#    y 0.000000 1.958940 0.000000 
#    z 0.000000 0.000000 2.010370 
# 
# From -- ./inp_files/342.got.cif
#   From: 2010.03.12/outbox.cif.g09.slc.cpg/sg50_1_cif.got.tgz:342.got - 2010.04.16 13:23:21.
