data_PCOD8205855
_publ_section_title
;
Structure prediction by ZEFSAII (Michael W. Deem and Ramdas Pophale) SiO2 
 PCOD8205855
Probable space group: P B A N
;
_chemical_formula_sum "Si O2"
_cell_formula_units_Z 40
_cell_length_a 9.971749
_cell_length_b 24.556786
_cell_length_c 6.812520
_cell_angle_alpha 90.000000
_cell_angle_beta 90.000000
_cell_angle_gamma 90.000000
_cell_volume 1668.209746
_symmetry_space_group_name_H-M "P B A N"
_symmetry_group_IT_number 50
_space_group.IT_coordinate_system_code '2'
_symmetry_cell_setting 'orthorhombic'
loop_
_space_group_symop_operation_xyz
x,y,z
1/2-x,1/2-y,z
x,1/2-y,-z
1/2-x,y,-z
-x,-y,-z
1/2+x,1/2+y,-z
-x,1/2+y,z
1/2+x,-y,z
loop_
_atom_site_type_symbol
_atom_site_label
_atom_site_fract_x
_atom_site_fract_y
_atom_site_fract_z
Si Si1 0.250000 0.530012 0.500000
Si Si2 0.779258 0.830639 0.722834
Si Si3 0.250000 0.250000 0.000000
Si Si4 0.656966 0.547853 0.828313
Si Si5 0.927915 0.204284 0.165879
Si Si6 0.367236 0.917076 0.137574
Si Si7 0.750000 0.250000 0.500000
O O1 0.341214 0.492093 0.359491
O O2 0.159238 0.569891 0.367186
O O3 0.750000 0.820114 0.500000
O O4 0.779705 0.894203 0.767214
O O5 0.916367 0.799603 0.780514
O O6 0.672933 0.794996 0.855505
O O7 0.507169 0.553215 0.913317
O O8 0.750000 0.523532 0.000000
O O9 0.878832 0.146205 0.086728
O O10 0.844856 0.213662 0.363740
O O11 0.900778 0.250000 0.000000
O O12 0.250000 0.941365 0.000000
#
# Coordination Sequence:
#
# PCOD8205855 Si02
#       7
#     4   8   2   8   8   8   2
#     4  12  25  46  74 104 142 196 249 310 354 442
#     4  11  24  43  70 107 141 188 234 295 370 445
#     4  12  22  40  68 104 140 172 230 292 360 442
#     4  11  25  47  73 106 147 191 241 311 375 427
#     4  11  25  46  69 102 147 190 238 303 370 439
#     4  11  26  47  72 106 142 192 247 303 367 442
#     4  12  24  40  66  98 136 196 236 294 348 452
#
# _framework density 23.977802000000001
#
# number of rings (size 3 to 8) (size 9 to 14) (size 15 to 20)
#    0.000    0.800    3.000    3.600    2.800    4.800 
#    3.600    0.000    0.000    0.000    0.000    0.000 
#    0.000    0.000    0.000    0.000    0.000    0.000 
#
# Total GULP energy -495579.615637 kJ/mol
# GULP energy per Si atom -12389.490391 kJ/mol
# Density = 2.392323 g / cm^3
# Si number density = 23.977802 Si / 1000 Ang^3
#
#
#
# Elastic Constant Matrix: (Units=GPa)
#
#
# Indices 1 2 3 4 5 6 
#
# 1 135.2431 29.2621 57.7560 0.0000 0.0000 0.0000
# 2 29.2621 166.5383 59.1797 0.0000 0.0000 0.0000
# 3 57.7560 59.1797 179.1508 0.0000 0.0000 0.0000
# 4 0.0000 0.0000 0.0000 50.5580 0.0000 0.0000
# 5 0.0000 0.0000 0.0000 0.0000 45.0080 0.0000
# 6 0.0000 0.0000 0.0000 0.0000 0.0000 190.5754
#
#
#
# Elastic Compliance Matrix: (Units=1/GPa)
#
#
# Indices 1 2 3 4 5 6 
#
# 1 0.008627 -0.000598 -0.002584 0.000000 0.000000 0.000000
# 2 -0.000598 0.006845 -0.002068 0.000000 0.000000 0.000000
# 3 -0.002584 -0.002068 0.007098 0.000000 0.000000 0.000000
# 4 0.000000 0.000000 0.000000 0.019779 0.000000 0.000000
# 5 0.000000 0.000000 0.000000 0.000000 0.022218 0.000000
# 6 0.000000 0.000000 0.000000 0.000000 0.000000 0.005247
#
#
# Mechanical properties :
#
#
# Convention : Reuss Voigt Hill
#
# Bulk Modulus (GPa) = 82.84977 85.92533 84.38755
# Shear Modulus (GPa) = 59.28584 79.54391 69.41488
#
# Velocity S-wave (km/s) = 4.97785 5.76593 5.38632
# Velocity P-wave (km/s) = 8.22596 8.95774 8.59964
#
# Compressibility (1/GPa) = 0.01207004
#
# Stress axis : x y z
#
# Youngs Moduli (GPa) = 115.91774 146.10005 140.88276
#
# Poissons Ratio (x) = 0.08732 0.36401
# Poissons Ratio (y) = 0.06928 0.29139
# Poissons Ratio (z) = 0.29950 0.30218
#
# Static dielectric constant tensor:
#      x y z
#    x 4.380510 0.000000 0.000000 
#    y 0.000000 4.582870 0.000000 
#    z 0.000000 0.000000 4.417660 
# 
# 
# High freq. dielectric constant tensor:
#      x y z
#    x 1.934550 0.000000 0.000000 
#    y 0.000000 1.989220 0.000000 
#    z 0.000000 0.000000 1.962320 
# 
# From -- ./inp_files/2471.got.cif
#   From: 2010.03.12/outbox.cif.g09.slc.cpg/sg50_2_cif.got.tgz:2471.got - 2010.04.16 13:23:21.
