data_PCOD8205078
_publ_section_title
;
Structure prediction by ZEFSAII (Michael W. Deem and Ramdas Pophale) SiO2 
 PCOD8205078
Probable space group: P B A N
;
_chemical_formula_sum "Si O2"
_cell_formula_units_Z 60
_cell_length_a 9.065295
_cell_length_b 11.625806
_cell_length_c 29.851512
_cell_angle_alpha 90.000000
_cell_angle_beta 90.000000
_cell_angle_gamma 90.000000
_cell_volume 3146.091478
_symmetry_space_group_name_H-M "P B A N"
_symmetry_group_IT_number 50
_space_group.IT_coordinate_system_code '2'
_symmetry_cell_setting 'orthorhombic'
loop_
_space_group_symop_operation_xyz
x,y,z
1/2-x,1/2-y,z
x,1/2-y,-z
1/2-x,y,-z
-x,-y,-z
1/2+x,1/2+y,-z
-x,1/2+y,z
1/2+x,-y,z
loop_
_atom_site_type_symbol
_atom_site_label
_atom_site_fract_x
_atom_site_fract_y
_atom_site_fract_z
Si Si1 0.749644 0.884732 0.161883
Si Si2 0.001414 0.000886 0.106027
Si Si3 0.750000 0.250000 0.353925
Si Si4 0.253749 0.885013 0.049978
Si Si5 0.276890 0.114675 0.262819
Si Si6 0.565050 0.052621 0.313410
Si Si7 0.070235 0.942650 0.598980
Si Si8 0.783130 0.879607 0.551959
O O1 0.750000 0.750000 0.163412
O O2 0.596542 0.923458 0.140037
O O3 0.758183 0.932527 0.212360
O O4 0.892032 0.921613 0.134069
O O5 0.906167 0.081024 0.073562
O O6 0.109911 0.923800 0.076717
O O7 0.659446 0.167179 0.321113
O O8 0.855460 0.175891 0.385749
O O9 0.250000 0.750000 0.047072
O O10 0.250000 0.938976 0.000000
O O11 0.250000 0.250000 0.267176
O O12 0.441060 0.084416 0.277832
O O13 0.162543 0.050364 0.294446
O O14 0.503257 0.008325 0.360060
O O15 0.953594 0.908758 0.560818
O O16 0.188268 0.029813 0.579320
O O17 0.750000 0.750000 0.568560
O O18 0.750000 0.893346 0.500000
#
# Coordination Sequence:
#
# PCOD8205078 Si02
#       8
#     8   8   4   8   8   8   8   8
#     4  10  21  38  58  82 114 153 196 238 290 351
#     4  10  20  36  57  80 114 152 192 238 293 349
#     4  12  24  40  67  96 124 162 204 242 303 360
#     4  10  20  34  55  83 113 147 192 241 293 348
#     4  11  24  40  62  89 121 158 200 252 300 352
#     4  12  23  42  64  91 123 159 200 249 301 356
#     4  12  23  44  67  93 126 161 201 244 300 356
#     4  11  25  44  67  93 126 159 201 245 295 353
#
# _framework density 19.071282
#
# number of rings (size 3 to 8) (size 9 to 14) (size 15 to 20)
#    0.000    1.067    2.667    4.000    0.000    1.067 
#    0.000    0.000    2.933    6.400    0.000    0.000 
#    0.000    0.000    0.000    0.000    0.000    0.000 
#
# Total GULP energy -744232.398522 kJ/mol
# GULP energy per Si atom -12403.873309 kJ/mol
# Density = 1.902787 g / cm^3
# Si number density = 19.071282 Si / 1000 Ang^3
#
#
#
# Elastic Constant Matrix: (Units=GPa)
#
#
# Indices 1 2 3 4 5 6 
#
# 1 129.5758 34.8708 49.0546 0.0000 0.0000 0.0000
# 2 34.8708 83.1533 32.5015 0.0000 0.0000 0.0000
# 3 49.0546 32.5015 105.4682 0.0000 0.0000 0.0000
# 4 0.0000 0.0000 0.0000 28.5965 0.0000 0.0000
# 5 0.0000 0.0000 0.0000 0.0000 28.4124 0.0000
# 6 0.0000 0.0000 0.0000 0.0000 0.0000 32.9426
#
#
#
# Elastic Compliance Matrix: (Units=1/GPa)
#
#
# Indices 1 2 3 4 5 6 
#
# 1 0.009860 -0.002663 -0.003765 0.000000 0.000000 0.000000
# 2 -0.002663 0.014392 -0.003197 0.000000 0.000000 0.000000
# 3 -0.003765 -0.003197 0.012218 0.000000 0.000000 0.000000
# 4 0.000000 0.000000 0.000000 0.034969 0.000000 0.000000
# 5 0.000000 0.000000 0.000000 0.000000 0.035196 0.000000
# 6 0.000000 0.000000 0.000000 0.000000 0.000000 0.030356
#
#
# Mechanical properties :
#
#
# Convention : Reuss Voigt Hill
#
# Bulk Modulus (GPa) = 58.07170 61.22790 59.64980
# Shear Modulus (GPa) = 30.86801 31.44166 31.15484
#
# Velocity S-wave (km/s) = 4.02750 4.06475 4.04617
# Velocity P-wave (km/s) = 7.22105 7.36234 7.29204
#
# Compressibility (1/GPa) = 0.01722009
#
# Stress axis : x y z
#
# Youngs Moduli (GPa) = 101.42444 69.48239 81.84770
#
# Poissons Ratio (x) = 0.18503 0.30817
# Poissons Ratio (y) = 0.27009 0.26163
# Poissons Ratio (z) = 0.38188 0.22210
#
# Static dielectric constant tensor:
#      x y z
#    x 3.559480 0.000000 0.000000 
#    y 0.000000 3.536650 0.000000 
#    z 0.000000 0.000000 4.028840 
# 
# 
# High freq. dielectric constant tensor:
#      x y z
#    x 1.759570 0.000000 0.000000 
#    y 0.000000 1.751070 0.000000 
#    z 0.000000 0.000000 1.754260 
# 
# From -- ./inp_files/32151.got.cif
#   From: 2010.03.12/outbox.cif.g09.slc.cpg/sg50_17_cif.got.tgz:32151.got - 2010.04.16 13:23:21.
