data_PCOD8205354
_publ_section_title
;
Structure prediction by ZEFSAII (Michael W. Deem and Ramdas Pophale) SiO2 
 PCOD8205354
Probable space group: P B A N
;
_chemical_formula_sum "Si O2"
_cell_formula_units_Z 64
_cell_length_a 13.773474
_cell_length_b 13.707352
_cell_length_c 18.365966
_cell_angle_alpha 90.000000
_cell_angle_beta 90.000000
_cell_angle_gamma 90.000000
_cell_volume 3467.455011
_symmetry_space_group_name_H-M "P B A N"
_symmetry_group_IT_number 50
_space_group.IT_coordinate_system_code '2'
_symmetry_cell_setting 'orthorhombic'
loop_
_space_group_symop_operation_xyz
x,y,z
1/2-x,1/2-y,z
x,1/2-y,-z
1/2-x,y,-z
-x,-y,-z
1/2+x,1/2+y,-z
-x,1/2+y,z
1/2+x,-y,z
loop_
_atom_site_type_symbol
_atom_site_label
_atom_site_fract_x
_atom_site_fract_y
_atom_site_fract_z
Si Si1 0.649067 0.489012 0.206987
Si Si2 0.491360 0.851782 0.963816
Si Si3 0.648905 0.486328 0.037948
Si Si4 0.760643 0.090221 0.579461
Si Si5 0.153884 0.506051 0.718651
Si Si6 0.091852 0.732004 0.420917
Si Si7 0.008575 0.657419 0.280602
Si Si8 0.510463 0.352781 0.794930
O O1 0.653370 0.460980 0.122848
O O2 0.758797 0.515440 0.226894
O O3 0.606344 0.399598 0.255518
O O4 0.584950 0.584367 0.220900
O O5 0.462598 0.851616 0.879358
O O6 0.395121 0.889615 0.002893
O O7 0.520420 0.750000 0.000000
O O8 0.582976 0.920372 0.978640
O O9 0.750000 0.510229 0.000000
O O10 0.750000 0.039635 0.500000
O O11 0.795689 0.013487 0.639314
O O12 0.838198 0.176280 0.585189
O O13 0.653577 0.133371 0.590360
O O14 0.081565 0.415391 0.717440
O O15 0.099000 0.603967 0.746092
O O16 0.040628 0.750000 0.500000
O O17 0.014084 0.717698 0.356951
O O18 0.987378 0.740944 0.222390
#
# Coordination Sequence:
#
# PCOD8205354 Si02
#       8
#     8   8   8   8   8   8   8   8
#     4  10  22  37  56  83 112 147 190 233 288 345
#     4  10  21  38  57  80 111 146 188 237 286 343
#     4  10  21  38  57  80 111 146 188 237 286 343
#     4   9  17  33  57  83 112 141 183 233 279 327
#     4  11  21  36  58  84 115 153 190 233 283 336
#     4   9  17  33  57  83 112 141 183 233 279 327
#     4  11  21  36  58  84 115 153 190 233 283 336
#     4  10  22  37  56  83 112 147 190 233 288 345
#
# _framework density 18.457342000000001
#
# number of rings (size 3 to 8) (size 9 to 14) (size 15 to 20)
#    0.000    2.000    2.500    2.250    0.000    4.500 
#    0.000    8.750    0.000    0.000    0.000    0.000 
#    0.000    0.000    0.000    0.000    0.000    0.000 
#
# Total GULP energy -793152.879078 kJ/mol
# GULP energy per Si atom -12393.013736 kJ/mol
# Density = 1.841533 g / cm^3
# Si number density = 18.457342 Si / 1000 Ang^3
#
#
#
# Elastic Constant Matrix: (Units=GPa)
#
#
# Indices 1 2 3 4 5 6 
#
# 1 90.9711 31.2140 51.9275 0.0000 0.0000 0.0000
# 2 31.2140 79.6855 46.4700 0.0000 0.0000 0.0000
# 3 51.9275 46.4700 109.8782 0.0000 0.0000 0.0000
# 4 0.0000 0.0000 0.0000 31.7780 0.0000 0.0000
# 5 0.0000 0.0000 0.0000 0.0000 29.9546 0.0000
# 6 0.0000 0.0000 0.0000 0.0000 0.0000 7.7955
#
#
#
# Elastic Compliance Matrix: (Units=1/GPa)
#
#
# Indices 1 2 3 4 5 6 
#
# 1 0.015384 -0.002371 -0.006267 0.000000 0.000000 0.000000
# 2 -0.002371 0.017023 -0.006079 0.000000 0.000000 0.000000
# 3 -0.006267 -0.006079 0.014634 0.000000 0.000000 0.000000
# 4 0.000000 0.000000 0.000000 0.031468 0.000000 0.000000
# 5 0.000000 0.000000 0.000000 0.000000 0.033384 0.000000
# 6 0.000000 0.000000 0.000000 0.000000 0.000000 0.128278
#
#
# Mechanical properties :
#
#
# Convention : Reuss Voigt Hill
#
# Bulk Modulus (GPa) = 56.79944 59.97309 58.38626
# Shear Modulus (GPa) = 18.15049 23.96715 21.05882
#
# Velocity S-wave (km/s) = 3.13928 3.60740 3.38145
# Velocity P-wave (km/s) = 6.63176 7.06502 6.85182
#
# Compressibility (1/GPa) = 0.01760581
#
# Stress axis : x y z
#
# Youngs Moduli (GPa) = 65.00447 58.74348 68.33481
#
# Poissons Ratio (x) = 0.13928 0.42828
# Poissons Ratio (y) = 0.15413 0.41540
# Poissons Ratio (z) = 0.40741 0.35710
#
# Static dielectric constant tensor:
#      x y z
#    x 3.271300 0.000000 0.000000 
#    y 0.000000 3.238190 0.000000 
#    z 0.000000 0.000000 3.740030 
# 
# 
# High freq. dielectric constant tensor:
#      x y z
#    x 1.702300 0.000000 0.000000 
#    y 0.000000 1.700820 0.000000 
#    z 0.000000 0.000000 1.736130 
# 
# From -- ./inp_files/29249.got.cif
#   From: 2010.03.12/outbox.cif.g09.slc.cpg/sg50_15_cif.got.tgz:29249.got - 2010.04.16 13:23:21.
