data_PCOD8205802
_publ_section_title
;
Structure prediction by ZEFSAII (Michael W. Deem and Ramdas Pophale) SiO2 
 PCOD8205802
Probable space group: P B A N
;
_chemical_formula_sum "Si O2"
_cell_formula_units_Z 54
_cell_length_a 13.654156
_cell_length_b 12.428636
_cell_length_c 14.607865
_cell_angle_alpha 90.000000
_cell_angle_beta 90.000000
_cell_angle_gamma 90.000000
_cell_volume 2478.991719
_symmetry_space_group_name_H-M "P B A N"
_symmetry_group_IT_number 50
_space_group.IT_coordinate_system_code '2'
_symmetry_cell_setting 'orthorhombic'
loop_
_space_group_symop_operation_xyz
x,y,z
1/2-x,1/2-y,z
x,1/2-y,-z
1/2-x,y,-z
-x,-y,-z
1/2+x,1/2+y,-z
-x,1/2+y,z
1/2+x,-y,z
loop_
_atom_site_type_symbol
_atom_site_label
_atom_site_fract_x
_atom_site_fract_y
_atom_site_fract_z
Si Si1 0.359760 0.780093 0.239185
Si Si2 0.106948 0.182067 0.408933
Si Si3 0.750000 0.750000 0.000000
Si Si4 0.582767 0.146887 0.950608
Si Si5 0.587071 0.056206 0.614741
Si Si6 0.463561 0.148987 0.274356
Si Si7 0.250000 0.460060 0.500000
Si Si8 0.100822 0.093240 0.928573
O O1 0.250000 0.750000 0.208043
O O2 0.426208 0.821924 0.155119
O O3 0.352020 0.874109 0.312660
O O4 0.420795 0.678889 0.277799
O O5 0.113361 0.250000 0.500000
O O6 0.101036 0.249808 0.313494
O O7 0.206431 0.109940 0.413805
O O8 0.008497 0.114296 0.422477
O O9 0.808517 0.672641 0.932450
O O10 0.635106 0.029433 0.953781
O O11 0.636786 0.250000 0.000000
O O12 0.476467 0.132880 0.995587
O O13 0.550813 0.945175 0.655274
O O14 0.661773 0.035051 0.532761
O O15 0.439150 0.105548 0.173604
#
# Coordination Sequence:
#
# PCOD8205802 Si02
#       8
#     8   8   2   8   8   8   4   8
#     4  11  25  43  66 104 138 180 235 284 347 423
#     4  11  25  43  70  98 135 176 229 288 346 412
#     4  12  24  44  66 104 132 176 248 266 344 424
#     4  11  22  46  67  96 140 189 227 284 356 413
#     4  11  26  43  70  98 140 179 230 281 361 413
#     4  11  23  46  67  96 144 176 226 290 354 413
#     4  12  25  44  69 102 132 188 237 286 349 436
#     4  11  24  43  70 100 140 187 228 291 354 417
#
# _framework density 21.783049999999999
#
# number of rings (size 3 to 8) (size 9 to 14) (size 15 to 20)
#    0.000    0.889    5.185    0.667    2.074    3.852 
#    0.000    0.000    0.000    0.000    0.000    0.000 
#    0.000    0.000    0.000    0.000    0.000    0.000 
#
# Total GULP energy -669210.180343 kJ/mol
# GULP energy per Si atom -12392.781117 kJ/mol
# Density = 2.173347 g / cm^3
# Si number density = 21.783050 Si / 1000 Ang^3
#
#
#
# Elastic Constant Matrix: (Units=GPa)
#
#
# Indices 1 2 3 4 5 6 
#
# 1 72.6978 37.6449 33.6775 0.0000 0.0000 0.0000
# 2 37.6449 142.1458 33.6193 0.0000 0.0000 0.0000
# 3 33.6775 33.6193 87.4455 0.0000 0.0000 0.0000
# 4 0.0000 0.0000 0.0000 22.8407 0.0000 0.0000
# 5 0.0000 0.0000 0.0000 0.0000 23.0703 0.0000
# 6 0.0000 0.0000 0.0000 0.0000 0.0000 29.8316
#
#
#
# Elastic Compliance Matrix: (Units=1/GPa)
#
#
# Indices 1 2 3 4 5 6 
#
# 1 0.018179 -0.003475 -0.005666 0.000000 0.000000 0.000000
# 2 -0.003475 0.008403 -0.001892 0.000000 0.000000 0.000000
# 3 -0.005666 -0.001892 0.014345 0.000000 0.000000 0.000000
# 4 0.000000 0.000000 0.000000 0.043782 0.000000 0.000000
# 5 0.000000 0.000000 0.000000 0.000000 0.043346 0.000000
# 6 0.000000 0.000000 0.000000 0.000000 0.000000 0.033521
#
#
# Mechanical properties :
#
#
# Convention : Reuss Voigt Hill
#
# Bulk Modulus (GPa) = 53.01549 56.90808 54.96179
# Shear Modulus (GPa) = 26.32569 28.30501 27.31535
#
# Velocity S-wave (km/s) = 3.48018 3.60864 3.54499
# Velocity P-wave (km/s) = 6.36708 6.59884 6.48399
#
# Compressibility (1/GPa) = 0.01886241
#
# Stress axis : x y z
#
# Youngs Moduli (GPa) = 55.00745 119.00830 69.70982
#
# Poissons Ratio (x) = 0.41350 0.39494
# Poissons Ratio (y) = 0.19112 0.13192
# Poissons Ratio (z) = 0.31165 0.22521
#
# Static dielectric constant tensor:
#      x y z
#    x 4.057410 0.000000 0.000000 
#    y 0.000000 4.539810 0.000000 
#    z 0.000000 0.000000 4.072010 
# 
# 
# High freq. dielectric constant tensor:
#      x y z
#    x 1.842350 0.000000 0.000000 
#    y 0.000000 1.878020 0.000000 
#    z 0.000000 0.000000 1.854460 
# 
# From -- ./inp_files/26518.got.cif
#   From: 2010.03.12/outbox.cif.g09.slc.cpg/sg50_14_cif.got.tgz:26518.got - 2010.04.16 13:23:21.
