data_PCOD8205327
_publ_section_title
;
Structure prediction by ZEFSAII (Michael W. Deem and Ramdas Pophale) SiO2 
 PCOD8205327
Probable space group: P B A N
;
_chemical_formula_sum "Si O2"
_cell_formula_units_Z 32
_cell_length_a 14.342990
_cell_length_b 8.716438
_cell_length_c 10.993197
_cell_angle_alpha 90.000000
_cell_angle_beta 90.000000
_cell_angle_gamma 90.000000
_cell_volume 1374.367104
_symmetry_space_group_name_H-M "P B A N"
_symmetry_group_IT_number 50
_space_group.IT_coordinate_system_code '2'
_symmetry_cell_setting 'orthorhombic'
loop_
_space_group_symop_operation_xyz
x,y,z
1/2-x,1/2-y,z
x,1/2-y,-z
1/2-x,y,-z
-x,-y,-z
1/2+x,1/2+y,-z
-x,1/2+y,z
1/2+x,-y,z
loop_
_atom_site_type_symbol
_atom_site_label
_atom_site_fract_x
_atom_site_fract_y
_atom_site_fract_z
Si Si1 0.623043 0.966122 0.259457
Si Si2 0.695732 0.092983 0.754108
Si Si3 0.601516 0.067408 0.998542
Si Si4 0.524296 0.242186 0.641195
O O1 0.728513 0.980980 0.314369
O O2 0.550909 0.092010 0.309481
O O3 0.571122 0.806395 0.287847
O O4 0.648667 0.996339 0.118116
O O5 0.750000 0.250000 0.786396
O O6 0.657075 0.016837 0.878204
O O7 0.609426 0.123660 0.663297
O O8 0.595927 0.250000 0.000000
O O9 0.500000 0.000000 0.000000
O O10 0.500768 0.250000 0.500000
#
# Coordination Sequence:
#
# PCOD8205327 Si02
#       4
#     8   8   8   8
#     4  11  22  39  64  92 127 170 214 269 325 383
#     4  10  21  36  64  95 125 169 223 262 318 395
#     4  12  20  37  65  96 132 166 213 269 332 389
#     4  11  23  41  63  92 127 170 221 268 316 380
#
# _framework density 23.283442999999998
#
# number of rings (size 3 to 8) (size 9 to 14) (size 15 to 20)
#    0.000    1.000    7.500    1.500    0.000    4.500 
#    0.000    1.250    0.000    3.000    0.000    0.000 
#    0.000    0.000    0.000    0.000    0.000    0.000 
#
# Total GULP energy -396583.531482 kJ/mol
# GULP energy per Si atom -12393.235359 kJ/mol
# Density = 2.323045 g / cm^3
# Si number density = 23.283443 Si / 1000 Ang^3
#
#
#
# Elastic Constant Matrix: (Units=GPa)
#
#
# Indices 1 2 3 4 5 6 
#
# 1 144.4187 22.4446 21.6758 0.0000 0.0000 0.0000
# 2 22.4446 23.4618 20.0784 0.0000 0.0000 0.0000
# 3 21.6758 20.0784 112.9866 0.0000 0.0000 0.0000
# 4 0.0000 0.0000 0.0000 20.3519 0.0000 0.0000
# 5 0.0000 0.0000 0.0000 0.0000 20.8006 0.0000
# 6 0.0000 0.0000 0.0000 0.0000 0.0000 37.1604
#
#
#
# Elastic Compliance Matrix: (Units=1/GPa)
#
#
# Indices 1 2 3 4 5 6 
#
# 1 0.008138 -0.007606 -0.000210 0.000000 0.000000 0.000000
# 2 -0.007606 0.057375 -0.008737 0.000000 0.000000 0.000000
# 3 -0.000210 -0.008737 0.010443 0.000000 0.000000 0.000000
# 4 0.000000 0.000000 0.000000 0.049136 0.000000 0.000000
# 5 0.000000 0.000000 0.000000 0.000000 0.048076 0.000000
# 6 0.000000 0.000000 0.000000 0.000000 0.000000 0.026910
#
#
# Mechanical properties :
#
#
# Convention : Reuss Voigt Hill
#
# Bulk Modulus (GPa) = 23.33595 45.47384 34.40490
# Shear Modulus (GPa) = 20.20479 30.10711 25.15595
#
# Velocity S-wave (km/s) = 2.94900 3.59983 3.29054
# Velocity P-wave (km/s) = 4.65186 6.07053 5.40791
#
# Compressibility (1/GPa) = 0.04285233
#
# Stress axis : x y z
#
# Youngs Moduli (GPa) = 122.88361 17.42915 95.75418
#
# Poissons Ratio (x) = 0.13256 0.02007
# Poissons Ratio (y) = 0.93460 0.83659
# Poissons Ratio (z) = 0.02576 0.15228
#
# Static dielectric constant tensor:
#      x y z
#    x 4.802430 0.000000 0.000000 
#    y 0.000000 3.939760 0.000000 
#    z 0.000000 0.000000 4.473100 
# 
# 
# High freq. dielectric constant tensor:
#      x y z
#    x 1.947940 0.000000 0.000000 
#    y 0.000000 1.885360 0.000000 
#    z 0.000000 0.000000 1.904780 
# 
# From -- ./inp_files/18311.got.cif
#   From: 2010.03.12/outbox.cif.g09.slc.cpg/sg50_10_cif.got.tgz:18311.got - 2010.04.16 13:23:21.
