data_PCOD8205140
_publ_section_title
;
Structure prediction by ZEFSAII (Michael W. Deem and Ramdas Pophale) SiO2 
 PCOD8205140
Probable space group: P B A N
;
_chemical_formula_sum "Si O2"
_cell_formula_units_Z 64
_cell_length_a 8.895974
_cell_length_b 30.671033
_cell_length_c 12.160275
_cell_angle_alpha 90.000000
_cell_angle_beta 90.000000
_cell_angle_gamma 90.000000
_cell_volume 3317.915373
_symmetry_space_group_name_H-M "P B A N"
_symmetry_group_IT_number 50
_space_group.IT_coordinate_system_code '2'
_symmetry_cell_setting 'orthorhombic'
loop_
_space_group_symop_operation_xyz
x,y,z
1/2-x,1/2-y,z
x,1/2-y,-z
1/2-x,y,-z
-x,-y,-z
1/2+x,1/2+y,-z
-x,1/2+y,z
1/2+x,-y,z
loop_
_atom_site_type_symbol
_atom_site_label
_atom_site_fract_x
_atom_site_fract_y
_atom_site_fract_z
Si Si1 0.899473 0.533885 0.563168
Si Si2 0.640087 0.097333 0.399154
Si Si3 0.235044 0.980908 0.750557
Si Si4 0.972317 0.969519 0.897779
Si Si5 0.070082 0.653614 0.797941
Si Si6 0.145484 0.688230 0.098632
Si Si7 0.579851 0.742652 0.131249
Si Si8 0.082412 0.120725 0.995068
O O1 0.750000 0.542928 0.500000
O O2 0.863933 0.516203 0.684594
O O3 0.000000 0.500000 0.500000
O O4 0.982507 0.579959 0.556841
O O5 0.750000 0.110742 0.500000
O O6 0.709312 0.057663 0.328236
O O7 0.587038 0.138959 0.328144
O O8 0.131927 0.958606 0.842833
O O9 0.367236 0.007509 0.808583
O O10 0.902841 0.924740 0.941525
O O11 0.000000 0.000000 0.000000
O O12 0.244289 0.661320 0.824265
O O13 0.967848 0.695964 0.821204
O O14 0.989213 0.615615 0.871848
O O15 0.052242 0.724030 0.170205
O O16 0.023610 0.654975 0.053623
O O17 0.250000 0.708322 0.000000
O O18 0.750000 0.750000 0.175579
O O19 0.575639 0.750000 0.000000
O O20 0.250000 0.141209 0.000000
#
# Coordination Sequence:
#
# PCOD8205140 Si02
#       8
#     8   8   8   8   8   8   8   8
#     4  12  21  42  67  89 111 160 223 280 322 368
#     4  12  25  43  65  91 124 158 224 282 328 369
#     4  12  22  40  60  83 118 171 220 260 321 375
#     4  12  25  37  53  83 127 174 213 255 315 394
#     4  11  24  38  62  94 127 166 206 266 317 377
#     4  10  20  36  60  90 125 167 207 246 301 379
#     4  11  20  37  64  94 130 169 205 238 298 394
#     4  11  22  36  52  84 129 168 209 254 312 380
#
# _framework density 19.289221000000001
#
# number of rings (size 3 to 8) (size 9 to 14) (size 15 to 20)
#    0.000    0.625    6.250    3.750    1.750    2.000 
#    0.000    0.000    0.000    1.500    0.000    0.875 
#    0.000    0.000    0.000    0.000    0.000    0.000 
#
# Total GULP energy -793086.698972 kJ/mol
# GULP energy per Si atom -12391.979671 kJ/mol
# Density = 1.924532 g / cm^3
# Si number density = 19.289221 Si / 1000 Ang^3
#
#
#
# Elastic Constant Matrix: (Units=GPa)
#
#
# Indices 1 2 3 4 5 6 
#
# 1 159.7882 49.9194 49.9426 0.0000 0.0000 0.0000
# 2 49.9194 92.0668 47.6307 0.0000 0.0000 0.0000
# 3 49.9426 47.6307 100.9982 0.0000 0.0000 0.0000
# 4 0.0000 0.0000 0.0000 22.9676 0.0000 0.0000
# 5 0.0000 0.0000 0.0000 0.0000 29.0759 0.0000
# 6 0.0000 0.0000 0.0000 0.0000 0.0000 19.7034
#
#
#
# Elastic Compliance Matrix: (Units=1/GPa)
#
#
# Indices 1 2 3 4 5 6 
#
# 1 0.007993 -0.003028 -0.002525 0.000000 0.000000 0.000000
# 2 -0.003028 0.015514 -0.005819 0.000000 0.000000 0.000000
# 3 -0.002525 -0.005819 0.013894 0.000000 0.000000 0.000000
# 4 0.000000 0.000000 0.000000 0.043540 0.000000 0.000000
# 5 0.000000 0.000000 0.000000 0.000000 0.034393 0.000000
# 6 0.000000 0.000000 0.000000 0.000000 0.000000 0.050753
#
#
# Mechanical properties :
#
#
# Convention : Reuss Voigt Hill
#
# Bulk Modulus (GPa) = 68.22307 71.98208 70.10257
# Shear Modulus (GPa) = 25.81106 28.04007 26.92557
#
# Velocity S-wave (km/s) = 3.66198 3.81683 3.74021
# Velocity P-wave (km/s) = 7.30243 7.53807 7.42119
#
# Compressibility (1/GPa) = 0.01465780
#
# Stress axis : x y z
#
# Youngs Moduli (GPa) = 125.10428 64.45813 71.97422
#
# Poissons Ratio (x) = 0.19517 0.18171
# Poissons Ratio (y) = 0.37881 0.41882
# Poissons Ratio (z) = 0.31585 0.37509
#
# Static dielectric constant tensor:
#      x y z
#    x 4.246980 0.000000 0.000000 
#    y 0.000000 5.594810 0.000000 
#    z 0.000000 0.000000 3.702250 
# 
# 
# High freq. dielectric constant tensor:
#      x y z
#    x 1.783190 0.000000 0.000000 
#    y 0.000000 1.739450 0.000000 
#    z 0.000000 0.000000 1.718310 
# 
# From -- ./inp_files/19534.got.cif
#   From: 2010.03.12/outbox.cif.g09.slc.cpg/sg50_10_cif.got.tgz:19534.got - 2010.04.16 13:23:21.
