data_PCOD8205210
_publ_section_title
;
Structure prediction by ZEFSAII (Michael W. Deem and Ramdas Pophale) SiO2 
 PCOD8205210
Probable space group: P B A N
;
_chemical_formula_sum "Si O2"
_cell_formula_units_Z 48
_cell_length_a 15.445021
_cell_length_b 15.970656
_cell_length_c 9.592427
_cell_angle_alpha 90.000000
_cell_angle_beta 90.000000
_cell_angle_gamma 90.000000
_cell_volume 2366.136316
_symmetry_space_group_name_H-M "P B A N"
_symmetry_group_IT_number 50
_space_group.IT_coordinate_system_code '2'
_symmetry_cell_setting 'orthorhombic'
loop_
_space_group_symop_operation_xyz
x,y,z
1/2-x,1/2-y,z
x,1/2-y,-z
1/2-x,y,-z
-x,-y,-z
1/2+x,1/2+y,-z
-x,1/2+y,z
1/2+x,-y,z
loop_
_atom_site_type_symbol
_atom_site_label
_atom_site_fract_x
_atom_site_fract_y
_atom_site_fract_z
Si Si1 0.750000 0.601409 0.000000
Si Si2 0.250000 0.915543 0.500000
Si Si3 0.998446 0.454181 0.283293
Si Si4 0.933507 0.110903 0.427816
Si Si5 0.415611 0.185973 0.105505
Si Si6 0.096983 0.202940 0.361538
Si Si7 0.823574 0.964702 0.731087
O O1 0.664925 0.657501 0.011886
O O2 0.760127 0.544831 0.137664
O O3 0.167052 0.860514 0.551946
O O4 0.221504 0.972684 0.373313
O O5 0.976480 0.400898 0.420443
O O6 0.914523 0.497678 0.216861
O O7 0.066058 0.525735 0.334678
O O8 0.032004 0.394881 0.158882
O O9 0.993247 0.181721 0.356429
O O10 0.380128 0.235136 0.237681
O O11 0.467804 0.250000 0.000000
O O12 0.125135 0.250000 0.500000
O O13 0.156682 0.121214 0.350105
#
# Coordination Sequence:
#
# PCOD8205210 Si02
#       7
#     4   4   8   8   8   8   8
#     4  12  25  40  52  88 131 154 194 246 301 358
#     4  10  20  38  64  90 116 146 198 266 290 338
#     4   9  19  38  63  83 117 158 205 244 285 370
#     4   9  18  37  62  92 112 149 210 248 293 350
#     4  12  24  40  58  86 128 158 195 249 303 366
#     4  11  22  38  62  87 116 164 199 242 303 372
#     4  10  23  39  60  90 118 161 203 244 305 356
#
# _framework density 20.286235999999999
#
# number of rings (size 3 to 8) (size 9 to 14) (size 15 to 20)
#    0.000    1.667    3.333    2.250    2.333    0.667 
#    3.000    0.417    0.000    0.000    0.000    0.000 
#    0.000    0.000    0.000    0.000    0.000    0.000 
#
# Total GULP energy -594990.073313 kJ/mol
# GULP energy per Si atom -12395.626527 kJ/mol
# Density = 2.024006 g / cm^3
# Si number density = 20.286236 Si / 1000 Ang^3
#
#
#
# Elastic Constant Matrix: (Units=GPa)
#
#
# Indices 1 2 3 4 5 6 
#
# 1 75.1508 1.0642 12.0343 0.0000 0.0000 0.0000
# 2 1.0642 53.8622 27.4458 0.0000 0.0000 0.0000
# 3 12.0343 27.4458 100.9523 0.0000 0.0000 0.0000
# 4 0.0000 0.0000 0.0000 32.7788 0.0000 0.0000
# 5 0.0000 0.0000 0.0000 0.0000 31.4329 0.0000
# 6 0.0000 0.0000 0.0000 0.0000 0.0000 8.1121
#
#
#
# Elastic Compliance Matrix: (Units=1/GPa)
#
#
# Indices 1 2 3 4 5 6 
#
# 1 0.013585 0.000646 -0.001795 0.000000 0.000000 0.000000
# 2 0.000646 0.021582 -0.005945 0.000000 0.000000 0.000000
# 3 -0.001795 -0.005945 0.011736 0.000000 0.000000 0.000000
# 4 0.000000 0.000000 0.000000 0.030507 0.000000 0.000000
# 5 0.000000 0.000000 0.000000 0.000000 0.031814 0.000000
# 6 0.000000 0.000000 0.000000 0.000000 0.000000 0.123272
#
#
# Mechanical properties :
#
#
# Convention : Reuss Voigt Hill
#
# Bulk Modulus (GPa) = 30.56596 34.56153 32.56374
# Shear Modulus (GPa) = 19.41081 27.09285 23.25183
#
# Velocity S-wave (km/s) = 3.09665 3.65845 3.38921
# Velocity P-wave (km/s) = 5.28069 5.90928 5.60381
#
# Compressibility (1/GPa) = 0.03271614
#
# Stress axis : x y z
#
# Youngs Moduli (GPa) = 73.61121 46.33439 85.20925
#
# Poissons Ratio (x) = -0.02995 0.15296
# Poissons Ratio (y) = -0.04758 0.50653
# Poissons Ratio (z) = 0.13214 0.27544
#
# Static dielectric constant tensor:
#      x y z
#    x 3.795990 0.000000 0.000000 
#    y 0.000000 3.658400 0.000000 
#    z 0.000000 0.000000 3.729610 
# 
# 
# High freq. dielectric constant tensor:
#      x y z
#    x 1.779740 0.000000 0.000000 
#    y 0.000000 1.780140 0.000000 
#    z 0.000000 0.000000 1.793320 
# 
# From -- ./inp_files/13012.got.cif
#   From: 2010.03.12/outbox.cif.g09.slc.cpg/sg50_7_cif.got.tgz:13012.got - 2010.04.16 13:23:21.
