data_PCOD8205268
_publ_section_title
;
Structure prediction by ZEFSAII (Michael W. Deem and Ramdas Pophale) SiO2 
 PCOD8205268
Probable space group: P B A N
;
_chemical_formula_sum "Si O2"
_cell_formula_units_Z 32
_cell_length_a 9.026827
_cell_length_b 30.073517
_cell_length_c 5.291547
_cell_angle_alpha 90.000000
_cell_angle_beta 90.000000
_cell_angle_gamma 90.000000
_cell_volume 1436.487984
_symmetry_space_group_name_H-M "P B A N"
_symmetry_group_IT_number 50
_space_group.IT_coordinate_system_code '2'
_symmetry_cell_setting 'orthorhombic'
loop_
_space_group_symop_operation_xyz
x,y,z
1/2-x,1/2-y,z
x,1/2-y,-z
1/2-x,y,-z
-x,-y,-z
1/2+x,1/2+y,-z
-x,1/2+y,z
1/2+x,-y,z
loop_
_atom_site_type_symbol
_atom_site_label
_atom_site_fract_x
_atom_site_fract_y
_atom_site_fract_z
Si Si1 0.498656 0.538693 0.700317
Si Si2 0.250000 0.250000 0.000000
Si Si3 0.750000 0.992665 0.000000
Si Si4 0.250000 0.750000 0.000000
Si Si5 0.994865 0.187270 0.884729
Si Si6 0.919235 0.362402 0.583468
O O1 0.500000 0.500000 0.500000
O O2 0.373355 0.526460 0.900713
O O3 0.455878 0.585916 0.591555
O O4 0.666016 0.540564 0.809129
O O5 0.357823 0.216734 0.149085
O O6 0.145012 0.780701 0.173892
O O7 0.015088 0.153401 0.655312
O O8 0.966627 0.162953 0.157060
O O9 0.750000 0.355112 0.500000
#
# Coordination Sequence:
#
# PCOD8205268 Si02
#       6
#     8   2   4   2   8   8
#     4  11  25  45  71 102 149 193 242 295 362 429
#     4  10  28  54  68 108 146 188 228 292 394 432
#     4  10  24  44  70 102 136 210 234 292 362 428
#     4  10  20  46  72 100 130 180 236 276 378 420
#     4  11  26  45  76 103 142 184 231 304 353 444
#     4  12  25  44  74 111 139 183 252 294 351 417
#
# _framework density 22.276551999999999
#
# number of rings (size 3 to 8) (size 9 to 14) (size 15 to 20)
#    0.000    1.000    2.500    2.250   10.500    8.000 
#    4.500    0.000    0.000    0.000    0.000    0.000 
#    0.000    0.000    0.000    0.000    0.000    0.000 
#
# Total GULP energy -396432.097659 kJ/mol
# GULP energy per Si atom -12388.503052 kJ/mol
# Density = 2.222585 g / cm^3
# Si number density = 22.276552 Si / 1000 Ang^3
#
#
#
# Elastic Constant Matrix: (Units=GPa)
#
#
# Indices 1 2 3 4 5 6 
#
# 1 144.6052 53.9629 43.8774 0.0000 0.0000 0.0000
# 2 53.9629 146.7913 65.6062 0.0000 0.0000 0.0000
# 3 43.8774 65.6062 147.7588 0.0000 0.0000 0.0000
# 4 0.0000 0.0000 0.0000 25.1530 0.0000 0.0000
# 5 0.0000 0.0000 0.0000 0.0000 14.6848 0.0000
# 6 0.0000 0.0000 0.0000 0.0000 0.0000 20.1526
#
#
#
# Elastic Compliance Matrix: (Units=1/GPa)
#
#
# Indices 1 2 3 4 5 6 
#
# 1 0.008232 -0.002413 -0.001373 0.000000 0.000000 0.000000
# 2 -0.002413 0.009206 -0.003371 0.000000 0.000000 0.000000
# 3 -0.001373 -0.003371 0.008672 0.000000 0.000000 0.000000
# 4 0.000000 0.000000 0.000000 0.039757 0.000000 0.000000
# 5 0.000000 0.000000 0.000000 0.000000 0.068098 0.000000
# 6 0.000000 0.000000 0.000000 0.000000 0.000000 0.049622
#
#
# Mechanical properties :
#
#
# Convention : Reuss Voigt Hill
#
# Bulk Modulus (GPa) = 84.77012 85.11649 84.94330
# Shear Modulus (GPa) = 24.77296 30.37866 27.57581
#
# Velocity S-wave (km/s) = 3.33838 3.69685 3.52218
# Velocity P-wave (km/s) = 7.27982 7.51759 7.39966
#
# Compressibility (1/GPa) = 0.01179661
#
# Stress axis : x y z
#
# Youngs Moduli (GPa) = 121.47098 108.62545 115.30775
#
# Poissons Ratio (x) = 0.26206 0.15837
# Poissons Ratio (y) = 0.29305 0.38872
# Poissons Ratio (z) = 0.16684 0.36619
#
# Static dielectric constant tensor:
#      x y z
#    x 4.344040 0.000000 0.000000 
#    y 0.000000 4.501020 0.000000 
#    z 0.000000 0.000000 4.049410 
# 
# 
# High freq. dielectric constant tensor:
#      x y z
#    x 1.894320 0.000000 0.000000 
#    y 0.000000 1.890630 0.000000 
#    z 0.000000 0.000000 1.867000 
# 
# From -- ./inp_files/1294.got.cif
#   From: 2010.03.12/outbox.cif.g09.slc.cpg/sg50_1_cif.got.tgz:1294.got - 2010.04.16 13:23:21.
