data_PCOD8205313
_publ_section_title
;
Structure prediction by ZEFSAII (Michael W. Deem and Ramdas Pophale) SiO2 
 PCOD8205313
Probable space group: P B A N
;
_chemical_formula_sum "Si O2"
_cell_formula_units_Z 44
_cell_length_a 5.099052
_cell_length_b 25.696816
_cell_length_c 15.916553
_cell_angle_alpha 90.000000
_cell_angle_beta 90.000000
_cell_angle_gamma 90.000000
_cell_volume 2085.536406
_symmetry_space_group_name_H-M "P B A N"
_symmetry_group_IT_number 50
_space_group.IT_coordinate_system_code '2'
_symmetry_cell_setting 'orthorhombic'
loop_
_space_group_symop_operation_xyz
x,y,z
1/2-x,1/2-y,z
x,1/2-y,-z
1/2-x,y,-z
-x,-y,-z
1/2+x,1/2+y,-z
-x,1/2+y,z
1/2+x,-y,z
loop_
_atom_site_type_symbol
_atom_site_label
_atom_site_fract_x
_atom_site_fract_y
_atom_site_fract_z
Si Si1 0.385477 0.799052 0.307791
Si Si2 0.250000 0.250000 0.170423
Si Si3 0.733356 0.857071 0.902693
Si Si4 0.492288 0.626806 0.554059
Si Si5 0.825874 0.033809 0.331285
Si Si6 0.249928 0.885805 0.194800
O O1 0.250000 0.750000 0.354236
O O2 0.532291 0.774113 0.229645
O O3 0.564526 0.829560 0.375622
O O4 0.189436 0.842044 0.266885
O O5 0.354038 0.203241 0.111034
O O6 0.514739 0.893744 0.858853
O O7 0.016715 0.868231 0.865142
O O8 0.750000 0.870644 0.000000
O O9 0.250000 0.649209 0.500000
O O10 0.392477 0.573285 0.594150
O O11 0.750000 0.616057 0.500000
O O12 0.839758 0.061164 0.240194
O O13 0.529228 0.013446 0.339544
#
# Coordination Sequence:
#
# PCOD8205313 Si02
#       6
#     8   4   8   8   8   8
#     4  10  21  39  61  82 123 172 208 248 297 364
#     4  10  21  36  59  86 122 164 224 244 283 360
#     4  11  21  36  60  91 128 162 197 254 312 352
#     4  11  26  42  60  93 129 157 204 262 317 373
#     4  11  23  42  71  92 114 160 210 258 317 372
#     4  10  22  39  61  90 124 158 207 253 298 377
#
# _framework density 21.097687000000001
#
# number of rings (size 3 to 8) (size 9 to 14) (size 15 to 20)
#    0.000    1.455    1.818    3.000    2.545    5.455 
#    0.000    1.818    0.000   10.909    0.000    0.000 
#    0.000    0.000    0.000    0.000    0.000    0.000 
#
# Total GULP energy -545464.024923 kJ/mol
# GULP energy per Si atom -12396.909657 kJ/mol
# Density = 2.104967 g / cm^3
# Si number density = 21.097687 Si / 1000 Ang^3
#
#
#
# Elastic Constant Matrix: (Units=GPa)
#
#
# Indices 1 2 3 4 5 6 
#
# 1 93.9124 17.6143 33.0896 0.0000 0.0000 0.0000
# 2 17.6143 78.3592 34.8236 0.0000 0.0000 0.0000
# 3 33.0896 34.8236 108.6690 0.0000 0.0000 0.0000
# 4 0.0000 0.0000 0.0000 38.7502 0.0000 0.0000
# 5 0.0000 0.0000 0.0000 0.0000 31.8187 0.0000
# 6 0.0000 0.0000 0.0000 0.0000 0.0000 26.5699
#
#
#
# Elastic Compliance Matrix: (Units=1/GPa)
#
#
# Indices 1 2 3 4 5 6 
#
# 1 0.012033 -0.001255 -0.003262 0.000000 0.000000 0.000000
# 2 -0.001255 0.015012 -0.004428 0.000000 0.000000 0.000000
# 3 -0.003262 -0.004428 0.011615 0.000000 0.000000 0.000000
# 4 0.000000 0.000000 0.000000 0.025806 0.000000 0.000000
# 5 0.000000 0.000000 0.000000 0.000000 0.031428 0.000000
# 6 0.000000 0.000000 0.000000 0.000000 0.000000 0.037637
#
#
# Mechanical properties :
#
#
# Convention : Reuss Voigt Hill
#
# Bulk Modulus (GPa) = 48.14988 50.22172 49.18580
# Shear Modulus (GPa) = 31.57680 32.45532 32.01606
#
# Velocity S-wave (km/s) = 3.87291 3.92642 3.89976
# Velocity P-wave (km/s) = 6.54761 6.66421 6.60617
#
# Compressibility (1/GPa) = 0.02076849
#
# Stress axis : x y z
#
# Youngs Moduli (GPa) = 83.10530 66.61358 86.09886
#
# Poissons Ratio (x) = 0.08362 0.28083
# Poissons Ratio (y) = 0.10432 0.38128
# Poissons Ratio (z) = 0.27107 0.29499
#
# Static dielectric constant tensor:
#      x y z
#    x 4.042890 0.000000 0.000000 
#    y 0.000000 4.147380 0.000000 
#    z 0.000000 0.000000 3.856080 
# 
# 
# High freq. dielectric constant tensor:
#      x y z
#    x 1.821080 0.000000 0.000000 
#    y 0.000000 1.823360 0.000000 
#    z 0.000000 0.000000 1.825850 
# 
# From -- ./inp_files/24042.got.cif
#   From: 2010.03.12/outbox.cif.g09.slc.cpg/sg50_13_cif.got.tgz:24042.got - 2010.04.16 13:23:21.
