data_PCOD8205832
_publ_section_title
;
Structure prediction by ZEFSAII (Michael W. Deem and Ramdas Pophale) SiO2 
 PCOD8205832
Probable space group: P B A N
;
_chemical_formula_sum "Si O2"
_cell_formula_units_Z 24
_cell_length_a 8.408455
_cell_length_b 10.350705
_cell_length_c 11.633448
_cell_angle_alpha 90.000000
_cell_angle_beta 90.000000
_cell_angle_gamma 90.000000
_cell_volume 1012.498966
_symmetry_space_group_name_H-M "P B A N"
_symmetry_group_IT_number 50
_space_group.IT_coordinate_system_code '2'
_symmetry_cell_setting 'orthorhombic'
loop_
_space_group_symop_operation_xyz
x,y,z
1/2-x,1/2-y,z
x,1/2-y,-z
1/2-x,y,-z
-x,-y,-z
1/2+x,1/2+y,-z
-x,1/2+y,z
1/2+x,-y,z
loop_
_atom_site_type_symbol
_atom_site_label
_atom_site_fract_x
_atom_site_fract_y
_atom_site_fract_z
Si Si1 0.924914 0.874440 0.950002
Si Si2 0.470310 0.643756 0.695708
Si Si3 0.649184 0.093610 0.384698
O O1 0.931232 0.867121 0.812696
O O2 0.018955 0.750000 0.000000
O O3 0.750000 0.869503 0.000000
O O4 0.000000 0.000000 0.000000
O O5 0.556805 0.542471 0.608853
O O6 0.474622 0.788641 0.641510
O O7 0.286656 0.597915 0.714381
O O8 0.750000 0.120074 0.500000
#
# Coordination Sequence:
#
# PCOD8205832 Si02
#       3
#     8   8   8
#     4  11  24  42  65  98 132 176 230 281 339 404
#     4  11  23  44  68  98 139 180 228 287 342 410
#     4  11  25  45  70 104 139 183 232 283 349 418
#
# _framework density 23.703727000000001
#
# number of rings (size 3 to 8) (size 9 to 14) (size 15 to 20)
#    0.000    1.000    0.000    7.000    0.000    7.333 
#    0.000    3.333    0.000    0.000    0.000    0.000 
#    0.000    0.000    0.000    0.000    0.000    0.000 
#
# Total GULP energy -297426.916884 kJ/mol
# GULP energy per Si atom -12392.788204 kJ/mol
# Density = 2.364978 g / cm^3
# Si number density = 23.703727 Si / 1000 Ang^3
#
#
#
# Elastic Constant Matrix: (Units=GPa)
#
#
# Indices 1 2 3 4 5 6 
#
# 1 90.9786 71.1964 41.3762 0.0000 0.0000 0.0000
# 2 71.1964 226.1431 69.2671 0.0000 0.0000 0.0000
# 3 41.3762 69.2671 159.5803 0.0000 0.0000 0.0000
# 4 0.0000 0.0000 0.0000 37.3688 0.0000 0.0000
# 5 0.0000 0.0000 0.0000 0.0000 32.7202 0.0000
# 6 0.0000 0.0000 0.0000 0.0000 0.0000 47.6669
#
#
#
# Elastic Compliance Matrix: (Units=1/GPa)
#
#
# Indices 1 2 3 4 5 6 
#
# 1 0.015198 -0.004127 -0.002150 0.000000 0.000000 0.000000
# 2 -0.004127 0.006220 -0.001630 0.000000 0.000000 0.000000
# 3 -0.002150 -0.001630 0.007531 0.000000 0.000000 0.000000
# 4 0.000000 0.000000 0.000000 0.026760 0.000000 0.000000
# 5 0.000000 0.000000 0.000000 0.000000 0.030562 0.000000
# 6 0.000000 0.000000 0.000000 0.000000 0.000000 0.020979
#
#
# Mechanical properties :
#
#
# Convention : Reuss Voigt Hill
#
# Bulk Modulus (GPa) = 76.11557 93.37571 84.74564
# Shear Modulus (GPa) = 39.23320 43.20867 41.22093
#
# Velocity S-wave (km/s) = 4.07277 4.27413 4.17466
# Velocity P-wave (km/s) = 7.36868 7.98974 7.68549
#
# Compressibility (1/GPa) = 0.01313792
#
# Stress axis : x y z
#
# Youngs Moduli (GPa) = 65.79624 160.76087 132.77875
#
# Poissons Ratio (x) = 0.66338 0.28541
# Poissons Ratio (y) = 0.27151 0.21644
# Poissons Ratio (z) = 0.14143 0.26206
#
# Static dielectric constant tensor:
#      x y z
#    x 4.600980 0.000000 0.000000 
#    y 0.000000 3.025830 0.000000 
#    z 0.000000 0.000000 3.726520 
# 
# 
# High freq. dielectric constant tensor:
#      x y z
#    x 1.929340 0.000000 0.000000 
#    y 0.000000 1.968360 0.000000 
#    z 0.000000 0.000000 1.935880 
# 
# From -- ./inp_files/18141.got.cif
#   From: 2010.03.12/outbox.cif.g09.slc.cpg/sg50_10_cif.got.tgz:18141.got - 2010.04.16 13:23:21.
