data_PCOD8205247
_publ_section_title
;
Structure prediction by ZEFSAII (Michael W. Deem and Ramdas Pophale) SiO2 
 PCOD8205247
Probable space group: P B A N
;
_chemical_formula_sum "Si O2"
_cell_formula_units_Z 58
_cell_length_a 16.117232
_cell_length_b 19.270684
_cell_length_c 9.125354
_cell_angle_alpha 90.000000
_cell_angle_beta 90.000000
_cell_angle_gamma 90.000000
_cell_volume 2834.244473
_symmetry_space_group_name_H-M "P B A N"
_symmetry_group_IT_number 50
_space_group.IT_coordinate_system_code '2'
_symmetry_cell_setting 'orthorhombic'
loop_
_space_group_symop_operation_xyz
x,y,z
1/2-x,1/2-y,z
x,1/2-y,-z
1/2-x,y,-z
-x,-y,-z
1/2+x,1/2+y,-z
-x,1/2+y,z
1/2+x,-y,z
loop_
_atom_site_type_symbol
_atom_site_label
_atom_site_fract_x
_atom_site_fract_y
_atom_site_fract_z
Si Si1 0.663573 0.218721 0.838138
Si Si2 0.635879 0.438948 0.214794
Si Si3 0.750000 0.750000 0.000000
Si Si4 0.166504 0.052113 0.576726
Si Si5 0.621832 0.840726 0.824299
Si Si6 0.996257 0.764922 0.670300
Si Si7 0.913338 0.536605 0.016429
Si Si8 0.051980 0.081026 0.313501
O O1 0.750000 0.250000 0.778186
O O2 0.671742 0.135143 0.833051
O O3 0.589822 0.237634 0.729486
O O4 0.646014 0.250000 0.000000
O O5 0.682147 0.476039 0.351128
O O6 0.650520 0.487491 0.071171
O O7 0.541684 0.440463 0.275024
O O8 0.696352 0.797550 0.893071
O O9 0.250000 0.075605 0.500000
O O10 0.154515 0.109893 0.698288
O O11 0.086918 0.052141 0.467133
O O12 0.551372 0.792430 0.760271
O O13 0.578963 0.886515 0.949636
O O14 0.000856 0.750000 0.500000
O O15 0.945899 0.835850 0.692292
O O16 0.889091 0.547551 0.186922
O O17 0.000000 0.500000 0.000000
#
# Coordination Sequence:
#
# PCOD8205247 Si02
#       8
#     8   8   2   8   8   8   8   8
#     4  10  24  47  69  97 130 165 219 280 334 399
#     4   9  21  44  64  96 123 168 217 268 330 399
#     4  12  28  40  66 100 134 196 228 288 320 400
#     4  11  24  42  61  93 135 171 215 270 332 397
#     4  11  25  41  64  95 136 172 231 269 333 393
#     4  11  23  41  68  96 132 177 218 267 335 401
#     4   9  20  39  67  96 122 163 224 273 324 387
#     4  10  20  40  66  93 127 168 216 269 324 392
#
# _framework density 20.464006999999999
#
# number of rings (size 3 to 8) (size 9 to 14) (size 15 to 20)
#    0.000    1.793    1.379    1.241   10.621    0.276 
#    9.931    0.000    0.000    0.000    0.000    0.000 
#    0.000    0.000    0.000    0.000    0.000    0.000 
#
# Total GULP energy -718791.959422 kJ/mol
# GULP energy per Si atom -12392.964818 kJ/mol
# Density = 2.041743 g / cm^3
# Si number density = 20.464007 Si / 1000 Ang^3
#
#
#
# Elastic Constant Matrix: (Units=GPa)
#
#
# Indices 1 2 3 4 5 6 
#
# 1 74.1794 40.2549 39.0714 0.0000 0.0000 0.0000
# 2 40.2549 143.6955 68.5190 0.0000 0.0000 0.0000
# 3 39.0714 68.5190 135.3449 0.0000 0.0000 0.0000
# 4 0.0000 0.0000 0.0000 31.8346 0.0000 0.0000
# 5 0.0000 0.0000 0.0000 0.0000 44.5017 0.0000
# 6 0.0000 0.0000 0.0000 0.0000 0.0000 28.4717
#
#
#
# Elastic Compliance Matrix: (Units=1/GPa)
#
#
# Indices 1 2 3 4 5 6 
#
# 1 0.016933 -0.003181 -0.003278 0.000000 0.000000 0.000000
# 2 -0.003181 0.009771 -0.004028 0.000000 0.000000 0.000000
# 3 -0.003278 -0.004028 0.010374 0.000000 0.000000 0.000000
# 4 0.000000 0.000000 0.000000 0.031412 0.000000 0.000000
# 5 0.000000 0.000000 0.000000 0.000000 0.022471 0.000000
# 6 0.000000 0.000000 0.000000 0.000000 0.000000 0.035123
#
#
# Mechanical properties :
#
#
# Convention : Reuss Voigt Hill
#
# Bulk Modulus (GPa) = 62.09489 72.10117 67.09803
# Shear Modulus (GPa) = 32.80246 34.65323 33.72784
#
# Velocity S-wave (km/s) = 4.00801 4.11953 4.06415
# Velocity P-wave (km/s) = 7.19918 7.61164 7.40828
#
# Compressibility (1/GPa) = 0.01610438
#
# Stress axis : x y z
#
# Youngs Moduli (GPa) = 59.05455 102.34267 96.39192
#
# Poissons Ratio (x) = 0.32551 0.31599
# Poissons Ratio (y) = 0.18783 0.38831
# Poissons Ratio (z) = 0.19359 0.41229
#
# Static dielectric constant tensor:
#      x y z
#    x 3.514640 0.000000 0.000000 
#    y 0.000000 4.059750 0.000000 
#    z 0.000000 0.000000 4.170320 
# 
# 
# High freq. dielectric constant tensor:
#      x y z
#    x 1.784620 0.000000 0.000000 
#    y 0.000000 1.813920 0.000000 
#    z 0.000000 0.000000 1.816550 
# 
# From -- ./inp_files/14491.got.cif
#   From: 2010.03.12/outbox.cif.g09.slc.cpg/sg50_8_cif.got.tgz:14491.got - 2010.04.16 13:23:21.
