data_PCOD8205463
_publ_section_title
;
Structure prediction by ZEFSAII (Michael W. Deem and Ramdas Pophale) SiO2 
 PCOD8205463
Probable space group: P B A N
;
_chemical_formula_sum "Si O2"
_cell_formula_units_Z 26
_cell_length_a 14.132058
_cell_length_b 14.525049
_cell_length_c 5.123638
_cell_angle_alpha 90.000000
_cell_angle_beta 90.000000
_cell_angle_gamma 90.000000
_cell_volume 1051.723203
_symmetry_space_group_name_H-M "P B A N"
_symmetry_group_IT_number 50
_space_group.IT_coordinate_system_code '2'
_symmetry_cell_setting 'orthorhombic'
loop_
_space_group_symop_operation_xyz
x,y,z
1/2-x,1/2-y,z
x,1/2-y,-z
1/2-x,y,-z
-x,-y,-z
1/2+x,1/2+y,-z
-x,1/2+y,z
1/2+x,-y,z
loop_
_atom_site_type_symbol
_atom_site_label
_atom_site_fract_x
_atom_site_fract_y
_atom_site_fract_z
Si Si1 0.028349 0.856545 0.513107
Si Si2 0.355300 0.912699 0.982948
Si Si3 0.163587 0.077529 0.336706
Si Si4 0.750000 0.750000 0.500000
O O1 0.998114 0.750000 0.500000
O O2 0.097945 0.875367 0.278337
O O3 0.935151 0.921865 0.501139
O O4 0.083012 0.881613 0.776515
O O5 0.349034 0.024696 0.939925
O O6 0.250000 0.870650 0.000000
O O7 0.250000 0.027845 0.500000
O O8 0.189939 0.185375 0.300957
#
# Coordination Sequence:
#
# PCOD8205463 Si02
#       4
#     8   8   8   2
#     4  12  25  47  73 106 143 195 246 299 365 438
#     4  12  27  45  72 103 148 193 244 302 361 435
#     4  10  21  46  75 108 145 187 245 309 380 433
#     4   8  20  44  82 100 154 180 250 312 382 432
#
# _framework density 24.721335
#
# number of rings (size 3 to 8) (size 9 to 14) (size 15 to 20)
#    0.923    0.000    1.538    5.538    0.000    6.154 
#    0.000    0.769    0.000    0.000    0.000    0.000 
#    0.000    0.000    0.000    0.000    0.000    0.000 
#
# Total GULP energy -322121.302779 kJ/mol
# GULP energy per Si atom -12389.280876 kJ/mol
# Density = 2.466507 g / cm^3
# Si number density = 24.721335 Si / 1000 Ang^3
#
#
#
# Elastic Constant Matrix: (Units=GPa)
#
#
# Indices 1 2 3 4 5 6 
#
# 1 225.1376 22.0097 80.0113 0.0000 0.0000 0.0000
# 2 22.0097 89.9946 35.9090 0.0000 0.0000 0.0000
# 3 80.0113 35.9090 165.2003 0.0000 0.0000 0.0000
# 4 0.0000 0.0000 0.0000 46.8626 0.0000 0.0000
# 5 0.0000 0.0000 0.0000 0.0000 32.6431 0.0000
# 6 0.0000 0.0000 0.0000 0.0000 0.0000 45.7754
#
#
#
# Elastic Compliance Matrix: (Units=1/GPa)
#
#
# Indices 1 2 3 4 5 6 
#
# 1 0.005373 -0.000302 -0.002537 0.000000 0.000000 0.000000
# 2 -0.000302 0.012184 -0.002502 0.000000 0.000000 0.000000
# 3 -0.002537 -0.002502 0.007826 0.000000 0.000000 0.000000
# 4 0.000000 0.000000 0.000000 0.021339 0.000000 0.000000
# 5 0.000000 0.000000 0.000000 0.000000 0.030634 0.000000
# 6 0.000000 0.000000 0.000000 0.000000 0.000000 0.021846
#
#
# Mechanical properties :
#
#
# Convention : Reuss Voigt Hill
#
# Bulk Modulus (GPa) = 68.02177 84.02138 76.02157
# Shear Modulus (GPa) = 43.56043 47.88306 45.72174
#
# Velocity S-wave (km/s) = 4.20224 4.40581 4.30523
# Velocity P-wave (km/s) = 7.14984 7.74227 7.45195
#
# Compressibility (1/GPa) = 0.01470118
#
# Stress axis : x y z
#
# Youngs Moduli (GPa) = 186.12639 82.07482 127.78462
#
# Poissons Ratio (x) = 0.02478 0.32413
# Poissons Ratio (y) = 0.05619 0.31974
# Poissons Ratio (z) = 0.47212 0.20537
#
# Static dielectric constant tensor:
#      x y z
#    x 4.899760 0.000000 0.000000 
#    y 0.000000 4.749060 0.000000 
#    z 0.000000 0.000000 3.756710 
# 
# 
# High freq. dielectric constant tensor:
#      x y z
#    x 2.014870 0.000000 0.000000 
#    y 0.000000 1.985160 0.000000 
#    z 0.000000 0.000000 1.960670 
# 
# From -- ./inp_files/2787.got.cif
#   From: 2010.03.12/outbox.cif.g09.slc.cpg/sg50_2_cif.got.tgz:2787.got - 2010.04.16 13:23:21.
