data_PCOD8205555
_publ_section_title
;
Structure prediction by ZEFSAII (Michael W. Deem and Ramdas Pophale) SiO2 
 PCOD8205555
Probable space group: P B A N
;
_chemical_formula_sum "Si O2"
_cell_formula_units_Z 56
_cell_length_a 13.650576
_cell_length_b 8.738471
_cell_length_c 20.446724
_cell_angle_alpha 90.000000
_cell_angle_beta 90.000000
_cell_angle_gamma 90.000000
_cell_volume 2438.990795
_symmetry_space_group_name_H-M "P B A N"
_symmetry_group_IT_number 50
_space_group.IT_coordinate_system_code '2'
_symmetry_cell_setting 'orthorhombic'
loop_
_space_group_symop_operation_xyz
x,y,z
1/2-x,1/2-y,z
x,1/2-y,-z
1/2-x,y,-z
-x,-y,-z
1/2+x,1/2+y,-z
-x,1/2+y,z
1/2+x,-y,z
loop_
_atom_site_type_symbol
_atom_site_label
_atom_site_fract_x
_atom_site_fract_y
_atom_site_fract_z
Si Si1 0.070050 0.107519 0.957910
Si Si2 0.081231 0.594469 0.412716
Si Si3 0.861863 0.982778 0.781903
Si Si4 0.610732 0.055527 0.437994
Si Si5 0.256948 0.430415 0.653117
Si Si6 0.983176 0.249060 0.827398
Si Si7 0.298571 0.906977 0.119835
O O1 0.010776 0.167699 0.895226
O O2 0.168221 0.013540 0.940069
O O3 0.106280 0.250000 0.000000
O O4 0.000000 0.000000 0.000000
O O5 0.112106 0.536091 0.484443
O O6 0.095454 0.774909 0.409995
O O7 0.134235 0.502783 0.352904
O O8 0.967350 0.556660 0.403863
O O9 0.802053 0.990606 0.715180
O O10 0.921060 0.824626 0.793769
O O11 0.939556 0.120985 0.779209
O O12 0.781927 0.000937 0.838996
O O13 0.714751 0.997621 0.414066
O O14 0.250000 0.250000 0.653575
O O15 0.897836 0.374441 0.838854
O O16 0.250000 0.750000 0.093743
#
# Coordination Sequence:
#
# PCOD8205555 Si02
#       7
#     8   8   8   8   8   8   8
#     4  12  23  45  79 110 144 185 233 294 367 445
#     4  10  22  43  68 102 142 181 241 299 365 440
#     4  11  27  47  74  97 141 199 238 303 363 432
#     4  10  22  42  71  99 140 190 230 303 375 416
#     4  12  27  41  64 103 139 184 249 293 353 441
#     4  11  23  49  71 100 145 184 235 299 364 431
#     4  10  24  46  74 107 147 188 237 298 368 432
#
# _framework density 22.960315000000001
#
# number of rings (size 3 to 8) (size 9 to 14) (size 15 to 20)
#    0.000    1.143    2.857    1.714    2.000   10.286 
#    0.000   13.571    0.000    0.000    0.000    0.000 
#    0.000    0.000    0.000    0.000    0.000    0.000 
#
# Total GULP energy -694360.973827 kJ/mol
# GULP energy per Si atom -12399.303104 kJ/mol
# Density = 2.290806 g / cm^3
# Si number density = 22.960315 Si / 1000 Ang^3
#
#
#
# Elastic Constant Matrix: (Units=GPa)
#
#
# Indices 1 2 3 4 5 6 
#
# 1 106.8641 48.3030 39.6198 0.0000 0.0000 0.0000
# 2 48.3030 102.5495 51.4348 0.0000 0.0000 0.0000
# 3 39.6198 51.4348 76.2021 0.0000 0.0000 0.0000
# 4 0.0000 0.0000 0.0000 30.6558 0.0000 0.0000
# 5 0.0000 0.0000 0.0000 0.0000 40.2941 0.0000
# 6 0.0000 0.0000 0.0000 0.0000 0.0000 56.7576
#
#
#
# Elastic Compliance Matrix: (Units=1/GPa)
#
#
# Indices 1 2 3 4 5 6 
#
# 1 0.012593 -0.004003 -0.003846 0.000000 0.000000 0.000000
# 2 -0.004003 0.016015 -0.008728 0.000000 0.000000 0.000000
# 3 -0.003846 -0.008728 0.021014 0.000000 0.000000 0.000000
# 4 0.000000 0.000000 0.000000 0.032620 0.000000 0.000000
# 5 0.000000 0.000000 0.000000 0.000000 0.024818 0.000000
# 6 0.000000 0.000000 0.000000 0.000000 0.000000 0.017619
#
#
# Mechanical properties :
#
#
# Convention : Reuss Voigt Hill
#
# Bulk Modulus (GPa) = 60.72433 62.70345 61.71389
# Shear Modulus (GPa) = 30.61470 35.29202 32.95336
#
# Velocity S-wave (km/s) = 3.65550 3.92482 3.79255
# Velocity P-wave (km/s) = 6.65747 6.92154 6.79079
#
# Compressibility (1/GPa) = 0.01646786
#
# Stress axis : x y z
#
# Youngs Moduli (GPa) = 79.41158 62.44333 47.58743
#
# Poissons Ratio (x) = 0.24993 0.18300
# Poissons Ratio (y) = 0.31785 0.41536
# Poissons Ratio (z) = 0.30539 0.54503
#
# Static dielectric constant tensor:
#      x y z
#    x 4.359720 0.000000 0.000000 
#    y 0.000000 4.306510 0.000000 
#    z 0.000000 0.000000 3.874740 
# 
# 
# High freq. dielectric constant tensor:
#      x y z
#    x 1.921980 0.000000 0.000000 
#    y 0.000000 1.918300 0.000000 
#    z 0.000000 0.000000 1.891720 
# 
# From -- ./inp_files/30977.got.cif
#   From: 2010.03.12/outbox.cif.g09.slc.cpg/sg50_16_cif.got.tgz:30977.got - 2010.04.16 13:23:21.
