data_PCOD8205516
_publ_section_title
;
Structure prediction by ZEFSAII (Michael W. Deem and Ramdas Pophale) SiO2 
 PCOD8205516
Probable space group: P B A N
;
_chemical_formula_sum "Si O2"
_cell_formula_units_Z 48
_cell_length_a 16.699813
_cell_length_b 8.926686
_cell_length_c 14.385490
_cell_angle_alpha 90.000000
_cell_angle_beta 90.000000
_cell_angle_gamma 90.000000
_cell_volume 2144.502348
_symmetry_space_group_name_H-M "P B A N"
_symmetry_group_IT_number 50
_space_group.IT_coordinate_system_code '2'
_symmetry_cell_setting 'orthorhombic'
loop_
_space_group_symop_operation_xyz
x,y,z
1/2-x,1/2-y,z
x,1/2-y,-z
1/2-x,y,-z
-x,-y,-z
1/2+x,1/2+y,-z
-x,1/2+y,z
1/2+x,-y,z
loop_
_atom_site_type_symbol
_atom_site_label
_atom_site_fract_x
_atom_site_fract_y
_atom_site_fract_z
Si Si1 0.093675 0.888737 0.853374
Si Si2 0.174809 0.859254 0.663688
Si Si3 0.343207 0.085182 0.983534
Si Si4 0.940552 0.117904 0.616376
Si Si5 0.067944 0.944886 0.176863
Si Si6 0.384884 0.097495 0.456518
O O1 0.161560 0.891752 0.772980
O O2 0.065356 0.719247 0.869209
O O3 0.019684 0.988247 0.824081
O O4 0.124982 0.956225 0.949073
O O5 0.250000 0.750000 0.648715
O O6 0.096505 0.785568 0.613458
O O7 0.182235 0.018626 0.609586
O O8 0.366375 0.042257 0.878256
O O9 0.381104 0.250000 0.000000
O O10 0.250000 0.093763 0.000000
O O11 0.908712 0.056366 0.715300
O O12 0.035972 0.135183 0.605011
O O13 0.903941 0.011388 0.540572
O O14 0.349526 0.250000 0.500000
#
# Coordination Sequence:
#
# PCOD8205516 Si02
#       6
#     8   8   8   8   8   8
#     4  11  24  42  72 101 139 182 237 294 357 432
#     4  11  25  44  69 103 145 190 234 300 365 438
#     4  11  26  45  68 100 143 188 235 296 364 431
#     4  10  22  40  67 102 139 185 231 289 355 431
#     4  11  23  41  69 101 137 180 237 294 352 432
#     4  11  22  40  71 102 138 183 239 293 353 431
#
# _framework density 22.382814
#
# number of rings (size 3 to 8) (size 9 to 14) (size 15 to 20)
#    0.000    1.167    1.667    4.500    7.000    3.333 
#    0.000    1.667    0.000    0.000    0.000    0.000 
#    0.000    0.000    0.000    0.000    0.000    0.000 
#
# Total GULP energy -595122.590553 kJ/mol
# GULP energy per Si atom -12398.387303 kJ/mol
# Density = 2.233187 g / cm^3
# Si number density = 22.382814 Si / 1000 Ang^3
#
#
#
# Elastic Constant Matrix: (Units=GPa)
#
#
# Indices 1 2 3 4 5 6 
#
# 1 72.4875 29.1836 32.7303 0.0000 0.0000 0.0000
# 2 29.1836 117.2110 65.4271 0.0000 0.0000 0.0000
# 3 32.7303 65.4271 113.1278 0.0000 0.0000 0.0000
# 4 0.0000 0.0000 0.0000 33.8114 0.0000 0.0000
# 5 0.0000 0.0000 0.0000 0.0000 23.0862 0.0000
# 6 0.0000 0.0000 0.0000 0.0000 0.0000 36.2719
#
#
#
# Elastic Compliance Matrix: (Units=1/GPa)
#
#
# Indices 1 2 3 4 5 6 
#
# 1 0.016209 -0.002094 -0.003479 0.000000 0.000000 0.000000
# 2 -0.002094 0.012870 -0.006837 0.000000 0.000000 0.000000
# 3 -0.003479 -0.006837 0.013800 0.000000 0.000000 0.000000
# 4 0.000000 0.000000 0.000000 0.029576 0.000000 0.000000
# 5 0.000000 0.000000 0.000000 0.000000 0.043316 0.000000
# 6 0.000000 0.000000 0.000000 0.000000 0.000000 0.027570
#
#
# Mechanical properties :
#
#
# Convention : Reuss Voigt Hill
#
# Bulk Modulus (GPa) = 55.37306 61.94537 58.65921
# Shear Modulus (GPa) = 28.70597 30.33292 29.51945
#
# Velocity S-wave (km/s) = 3.58509 3.68528 3.63553
# Velocity P-wave (km/s) = 6.47533 6.77081 6.62472
#
# Compressibility (1/GPa) = 0.01805932
#
# Stress axis : x y z
#
# Youngs Moduli (GPa) = 61.69318 77.70290 72.46246
#
# Poissons Ratio (x) = 0.16272 0.25207
# Poissons Ratio (y) = 0.12919 0.49544
# Poissons Ratio (z) = 0.21460 0.53127
#
# Static dielectric constant tensor:
#      x y z
#    x 7.973730 0.000000 0.000000 
#    y 0.000000 4.442750 0.000000 
#    z 0.000000 0.000000 -0.231800 
# 
# 
# High freq. dielectric constant tensor:
#      x y z
#    x 1.858730 0.000000 0.000000 
#    y 0.000000 1.897080 0.000000 
#    z 0.000000 0.000000 1.894870 
# 
# From -- ./inp_files/26879.got.cif
#   From: 2010.03.12/outbox.cif.g09.slc.cpg/sg50_14_cif.got.tgz:26879.got - 2010.04.16 13:23:21.
