data_PCOD8205130
_publ_section_title
;
Structure prediction by ZEFSAII (Michael W. Deem and Ramdas Pophale) SiO2 
 PCOD8205130
Probable space group: P B A N
;
_chemical_formula_sum "Si O2"
_cell_formula_units_Z 64
_cell_length_a 12.590456
_cell_length_b 27.091523
_cell_length_c 9.816218
_cell_angle_alpha 90.000000
_cell_angle_beta 90.000000
_cell_angle_gamma 90.000000
_cell_volume 3348.259230
_symmetry_space_group_name_H-M "P B A N"
_symmetry_group_IT_number 50
_space_group.IT_coordinate_system_code '2'
_symmetry_cell_setting 'orthorhombic'
loop_
_space_group_symop_operation_xyz
x,y,z
1/2-x,1/2-y,z
x,1/2-y,-z
1/2-x,y,-z
-x,-y,-z
1/2+x,1/2+y,-z
-x,1/2+y,z
1/2+x,-y,z
loop_
_atom_site_type_symbol
_atom_site_label
_atom_site_fract_x
_atom_site_fract_y
_atom_site_fract_z
Si Si1 0.142430 0.559267 0.855709
Si Si2 0.164746 0.661013 0.741515
Si Si3 0.529019 0.636068 0.444979
Si Si4 0.015089 0.029280 0.638898
Si Si5 0.867085 0.772231 0.363240
Si Si6 0.382267 0.542893 0.851403
Si Si7 0.596310 0.353829 0.284425
Si Si8 0.953835 0.252282 0.843362
O O1 0.149755 0.619139 0.858272
O O2 0.257483 0.536034 0.858371
O O3 0.095838 0.540446 0.712629
O O4 0.077195 0.540744 0.990143
O O5 0.280562 0.654365 0.670144
O O6 0.143750 0.715206 0.806437
O O7 0.078348 0.653098 0.626621
O O8 0.567004 0.581123 0.405868
O O9 0.629634 0.669018 0.395698
O O10 0.495244 0.643501 0.601444
O O11 0.082496 0.000951 0.752258
O O12 0.000000 0.000000 0.500000
O O13 0.750000 0.750000 0.340221
O O14 0.920124 0.750000 0.500000
O O15 0.937828 0.761400 0.233078
O O16 0.418956 0.595157 0.794071
O O17 0.575492 0.308348 0.185639
O O18 0.982193 0.250000 0.000000
#
# Coordination Sequence:
#
# PCOD8205130 Si02
#       8
#     8   8   8   8   8   8   8   8
#     4   9  20  37  56  80 114 156 192 229 289 349
#     4   9  20  33  55  84 120 155 182 227 280 349
#     4  10  20  37  56  86 115 147 196 244 289 345
#     4  11  21  36  58  85 115 147 192 246 290 339
#     4  10  21  41  63  78 105 151 195 238 293 340
#     4  10  20  36  57  81 115 156 191 231 287 353
#     4  11  19  33  56  86 120 153 187 221 289 353
#     4  11  22  35  56  88 118 144 186 236 280 342
#
# _framework density 19.114409999999999
#
# number of rings (size 3 to 8) (size 9 to 14) (size 15 to 20)
#    0.000    1.875    2.500    1.875    0.000    2.750 
#    0.000    5.000    0.000    4.500    0.000    0.000 
#    0.000    0.000    0.000    0.000    0.000    0.000 
#
# Total GULP energy -792890.194689 kJ/mol
# GULP energy per Si atom -12388.909292 kJ/mol
# Density = 1.907090 g / cm^3
# Si number density = 19.114410 Si / 1000 Ang^3
#
#
#
# Elastic Constant Matrix: (Units=GPa)
#
#
# Indices 1 2 3 4 5 6 
#
# 1 65.2995 41.3098 28.5924 0.0000 0.0000 0.0000
# 2 41.3098 147.0762 51.5904 0.0000 0.0000 0.0000
# 3 28.5924 51.5904 110.2362 0.0000 0.0000 0.0000
# 4 0.0000 0.0000 0.0000 27.6243 0.0000 0.0000
# 5 0.0000 0.0000 0.0000 0.0000 21.1707 0.0000
# 6 0.0000 0.0000 0.0000 0.0000 0.0000 25.0261
#
#
#
# Elastic Compliance Matrix: (Units=1/GPa)
#
#
# Indices 1 2 3 4 5 6 
#
# 1 0.019403 -0.004408 -0.002970 0.000000 0.000000 0.000000
# 2 -0.004408 0.009136 -0.003132 0.000000 0.000000 0.000000
# 3 -0.002970 -0.003132 0.011308 0.000000 0.000000 0.000000
# 4 0.000000 0.000000 0.000000 0.036200 0.000000 0.000000
# 5 0.000000 0.000000 0.000000 0.000000 0.047235 0.000000
# 6 0.000000 0.000000 0.000000 0.000000 0.000000 0.039958
#
#
# Mechanical properties :
#
#
# Convention : Reuss Voigt Hill
#
# Bulk Modulus (GPa) = 53.11658 62.84414 57.98036
# Shear Modulus (GPa) = 26.24179 28.17217 27.20698
#
# Velocity S-wave (km/s) = 3.70926 3.84327 3.77686
# Velocity P-wave (km/s) = 6.79661 7.25559 7.02984
#
# Compressibility (1/GPa) = 0.01882651
#
# Stress axis : x y z
#
# Youngs Moduli (GPa) = 51.53834 109.45651 88.43612
#
# Poissons Ratio (x) = 0.48250 0.26262
# Poissons Ratio (y) = 0.22719 0.27701
# Poissons Ratio (z) = 0.15305 0.34285
#
# Static dielectric constant tensor:
#      x y z
#    x 3.261170 0.000000 0.000000 
#    y 0.000000 3.828020 0.000000 
#    z 0.000000 0.000000 3.638670 
# 
# 
# High freq. dielectric constant tensor:
#      x y z
#    x 1.716680 0.000000 0.000000 
#    y 0.000000 1.756070 0.000000 
#    z 0.000000 0.000000 1.751930 
# 
# From -- ./inp_files/11867.got.cif
#   From: 2010.03.12/outbox.cif.g09.slc.cpg/sg50_6_cif.got.tgz:11867.got - 2010.04.16 13:23:21.
