data_PCOD8205378
_publ_section_title
;
Structure prediction by ZEFSAII (Michael W. Deem and Ramdas Pophale) SiO2 
 PCOD8205378
Probable space group: P B A N
;
_chemical_formula_sum "Si O2"
_cell_formula_units_Z 48
_cell_length_a 29.306002
_cell_length_b 9.094072
_cell_length_c 8.335103
_cell_angle_alpha 90.000000
_cell_angle_beta 90.000000
_cell_angle_gamma 90.000000
_cell_volume 2221.395737
_symmetry_space_group_name_H-M "P B A N"
_symmetry_group_IT_number 50
_space_group.IT_coordinate_system_code '2'
_symmetry_cell_setting 'orthorhombic'
loop_
_space_group_symop_operation_xyz
x,y,z
1/2-x,1/2-y,z
x,1/2-y,-z
1/2-x,y,-z
-x,-y,-z
1/2+x,1/2+y,-z
-x,1/2+y,z
1/2+x,-y,z
loop_
_atom_site_type_symbol
_atom_site_label
_atom_site_fract_x
_atom_site_fract_y
_atom_site_fract_z
Si Si1 0.068666 0.120873 0.191040
Si Si2 0.978573 0.384598 0.616565
Si Si3 0.760322 0.086812 0.813494
Si Si4 0.910713 0.542493 0.850163
Si Si5 0.340298 0.428775 0.336643
Si Si6 0.821433 0.907429 0.300119
O O1 0.085192 0.285328 0.174153
O O2 0.105287 0.046661 0.310220
O O3 0.017670 0.143544 0.253023
O O4 0.070465 0.017773 0.030753
O O5 0.964493 0.250000 0.500000
O O6 0.935912 0.443172 0.717837
O O7 0.000000 0.500000 0.500000
O O8 0.750000 0.250000 0.747317
O O9 0.812482 0.046561 0.770211
O O10 0.729208 0.964974 0.728322
O O11 0.750000 0.079019 0.000000
O O12 0.856498 0.514217 0.825952
O O13 0.334761 0.458373 0.522922
O O14 0.322490 0.268308 0.283762
#
# Coordination Sequence:
#
# PCOD8205378 Si02
#       6
#     8   8   8   8   8   8
#     4  10  21  39  65  90 124 161 208 260 308 372
#     4  12  23  40  63  90 127 163 209 257 310 372
#     4  11  24  41  58  87 128 162 197 249 310 370
#     4  10  21  40  62  93 123 162 207 258 313 366
#     4  10  21  38  66  92 116 158 205 256 303 361
#     4  10  21  39  65  91 120 153 210 253 301 370
#
# _framework density 21.608036999999999
#
# number of rings (size 3 to 8) (size 9 to 14) (size 15 to 20)
#    0.000    1.500    1.667    3.500    2.333    5.333 
#    6.000    0.000    0.000    0.000    0.000    0.000 
#    0.000    0.000    0.000    0.000    0.000    0.000 
#
# Total GULP energy -594831.509283 kJ/mol
# GULP energy per Si atom -12392.323110 kJ/mol
# Density = 2.155886 g / cm^3
# Si number density = 21.608037 Si / 1000 Ang^3
#
#
#
# Elastic Constant Matrix: (Units=GPa)
#
#
# Indices 1 2 3 4 5 6 
#
# 1 83.0700 9.7494 14.9531 0.0000 0.0000 0.0000
# 2 9.7494 68.8641 29.0746 0.0000 0.0000 0.0000
# 3 14.9531 29.0746 102.1643 0.0000 0.0000 0.0000
# 4 0.0000 0.0000 0.0000 30.6223 0.0000 0.0000
# 5 0.0000 0.0000 0.0000 0.0000 17.0984 0.0000
# 6 0.0000 0.0000 0.0000 0.0000 0.0000 22.3081
#
#
#
# Elastic Compliance Matrix: (Units=1/GPa)
#
#
# Indices 1 2 3 4 5 6 
#
# 1 0.012440 -0.001128 -0.001500 0.000000 0.000000 0.000000
# 2 -0.001128 0.016607 -0.004561 0.000000 0.000000 0.000000
# 3 -0.001500 -0.004561 0.011306 0.000000 0.000000 0.000000
# 4 0.000000 0.000000 0.000000 0.032656 0.000000 0.000000
# 5 0.000000 0.000000 0.000000 0.000000 0.058485 0.000000
# 6 0.000000 0.000000 0.000000 0.000000 0.000000 0.044827
#
#
# Mechanical properties :
#
#
# Convention : Reuss Voigt Hill
#
# Bulk Modulus (GPa) = 38.49823 40.18363 39.34093
# Shear Modulus (GPa) = 25.08073 27.36052 26.22062
#
# Velocity S-wave (km/s) = 3.41062 3.56226 3.48726
# Velocity P-wave (km/s) = 5.77625 5.96293 5.87033
#
# Compressibility (1/GPa) = 0.02597522
#
# Stress axis : x y z
#
# Youngs Moduli (GPa) = 80.38323 60.21665 88.45133
#
# Poissons Ratio (x) = 0.06793 0.13266
# Poissons Ratio (y) = 0.09067 0.40342
# Poissons Ratio (z) = 0.12056 0.27464
#
# Static dielectric constant tensor:
#      x y z
#    x 1.765540 0.000000 0.000000 
#    y 0.000000 3.723660 0.000000 
#    z 0.000000 0.000000 4.131370 
# 
# 
# High freq. dielectric constant tensor:
#      x y z
#    x 1.857480 0.000000 0.000000 
#    y 0.000000 1.825430 0.000000 
#    z 0.000000 0.000000 1.859220 
# 
# From -- ./inp_files/16928.got.cif
#   From: 2010.03.12/outbox.cif.g09.slc.cpg/sg50_9_cif.got.tgz:16928.got - 2010.04.16 13:23:21.
