data_PCOD8205612
_publ_section_title
;
Structure prediction by ZEFSAII (Michael W. Deem and Ramdas Pophale) SiO2 
 PCOD8205612
Probable space group: P B A N
;
_chemical_formula_sum "Si O2"
_cell_formula_units_Z 32
_cell_length_a 34.730767
_cell_length_b 5.146514
_cell_length_c 7.509818
_cell_angle_alpha 90.000000
_cell_angle_beta 90.000000
_cell_angle_gamma 90.000000
_cell_volume 1342.322732
_symmetry_space_group_name_H-M "P B A N"
_symmetry_group_IT_number 50
_space_group.IT_coordinate_system_code '2'
_symmetry_cell_setting 'orthorhombic'
loop_
_space_group_symop_operation_xyz
x,y,z
1/2-x,1/2-y,z
x,1/2-y,-z
1/2-x,y,-z
-x,-y,-z
1/2+x,1/2+y,-z
-x,1/2+y,z
1/2+x,-y,z
loop_
_atom_site_type_symbol
_atom_site_label
_atom_site_fract_x
_atom_site_fract_y
_atom_site_fract_z
Si Si1 0.767231 0.996034 0.698397
Si Si2 0.849061 0.850032 0.808050
Si Si3 0.479681 0.786861 0.290275
Si Si4 0.892302 0.166181 0.297180
O O1 0.750000 0.750000 0.803459
O O2 0.750000 0.000227 0.500000
O O3 0.813234 0.965168 0.695069
O O4 0.750000 0.250000 0.797516
O O5 0.870031 0.607787 0.714182
O O6 0.876626 0.100520 0.827801
O O7 0.835273 0.750000 0.000000
O O8 0.484861 0.750000 0.500000
O O9 0.492444 0.509777 0.208790
O O10 0.436450 0.869277 0.239597
O O11 0.888536 0.250000 0.500000
#
# Coordination Sequence:
#
# PCOD8205612 Si02
#       4
#     8   8   8   8
#     4  10  23  41  68  93 122 167 213 276 319 395
#     4  12  26  44  66  99 140 175 217 279 344 399
#     4   9  17  33  59  94 133 167 221 284 326 368
#     4  11  24  40  70 102 131 182 230 274 330 402
#
# _framework density 23.839274
#
# number of rings (size 3 to 8) (size 9 to 14) (size 15 to 20)
#    0.000    1.500    0.000    4.500   10.500    4.500 
#    0.000    1.250    0.000   15.000    0.000    0.000 
#    0.000    0.000    0.000    0.000    0.000    0.000 
#
# Total GULP energy -396567.692633 kJ/mol
# GULP energy per Si atom -12392.740395 kJ/mol
# Density = 2.378502 g / cm^3
# Si number density = 23.839274 Si / 1000 Ang^3
#
#
#
# Elastic Constant Matrix: (Units=GPa)
#
#
# Indices 1 2 3 4 5 6 
#
# 1 193.6276 102.2644 28.4202 0.0000 0.0000 0.0000
# 2 102.2644 241.8856 7.4330 0.0000 0.0000 0.0000
# 3 28.4202 7.4330 47.3186 0.0000 0.0000 0.0000
# 4 0.0000 0.0000 0.0000 21.3297 0.0000 0.0000
# 5 0.0000 0.0000 0.0000 0.0000 9.0245 0.0000
# 6 0.0000 0.0000 0.0000 0.0000 0.0000 61.6916
#
#
#
# Elastic Compliance Matrix: (Units=1/GPa)
#
#
# Indices 1 2 3 4 5 6 
#
# 1 0.007309 -0.002969 -0.003923 0.000000 0.000000 0.000000
# 2 -0.002969 0.005361 0.000941 0.000000 0.000000 0.000000
# 3 -0.003923 0.000941 0.023342 0.000000 0.000000 0.000000
# 4 0.000000 0.000000 0.000000 0.046883 0.000000 0.000000
# 5 0.000000 0.000000 0.000000 0.000000 0.110810 0.000000
# 6 0.000000 0.000000 0.000000 0.000000 0.000000 0.016210
#
#
# Mechanical properties :
#
#
# Convention : Reuss Voigt Hill
#
# Bulk Modulus (GPa) = 41.47888 84.34076 62.90982
# Shear Modulus (GPa) = 21.75309 41.39010 31.57160
#
# Velocity S-wave (km/s) = 3.02402 4.17131 3.64311
# Velocity P-wave (km/s) = 5.44335 7.65869 6.64401
#
# Compressibility (1/GPa) = 0.02410865
#
# Stress axis : x y z
#
# Youngs Moduli (GPa) = 136.82341 186.54404 42.84153
#
# Poissons Ratio (x) = 0.55393 0.16808
# Poissons Ratio (y) = 0.40628 -0.04033
# Poissons Ratio (z) = 0.53679 -0.17561
#
# Static dielectric constant tensor:
#      x y z
#    x 4.324100 0.000000 0.000000 
#    y 0.000000 2.598310 0.000000 
#    z 0.000000 0.000000 3.735810 
# 
# 
# High freq. dielectric constant tensor:
#      x y z
#    x 1.949510 0.000000 0.000000 
#    y 0.000000 1.977850 0.000000 
#    z 0.000000 0.000000 1.909950 
# 
# From -- ./inp_files/16703.got.cif
#   From: 2010.03.12/outbox.cif.g09.slc.cpg/sg50_9_cif.got.tgz:16703.got - 2010.04.16 13:23:21.
