data_PCOD8205646
_publ_section_title
;
Structure prediction by ZEFSAII (Michael W. Deem and Ramdas Pophale) SiO2 
 PCOD8205646
Probable space group: P B A N
;
_chemical_formula_sum "Si O2"
_cell_formula_units_Z 56
_cell_length_a 12.217946
_cell_length_b 14.100532
_cell_length_c 14.003216
_cell_angle_alpha 90.000000
_cell_angle_beta 90.000000
_cell_angle_gamma 90.000000
_cell_volume 2412.467591
_symmetry_space_group_name_H-M "P B A N"
_symmetry_group_IT_number 50
_space_group.IT_coordinate_system_code '2'
_symmetry_cell_setting 'orthorhombic'
loop_
_space_group_symop_operation_xyz
x,y,z
1/2-x,1/2-y,z
x,1/2-y,-z
1/2-x,y,-z
-x,-y,-z
1/2+x,1/2+y,-z
-x,1/2+y,z
1/2+x,-y,z
loop_
_atom_site_type_symbol
_atom_site_label
_atom_site_fract_x
_atom_site_fract_y
_atom_site_fract_z
Si Si1 0.221763 0.140138 0.607327
Si Si2 0.035584 0.775816 0.798341
Si Si3 0.625616 0.223525 0.398797
Si Si4 0.891471 0.564862 0.249483
Si Si5 0.862209 0.086947 0.061261
Si Si6 0.496554 0.547401 0.398435
Si Si7 0.991617 0.426480 0.119234
O O1 0.250000 0.250000 0.622443
O O2 0.250000 0.106420 0.500000
O O3 0.283216 0.076739 0.686872
O O4 0.094227 0.121202 0.622243
O O5 0.076974 0.780273 0.690029
O O6 0.130278 0.821687 0.867529
O O7 0.925458 0.838301 0.802930
O O8 0.994763 0.670970 0.823892
O O9 0.750000 0.250000 0.406980
O O10 0.565983 0.250000 0.500000
O O11 0.613437 0.110165 0.386626
O O12 0.992360 0.534065 0.318874
O O13 0.887878 0.483440 0.167437
O O14 0.894873 0.989281 0.118757
O O15 0.750000 0.082879 0.000000
O O16 0.961922 0.101255 0.988098
O O17 0.500000 0.500000 0.500000
#
# Coordination Sequence:
#
# PCOD8205646 Si02
#       7
#     8   8   8   8   8   8   8
#     4  11  25  42  67  94 137 199 254 303 371 452
#     4  11  23  44  74 104 148 194 240 310 379 448
#     4  11  26  43  67 105 149 189 243 305 365 440
#     4  11  24  43  67 101 140 189 245 301 372 448
#     4  10  24  44  75 106 139 182 244 306 374 448
#     4  12  24  43  68  95 143 193 251 308 370 438
#     4  10  23  45  70 104 145 183 237 309 371 450
#
# _framework density 23.212748000000001
#
# number of rings (size 3 to 8) (size 9 to 14) (size 15 to 20)
#    0.000    1.143    2.857    2.143    4.000    6.286 
#    0.000    0.000    0.000    7.714    0.000    0.000 
#    0.000    0.000    0.000    0.000    0.000    0.000 
#
# Total GULP energy -694000.019946 kJ/mol
# GULP energy per Si atom -12392.857499 kJ/mol
# Density = 2.315991 g / cm^3
# Si number density = 23.212748 Si / 1000 Ang^3
#
#
#
# Elastic Constant Matrix: (Units=GPa)
#
#
# Indices 1 2 3 4 5 6 
#
# 1 88.6311 46.8897 23.8021 0.0000 0.0000 0.0000
# 2 46.8897 147.1491 45.5682 0.0000 0.0000 0.0000
# 3 23.8021 45.5682 140.9965 0.0000 0.0000 0.0000
# 4 0.0000 0.0000 0.0000 25.6222 0.0000 0.0000
# 5 0.0000 0.0000 0.0000 0.0000 38.8307 0.0000
# 6 0.0000 0.0000 0.0000 0.0000 0.0000 30.4371
#
#
#
# Elastic Compliance Matrix: (Units=1/GPa)
#
#
# Indices 1 2 3 4 5 6 
#
# 1 0.013697 -0.004054 -0.001002 0.000000 0.000000 0.000000
# 2 -0.004054 0.008752 -0.002144 0.000000 0.000000 0.000000
# 3 -0.001002 -0.002144 0.007954 0.000000 0.000000 0.000000
# 4 0.000000 0.000000 0.000000 0.039029 0.000000 0.000000
# 5 0.000000 0.000000 0.000000 0.000000 0.025753 0.000000
# 6 0.000000 0.000000 0.000000 0.000000 0.000000 0.032855
#
#
# Mechanical properties :
#
#
# Convention : Reuss Voigt Hill
#
# Bulk Modulus (GPa) = 62.49046 67.69964 65.09505
# Shear Modulus (GPa) = 33.83561 36.34579 35.09070
#
# Velocity S-wave (km/s) = 3.82203 3.96127 3.89228
# Velocity P-wave (km/s) = 6.81590 7.08169 6.95007
#
# Compressibility (1/GPa) = 0.01600244
#
# Stress axis : x y z
#
# Youngs Moduli (GPa) = 73.01056 114.26388 125.71622
#
# Poissons Ratio (x) = 0.46325 0.12595
# Poissons Ratio (y) = 0.29600 0.26954
# Poissons Ratio (z) = 0.07315 0.24498
#
# Static dielectric constant tensor:
#      x y z
#    x 3.797640 0.000000 0.000000 
#    y 0.000000 4.328710 0.000000 
#    z 0.000000 0.000000 4.846680 
# 
# 
# High freq. dielectric constant tensor:
#      x y z
#    x 1.881430 0.000000 0.000000 
#    y 0.000000 1.927810 0.000000 
#    z 0.000000 0.000000 1.943650 
# 
# From -- ./inp_files/25931.got.cif
#   From: 2010.03.12/outbox.cif.g09.slc.cpg/sg50_13_cif.got.tgz:25931.got - 2010.04.16 13:23:21.
