data_PCOD8205426
_publ_section_title
;
Structure prediction by ZEFSAII (Michael W. Deem and Ramdas Pophale) SiO2 
 PCOD8205426
Probable space group: P B A N
;
_chemical_formula_sum "Si O2"
_cell_formula_units_Z 48
_cell_length_a 12.742969
_cell_length_b 22.669137
_cell_length_c 7.837059
_cell_angle_alpha 90.000000
_cell_angle_beta 90.000000
_cell_angle_gamma 90.000000
_cell_volume 2263.907770
_symmetry_space_group_name_H-M "P B A N"
_symmetry_group_IT_number 50
_space_group.IT_coordinate_system_code '2'
_symmetry_cell_setting 'orthorhombic'
loop_
_space_group_symop_operation_xyz
x,y,z
1/2-x,1/2-y,z
x,1/2-y,-z
1/2-x,y,-z
-x,-y,-z
1/2+x,1/2+y,-z
-x,1/2+y,z
1/2+x,-y,z
loop_
_atom_site_type_symbol
_atom_site_label
_atom_site_fract_x
_atom_site_fract_y
_atom_site_fract_z
Si Si1 0.368707 0.350282 0.495573
Si Si2 0.901845 0.107151 0.852250
Si Si3 0.046012 0.779165 0.333715
Si Si4 0.968275 0.156321 0.214049
Si Si5 0.200051 0.926605 0.684359
Si Si6 0.438823 0.032209 0.350578
O O1 0.250000 0.327338 0.500000
O O2 0.431537 0.302604 0.608831
O O3 0.418947 0.355671 0.304497
O O4 0.368801 0.414572 0.579795
O O5 0.783131 0.082923 0.838621
O O6 0.890587 0.165991 0.738428
O O7 0.977859 0.056911 0.783333
O O8 0.949175 0.123684 0.035479
O O9 0.101653 0.750000 0.500000
O O10 0.040615 0.727156 0.192033
O O11 0.878546 0.129147 0.337645
O O12 0.250000 0.937980 0.500000
O O13 0.136097 0.984879 0.741613
O O14 0.500000 0.000000 0.500000
#
# Coordination Sequence:
#
# PCOD8205426 Si02
#       6
#     8   8   8   8   8   8
#     4  10  21  40  68  95 124 177 234 267 322 411
#     4  11  24  41  64  97 134 167 214 279 341 389
#     4   9  20  41  65  91 127 171 220 266 325 405
#     4  11  23  40  63  98 134 163 215 286 337 383
#     4  12  22  39  66  91 125 175 222 261 327 414
#     4  11  21  41  64  89 127 176 220 263 321 400
#
# _framework density 21.202276999999999
#
# number of rings (size 3 to 8) (size 9 to 14) (size 15 to 20)
#    0.000    1.333    3.333    3.500    0.000    4.333 
#    0.000   10.000    0.000    8.000    0.000    0.000 
#    0.000    0.000    0.000    0.000    0.000    0.000 
#
# Total GULP energy -594859.309323 kJ/mol
# GULP energy per Si atom -12392.902278 kJ/mol
# Density = 2.115402 g / cm^3
# Si number density = 21.202277 Si / 1000 Ang^3
#
#
#
# Elastic Constant Matrix: (Units=GPa)
#
#
# Indices 1 2 3 4 5 6 
#
# 1 114.1747 56.9079 48.0038 0.0000 0.0000 0.0000
# 2 56.9079 153.2277 43.8138 0.0000 0.0000 0.0000
# 3 48.0038 43.8138 103.9943 0.0000 0.0000 0.0000
# 4 0.0000 0.0000 0.0000 38.6656 0.0000 0.0000
# 5 0.0000 0.0000 0.0000 0.0000 29.9919 0.0000
# 6 0.0000 0.0000 0.0000 0.0000 0.0000 18.2925
#
#
#
# Elastic Compliance Matrix: (Units=1/GPa)
#
#
# Indices 1 2 3 4 5 6 
#
# 1 0.012190 -0.003318 -0.004229 0.000000 0.000000 0.000000
# 2 -0.003318 0.008323 -0.001975 0.000000 0.000000 0.000000
# 3 -0.004229 -0.001975 0.012400 0.000000 0.000000 0.000000
# 4 0.000000 0.000000 0.000000 0.025863 0.000000 0.000000
# 5 0.000000 0.000000 0.000000 0.000000 0.033342 0.000000
# 6 0.000000 0.000000 0.000000 0.000000 0.000000 0.054667
#
#
# Mechanical properties :
#
#
# Convention : Reuss Voigt Hill
#
# Bulk Modulus (GPa) = 72.10179 74.31640 73.20910
# Shear Modulus (GPa) = 29.33342 32.23477 30.78410
#
# Velocity S-wave (km/s) = 3.72358 3.90339 3.81455
# Velocity P-wave (km/s) = 7.25032 7.44597 7.34880
#
# Compressibility (1/GPa) = 0.01386928
#
# Stress axis : x y z
#
# Youngs Moduli (GPa) = 82.03109 120.14427 80.64400
#
# Poissons Ratio (x) = 0.39866 0.34106
# Poissons Ratio (y) = 0.27220 0.15927
# Poissons Ratio (z) = 0.34692 0.23729
#
# Static dielectric constant tensor:
#      x y z
#    x 3.893870 0.000000 0.000000 
#    y 0.000000 4.458910 0.000000 
#    z 0.000000 0.000000 5.397600 
# 
# 
# High freq. dielectric constant tensor:
#      x y z
#    x 1.819080 0.000000 0.000000 
#    y 0.000000 1.856860 0.000000 
#    z 0.000000 0.000000 1.814480 
# 
# From -- ./inp_files/11553.got.cif
#   From: 2010.03.12/outbox.cif.g09.slc.cpg/sg50_6_cif.got.tgz:11553.got - 2010.04.16 13:23:21.
