data_PCOD8205124
_publ_section_title
;
Structure prediction by ZEFSAII (Michael W. Deem and Ramdas Pophale) SiO2 
 PCOD8205124
Probable space group: P B A N
;
_chemical_formula_sum "Si O2"
_cell_formula_units_Z 64
_cell_length_a 18.812230
_cell_length_b 15.953527
_cell_length_c 11.394837
_cell_angle_alpha 90.000000
_cell_angle_beta 90.000000
_cell_angle_gamma 90.000000
_cell_volume 3419.834652
_symmetry_space_group_name_H-M "P B A N"
_symmetry_group_IT_number 50
_space_group.IT_coordinate_system_code '2'
_symmetry_cell_setting 'orthorhombic'
loop_
_space_group_symop_operation_xyz
x,y,z
1/2-x,1/2-y,z
x,1/2-y,-z
1/2-x,y,-z
-x,-y,-z
1/2+x,1/2+y,-z
-x,1/2+y,z
1/2+x,-y,z
loop_
_atom_site_type_symbol
_atom_site_label
_atom_site_fract_x
_atom_site_fract_y
_atom_site_fract_z
Si Si1 0.710060 0.829912 0.621304
Si Si2 0.477800 0.033329 0.671682
Si Si3 0.774091 0.485091 0.636532
Si Si4 0.141644 0.571277 0.760857
Si Si5 0.891614 0.384131 0.754533
Si Si6 0.834115 0.345440 0.998566
Si Si7 0.412403 0.779332 0.620784
Si Si8 0.451269 0.129189 0.431776
O O1 0.750000 0.750000 0.687759
O O2 0.750000 0.833317 0.500000
O O3 0.624723 0.828165 0.600025
O O4 0.723088 0.919078 0.682556
O O5 0.526991 0.086980 0.757905
O O6 0.454758 0.093093 0.564041
O O7 0.406739 0.011009 0.744040
O O8 0.524886 0.950809 0.644599
O O9 0.750000 0.477130 0.500000
O O10 0.723165 0.444312 0.732312
O O11 0.849222 0.438152 0.655551
O O12 0.119500 0.633247 0.657780
O O13 0.132142 0.607205 0.890645
O O14 0.859603 0.394288 0.883377
O O15 0.893083 0.286650 0.721025
O O16 0.861743 0.250000 0.000000
O O17 0.750000 0.348103 0.000000
O O18 0.375164 0.750000 0.500000
O O19 0.495934 0.793541 0.593832
#
# Coordination Sequence:
#
# PCOD8205124 Si02
#       8
#     8   8   8   8   8   8   8   8
#     4  10  21  33  55  85 120 163 195 233 290 367
#     4  10  21  36  60  83 116 160 203 246 302 361
#     4  11  22  37  58  89 126 150 199 245 302 369
#     4  11  23  40  59  87 118 163 199 252 304 356
#     4  12  22  38  61  88 114 163 202 247 300 357
#     4  11  23  42  60  82 119 158 203 254 299 358
#     4  11  22  34  58  89 123 154 194 238 307 366
#     4  10  20  36  53  84 129 156 191 244 306 363
#
# _framework density 18.714355999999999
#
# number of rings (size 3 to 8) (size 9 to 14) (size 15 to 20)
#    0.000    1.250    5.000    2.250    3.500    2.000 
#    0.000    1.250    0.000    0.000    0.000    1.750 
#    0.000    0.000    0.000    0.000    0.000    0.000 
#
# Total GULP energy -792917.304216 kJ/mol
# GULP energy per Si atom -12389.332878 kJ/mol
# Density = 1.867176 g / cm^3
# Si number density = 18.714356 Si / 1000 Ang^3
#
#
#
# Elastic Constant Matrix: (Units=GPa)
#
#
# Indices 1 2 3 4 5 6 
#
# 1 83.0938 30.1813 21.5916 0.0000 0.0000 0.0000
# 2 30.1813 78.4396 19.9722 0.0000 0.0000 0.0000
# 3 21.5916 19.9722 94.5862 0.0000 0.0000 0.0000
# 4 0.0000 0.0000 0.0000 9.3366 0.0000 0.0000
# 5 0.0000 0.0000 0.0000 0.0000 -22.4510 0.0000
# 6 0.0000 0.0000 0.0000 0.0000 0.0000 40.5804
#
#
#
# Elastic Compliance Matrix: (Units=1/GPa)
#
#
# Indices 1 2 3 4 5 6 
#
# 1 0.014426 -0.004980 -0.002242 0.000000 0.000000 0.000000
# 2 -0.004980 0.015192 -0.002071 0.000000 0.000000 0.000000
# 3 -0.002242 -0.002071 0.011521 0.000000 0.000000 0.000000
# 4 0.000000 0.000000 0.000000 0.107105 0.000000 0.000000
# 5 0.000000 0.000000 0.000000 0.000000 -0.044541 0.000000
# 6 0.000000 0.000000 0.000000 0.000000 0.000000 0.024642
#
#
# Mechanical properties :
#
#
# Convention : Reuss Voigt Hill
#
# Bulk Modulus (GPa) = 44.33747 44.40110 44.36928
# Shear Modulus (GPa) = 32.37329 17.78485 25.07907
#
# Velocity S-wave (km/s) = 4.16368 3.08609 3.66471
# Velocity P-wave (km/s) = 6.84529 6.03952 6.45499
#
# Compressibility (1/GPa) = 0.02255429
#
# Stress axis : x y z
#
# Youngs Moduli (GPa) = 69.32001 65.82353 86.79531
#
# Poissons Ratio (x) = 0.32780 0.19455
# Poissons Ratio (y) = 0.34521 0.17976
# Poissons Ratio (z) = 0.15538 0.13633
#
# Static dielectric constant tensor:
#      x y z
#    x 3.610240 0.000000 0.000000 
#    y 0.000000 4.477020 0.000000 
#    z 0.000000 0.000000 3.096010 
# 
# 
# High freq. dielectric constant tensor:
#      x y z
#    x 1.734430 0.000000 0.000000 
#    y 0.000000 1.739730 0.000000 
#    z 0.000000 0.000000 1.687270 
# 
# From -- ./inp_files/21961.got.cif
#   From: 2010.03.12/outbox.cif.g09.slc.cpg/sg50_11_cif.got.tgz:21961.got - 2010.04.16 13:23:21.
