data_PCOD8205563
_publ_section_title
;
Structure prediction by ZEFSAII (Michael W. Deem and Ramdas Pophale) SiO2 
 PCOD8205563
Probable space group: P B A N
;
_chemical_formula_sum "Si O2"
_cell_formula_units_Z 40
_cell_length_a 14.209918
_cell_length_b 9.352020
_cell_length_c 14.574906
_cell_angle_alpha 90.000000
_cell_angle_beta 90.000000
_cell_angle_gamma 90.000000
_cell_volume 1936.880207
_symmetry_space_group_name_H-M "P B A N"
_symmetry_group_IT_number 50
_space_group.IT_coordinate_system_code '2'
_symmetry_cell_setting 'orthorhombic'
loop_
_space_group_symop_operation_xyz
x,y,z
1/2-x,1/2-y,z
x,1/2-y,-z
1/2-x,y,-z
-x,-y,-z
1/2+x,1/2+y,-z
-x,1/2+y,z
1/2+x,-y,z
loop_
_atom_site_type_symbol
_atom_site_label
_atom_site_fract_x
_atom_site_fract_y
_atom_site_fract_z
Si Si1 0.483520 0.515227 0.645003
Si Si2 0.508421 0.760155 0.770990
Si Si3 0.348185 0.327937 0.085376
Si Si4 0.860381 0.917623 0.512413
Si Si5 0.574198 0.105419 0.051767
O O1 0.453364 0.628226 0.724063
O O2 0.465857 0.360219 0.686802
O O3 0.592249 0.540051 0.610822
O O4 0.411927 0.521494 0.560210
O O5 0.600442 0.695155 0.818945
O O6 0.451357 0.849718 0.845481
O O7 0.250000 0.250000 0.091277
O O8 0.336833 0.497550 0.064776
O O9 0.405738 0.250000 0.000000
O O10 0.880537 0.750000 0.500000
O O11 0.750000 0.951518 0.500000
O O12 0.603620 0.250000 0.000000
O O13 0.500000 0.000000 0.000000
#
# Coordination Sequence:
#
# PCOD8205563 Si02
#       5
#     8   8   8   8   8
#     4  11  23  39  66 100 127 165 219 276 328 406
#     4  12  21  38  66  95 128 164 221 271 325 391
#     4  11  24  41  63  92 135 175 223 275 330 392
#     4  10  22  43  68  91 126 173 214 265 342 415
#     4  12  20  39  70  95 127 182 224 265 335 404
#
# _framework density 20.651768000000001
#
# number of rings (size 3 to 8) (size 9 to 14) (size 15 to 20)
#    0.000    0.800    8.000    0.000    0.000    1.600 
#    0.000    4.000    0.000    0.000    0.000    0.000 
#    0.000    0.000    0.000    0.000    0.000    0.000 
#
# Total GULP energy -495523.447732 kJ/mol
# GULP energy per Si atom -12388.086193 kJ/mol
# Density = 2.060476 g / cm^3
# Si number density = 20.651768 Si / 1000 Ang^3
#
#
#
# Elastic Constant Matrix: (Units=GPa)
#
#
# Indices 1 2 3 4 5 6 
#
# 1 79.2736 60.8637 38.6738 0.0000 0.0000 0.0000
# 2 60.8637 166.0281 49.7333 0.0000 0.0000 0.0000
# 3 38.6738 49.7333 115.0938 0.0000 0.0000 0.0000
# 4 0.0000 0.0000 0.0000 19.9883 0.0000 0.0000
# 5 0.0000 0.0000 0.0000 0.0000 21.5099 0.0000
# 6 0.0000 0.0000 0.0000 0.0000 0.0000 21.4877
#
#
#
# Elastic Compliance Matrix: (Units=1/GPa)
#
#
# Indices 1 2 3 4 5 6 
#
# 1 0.018943 -0.005786 -0.003865 0.000000 0.000000 0.000000
# 2 -0.005786 0.008686 -0.001809 0.000000 0.000000 0.000000
# 3 -0.003865 -0.001809 0.010769 0.000000 0.000000 0.000000
# 4 0.000000 0.000000 0.000000 0.050029 0.000000 0.000000
# 5 0.000000 0.000000 0.000000 0.000000 0.046490 0.000000
# 6 0.000000 0.000000 0.000000 0.000000 0.000000 0.046538
#
#
# Mechanical properties :
#
#
# Convention : Reuss Voigt Hill
#
# Bulk Modulus (GPa) = 64.61074 73.21522 68.91298
# Shear Modulus (GPa) = 23.86238 26.67217 25.26727
#
# Velocity S-wave (km/s) = 3.40290 3.59767 3.50164
# Velocity P-wave (km/s) = 6.84057 7.26546 7.05621
#
# Compressibility (1/GPa) = 0.01547730
#
# Stress axis : x y z
#
# Youngs Moduli (GPa) = 52.79114 115.12516 92.86005
#
# Poissons Ratio (x) = 0.66616 0.35888
# Poissons Ratio (y) = 0.30547 0.16799
# Poissons Ratio (z) = 0.20402 0.20827
#
# Static dielectric constant tensor:
#      x y z
#    x 3.509820 0.000000 0.000000 
#    y 0.000000 4.320090 0.000000 
#    z 0.000000 0.000000 3.884170 
# 
# 
# High freq. dielectric constant tensor:
#      x y z
#    x 1.764570 0.000000 0.000000 
#    y 0.000000 1.830670 0.000000 
#    z 0.000000 0.000000 1.825420 
# 
# From -- ./inp_files/24633.got.cif
#   From: 2010.03.12/outbox.cif.g09.slc.cpg/sg50_13_cif.got.tgz:24633.got - 2010.04.16 13:23:21.
