data_PCOD8205070
_publ_section_title
;
Structure prediction by ZEFSAII (Michael W. Deem and Ramdas Pophale) SiO2 
 PCOD8205070
Probable space group: P B A N
;
_chemical_formula_sum "Si O2"
_cell_formula_units_Z 64
_cell_length_a 9.059020
_cell_length_b 14.745913
_cell_length_c 25.481855
_cell_angle_alpha 90.000000
_cell_angle_beta 90.000000
_cell_angle_gamma 90.000000
_cell_volume 3403.955907
_symmetry_space_group_name_H-M "P B A N"
_symmetry_group_IT_number 50
_space_group.IT_coordinate_system_code '2'
_symmetry_cell_setting 'orthorhombic'
loop_
_space_group_symop_operation_xyz
x,y,z
1/2-x,1/2-y,z
x,1/2-y,-z
1/2-x,y,-z
-x,-y,-z
1/2+x,1/2+y,-z
-x,1/2+y,z
1/2+x,-y,z
loop_
_atom_site_type_symbol
_atom_site_label
_atom_site_fract_x
_atom_site_fract_y
_atom_site_fract_z
Si Si1 0.423399 0.083358 0.885625
Si Si2 0.923305 0.401967 0.499984
Si Si3 0.923590 0.249908 0.581524
Si Si4 0.449766 0.103894 0.766411
Si Si5 0.419407 0.759824 0.061689
Si Si6 0.417619 0.102185 0.121726
Si Si7 0.076013 0.237623 0.692240
Si Si8 0.115206 0.075388 0.758849
O O1 0.458167 0.124211 0.828239
O O2 0.517816 0.140895 0.926565
O O3 0.249258 0.085278 0.897773
O O4 0.476747 0.980887 0.892590
O O5 0.750000 0.420113 0.500000
O O6 0.969107 0.341448 0.550372
O O7 0.969138 0.341801 0.449440
O O8 0.000000 0.500000 0.500000
O O9 0.750000 0.250000 0.591275
O O10 0.007079 0.251692 0.635913
O O11 0.494515 0.192172 0.733586
O O12 0.288977 0.070150 0.750358
O O13 0.563106 0.026251 0.750760
O O14 0.250000 0.750000 0.080217
O O15 0.521406 0.689610 0.092561
O O16 0.434072 0.750000 0.000000
O O17 0.422613 0.117256 0.184255
O O18 0.250000 0.250000 0.688469
O O19 0.039635 0.138067 0.714670
#
# Coordination Sequence:
#
# PCOD8205070 Si02
#       8
#     8   8   8   8   8   8   8   8
#     4  10  20  37  60  82 107 141 180 222 267 318
#     4   9  19  37  58  76 100 135 175 219 262 306
#     4   9  20  37  53  75 106 138 173 213 260 310
#     4   9  19  35  54  78 107 139 175 213 257 310
#     4  11  24  39  55  79 109 140 178 223 271 324
#     4  10  20  37  60  82 107 141 180 222 267 318
#     4  10  20  34  52  77 111 143 171 211 258 305
#     4   9  19  35  54  78 107 139 175 213 257 310
#
# _framework density 18.801653999999999
#
# number of rings (size 3 to 8) (size 9 to 14) (size 15 to 20)
#    0.000    2.375    0.000    2.625    0.000    7.500 
#    0.000    7.500    0.000    0.000    0.000    0.000 
#    0.000    0.000    0.000    0.000    0.000    0.000 
#
# Total GULP energy -793590.641147 kJ/mol
# GULP energy per Si atom -12399.853768 kJ/mol
# Density = 1.875886 g / cm^3
# Si number density = 18.801654 Si / 1000 Ang^3
#
#
#
# Elastic Constant Matrix: (Units=GPa)
#
#
# Indices 1 2 3 4 5 6 
#
# 1 63.7706 21.8389 19.1840 0.0000 0.0000 0.0000
# 2 21.8389 67.0325 15.4879 0.0000 0.0000 0.0000
# 3 19.1840 15.4879 62.0449 0.0000 0.0000 0.0000
# 4 0.0000 0.0000 0.0000 20.9039 0.0000 0.0000
# 5 0.0000 0.0000 0.0000 0.0000 30.0374 0.0000
# 6 0.0000 0.0000 0.0000 0.0000 0.0000 34.0969
#
#
#
# Elastic Compliance Matrix: (Units=1/GPa)
#
#
# Indices 1 2 3 4 5 6 
#
# 1 0.018784 -0.005070 -0.004542 0.000000 0.000000 0.000000
# 2 -0.005070 0.017200 -0.002726 0.000000 0.000000 0.000000
# 3 -0.004542 -0.002726 0.018202 0.000000 0.000000 0.000000
# 4 0.000000 0.000000 0.000000 0.047838 0.000000 0.000000
# 5 0.000000 0.000000 0.000000 0.000000 0.033292 0.000000
# 6 0.000000 0.000000 0.000000 0.000000 0.000000 0.029328
#
#
# Mechanical properties :
#
#
# Convention : Reuss Voigt Hill
#
# Bulk Modulus (GPa) = 33.88748 33.98551 33.93650
# Shear Modulus (GPa) = 25.10579 26.09678 25.60129
#
# Velocity S-wave (km/s) = 3.65814 3.72964 3.69406
# Velocity P-wave (km/s) = 5.99211 6.05491 6.02359
#
# Compressibility (1/GPa) = 0.02950942
#
# Stress axis : x y z
#
# Youngs Moduli (GPa) = 53.23671 58.14019 54.93835
#
# Poissons Ratio (x) = 0.29479 0.24955
# Poissons Ratio (y) = 0.26992 0.14975
# Poissons Ratio (z) = 0.24182 0.15848
#
# Static dielectric constant tensor:
#      x y z
#    x 3.425200 0.000000 0.000000 
#    y 0.000000 2.385520 0.000000 
#    z 0.000000 0.000000 3.673960 
# 
# 
# High freq. dielectric constant tensor:
#      x y z
#    x 1.730280 0.000000 0.000000 
#    y 0.000000 1.738760 0.000000 
#    z 0.000000 0.000000 1.725660 
# 
# From -- ./inp_files/31606.got.cif
#   From: 2010.03.12/outbox.cif.g09.slc.cpg/sg50_16_cif.got.tgz:31606.got - 2010.04.16 13:23:21.
