data_PCOD8205198
_publ_section_title
;
Structure prediction by ZEFSAII (Michael W. Deem and Ramdas Pophale) SiO2 
 PCOD8205198
Probable space group: P B A N
;
_chemical_formula_sum "Si O2"
_cell_formula_units_Z 58
_cell_length_a 27.269705
_cell_length_b 9.373448
_cell_length_c 11.959403
_cell_angle_alpha 90.000000
_cell_angle_beta 90.000000
_cell_angle_gamma 90.000000
_cell_volume 3056.956895
_symmetry_space_group_name_H-M "P B A N"
_symmetry_group_IT_number 50
_space_group.IT_coordinate_system_code '2'
_symmetry_cell_setting 'orthorhombic'
loop_
_space_group_symop_operation_xyz
x,y,z
1/2-x,1/2-y,z
x,1/2-y,-z
1/2-x,y,-z
-x,-y,-z
1/2+x,1/2+y,-z
-x,1/2+y,z
1/2+x,-y,z
loop_
_atom_site_type_symbol
_atom_site_label
_atom_site_fract_x
_atom_site_fract_y
_atom_site_fract_z
Si Si1 0.487582 0.547319 0.257082
Si Si2 0.860462 0.128273 0.279458
Si Si3 0.312086 0.908543 0.814730
Si Si4 0.916631 0.577022 0.877910
Si Si5 0.400713 0.096126 0.867224
Si Si6 0.539417 0.319266 0.382196
Si Si7 0.250000 0.750000 0.000000
Si Si8 0.240372 0.916816 0.622298
O O1 0.528494 0.541711 0.161245
O O2 0.437256 0.476203 0.219497
O O3 0.507617 0.462757 0.366083
O O4 0.476823 0.710853 0.285107
O O5 0.845330 0.281273 0.232155
O O6 0.903032 0.146005 0.371509
O O7 0.815423 0.051362 0.342112
O O8 0.878006 0.031264 0.176634
O O9 0.282166 0.852637 0.921695
O O10 0.276489 0.973826 0.719085
O O11 0.345815 0.039878 0.850368
O O12 0.900127 0.735598 0.845217
O O13 0.917964 0.554370 0.009563
O O14 0.527570 0.250000 0.500000
O O15 0.250000 0.750000 0.613516
O O16 0.250000 0.987826 0.500000
#
# Coordination Sequence:
#
# PCOD8205198 Si02
#       8
#     8   8   8   8   8   8   2   8
#     4  11  21  41  57  84 120 152 196 243 290 355
#     4  10  20  38  59  88 118 150 194 248 289 346
#     4  11  21  35  62  88 116 154 192 249 289 358
#     4  10  23  39  57  86 120 157 190 241 292 358
#     4  11  22  38  61  84 120 155 197 231 302 355
#     4  11  23  36  61  86 117 155 199 243 296 346
#     4  12  20  36  58  94 124 140 196 252 308 332
#     4   9  19  35  59  86 116 149 195 242 295 342
#
# _framework density 18.973116999999998
#
# number of rings (size 3 to 8) (size 9 to 14) (size 15 to 20)
#    0.000    1.517    4.828    1.655    3.862    0.000 
#    0.000    0.690    0.000    0.828    0.000    0.000 
#    0.000    0.000    0.000    0.000    0.000    0.000 
#
# Total GULP energy -719322.513735 kJ/mol
# GULP energy per Si atom -12402.112306 kJ/mol
# Density = 1.892993 g / cm^3
# Si number density = 18.973117 Si / 1000 Ang^3
#
#
#
# Elastic Constant Matrix: (Units=GPa)
#
#
# Indices 1 2 3 4 5 6 
#
# 1 114.5661 24.3419 29.8013 0.0000 0.0000 0.0000
# 2 24.3419 50.8012 8.0004 0.0000 0.0000 0.0000
# 3 29.8013 8.0004 82.9656 0.0000 0.0000 0.0000
# 4 0.0000 0.0000 0.0000 22.1034 0.0000 0.0000
# 5 0.0000 0.0000 0.0000 0.0000 18.6904 0.0000
# 6 0.0000 0.0000 0.0000 0.0000 0.0000 24.6661
#
#
#
# Elastic Compliance Matrix: (Units=1/GPa)
#
#
# Indices 1 2 3 4 5 6 
#
# 1 0.010565 -0.004534 -0.003358 0.000000 0.000000 0.000000
# 2 -0.004534 0.021934 -0.000487 0.000000 0.000000 0.000000
# 3 -0.003358 -0.000487 0.013306 0.000000 0.000000 0.000000
# 4 0.000000 0.000000 0.000000 0.045242 0.000000 0.000000
# 5 0.000000 0.000000 0.000000 0.000000 0.053503 0.000000
# 6 0.000000 0.000000 0.000000 0.000000 0.000000 0.040541
#
#
# Mechanical properties :
#
#
# Convention : Reuss Voigt Hill
#
# Bulk Modulus (GPa) = 34.42472 41.40225 37.91348
# Shear Modulus (GPa) = 23.63718 25.50460 24.57089
#
# Velocity S-wave (km/s) = 3.53345 3.67038 3.60257
# Velocity P-wave (km/s) = 5.90173 6.31119 6.10989
#
# Compressibility (1/GPa) = 0.02904890
#
# Stress axis : x y z
#
# Youngs Moduli (GPa) = 94.64936 45.59228 75.15259
#
# Poissons Ratio (x) = 0.20670 0.25235
# Poissons Ratio (y) = 0.42911 0.03657
# Poissons Ratio (z) = 0.31782 0.02218
#
# Static dielectric constant tensor:
#      x y z
#    x 3.602350 0.000000 0.000000 
#    y 0.000000 3.329680 0.000000 
#    z 0.000000 0.000000 3.614560 
# 
# 
# High freq. dielectric constant tensor:
#      x y z
#    x 1.749870 0.000000 0.000000 
#    y 0.000000 1.717160 0.000000 
#    z 0.000000 0.000000 1.741460 
# 
# From -- ./inp_files/19389.got.cif
#   From: 2010.03.12/outbox.cif.g09.slc.cpg/sg50_10_cif.got.tgz:19389.got - 2010.04.16 13:23:21.
