data_PCOD8205533
_publ_section_title
;
Structure prediction by ZEFSAII (Michael W. Deem and Ramdas Pophale) SiO2 
 PCOD8205533
Probable space group: P B A N
;
_chemical_formula_sum "Si O2"
_cell_formula_units_Z 40
_cell_length_a 11.907684
_cell_length_b 8.457835
_cell_length_c 18.506040
_cell_angle_alpha 90.000000
_cell_angle_beta 90.000000
_cell_angle_gamma 90.000000
_cell_volume 1863.802998
_symmetry_space_group_name_H-M "P B A N"
_symmetry_group_IT_number 50
_space_group.IT_coordinate_system_code '2'
_symmetry_cell_setting 'orthorhombic'
loop_
_space_group_symop_operation_xyz
x,y,z
1/2-x,1/2-y,z
x,1/2-y,-z
1/2-x,y,-z
-x,-y,-z
1/2+x,1/2+y,-z
-x,1/2+y,z
1/2+x,-y,z
loop_
_atom_site_type_symbol
_atom_site_label
_atom_site_fract_x
_atom_site_fract_y
_atom_site_fract_z
Si Si1 0.855320 0.655985 0.362660
Si Si2 0.913637 0.991387 0.934862
Si Si3 0.075441 0.896785 0.807113
Si Si4 0.750000 0.250000 0.106978
Si Si5 0.021817 0.876577 0.293470
Si Si6 0.250000 0.250000 0.500000
Si Si7 0.750000 0.750000 0.000000
O O1 0.750000 0.750000 0.325350
O O2 0.877485 0.482940 0.327969
O O3 0.828220 0.639229 0.448543
O O4 0.967011 0.763304 0.353672
O O5 0.825102 0.853502 0.946988
O O6 0.974682 0.949465 0.860008
O O7 0.849274 0.161705 0.936742
O O8 0.000000 0.000000 0.000000
O O9 0.194510 0.894226 0.847634
O O10 0.063560 0.718977 0.776439
O O11 0.076509 0.010465 0.737741
#
# Coordination Sequence:
#
# PCOD8205533 Si02
#       7
#     8   8   8   4   8   2   2
#     4   9  21  41  65  98 135 180 221 277 329 404
#     4  12  27  48  65  96 130 168 234 285 344 416
#     4  11  24  42  64 102 128 175 227 282 337 417
#     4  12  26  43  70  88 130 177 214 284 354 395
#     4  10  22  41  66  95 140 174 221 280 340 400
#     4   8  20  40  70  98 138 184 222 274 332 408
#     4  12  28  42  70  82 120 178 208 290 352 376
#
# _framework density 21.461493999999998
#
# number of rings (size 3 to 8) (size 9 to 14) (size 15 to 20)
#    0.600    0.800    2.000    2.400    5.600    3.600 
#    1.800    0.000    0.000    4.800    0.000    0.000 
#    0.000    0.000    0.000    0.000    0.000    0.000 
#
# Total GULP energy -495591.138492 kJ/mol
# GULP energy per Si atom -12389.778462 kJ/mol
# Density = 2.141265 g / cm^3
# Si number density = 21.461494 Si / 1000 Ang^3
#
#
#
# Elastic Constant Matrix: (Units=GPa)
#
#
# Indices 1 2 3 4 5 6 
#
# 1 98.8645 38.0438 43.3242 0.0000 0.0000 0.0000
# 2 38.0438 103.6035 50.3661 0.0000 0.0000 0.0000
# 3 43.3242 50.3661 115.2522 0.0000 0.0000 0.0000
# 4 0.0000 0.0000 0.0000 23.9754 0.0000 0.0000
# 5 0.0000 0.0000 0.0000 0.0000 17.5674 0.0000
# 6 0.0000 0.0000 0.0000 0.0000 0.0000 41.2493
#
#
#
# Elastic Compliance Matrix: (Units=1/GPa)
#
#
# Indices 1 2 3 4 5 6 
#
# 1 0.012804 -0.002999 -0.003502 0.000000 0.000000 0.000000
# 2 -0.002999 0.012958 -0.004536 0.000000 0.000000 0.000000
# 3 -0.003502 -0.004536 0.011975 0.000000 0.000000 0.000000
# 4 0.000000 0.000000 0.000000 0.041709 0.000000 0.000000
# 5 0.000000 0.000000 0.000000 0.000000 0.056924 0.000000
# 6 0.000000 0.000000 0.000000 0.000000 0.000000 0.024243
#
#
# Mechanical properties :
#
#
# Convention : Reuss Voigt Hill
#
# Bulk Modulus (GPa) = 63.84288 64.57648 64.20968
# Shear Modulus (GPa) = 26.60876 28.95752 27.78314
#
# Velocity S-wave (km/s) = 3.52495 3.67724 3.60190
# Velocity P-wave (km/s) = 6.81023 6.94148 6.87617
#
# Compressibility (1/GPa) = 0.01566345
#
# Stress axis : x y z
#
# Youngs Moduli (GPa) = 78.10253 77.17044 83.50512
#
# Poissons Ratio (x) = 0.23143 0.29247
# Poissons Ratio (y) = 0.23422 0.37874
# Poissons Ratio (z) = 0.27355 0.35001
#
# Static dielectric constant tensor:
#      x y z
#    x 3.973560 0.000000 0.000000 
#    y 0.000000 3.990210 0.000000 
#    z 0.000000 0.000000 3.684260 
# 
# 
# High freq. dielectric constant tensor:
#      x y z
#    x 1.838900 0.000000 0.000000 
#    y 0.000000 1.847020 0.000000 
#    z 0.000000 0.000000 1.828220 
# 
# From -- ./inp_files/30838.got.cif
#   From: 2010.03.12/outbox.cif.g09.slc.cpg/sg50_16_cif.got.tgz:30838.got - 2010.04.16 13:23:21.
