data_PCOD8205922
_publ_section_title
;
Structure prediction by ZEFSAII (Michael W. Deem and Ramdas Pophale) SiO2 
 PCOD8205922
Probable space group: P M M A
;
_chemical_formula_sum "Si O2"
_cell_formula_units_Z 40
_cell_length_a 8.810545
_cell_length_b 25.957351
_cell_length_c 10.016501
_cell_angle_alpha 90.000000
_cell_angle_beta 90.000000
_cell_angle_gamma 90.000000
_cell_volume 2290.757843
_symmetry_space_group_name_H-M "P M M A"
_symmetry_group_IT_number 51
_symmetry_cell_setting 'orthorhombic'
loop_
_space_group_symop_operation_xyz
x,y,z
1/2-x,-y,z
1/2+x,-y,-z
-x,y,-z
-x,-y,-z
1/2+x,y,-z
1/2-x,y,z
x,-y,z
loop_
_atom_site_type_symbol
_atom_site_label
_atom_site_fract_x
_atom_site_fract_y
_atom_site_fract_z
Si Si1 0.072815 0.059705 0.137571
Si Si2 0.574215 0.755182 0.356519
Si Si3 0.926420 0.131129 0.355216
Si Si4 0.429716 0.655764 0.351474
Si Si5 0.427054 0.444089 0.644805
O O1 0.250000 0.070426 0.129785
O O2 0.003740 0.090278 0.260056
O O3 0.034698 0.000000 0.161045
O O4 0.000000 0.079426 0.000000
O O5 0.500000 0.759910 0.500000
O O6 0.750000 0.740789 0.370614
O O7 0.551657 0.811523 0.290344
O O8 0.490015 0.708075 0.277926
O O9 0.750000 0.118021 0.369952
O O10 0.000000 0.126573 0.500000
O O11 0.500000 0.656175 0.500000
O O12 0.250000 0.655324 0.353695
O O13 0.491433 0.603668 0.277776
O O14 0.500000 0.447892 0.500000
O O15 0.250000 0.431640 0.630584
O O16 0.451944 0.500000 0.716912
#
# Coordination Sequence:
#
# PCOD8205922 Si02
#       5
#     8   8   8   8   8
#     4  10  21  37  56  76  99 128 160 194 233 280
#     4   9  16  26  39  56  79 106 138 176 219 266
#     4  10  20  33  51  74  99 127 159 198 240 281
#     4  10  16  21  31  45  64  92 126 166 212 260
#     4   9  15  21  28  38  55  82 119 164 210 254
#
# _framework density 17.461469999999998
#
# number of rings (size 3 to 8) (size 9 to 14) (size 15 to 20)
#    0.000    2.400    0.000    6.600    0.000    5.200 
#    0.000    0.000    0.000    0.000    0.000    0.000 
#    0.000    0.000    0.000    0.000    0.000    1.000 
#
# Total GULP energy -495525.281374 kJ/mol
# GULP energy per Si atom -12388.132034 kJ/mol
# Density = 1.742173 g / cm^3
# Si number density = 17.461470 Si / 1000 Ang^3
#
#
#
# Elastic Constant Matrix: (Units=GPa)
#
#
# Indices 1 2 3 4 5 6 
#
# 1 144.5549 78.0236 29.8922 0.0000 0.0000 0.0000
# 2 78.0236 133.9620 46.0627 0.0000 0.0000 0.0000
# 3 29.8922 46.0627 43.1990 0.0000 0.0000 0.0000
# 4 0.0000 0.0000 0.0000 -1.1148 0.0000 0.0000
# 5 0.0000 0.0000 0.0000 0.0000 17.2046 0.0000
# 6 0.0000 0.0000 0.0000 0.0000 0.0000 27.3244
#
#
#
# Elastic Compliance Matrix: (Units=1/GPa)
#
#
# Indices 1 2 3 4 5 6 
#
# 1 0.010125 -0.005507 -0.001134 0.000000 0.000000 0.000000
# 2 -0.005507 0.014782 -0.011951 0.000000 0.000000 0.000000
# 3 -0.001134 -0.011951 0.036676 0.000000 0.000000 0.000000
# 4 0.000000 0.000000 0.000000 -0.897002 0.000000 0.000000
# 5 0.000000 0.000000 0.000000 0.000000 0.058124 0.000000
# 6 0.000000 0.000000 0.000000 0.000000 0.000000 0.036597
#
#
# Mechanical properties :
#
#
# Convention : Reuss Voigt Hill
#
# Bulk Modulus (GPa) = 40.98485 69.96365 55.47425
# Shear Modulus (GPa) = -7.19030 19.86532 6.33751
#
# Velocity S-wave (km/s) = -2.03144 3.37659 1.90717
# Velocity P-wave (km/s) = 4.24502 7.44018 6.05708
#
# Compressibility (1/GPa) = 0.02439926
#
# Stress axis : x y z
#
# Youngs Moduli (GPa) = 98.76846 67.65192 27.26563
#
# Poissons Ratio (x) = 0.37256 0.03091
# Poissons Ratio (y) = 0.54393 0.32584
# Poissons Ratio (z) = 0.11198 0.80849
#
# Static dielectric constant tensor:
#      x y z
#    x 3.472140 0.000000 0.000000 
#    y 0.000000 4.826670 0.000000 
#    z 0.000000 0.000000 2.533690 
# 
# 
# High freq. dielectric constant tensor:
#      x y z
#    x 1.699580 0.000000 0.000000 
#    y 0.000000 1.711330 0.000000 
#    z 0.000000 0.000000 1.575170 
# 
# From -- ./inp_files/5480.got.cif
#   From: 2010.03.12/outbox.cif.g09.slc.cpg/sg51_3_cif.got.tgz:5480.got - 2010.04.16 13:43:02.
