data_PCOD8205222
_publ_section_title
;
Structure prediction by ZEFSAII (Michael W. Deem and Ramdas Pophale) SiO2 
 PCOD8205222
Probable space group: P B A N
;
_chemical_formula_sum "Si O2"
_cell_formula_units_Z 38
_cell_length_a 21.112072
_cell_length_b 13.123173
_cell_length_c 6.746011
_cell_angle_alpha 90.000000
_cell_angle_beta 90.000000
_cell_angle_gamma 90.000000
_cell_volume 1869.032088
_symmetry_space_group_name_H-M "P B A N"
_symmetry_group_IT_number 50
_space_group.IT_coordinate_system_code '2'
_symmetry_cell_setting 'orthorhombic'
loop_
_space_group_symop_operation_xyz
x,y,z
1/2-x,1/2-y,z
x,1/2-y,-z
1/2-x,y,-z
-x,-y,-z
1/2+x,1/2+y,-z
-x,1/2+y,z
1/2+x,-y,z
loop_
_atom_site_type_symbol
_atom_site_label
_atom_site_fract_x
_atom_site_fract_y
_atom_site_fract_z
Si Si1 0.425547 0.513661 0.767105
Si Si2 0.750000 0.572355 0.500000
Si Si3 0.250000 0.750000 0.500000
Si Si4 0.711406 0.088500 0.802570
Si Si5 0.386107 0.360403 0.441593
Si Si6 0.467688 0.359786 0.088314
O O1 0.359628 0.554835 0.856992
O O2 0.415513 0.458401 0.555672
O O3 0.474399 0.608681 0.763719
O O4 0.459730 0.431716 0.902506
O O5 0.752037 0.504330 0.698318
O O6 0.688878 0.643276 0.521550
O O7 0.293511 0.818435 0.354795
O O8 0.750000 0.120001 0.000000
O O9 0.414602 0.250000 0.500000
O O10 0.402336 0.369494 0.210298
O O11 0.481971 0.250000 0.000000
#
# Coordination Sequence:
#
# PCOD8205222 Si02
#       6
#     8   4   2   8   8   8
#     4  10  23  40  60  87 121 159 200 252 299 358
#     4   9  21  35  59  88 116 154 199 245 298 364
#     4  10  22  36  58  90 118 152 200 238 294 366
#     4  10  20  39  60  85 120 156 195 250 300 351
#     4  11  20  38  60  86 120 157 194 249 302 359
#     4  11  22  39  60  87 120 160 206 247 299 361
#
# _framework density 20.331377
#
# number of rings (size 3 to 8) (size 9 to 14) (size 15 to 20)
#    0.000    1.684    2.105    2.526    0.000    1.684 
#    1.895    2.105    0.000    0.000    0.000    0.000 
#    0.000    0.000    0.000    0.000    0.000    0.000 
#
# Total GULP energy -471036.259841 kJ/mol
# GULP energy per Si atom -12395.691048 kJ/mol
# Density = 2.028510 g / cm^3
# Si number density = 20.331377 Si / 1000 Ang^3
#
#
#
# Elastic Constant Matrix: (Units=GPa)
#
#
# Indices 1 2 3 4 5 6 
#
# 1 89.9993 45.6566 34.9736 0.0000 0.0000 0.0000
# 2 45.6566 115.6338 39.7366 0.0000 0.0000 0.0000
# 3 34.9736 39.7366 86.0282 0.0000 0.0000 0.0000
# 4 0.0000 0.0000 0.0000 28.1926 0.0000 0.0000
# 5 0.0000 0.0000 0.0000 0.0000 27.2555 0.0000
# 6 0.0000 0.0000 0.0000 0.0000 0.0000 19.8468
#
#
#
# Elastic Compliance Matrix: (Units=1/GPa)
#
#
# Indices 1 2 3 4 5 6 
#
# 1 0.014962 -0.004538 -0.003987 0.000000 0.000000 0.000000
# 2 -0.004538 0.011656 -0.003539 0.000000 0.000000 0.000000
# 3 -0.003987 -0.003539 0.014880 0.000000 0.000000 0.000000
# 4 0.000000 0.000000 0.000000 0.035470 0.000000 0.000000
# 5 0.000000 0.000000 0.000000 0.000000 0.036690 0.000000
# 6 0.000000 0.000000 0.000000 0.000000 0.000000 0.050386
#
#
# Mechanical properties :
#
#
# Convention : Reuss Voigt Hill
#
# Bulk Modulus (GPa) = 57.56841 59.15499 58.36170
# Shear Modulus (GPa) = 25.77831 26.47860 26.12845
#
# Velocity S-wave (km/s) = 3.56463 3.61273 3.58876
# Velocity P-wave (km/s) = 6.73191 6.82356 6.77789
#
# Compressibility (1/GPa) = 0.01737064
#
# Stress axis : x y z
#
# Youngs Moduli (GPa) = 66.83400 85.79384 67.20608
#
# Poissons Ratio (x) = 0.38931 0.26794
# Poissons Ratio (y) = 0.30327 0.23785
# Poissons Ratio (z) = 0.26645 0.30363
#
# Static dielectric constant tensor:
#      x y z
#    x 3.649200 0.000000 0.000000 
#    y 0.000000 3.844460 0.000000 
#    z 0.000000 0.000000 3.607680 
# 
# 
# High freq. dielectric constant tensor:
#      x y z
#    x 1.787100 0.000000 0.000000 
#    y 0.000000 1.802340 0.000000 
#    z 0.000000 0.000000 1.790940 
# 
# From -- ./inp_files/5923.got.cif
#   From: 2010.03.12/outbox.cif.g09.slc.cpg/sg50_3_cif.got.tgz:5923.got - 2010.04.16 13:23:21.
