data_PCOD8205069
_publ_section_title
;
Structure prediction by ZEFSAII (Michael W. Deem and Ramdas Pophale) SiO2 
 PCOD8205069
Probable space group: P B A N
;
_chemical_formula_sum "Si O2"
_cell_formula_units_Z 40
_cell_length_a 12.354449
_cell_length_b 8.374816
_cell_length_c 20.329813
_cell_angle_alpha 90.000000
_cell_angle_beta 90.000000
_cell_angle_gamma 90.000000
_cell_volume 2103.449253
_symmetry_space_group_name_H-M "P B A N"
_symmetry_group_IT_number 50
_space_group.IT_coordinate_system_code '2'
_symmetry_cell_setting 'orthorhombic'
loop_
_space_group_symop_operation_xyz
x,y,z
1/2-x,1/2-y,z
x,1/2-y,-z
1/2-x,y,-z
-x,-y,-z
1/2+x,1/2+y,-z
-x,1/2+y,z
1/2+x,-y,z
loop_
_atom_site_type_symbol
_atom_site_label
_atom_site_fract_x
_atom_site_fract_y
_atom_site_fract_z
Si Si1 0.993231 0.516470 0.655374
Si Si2 0.623016 0.228395 0.574457
Si Si3 0.126794 0.238337 0.268614
Si Si4 0.133318 0.176801 0.116606
Si Si5 0.444495 0.622082 0.047478
O O1 0.909543 0.445754 0.601790
O O2 0.928520 0.590369 0.717620
O O3 0.067299 0.643925 0.620344
O O4 0.073122 0.385155 0.682658
O O5 0.750000 0.250000 0.579348
O O6 0.582045 0.250000 0.500000
O O7 0.250000 0.250000 0.289606
O O8 0.114699 0.182480 0.194007
O O9 0.250000 0.250000 0.096301
O O10 0.037305 0.281450 0.086084
O O11 0.130809 0.987916 0.094916
O O12 0.380360 0.750000 0.000000
O O13 0.500000 0.500000 0.000000
#
# Coordination Sequence:
#
# PCOD8205069 Si02
#       5
#     8   8   8   8   8
#     4  10  20  34  53  76 105 137 174 217 263 309
#     4  10  20  34  52  75 104 138 176 217 261 311
#     4  10  20  34  54  78 104 137 174 214 261 312
#     4  10  20  36  56  78 107 140 173 216 266 313
#     4   9  19  35  54  78 105 134 173 214 256 313
#
# _framework density 19.016385
#
# number of rings (size 3 to 8) (size 9 to 14) (size 15 to 20)
#    0.000    2.200    0.000    3.000    0.000    3.600 
#    0.000    7.000    0.000   26.400    0.000    0.000 
#    0.000    0.000    0.000    0.000    0.000    0.000 
#
# Total GULP energy -495714.039589 kJ/mol
# GULP energy per Si atom -12392.850990 kJ/mol
# Density = 1.897310 g / cm^3
# Si number density = 19.016385 Si / 1000 Ang^3
#
#
#
# Elastic Constant Matrix: (Units=GPa)
#
#
# Indices 1 2 3 4 5 6 
#
# 1 86.0279 37.6825 42.7045 0.0000 0.0000 0.0000
# 2 37.6825 108.2686 49.7617 0.0000 0.0000 0.0000
# 3 42.7045 49.7617 107.4106 0.0000 0.0000 0.0000
# 4 0.0000 0.0000 0.0000 7.0664 0.0000 0.0000
# 5 0.0000 0.0000 0.0000 0.0000 25.1082 0.0000
# 6 0.0000 0.0000 0.0000 0.0000 0.0000 26.3281
#
#
#
# Elastic Compliance Matrix: (Units=1/GPa)
#
#
# Indices 1 2 3 4 5 6 
#
# 1 0.015316 -0.003217 -0.004599 0.000000 0.000000 0.000000
# 2 -0.003217 0.012411 -0.004471 0.000000 0.000000 0.000000
# 3 -0.004599 -0.004471 0.013210 0.000000 0.000000 0.000000
# 4 0.000000 0.000000 0.000000 0.141515 0.000000 0.000000
# 5 0.000000 0.000000 0.000000 0.000000 0.039828 0.000000
# 6 0.000000 0.000000 0.000000 0.000000 0.000000 0.037982
#
#
# Mechanical properties :
#
#
# Convention : Reuss Voigt Hill
#
# Bulk Modulus (GPa) = 61.11251 62.44497 61.77874
# Shear Modulus (GPa) = 17.22415 23.13774 20.18095
#
# Velocity S-wave (km/s) = 3.01284 3.49195 3.26120
# Velocity P-wave (km/s) = 6.65653 7.01192 6.83654
#
# Compressibility (1/GPa) = 0.01636326
#
# Stress axis : x y z
#
# Youngs Moduli (GPa) = 65.29012 80.57540 75.70142
#
# Poissons Ratio (x) = 0.25921 0.34816
# Poissons Ratio (y) = 0.21004 0.33844
# Poissons Ratio (z) = 0.30028 0.36023
#
# Static dielectric constant tensor:
#      x y z
#    x 3.484870 0.000000 0.000000 
#    y 0.000000 4.233870 0.000000 
#    z 0.000000 0.000000 4.219630 
# 
# 
# High freq. dielectric constant tensor:
#      x y z
#    x 1.732370 0.000000 0.000000 
#    y 0.000000 1.751840 0.000000 
#    z 0.000000 0.000000 1.750680 
# 
# From -- ./inp_files/28500.got.cif
#   From: 2010.03.12/outbox.cif.g09.slc.cpg/sg50_15_cif.got.tgz:28500.got - 2010.04.16 13:23:21.
