data_PCOD8205583
_publ_section_title
;
Structure prediction by ZEFSAII (Michael W. Deem and Ramdas Pophale) SiO2 
 PCOD8205583
Probable space group: P B A N
;
_chemical_formula_sum "Si O2"
_cell_formula_units_Z 42
_cell_length_a 8.368140
_cell_length_b 22.776704
_cell_length_c 11.342894
_cell_angle_alpha 90.000000
_cell_angle_beta 90.000000
_cell_angle_gamma 90.000000
_cell_volume 2161.940259
_symmetry_space_group_name_H-M "P B A N"
_symmetry_group_IT_number 50
_space_group.IT_coordinate_system_code '2'
_symmetry_cell_setting 'orthorhombic'
loop_
_space_group_symop_operation_xyz
x,y,z
1/2-x,1/2-y,z
x,1/2-y,-z
1/2-x,y,-z
-x,-y,-z
1/2+x,1/2+y,-z
-x,1/2+y,z
1/2+x,-y,z
loop_
_atom_site_type_symbol
_atom_site_label
_atom_site_fract_x
_atom_site_fract_y
_atom_site_fract_z
Si Si1 0.250000 0.750000 0.000000
Si Si2 0.995555 0.340054 0.033154
Si Si3 0.584947 0.482840 0.265318
Si Si4 0.345760 0.958687 0.897139
Si Si5 0.791854 0.683165 0.185489
Si Si6 0.800773 0.582886 0.368484
O O1 0.134411 0.792033 0.077431
O O2 0.911481 0.402424 0.034559
O O3 0.140306 0.344529 0.122122
O O4 0.055765 0.321569 0.901935
O O5 0.481320 0.498332 0.150014
O O6 0.729596 0.442621 0.214730
O O7 0.659135 0.542168 0.318815
O O8 0.474090 0.449617 0.361114
O O9 0.250000 0.993998 0.000000
O O10 0.750000 0.750000 0.219810
O O11 0.820307 0.644581 0.301334
O O12 0.750000 0.598614 0.500000
#
# Coordination Sequence:
#
# PCOD8205583 Si02
#       6
#     2   8   8   8   8   8
#     4  12  20  34  60  84 114 158 184 232 290 348
#     4  11  21  35  58  88 118 151 188 235 292 361
#     4  10  23  38  57  87 120 156 196 252 292 354
#     4  11  20  34  55  88 124 152 185 234 300 361
#     4  11  22  40  58  85 121 156 194 240 298 354
#     4  11  23  41  62  84 114 159 207 251 295 346
#
# _framework density 19.426994000000001
#
# number of rings (size 3 to 8) (size 9 to 14) (size 15 to 20)
#    0.000    1.143    4.762    2.857    0.000    1.905 
#    0.000    0.000    0.000    0.000    0.000    1.333 
#    0.000    0.000    0.000    0.000    0.000    0.000 
#
# Total GULP energy -520486.132958 kJ/mol
# GULP energy per Si atom -12392.526975 kJ/mol
# Density = 1.938278 g / cm^3
# Si number density = 19.426994 Si / 1000 Ang^3
#
#
#
# Elastic Constant Matrix: (Units=GPa)
#
#
# Indices 1 2 3 4 5 6 
#
# 1 99.2255 35.9962 32.5410 0.0000 0.0000 0.0000
# 2 35.9962 102.1923 41.3362 0.0000 0.0000 0.0000
# 3 32.5410 41.3362 87.0517 0.0000 0.0000 0.0000
# 4 0.0000 0.0000 0.0000 21.1987 0.0000 0.0000
# 5 0.0000 0.0000 0.0000 0.0000 22.9232 0.0000
# 6 0.0000 0.0000 0.0000 0.0000 0.0000 29.4114
#
#
#
# Elastic Compliance Matrix: (Units=1/GPa)
#
#
# Indices 1 2 3 4 5 6 
#
# 1 0.012203 -0.003036 -0.003120 0.000000 0.000000 0.000000
# 2 -0.003036 0.012867 -0.004975 0.000000 0.000000 0.000000
# 3 -0.003120 -0.004975 0.015016 0.000000 0.000000 0.000000
# 4 0.000000 0.000000 0.000000 0.047173 0.000000 0.000000
# 5 0.000000 0.000000 0.000000 0.000000 0.043624 0.000000
# 6 0.000000 0.000000 0.000000 0.000000 0.000000 0.034000
#
#
# Mechanical properties :
#
#
# Convention : Reuss Voigt Hill
#
# Bulk Modulus (GPa) = 56.10449 56.46846 56.28647
# Shear Modulus (GPa) = 25.89515 26.61308 26.25411
#
# Velocity S-wave (km/s) = 3.65492 3.70523 3.68016
# Velocity P-wave (km/s) = 6.83766 6.88732 6.86253
#
# Compressibility (1/GPa) = 0.01782389
#
# Stress axis : x y z
#
# Youngs Moduli (GPa) = 81.94934 77.71603 66.59574
#
# Poissons Ratio (x) = 0.23597 0.20776
# Poissons Ratio (y) = 0.24883 0.33131
# Poissons Ratio (z) = 0.25566 0.38664
#
# Static dielectric constant tensor:
#      x y z
#    x 4.039540 0.000000 0.000000 
#    y 0.000000 3.451960 0.000000 
#    z 0.000000 0.000000 3.274680 
# 
# 
# High freq. dielectric constant tensor:
#      x y z
#    x 1.785180 0.000000 0.000000 
#    y 0.000000 1.748940 0.000000 
#    z 0.000000 0.000000 1.719350 
# 
# From -- ./inp_files/19015.got.cif
#   From: 2010.03.12/outbox.cif.g09.slc.cpg/sg50_10_cif.got.tgz:19015.got - 2010.04.16 13:23:21.
