data_PCOD8205890
_publ_section_title
;
Structure prediction by ZEFSAII (Michael W. Deem and Ramdas Pophale) SiO2 
 PCOD8205890
Probable space group: P B A N
;
_chemical_formula_sum "Si O2"
_cell_formula_units_Z 48
_cell_length_a 14.697617
_cell_length_b 8.022298
_cell_length_c 17.148357
_cell_angle_alpha 90.000000
_cell_angle_beta 90.000000
_cell_angle_gamma 90.000000
_cell_volume 2021.939854
_symmetry_space_group_name_H-M "P B A N"
_symmetry_group_IT_number 50
_space_group.IT_coordinate_system_code '2'
_symmetry_cell_setting 'orthorhombic'
loop_
_space_group_symop_operation_xyz
x,y,z
1/2-x,1/2-y,z
x,1/2-y,-z
1/2-x,y,-z
-x,-y,-z
1/2+x,1/2+y,-z
-x,1/2+y,z
1/2+x,-y,z
loop_
_atom_site_type_symbol
_atom_site_label
_atom_site_fract_x
_atom_site_fract_y
_atom_site_fract_z
Si Si1 0.770485 0.440875 0.410715
Si Si2 0.442713 0.373773 0.927630
Si Si3 0.931704 0.931256 0.685388
Si Si4 0.122552 0.053247 0.698862
Si Si5 0.600155 0.558206 0.854203
Si Si6 0.708731 0.065097 0.859134
O O1 0.750000 0.250000 0.391273
O O2 0.750000 0.482716 0.500000
O O3 0.873379 0.485594 0.384321
O O4 0.703847 0.556325 0.362171
O O5 0.542128 0.459098 0.921180
O O6 0.428852 0.252930 0.852883
O O7 0.366178 0.520858 0.925660
O O8 0.431897 0.250000 0.000000
O O9 0.905594 0.743704 0.704674
O O10 0.916969 0.024781 0.769101
O O11 0.037999 0.946957 0.664093
O O12 0.158260 0.966406 0.777428
O O13 0.706682 0.556963 0.873087
O O14 0.750000 0.250000 0.865775
#
# Coordination Sequence:
#
# PCOD8205890 Si02
#       6
#     8   8   8   8   8   8
#     4  11  26  47  73 109 153 198 250 313 379 448
#     4  12  27  49  74 109 154 197 245 318 387 452
#     4  12  24  42  74 107 148 200 257 305 379 451
#     4  12  25  43  72 108 149 196 255 312 373 454
#     4  12  24  44  72 106 144 197 253 305 372 451
#     4  12  26  43  75 108 146 197 257 311 377 455
#
# _framework density 23.739577000000001
#
# number of rings (size 3 to 8) (size 9 to 14) (size 15 to 20)
#    0.000    0.167    5.000    4.000    2.333    3.333 
#    0.000    0.833    0.000    0.000    0.000    0.000 
#    0.000    0.000    0.000    0.000    0.000    0.000 
#
# Total GULP energy -595098.054296 kJ/mol
# GULP energy per Si atom -12397.876131 kJ/mol
# Density = 2.368555 g / cm^3
# Si number density = 23.739577 Si / 1000 Ang^3
#
#
#
# Elastic Constant Matrix: (Units=GPa)
#
#
# Indices 1 2 3 4 5 6 
#
# 1 182.3465 45.2724 48.5022 0.0000 0.0000 0.0000
# 2 45.2724 121.4796 39.9705 0.0000 0.0000 0.0000
# 3 48.5022 39.9705 85.9102 0.0000 0.0000 0.0000
# 4 0.0000 0.0000 0.0000 31.2882 0.0000 0.0000
# 5 0.0000 0.0000 0.0000 0.0000 41.9037 0.0000
# 6 0.0000 0.0000 0.0000 0.0000 0.0000 50.5012
#
#
#
# Elastic Compliance Matrix: (Units=1/GPa)
#
#
# Indices 1 2 3 4 5 6 
#
# 1 0.006669 -0.001472 -0.003080 0.000000 0.000000 0.000000
# 2 -0.001472 0.010045 -0.003842 0.000000 0.000000 0.000000
# 3 -0.003080 -0.003842 0.015167 0.000000 0.000000 0.000000
# 4 0.000000 0.000000 0.000000 0.031961 0.000000 0.000000
# 5 0.000000 0.000000 0.000000 0.000000 0.023864 0.000000
# 6 0.000000 0.000000 0.000000 0.000000 0.000000 0.019802
#
#
# Mechanical properties :
#
#
# Convention : Reuss Voigt Hill
#
# Bulk Modulus (GPa) = 66.26330 73.02514 69.64422
# Shear Modulus (GPa) = 38.66193 41.80469 40.23331
#
# Velocity S-wave (km/s) = 4.03995 4.20094 4.12123
# Velocity P-wave (km/s) = 7.05229 7.37281 7.21433
#
# Compressibility (1/GPa) = 0.01509131
#
# Stress axis : x y z
#
# Youngs Moduli (GPa) = 149.95242 99.55590 65.93361
#
# Poissons Ratio (x) = 0.14653 0.20309
# Poissons Ratio (y) = 0.22070 0.25334
# Poissons Ratio (z) = 0.46189 0.38253
#
# Static dielectric constant tensor:
#      x y z
#    x 4.626300 0.000000 0.000000 
#    y 0.000000 4.431830 0.000000 
#    z 0.000000 0.000000 4.324280 
# 
# 
# High freq. dielectric constant tensor:
#      x y z
#    x 1.956230 0.000000 0.000000 
#    y 0.000000 1.951550 0.000000 
#    z 0.000000 0.000000 1.927950 
# 
# From -- ./inp_files/29461.got.cif
#   From: 2010.03.12/outbox.cif.g09.slc.cpg/sg50_15_cif.got.tgz:29461.got - 2010.04.16 13:23:21.
