data_PCOD8205549
_publ_section_title
;
Structure prediction by ZEFSAII (Michael W. Deem and Ramdas Pophale) SiO2 
 PCOD8205549
Probable space group: P B A N
;
_chemical_formula_sum "Si O2"
_cell_formula_units_Z 48
_cell_length_a 8.923968
_cell_length_b 14.955296
_cell_length_c 16.186916
_cell_angle_alpha 90.000000
_cell_angle_beta 90.000000
_cell_angle_gamma 90.000000
_cell_volume 2160.315245
_symmetry_space_group_name_H-M "P B A N"
_symmetry_group_IT_number 50
_space_group.IT_coordinate_system_code '2'
_symmetry_cell_setting 'orthorhombic'
loop_
_space_group_symop_operation_xyz
x,y,z
1/2-x,1/2-y,z
x,1/2-y,-z
1/2-x,y,-z
-x,-y,-z
1/2+x,1/2+y,-z
-x,1/2+y,z
1/2+x,-y,z
loop_
_atom_site_type_symbol
_atom_site_label
_atom_site_fract_x
_atom_site_fract_y
_atom_site_fract_z
Si Si1 0.090270 0.291458 0.820972
Si Si2 0.496397 0.403152 0.827034
Si Si3 0.927813 0.904295 0.502191
Si Si4 0.697591 0.953031 0.093100
Si Si5 0.932251 0.160565 0.334712
Si Si6 0.895305 0.362708 0.342645
O O1 0.250000 0.250000 0.791663
O O2 0.102485 0.360365 0.898195
O O3 0.991656 0.204053 0.846482
O O4 0.024096 0.358463 0.749601
O O5 0.612686 0.455684 0.884720
O O6 0.334287 0.443884 0.843676
O O7 0.528177 0.421181 0.729587
O O8 0.750000 0.908674 0.500000
O O9 0.963944 0.852131 0.585975
O O10 0.004020 0.857626 0.424377
O O11 0.000000 0.000000 0.500000
O O12 0.750000 0.961855 0.000000
O O13 0.887297 0.261328 0.316211
O O14 0.778278 0.103846 0.351196
#
# Coordination Sequence:
#
# PCOD8205549 Si02
#       6
#     8   8   8   8   8   8
#     4   9  22  42  70 100 138 185 233 279 357 419
#     4  10  24  42  69 100 138 178 234 279 347 420
#     4  12  27  39  62  94 132 173 229 284 342 406
#     4  11  24  44  71 101 138 179 225 288 352 418
#     4  10  22  42  67  90 134 176 227 278 336 412
#     4  10  23  43  64  94 131 178 222 280 347 402
#
# _framework density 22.218979999999998
#
# number of rings (size 3 to 8) (size 9 to 14) (size 15 to 20)
#    0.000    1.667    0.000    2.500   11.667    5.000 
#    0.000    0.000    0.000    0.000    0.000    0.000 
#    0.000    0.000    0.000    0.000    0.000    0.000 
#
# Total GULP energy -594689.596136 kJ/mol
# GULP energy per Si atom -12389.366586 kJ/mol
# Density = 2.216841 g / cm^3
# Si number density = 22.218980 Si / 1000 Ang^3
#
#
#
# Elastic Constant Matrix: (Units=GPa)
#
#
# Indices 1 2 3 4 5 6 
#
# 1 138.5376 52.6172 47.1022 0.0000 0.0000 0.0000
# 2 52.6172 97.9425 60.9390 0.0000 0.0000 0.0000
# 3 47.1022 60.9390 113.2370 0.0000 0.0000 0.0000
# 4 0.0000 0.0000 0.0000 30.0769 0.0000 0.0000
# 5 0.0000 0.0000 0.0000 0.0000 40.0858 0.0000
# 6 0.0000 0.0000 0.0000 0.0000 0.0000 30.7700
#
#
#
# Elastic Compliance Matrix: (Units=1/GPa)
#
#
# Indices 1 2 3 4 5 6 
#
# 1 0.009300 -0.003893 -0.001774 0.000000 0.000000 0.000000
# 2 -0.003893 0.016979 -0.007518 0.000000 0.000000 0.000000
# 3 -0.001774 -0.007518 0.013615 0.000000 0.000000 0.000000
# 4 0.000000 0.000000 0.000000 0.033248 0.000000 0.000000
# 5 0.000000 0.000000 0.000000 0.000000 0.024946 0.000000
# 6 0.000000 0.000000 0.000000 0.000000 0.000000 0.032499
#
#
# Mechanical properties :
#
#
# Convention : Reuss Voigt Hill
#
# Bulk Modulus (GPa) = 73.93782 74.55933 74.24858
# Shear Modulus (GPa) = 30.96670 32.79046 31.87858
#
# Velocity S-wave (km/s) = 3.73729 3.84576 3.79191
# Velocity P-wave (km/s) = 7.20917 7.30406 7.25677
#
# Compressibility (1/GPa) = 0.01352488
#
# Stress axis : x y z
#
# Youngs Moduli (GPa) = 107.53095 58.89637 73.45019
#
# Poissons Ratio (x) = 0.22926 0.13026
# Poissons Ratio (y) = 0.41857 0.55221
# Poissons Ratio (z) = 0.19071 0.44279
#
# Static dielectric constant tensor:
#      x y z
#    x 4.461140 0.000000 0.000000 
#    y 0.000000 4.047620 0.000000 
#    z 0.000000 0.000000 3.626920 
# 
# 
# High freq. dielectric constant tensor:
#      x y z
#    x 1.882270 0.000000 0.000000 
#    y 0.000000 1.875020 0.000000 
#    z 0.000000 0.000000 1.867540 
# 
# From -- ./inp_files/28705.got.cif
#   From: 2010.03.12/outbox.cif.g09.slc.cpg/sg50_15_cif.got.tgz:28705.got - 2010.04.16 13:23:21.
