data_PCOD8205878
_publ_section_title
;
Structure prediction by ZEFSAII (Michael W. Deem and Ramdas Pophale) SiO2 
 PCOD8205878
Probable space group: P B A N
;
_chemical_formula_sum "Si O2"
_cell_formula_units_Z 40
_cell_length_a 24.500491
_cell_length_b 8.373526
_cell_length_c 8.112995
_cell_angle_alpha 90.000000
_cell_angle_beta 90.000000
_cell_angle_gamma 90.000000
_cell_volume 1664.425533
_symmetry_space_group_name_H-M "P B A N"
_symmetry_group_IT_number 50
_space_group.IT_coordinate_system_code '2'
_symmetry_cell_setting 'orthorhombic'
loop_
_space_group_symop_operation_xyz
x,y,z
1/2-x,1/2-y,z
x,1/2-y,-z
1/2-x,y,-z
-x,-y,-z
1/2+x,1/2+y,-z
-x,1/2+y,z
1/2+x,-y,z
loop_
_atom_site_type_symbol
_atom_site_label
_atom_site_fract_x
_atom_site_fract_y
_atom_site_fract_z
Si Si1 0.979203 0.960753 0.183148
Si Si2 0.634202 0.404626 0.195744
Si Si3 0.842277 0.446178 0.183410
Si Si4 0.566404 0.843965 0.327460
Si Si5 0.737417 0.566209 0.318047
O O1 0.959963 0.776454 0.192554
O O2 0.928013 0.065611 0.243284
O O3 0.026634 0.001145 0.317144
O O4 0.000000 0.000000 0.000000
O O5 0.647525 0.227977 0.261099
O O6 0.674199 0.531046 0.282504
O O7 0.638290 0.435808 0.002372
O O8 0.873611 0.589724 0.279027
O O9 0.777358 0.475314 0.191131
O O10 0.569539 0.750000 0.500000
O O11 0.750000 0.750000 0.297759
O O12 0.750000 0.503524 0.500000
#
# Coordination Sequence:
#
# PCOD8205878 Si02
#       5
#     8   8   8   8   8
#     4  12  25  45  74 105 146 193 249 300 369 451
#     4  11  25  46  73 107 141 194 246 306 359 446
#     4  11  25  45  74 104 145 188 248 299 371 437
#     4  12  27  46  72 109 150 194 245 313 379 447
#     4  11  26  46  72 106 147 192 243 305 375 441
#
# _framework density 24.032316999999999
#
# number of rings (size 3 to 8) (size 9 to 14) (size 15 to 20)
#    0.000    0.600    2.000    4.800    8.400    6.400 
#    0.000    0.000    0.000    0.000    0.000    0.000 
#    0.000    0.000    0.000    0.000    0.000    0.000 
#
# Total GULP energy -495992.745962 kJ/mol
# GULP energy per Si atom -12399.818649 kJ/mol
# Density = 2.397762 g / cm^3
# Si number density = 24.032317 Si / 1000 Ang^3
#
#
#
# Elastic Constant Matrix: (Units=GPa)
#
#
# Indices 1 2 3 4 5 6 
#
# 1 122.9967 21.7228 30.4140 0.0000 0.0000 0.0000
# 2 21.7228 108.5599 38.6503 0.0000 0.0000 0.0000
# 3 30.4140 38.6503 70.9243 0.0000 0.0000 0.0000
# 4 0.0000 0.0000 0.0000 38.6181 0.0000 0.0000
# 5 0.0000 0.0000 0.0000 0.0000 33.5082 0.0000
# 6 0.0000 0.0000 0.0000 0.0000 0.0000 50.7798
#
#
#
# Elastic Compliance Matrix: (Units=1/GPa)
#
#
# Indices 1 2 3 4 5 6 
#
# 1 0.009120 -0.000537 -0.003618 0.000000 0.000000 0.000000
# 2 -0.000537 0.011460 -0.006015 0.000000 0.000000 0.000000
# 3 -0.003618 -0.006015 0.018929 0.000000 0.000000 0.000000
# 4 0.000000 0.000000 0.000000 0.025895 0.000000 0.000000
# 5 0.000000 0.000000 0.000000 0.000000 0.029843 0.000000
# 6 0.000000 0.000000 0.000000 0.000000 0.000000 0.019693
#
#
# Mechanical properties :
#
#
# Convention : Reuss Voigt Hill
#
# Bulk Modulus (GPa) = 52.16764 53.78389 52.97577
# Shear Modulus (GPa) = 35.29315 38.69417 36.99366
#
# Velocity S-wave (km/s) = 3.83635 4.01694 3.92769
# Velocity P-wave (km/s) = 6.43256 6.62894 6.53149
#
# Compressibility (1/GPa) = 0.01916897
#
# Stress axis : x y z
#
# Youngs Moduli (GPa) = 109.65153 87.25632 52.82839
#
# Poissons Ratio (x) = 0.04683 0.19115
# Poissons Ratio (y) = 0.05884 0.31778
# Poissons Ratio (z) = 0.39676 0.52487
#
# Static dielectric constant tensor:
#      x y z
#    x 4.487800 0.000000 0.000000 
#    y 0.000000 4.629950 0.000000 
#    z 0.000000 0.000000 4.140820 
# 
# 
# High freq. dielectric constant tensor:
#      x y z
#    x 1.971900 0.000000 0.000000 
#    y 0.000000 1.965290 0.000000 
#    z 0.000000 0.000000 1.938920 
# 
# From -- ./inp_files/15788.got.cif
#   From: 2010.03.12/outbox.cif.g09.slc.cpg/sg50_8_cif.got.tgz:15788.got - 2010.04.16 13:23:21.
