data_PCOD8205127
_publ_section_title
;
Structure prediction by ZEFSAII (Michael W. Deem and Ramdas Pophale) SiO2 
 PCOD8205127
Probable space group: P B A N
;
_chemical_formula_sum "Si O2"
_cell_formula_units_Z 64
_cell_length_a 31.388148
_cell_length_b 12.348130
_cell_length_c 8.709529
_cell_angle_alpha 90.000000
_cell_angle_beta 90.000000
_cell_angle_gamma 90.000000
_cell_volume 3375.682205
_symmetry_space_group_name_H-M "P B A N"
_symmetry_group_IT_number 50
_space_group.IT_coordinate_system_code '2'
_symmetry_cell_setting 'orthorhombic'
loop_
_space_group_symop_operation_xyz
x,y,z
1/2-x,1/2-y,z
x,1/2-y,-z
1/2-x,y,-z
-x,-y,-z
1/2+x,1/2+y,-z
-x,1/2+y,z
1/2+x,-y,z
loop_
_atom_site_type_symbol
_atom_site_label
_atom_site_fract_x
_atom_site_fract_y
_atom_site_fract_z
Si Si1 0.833140 0.953429 0.677067
Si Si2 0.883257 0.347373 0.394914
Si Si3 0.946802 0.238309 0.179810
Si Si4 0.838800 0.906158 0.328335
Si Si5 0.077728 0.527936 0.340082
Si Si6 0.532615 0.800603 0.665730
Si Si7 0.886028 0.782258 0.823139
Si Si8 0.248012 0.375763 0.181567
O O1 0.834349 0.897230 0.510957
O O2 0.869093 0.903454 0.791562
O O3 0.786738 0.942387 0.747800
O O4 0.843490 0.080607 0.659441
O O5 0.865315 0.250000 0.500000
O O6 0.905968 0.299971 0.245710
O O7 0.917666 0.417827 0.492092
O O8 0.944306 0.111328 0.223086
O O9 0.988726 0.295657 0.244162
O O10 0.946567 0.250000 0.000000
O O11 0.852654 0.788957 0.270902
O O12 0.794256 0.934127 0.246640
O O13 0.874969 0.993935 0.281092
O O14 0.047398 0.424180 0.351627
O O15 0.526052 0.750000 0.500000
O O16 0.566402 0.729952 0.761007
O O17 0.884034 0.750000 0.000000
O O18 0.250000 0.250000 0.232191
O O19 0.250000 0.386520 0.000000
#
# Coordination Sequence:
#
# PCOD8205127 Si02
#       8
#     8   8   8   8   8   8   8   8
#     4  11  21  35  61  84 112 160 193 235 288 335
#     4   9  20  40  61  82 108 144 199 244 281 337
#     4  11  24  39  58  85 114 148 190 240 292 343
#     4  10  20  36  56  81 115 154 196 225 275 348
#     4   9  21  40  60  81 111 151 190 239 287 333
#     4  11  22  37  59  84 112 150 195 237 282 343
#     4  11  21  33  51  84 123 153 186 232 286 352
#     4  11  22  34  53  88 128 156 185 231 286 350
#
# _framework density 18.959129999999998
#
# number of rings (size 3 to 8) (size 9 to 14) (size 15 to 20)
#    0.000    1.625    1.250    5.250    0.000    7.000 
#    0.000    0.000    0.000   12.750    0.000    8.750 
#    0.000    0.000    0.000    0.000    0.000    0.000 
#
# Total GULP energy -793736.950335 kJ/mol
# GULP energy per Si atom -12402.139849 kJ/mol
# Density = 1.891598 g / cm^3
# Si number density = 18.959130 Si / 1000 Ang^3
#
#
#
# Elastic Constant Matrix: (Units=GPa)
#
#
# Indices 1 2 3 4 5 6 
#
# 1 83.4839 28.8964 43.3066 0.0000 0.0000 0.0000
# 2 28.8964 81.2878 37.0395 0.0000 0.0000 0.0000
# 3 43.3066 37.0395 128.3764 0.0000 0.0000 0.0000
# 4 0.0000 0.0000 0.0000 20.5184 0.0000 0.0000
# 5 0.0000 0.0000 0.0000 0.0000 -31.1507 0.0000
# 6 0.0000 0.0000 0.0000 0.0000 0.0000 20.1840
#
#
#
# Elastic Compliance Matrix: (Units=1/GPa)
#
#
# Indices 1 2 3 4 5 6 
#
# 1 0.015369 -0.003570 -0.004155 0.000000 0.000000 0.000000
# 2 -0.003570 0.014994 -0.003122 0.000000 0.000000 0.000000
# 3 -0.004155 -0.003122 0.010092 0.000000 0.000000 0.000000
# 4 0.000000 0.000000 0.000000 0.048737 0.000000 0.000000
# 5 0.000000 0.000000 0.000000 0.000000 -0.032102 0.000000
# 6 0.000000 0.000000 0.000000 0.000000 0.000000 0.049544
#
#
# Mechanical properties :
#
#
# Convention : Reuss Voigt Hill
#
# Bulk Modulus (GPa) = 53.30048 56.84811 55.07430
# Shear Modulus (GPa) = 37.15251 14.17071 25.66161
#
# Velocity S-wave (km/s) = 4.43155 2.73689 3.68302
# Velocity P-wave (km/s) = 7.37287 6.32749 6.87009
#
# Compressibility (1/GPa) = 0.01876156
#
# Stress axis : x y z
#
# Youngs Moduli (GPa) = 65.06456 66.69531 99.09115
#
# Poissons Ratio (x) = 0.23813 0.41168
# Poissons Ratio (y) = 0.23231 0.30931
# Poissons Ratio (z) = 0.27031 0.20819
#
# Static dielectric constant tensor:
#      x y z
#    x 3.488470 0.000000 0.000000 
#    y 0.000000 3.570130 0.000000 
#    z 0.000000 0.000000 3.942600 
# 
# 
# High freq. dielectric constant tensor:
#      x y z
#    x 1.736520 0.000000 0.000000 
#    y 0.000000 1.726970 0.000000 
#    z 0.000000 0.000000 1.741760 
# 
# From -- ./inp_files/17115.got.cif
#   From: 2010.03.12/outbox.cif.g09.slc.cpg/sg50_9_cif.got.tgz:17115.got - 2010.04.16 13:23:21.
