data_PCOD8205847
_publ_section_title
;
Structure prediction by ZEFSAII (Michael W. Deem and Ramdas Pophale) SiO2 
 PCOD8205847
Probable space group: P B A N
;
_chemical_formula_sum "Si O2"
_cell_formula_units_Z 40
_cell_length_a 11.569940
_cell_length_b 18.088256
_cell_length_c 8.478565
_cell_angle_alpha 90.000000
_cell_angle_beta 90.000000
_cell_angle_gamma 90.000000
_cell_volume 1774.394394
_symmetry_space_group_name_H-M "P B A N"
_symmetry_group_IT_number 50
_space_group.IT_coordinate_system_code '2'
_symmetry_cell_setting 'orthorhombic'
loop_
_space_group_symop_operation_xyz
x,y,z
1/2-x,1/2-y,z
x,1/2-y,-z
1/2-x,y,-z
-x,-y,-z
1/2+x,1/2+y,-z
-x,1/2+y,z
1/2+x,-y,z
loop_
_atom_site_type_symbol
_atom_site_label
_atom_site_fract_x
_atom_site_fract_y
_atom_site_fract_z
Si Si1 0.225930 0.903239 0.320514
Si Si2 0.052942 0.640669 0.125939
Si Si3 0.169716 0.044472 0.148850
Si Si4 0.208086 0.325758 0.322770
Si Si5 0.541856 0.198489 0.222377
O O1 0.250000 0.925448 0.500000
O O2 0.338891 0.896746 0.211408
O O3 0.151687 0.827279 0.325739
O O4 0.149328 0.969060 0.245154
O O5 0.021319 0.713275 0.228464
O O6 0.954503 0.578849 0.109057
O O7 0.076554 0.668649 0.950050
O O8 0.235095 0.102789 0.253752
O O9 0.250000 0.027595 0.000000
O O10 0.250000 0.250000 0.234475
O O11 0.250000 0.319843 0.500000
O O12 0.071527 0.336845 0.300170
#
# Coordination Sequence:
#
# PCOD8205847 Si02
#       5
#     8   8   8   8   8
#     4  12  30  46  70 103 147 194 235 295 364 429
#     4  11  25  46  75 105 138 185 245 297 353 429
#     4  12  25  45  74 104 140 184 241 291 358 423
#     4  11  24  41  68 108 144 184 231 292 361 423
#     4  11  24  47  74 104 140 186 243 296 351 429
#
# _framework density 22.542902000000002
#
# number of rings (size 3 to 8) (size 9 to 14) (size 15 to 20)
#    0.000    0.600    4.000    3.000    5.600    6.000 
#    0.000    0.000    0.000    0.000    0.000    0.000 
#    0.000    0.000    0.000    0.000    0.000    0.000 
#
# Total GULP energy -495924.370821 kJ/mol
# GULP energy per Si atom -12398.109271 kJ/mol
# Density = 2.249159 g / cm^3
# Si number density = 22.542902 Si / 1000 Ang^3
#
#
#
# Elastic Constant Matrix: (Units=GPa)
#
#
# Indices 1 2 3 4 5 6 
#
# 1 116.2662 19.1656 23.5887 0.0000 0.0000 0.0000
# 2 19.1656 101.6987 36.2594 0.0000 0.0000 0.0000
# 3 23.5887 36.2594 83.4739 0.0000 0.0000 0.0000
# 4 0.0000 0.0000 0.0000 34.5195 0.0000 0.0000
# 5 0.0000 0.0000 0.0000 0.0000 132.4988 0.0000
# 6 0.0000 0.0000 0.0000 0.0000 0.0000 36.0733
#
#
#
# Elastic Compliance Matrix: (Units=1/GPa)
#
#
# Indices 1 2 3 4 5 6 
#
# 1 0.009202 -0.000955 -0.002186 0.000000 0.000000 0.000000
# 2 -0.000955 0.011734 -0.004827 0.000000 0.000000 0.000000
# 3 -0.002186 -0.004827 0.014694 0.000000 0.000000 0.000000
# 4 0.000000 0.000000 0.000000 0.028969 0.000000 0.000000
# 5 0.000000 0.000000 0.000000 0.000000 0.007547 0.000000
# 6 0.000000 0.000000 0.000000 0.000000 0.000000 0.027721
#
#
# Mechanical properties :
#
#
# Convention : Reuss Voigt Hill
#
# Bulk Modulus (GPa) = 50.77481 51.05180 50.91331
# Shear Modulus (GPa) = 40.86042 55.44666 48.15354
#
# Velocity S-wave (km/s) = 4.26204 4.96482 4.62679
# Velocity P-wave (km/s) = 6.84050 7.45397 7.15381
#
# Compressibility (1/GPa) = 0.01969480
#
# Stress axis : x y z
#
# Youngs Moduli (GPa) = 108.67470 85.22246 68.05398
#
# Poissons Ratio (x) = 0.08138 0.14873
# Poissons Ratio (y) = 0.10377 0.32851
# Poissons Ratio (z) = 0.23751 0.41138
#
# Static dielectric constant tensor:
#      x y z
#    x 3.010780 0.000000 0.000000 
#    y 0.000000 3.632530 0.000000 
#    z 0.000000 0.000000 3.930100 
# 
# 
# High freq. dielectric constant tensor:
#      x y z
#    x 1.893600 0.000000 0.000000 
#    y 0.000000 1.908070 0.000000 
#    z 0.000000 0.000000 1.884160 
# 
# From -- ./inp_files/11029.got.cif
#   From: 2010.03.12/outbox.cif.g09.slc.cpg/sg50_6_cif.got.tgz:11029.got - 2010.04.16 13:23:21.
