data_PCOD8205025
_publ_section_title
;
Structure prediction by ZEFSAII (Michael W. Deem and Ramdas Pophale) SiO2 
 PCOD8205025
Probable space group: P B A N
;
_chemical_formula_sum "Si O2"
_cell_formula_units_Z 58
_cell_length_a 16.969292
_cell_length_b 16.994423
_cell_length_c 9.650034
_cell_angle_alpha 90.000000
_cell_angle_beta 90.000000
_cell_angle_gamma 90.000000
_cell_volume 2782.908903
_symmetry_space_group_name_H-M "P B A N"
_symmetry_group_IT_number 50
_space_group.IT_coordinate_system_code '2'
_symmetry_cell_setting 'orthorhombic'
loop_
_space_group_symop_operation_xyz
x,y,z
1/2-x,1/2-y,z
x,1/2-y,-z
1/2-x,y,-z
-x,-y,-z
1/2+x,1/2+y,-z
-x,1/2+y,z
1/2+x,-y,z
loop_
_atom_site_type_symbol
_atom_site_label
_atom_site_fract_x
_atom_site_fract_y
_atom_site_fract_z
Si Si1 0.156155 0.493478 0.691369
Si Si2 0.119102 0.182494 0.798148
Si Si3 0.750000 0.750000 0.000000
Si Si4 0.439389 0.932294 0.470943
Si Si5 0.168276 0.476927 0.277723
Si Si6 0.483702 0.838374 0.011540
Si Si7 0.336175 0.948707 0.992019
Si Si8 0.943983 0.657397 0.308321
O O1 0.116097 0.567973 0.608701
O O2 0.247593 0.491285 0.651530
O O3 0.147484 0.503332 0.853855
O O4 0.119402 0.409146 0.650770
O O5 0.142185 0.113030 0.692086
O O6 0.095310 0.256029 0.698650
O O7 0.045791 0.149838 0.887313
O O8 0.192699 0.199737 0.900472
O O9 0.484916 0.851440 0.424364
O O10 0.500000 0.000000 0.500000
O O11 0.388587 0.957604 0.339198
O O12 0.164663 0.486610 0.112561
O O13 0.404910 0.886828 0.999401
O O14 0.454023 0.750000 0.000000
O O15 0.524008 0.860956 0.155579
O O16 0.250000 0.906199 0.000000
#
# Coordination Sequence:
#
# PCOD8205025 Si02
#       8
#     8   8   2   8   8   8   8   8
#     4  10  22  37  60  90 123 159 208 260 315 378
#     4  11  23  32  60  91 129 171 198 259 324 391
#     4  12  20  36  52  96 144 164 194 256 338 380
#     4  10  22  39  61  81 119 168 208 259 309 368
#     4  11  22  37  61  90 123 159 210 259 326 380
#     4  10  20  36  57  87 123 162 208 256 324 379
#     4  10  22  36  61  93 119 156 209 272 319 379
#     4  10  19  39  55  86 124 165 206 247 312 386
#
# _framework density 20.841501000000001
#
# number of rings (size 3 to 8) (size 9 to 14) (size 15 to 20)
#    0.000    1.655    3.448    2.069    6.759    1.379 
#    0.000    2.759    0.000    3.310    0.000    0.000 
#    0.000    0.000    0.000    0.000    0.000    0.000 
#
# Total GULP energy -718566.076331 kJ/mol
# GULP energy per Si atom -12389.070282 kJ/mol
# Density = 2.079407 g / cm^3
# Si number density = 20.841501 Si / 1000 Ang^3
#
#
#
# Elastic Constant Matrix: (Units=GPa)
#
#
# Indices 1 2 3 4 5 6 
#
# 1 127.8221 60.5207 28.3257 0.0000 0.0000 0.0000
# 2 60.5207 63.1412 18.0489 0.0000 0.0000 0.0000
# 3 28.3257 18.0489 89.4806 0.0000 0.0000 0.0000
# 4 0.0000 0.0000 0.0000 22.8378 0.0000 0.0000
# 5 0.0000 0.0000 0.0000 0.0000 25.3518 0.0000
# 6 0.0000 0.0000 0.0000 0.0000 0.0000 29.1749
#
#
#
# Elastic Compliance Matrix: (Units=1/GPa)
#
#
# Indices 1 2 3 4 5 6 
#
# 1 0.014626 -0.013472 -0.001912 0.000000 0.000000 0.000000
# 2 -0.013472 0.029216 -0.001628 0.000000 0.000000 0.000000
# 3 -0.001912 -0.001628 0.012109 0.000000 0.000000 0.000000
# 4 0.000000 0.000000 0.000000 0.043787 0.000000 0.000000
# 5 0.000000 0.000000 0.000000 0.000000 0.039445 0.000000
# 6 0.000000 0.000000 0.000000 0.000000 0.000000 0.034276
#
#
# Mechanical properties :
#
#
# Convention : Reuss Voigt Hill
#
# Bulk Modulus (GPa) = 45.60938 54.91494 50.26216
# Shear Modulus (GPa) = 23.27806 27.04281 25.16043
#
# Velocity S-wave (km/s) = 3.34564 3.60605 3.47829
# Velocity P-wave (km/s) = 6.07090 6.61394 6.34823
#
# Compressibility (1/GPa) = 0.02192531
#
# Stress axis : x y z
#
# Youngs Moduli (GPa) = 68.37132 34.22758 82.58002
#
# Poissons Ratio (x) = 0.46113 0.15793
# Poissons Ratio (y) = 0.92112 0.13447
# Poissons Ratio (z) = 0.13076 0.05573
#
# Static dielectric constant tensor:
#      x y z
#    x 4.181640 0.000000 0.000000 
#    y 0.000000 3.644470 0.000000 
#    z 0.000000 0.000000 4.000290 
# 
# 
# High freq. dielectric constant tensor:
#      x y z
#    x 1.834810 0.000000 0.000000 
#    y 0.000000 1.783770 0.000000 
#    z 0.000000 0.000000 1.819660 
# 
# From -- ./inp_files/14479.got.cif
#   From: 2010.03.12/outbox.cif.g09.slc.cpg/sg50_8_cif.got.tgz:14479.got - 2010.04.16 13:23:21.
