data_PCOD8205816
_publ_section_title
;
Structure prediction by ZEFSAII (Michael W. Deem and Ramdas Pophale) SiO2 
 PCOD8205816
Probable space group: P B A N
;
_chemical_formula_sum "Si O2"
_cell_formula_units_Z 44
_cell_length_a 27.948481
_cell_length_b 8.155310
_cell_length_c 8.761303
_cell_angle_alpha 90.000000
_cell_angle_beta 90.000000
_cell_angle_gamma 90.000000
_cell_volume 1996.950884
_symmetry_space_group_name_H-M "P B A N"
_symmetry_group_IT_number 50
_space_group.IT_coordinate_system_code '2'
_symmetry_cell_setting 'orthorhombic'
loop_
_space_group_symop_operation_xyz
x,y,z
1/2-x,1/2-y,z
x,1/2-y,-z
1/2-x,y,-z
-x,-y,-z
1/2+x,1/2+y,-z
-x,1/2+y,z
1/2+x,-y,z
loop_
_atom_site_type_symbol
_atom_site_label
_atom_site_fract_x
_atom_site_fract_y
_atom_site_fract_z
Si Si1 0.939463 0.931946 0.747867
Si Si2 0.963089 0.211831 0.327484
Si Si3 0.195731 0.789808 0.175872
Si Si4 0.384239 0.250000 0.500000
Si Si5 0.868448 0.469143 0.714376
Si Si6 0.647330 0.918047 0.048868
O O1 0.917520 0.877196 0.587845
O O2 0.904171 0.871039 0.880137
O O3 0.991769 0.853295 0.768472
O O4 0.942553 0.128311 0.755614
O O5 0.979244 0.250000 0.500000
O O6 0.922895 0.071407 0.328891
O O7 0.250000 0.750000 0.219810
O O8 0.165933 0.690058 0.306347
O O9 0.179406 0.982404 0.175167
O O10 0.185907 0.750000 0.000000
O O11 0.353232 0.367620 0.616424
O O12 0.863384 0.487306 0.894522
O O13 0.674335 0.750000 0.000000
#
# Coordination Sequence:
#
# PCOD8205816 Si02
#       6
#     8   8   8   4   8   8
#     4  12  24  39  61  91 132 177 224 262 318 389
#     4  12  23  39  61  91 131 181 226 262 320 396
#     4   9  20  43  70  97 128 167 215 270 341 407
#     4  12  22  40  64  91 130 176 221 268 318 390
#     4  11  23  40  65  98 129 169 222 274 328 392
#     4  11  23  41  66 101 132 162 215 277 331 387
#
# _framework density 22.033591000000001
#
# number of rings (size 3 to 8) (size 9 to 14) (size 15 to 20)
#    0.000    0.909    6.364    1.636    0.000    0.727 
#    0.000    7.273    0.000    6.000    0.000    0.000 
#    0.000    0.000    0.000    0.000    0.000    0.000 
#
# Total GULP energy -545145.660320 kJ/mol
# GULP energy per Si atom -12389.674098 kJ/mol
# Density = 2.198344 g / cm^3
# Si number density = 22.033591 Si / 1000 Ang^3
#
#
#
# Elastic Constant Matrix: (Units=GPa)
#
#
# Indices 1 2 3 4 5 6 
#
# 1 118.8876 61.8041 33.3832 0.0000 0.0000 0.0000
# 2 61.8041 142.2740 23.0912 0.0000 0.0000 0.0000
# 3 33.3832 23.0912 56.4406 0.0000 0.0000 0.0000
# 4 0.0000 0.0000 0.0000 31.6583 0.0000 0.0000
# 5 0.0000 0.0000 0.0000 0.0000-1983.9447 0.0000
# 6 0.0000 0.0000 0.0000 0.0000 0.0000 5.8303
#
#
#
# Elastic Compliance Matrix: (Units=1/GPa)
#
#
# Indices 1 2 3 4 5 6 
#
# 1 0.012241 -0.004437 -0.005425 0.000000 0.000000 0.000000
# 2 -0.004437 0.009137 -0.001114 0.000000 0.000000 0.000000
# 3 -0.005425 -0.001114 0.021382 0.000000 0.000000 0.000000
# 4 0.000000 0.000000 0.000000 0.031587 0.000000 0.000000
# 5 0.000000 0.000000 0.000000 0.000000 -0.000504 0.000000
# 6 0.000000 0.000000 0.000000 0.000000 0.000000 0.171519
#
#
# Mechanical properties :
#
#
# Convention : Reuss Voigt Hill
#
# Bulk Modulus (GPa) = 48.05705 61.57324 54.81515
# Shear Modulus (GPa) = 18.23150 -376.00298 -178.88574
#
# Velocity S-wave (km/s) = 2.87965 -13.07747 -9.02020
# Velocity P-wave (km/s) = 5.73713 14.14289 9.14075
#
# Compressibility (1/GPa) = 0.02080860
#
# Stress axis : x y z
#
# Youngs Moduli (GPa) = 81.69063 109.44568 46.76797
#
# Poissons Ratio (x) = 0.48563 0.25372
# Poissons Ratio (y) = 0.36247 0.05208
# Poissons Ratio (z) = 0.44318 0.12189
#
# Static dielectric constant tensor:
#      x y z
#    x 3.694670 0.000000 0.000000 
#    y 0.000000 4.647800 0.000000 
#    z 0.000000 0.000000 3.732850 
# 
# 
# High freq. dielectric constant tensor:
#      x y z
#    x 1.834500 0.000000 0.000000 
#    y 0.000000 1.888480 0.000000 
#    z 0.000000 0.000000 1.848890 
# 
# From -- ./inp_files/16849.got.cif
#   From: 2010.03.12/outbox.cif.g09.slc.cpg/sg50_9_cif.got.tgz:16849.got - 2010.04.16 13:23:21.
