data_PCOD8205647
_publ_section_title
;
Structure prediction by ZEFSAII (Michael W. Deem and Ramdas Pophale) SiO2 
 PCOD8205647
Probable space group: P B A N
;
_chemical_formula_sum "Si O2"
_cell_formula_units_Z 52
_cell_length_a 9.699278
_cell_length_b 17.577015
_cell_length_c 14.046454
_cell_angle_alpha 90.000000
_cell_angle_beta 90.000000
_cell_angle_gamma 90.000000
_cell_volume 2394.700649
_symmetry_space_group_name_H-M "P B A N"
_symmetry_group_IT_number 50
_space_group.IT_coordinate_system_code '2'
_symmetry_cell_setting 'orthorhombic'
loop_
_space_group_symop_operation_xyz
x,y,z
1/2-x,1/2-y,z
x,1/2-y,-z
1/2-x,y,-z
-x,-y,-z
1/2+x,1/2+y,-z
-x,1/2+y,z
1/2+x,-y,z
loop_
_atom_site_type_symbol
_atom_site_label
_atom_site_fract_x
_atom_site_fract_y
_atom_site_fract_z
Si Si1 0.883618 0.965632 0.936371
Si Si2 0.064175 0.847512 0.860695
Si Si3 0.877455 0.707342 0.296321
Si Si4 0.212549 0.942021 0.239670
Si Si5 0.750000 0.250000 0.000000
Si Si6 0.781198 0.931553 0.391798
Si Si7 0.750000 0.250000 0.500000
Si Si8 0.955062 0.161624 0.630532
O O1 0.928821 0.879872 0.913193
O O2 0.873910 0.010076 0.836733
O O3 0.750000 0.964654 0.000000
O O4 0.000000 0.000000 0.000000
O O5 0.152522 0.915284 0.816060
O O6 0.004858 0.798228 0.775398
O O7 0.154680 0.800923 0.934239
O O8 0.750000 0.750000 0.244480
O O9 0.825283 0.631630 0.349845
O O10 0.942419 0.766411 0.369762
O O11 0.124277 0.868487 0.274489
O O12 0.260831 0.993062 0.328711
O O13 0.750000 0.952794 0.500000
O O14 0.942390 0.907946 0.394861
O O15 0.838472 0.188264 0.557880
#
# Coordination Sequence:
#
# PCOD8205647 Si02
#       8
#     8   8   8   8   2   8   2   8
#     4  12  25  44  72 104 142 184 235 294 366 437
#     4  12  24  45  69 101 140 185 237 298 363 427
#     4  10  23  45  70  98 140 188 236 294 359 427
#     4  12  25  45  70 109 144 184 236 301 360 432
#     4  12  28  46  70 104 142 192 252 302 364 444
#     4  11  25  44  71 106 142 187 236 296 359 430
#     4  12  24  46  66 104 134 192 238 288 352 436
#     4  11  25  43  71  98 143 184 240 290 357 426
#
# _framework density 21.714611999999999
#
# number of rings (size 3 to 8) (size 9 to 14) (size 15 to 20)
#    0.000    0.615    3.077    4.615    1.077    4.000 
#    0.000    0.000    0.000    0.000    0.000    0.000 
#    0.000    0.000    0.000    0.000    0.000    0.000 
#
# Total GULP energy -644377.820106 kJ/mol
# GULP energy per Si atom -12391.881156 kJ/mol
# Density = 2.166519 g / cm^3
# Si number density = 21.714612 Si / 1000 Ang^3
#
#
#
# Elastic Constant Matrix: (Units=GPa)
#
#
# Indices 1 2 3 4 5 6 
#
# 1 136.8171 45.4085 60.9785 0.0000 0.0000 0.0000
# 2 45.4085 101.7627 53.0969 0.0000 0.0000 0.0000
# 3 60.9785 53.0969 143.5408 0.0000 0.0000 0.0000
# 4 0.0000 0.0000 0.0000 -12.2183 0.0000 0.0000
# 5 0.0000 0.0000 0.0000 0.0000 42.8319 0.0000
# 6 0.0000 0.0000 0.0000 0.0000 0.0000 48.4551
#
#
#
# Elastic Compliance Matrix: (Units=1/GPa)
#
#
# Indices 1 2 3 4 5 6 
#
# 1 0.009564 -0.002662 -0.003079 0.000000 0.000000 0.000000
# 2 -0.002662 0.012918 -0.003648 0.000000 0.000000 0.000000
# 3 -0.003079 -0.003648 0.009624 0.000000 0.000000 0.000000
# 4 0.000000 0.000000 0.000000 -0.081845 0.000000 0.000000
# 5 0.000000 0.000000 0.000000 0.000000 0.023347 0.000000
# 6 0.000000 0.000000 0.000000 0.000000 0.000000 0.020638
#
#
# Mechanical properties :
#
#
# Convention : Reuss Voigt Hill
#
# Bulk Modulus (GPa) = 75.01712 77.89872 76.45792
# Shear Modulus (GPa) = 286.28224 30.65618 158.46921
#
# Velocity S-wave (km/s) = 11.49455 3.76144 8.55199
# Velocity P-wave (km/s) = 14.51854 7.40380 11.52398
#
# Compressibility (1/GPa) = 0.01333029
#
# Stress axis : x y z
#
# Youngs Moduli (GPa) = 104.55337 77.41337 103.90868
#
# Poissons Ratio (x) = 0.20604 0.31990
# Poissons Ratio (y) = 0.27827 0.37903
# Poissons Ratio (z) = 0.32188 0.28238
#
# Static dielectric constant tensor:
#      x y z
#    x 4.313410 0.000000 0.000000 
#    y 0.000000 3.663800 0.000000 
#    z 0.000000 0.000000 4.072110 
# 
# 
# High freq. dielectric constant tensor:
#      x y z
#    x 1.878250 0.000000 0.000000 
#    y 0.000000 1.857380 0.000000 
#    z 0.000000 0.000000 1.853840 
# 
# From -- ./inp_files/25208.got.cif
#   From: 2010.03.12/outbox.cif.g09.slc.cpg/sg50_13_cif.got.tgz:25208.got - 2010.04.16 13:23:21.
