data_PCOD8205884
_publ_section_title
;
Structure prediction by ZEFSAII (Michael W. Deem and Ramdas Pophale) SiO2 
 PCOD8205884
Probable space group: P B A N
;
_chemical_formula_sum "Si O2"
_cell_formula_units_Z 24
_cell_length_a 14.709857
_cell_length_b 8.156063
_cell_length_c 7.802064
_cell_angle_alpha 90.000000
_cell_angle_beta 90.000000
_cell_angle_gamma 90.000000
_cell_volume 936.048887
_symmetry_space_group_name_H-M "P B A N"
_symmetry_group_IT_number 50
_space_group.IT_coordinate_system_code '2'
_symmetry_cell_setting 'orthorhombic'
loop_
_space_group_symop_operation_xyz
x,y,z
1/2-x,1/2-y,z
x,1/2-y,-z
1/2-x,y,-z
-x,-y,-z
1/2+x,1/2+y,-z
-x,1/2+y,z
1/2+x,-y,z
loop_
_atom_site_type_symbol
_atom_site_label
_atom_site_fract_x
_atom_site_fract_y
_atom_site_fract_z
Si Si1 0.107887 0.637621 0.332305
Si Si2 0.768337 0.931450 0.799606
Si Si3 0.037761 0.944505 0.182118
O O1 0.107179 0.750000 0.500000
O O2 0.209326 0.570029 0.297788
O O3 0.039489 0.481415 0.327240
O O4 0.067050 0.753297 0.180326
O O5 0.750000 0.750000 0.729275
O O6 0.873502 0.955924 0.760369
O O7 0.750000 0.947291 0.000000
O O8 0.000000 0.000000 0.000000
#
# Coordination Sequence:
#
# PCOD8205884 Si02
#       3
#     8   8   8
#     4  12  27  49  77 118 161 206 265 338 408 475
#     4  11  25  46  77 114 151 206 271 330 396 479
#     4  12  25  44  77 110 155 210 269 324 395 483
#
# _framework density 25.639688
#
# number of rings (size 3 to 8) (size 9 to 14) (size 15 to 20)
#    0.000    0.333    3.333    5.000    4.667    4.000 
#    0.000    1.667    0.000    0.000    0.000    0.000 
#    0.000    0.000    0.000    0.000    0.000    0.000 
#
# Total GULP energy -297514.271716 kJ/mol
# GULP energy per Si atom -12396.427988 kJ/mol
# Density = 2.558133 g / cm^3
# Si number density = 25.639688 Si / 1000 Ang^3
#
#
#
# Elastic Constant Matrix: (Units=GPa)
#
#
# Indices 1 2 3 4 5 6 
#
# 1 192.7153 51.2443 42.4208 0.0000 0.0000 0.0000
# 2 51.2443 149.5507 34.8041 0.0000 0.0000 0.0000
# 3 42.4208 34.8041 92.8764 0.0000 0.0000 0.0000
# 4 0.0000 0.0000 0.0000 40.3928 0.0000 0.0000
# 5 0.0000 0.0000 0.0000 0.0000 30.6436 0.0000
# 6 0.0000 0.0000 0.0000 0.0000 0.0000 61.3623
#
#
#
# Elastic Compliance Matrix: (Units=1/GPa)
#
#
# Indices 1 2 3 4 5 6 
#
# 1 0.006091 -0.001577 -0.002191 0.000000 0.000000 0.000000
# 2 -0.001577 0.007734 -0.002178 0.000000 0.000000 0.000000
# 3 -0.002191 -0.002178 0.012584 0.000000 0.000000 0.000000
# 4 0.000000 0.000000 0.000000 0.024757 0.000000 0.000000
# 5 0.000000 0.000000 0.000000 0.000000 0.032633 0.000000
# 6 0.000000 0.000000 0.000000 0.000000 0.000000 0.016297
#
#
# Mechanical properties :
#
#
# Convention : Reuss Voigt Hill
#
# Bulk Modulus (GPa) = 68.88616 76.89787 72.89201
# Shear Modulus (GPa) = 42.79882 46.92463 44.86172
#
# Velocity S-wave (km/s) = 4.09007 4.28267 4.18748
# Velocity P-wave (km/s) = 7.01642 7.38322 7.20216
#
# Compressibility (1/GPa) = 0.01451670
#
# Stress axis : x y z
#
# Youngs Moduli (GPa) = 164.18687 129.30017 79.46741
#
# Poissons Ratio (x) = 0.20392 0.17410
# Poissons Ratio (y) = 0.25894 0.17307
# Poissons Ratio (z) = 0.35971 0.28160
#
# Static dielectric constant tensor:
#      x y z
#    x 5.086510 0.000000 0.000000 
#    y 0.000000 6.431100 0.000000 
#    z 0.000000 0.000000 4.623820 
# 
# 
# High freq. dielectric constant tensor:
#      x y z
#    x 2.043880 0.000000 0.000000 
#    y 0.000000 2.042480 0.000000 
#    z 0.000000 0.000000 2.011130 
# 
# From -- ./inp_files/8487.got.cif
#   From: 2010.03.12/outbox.cif.g09.slc.cpg/sg50_5_cif.got.tgz:8487.got - 2010.04.16 13:23:21.
