data_PCOD8205849
_publ_section_title
;
Structure prediction by ZEFSAII (Michael W. Deem and Ramdas Pophale) SiO2 
 PCOD8205849
Probable space group: P B A N
;
_chemical_formula_sum "Si O2"
_cell_formula_units_Z 40
_cell_length_a 9.899705
_cell_length_b 9.214628
_cell_length_c 19.634843
_cell_angle_alpha 90.000000
_cell_angle_beta 90.000000
_cell_angle_gamma 90.000000
_cell_volume 1791.131590
_symmetry_space_group_name_H-M "P B A N"
_symmetry_group_IT_number 50
_space_group.IT_coordinate_system_code '2'
_symmetry_cell_setting 'orthorhombic'
loop_
_space_group_symop_operation_xyz
x,y,z
1/2-x,1/2-y,z
x,1/2-y,-z
1/2-x,y,-z
-x,-y,-z
1/2+x,1/2+y,-z
-x,1/2+y,z
1/2+x,-y,z
loop_
_atom_site_type_symbol
_atom_site_label
_atom_site_fract_x
_atom_site_fract_y
_atom_site_fract_z
Si Si1 0.855257 0.139209 0.890454
Si Si2 0.910695 0.733301 0.423175
Si Si3 0.007236 0.512114 0.665229
Si Si4 0.107702 0.309777 0.924613
Si Si5 0.243397 0.910269 0.742194
O O1 0.750000 0.250000 0.929424
O O2 0.778986 0.091753 0.821798
O O3 0.990436 0.236898 0.877991
O O4 0.891519 0.986770 0.927918
O O5 0.750000 0.750000 0.420839
O O6 0.963717 0.750000 0.500000
O O7 0.977212 0.581894 0.402595
O O8 0.973461 0.833077 0.364968
O O9 0.902816 0.473008 0.725253
O O10 0.149117 0.494085 0.702630
O O11 0.250000 0.250000 0.896334
O O12 0.080202 0.250000 0.000000
O O13 0.250000 0.750000 0.711359
#
# Coordination Sequence:
#
# PCOD8205849 Si02
#       5
#     8   8   8   8   8
#     4  11  26  46  71 109 143 187 236 290 349 425
#     4  11  24  42  66  99 134 178 230 286 347 412
#     4  12  23  45  66  98 136 180 226 287 343 411
#     4  11  25  46  73 106 144 187 236 288 351 410
#     4  11  26  42  68 102 141 177 231 277 352 410
#
# _framework density 22.332252
#
# number of rings (size 3 to 8) (size 9 to 14) (size 15 to 20)
#    0.000    0.800    4.000    2.400    8.400    2.000 
#    0.000    1.000    0.000    0.000    0.000    0.000 
#    0.000    0.000    0.000    0.000    0.000    0.000 
#
# Total GULP energy -495609.115647 kJ/mol
# GULP energy per Si atom -12390.227891 kJ/mol
# Density = 2.228142 g / cm^3
# Si number density = 22.332252 Si / 1000 Ang^3
#
#
#
# Elastic Constant Matrix: (Units=GPa)
#
#
# Indices 1 2 3 4 5 6 
#
# 1 120.8091 34.1291 22.6941 0.0000 0.0000 0.0000
# 2 34.1291 130.6215 24.1675 0.0000 0.0000 0.0000
# 3 22.6941 24.1675 93.9005 0.0000 0.0000 0.0000
# 4 0.0000 0.0000 0.0000 31.4306 0.0000 0.0000
# 5 0.0000 0.0000 0.0000 0.0000 17.0617 0.0000
# 6 0.0000 0.0000 0.0000 0.0000 0.0000 25.4281
#
#
#
# Elastic Compliance Matrix: (Units=1/GPa)
#
#
# Indices 1 2 3 4 5 6 
#
# 1 0.009183 -0.002088 -0.001682 0.000000 0.000000 0.000000
# 2 -0.002088 0.008513 -0.001686 0.000000 0.000000 0.000000
# 3 -0.001682 -0.001686 0.011490 0.000000 0.000000 0.000000
# 4 0.000000 0.000000 0.000000 0.031816 0.000000 0.000000
# 5 0.000000 0.000000 0.000000 0.000000 0.058611 0.000000
# 6 0.000000 0.000000 0.000000 0.000000 0.000000 0.039327
#
#
# Mechanical properties :
#
#
# Convention : Reuss Voigt Hill
#
# Bulk Modulus (GPa) = 54.72397 56.36805 55.54601
# Shear Modulus (GPa) = 28.41801 32.40679 30.41240
#
# Velocity S-wave (km/s) = 3.57110 3.81349 3.69428
# Velocity P-wave (km/s) = 6.44680 6.68474 6.56685
#
# Compressibility (1/GPa) = 0.01827353
#
# Stress axis : x y z
#
# Youngs Moduli (GPa) = 108.89175 117.46257 87.03135
#
# Poissons Ratio (x) = 0.24529 0.14639
# Poissons Ratio (y) = 0.22739 0.14677
# Poissons Ratio (z) = 0.18316 0.19809
#
# Static dielectric constant tensor:
#      x y z
#    x 4.205150 0.000000 0.000000 
#    y 0.000000 4.286070 0.000000 
#    z 0.000000 0.000000 3.767020 
# 
# 
# High freq. dielectric constant tensor:
#      x y z
#    x 1.891980 0.000000 0.000000 
#    y 0.000000 1.893040 0.000000 
#    z 0.000000 0.000000 1.869670 
# 
# From -- ./inp_files/31563.got.cif
#   From: 2010.03.12/outbox.cif.g09.slc.cpg/sg50_16_cif.got.tgz:31563.got - 2010.04.16 13:23:21.
