data_PCOD8205088
_publ_section_title
;
Structure prediction by ZEFSAII (Michael W. Deem and Ramdas Pophale) SiO2 
 PCOD8205088
Probable space group: P B A N
;
_chemical_formula_sum "Si O2"
_cell_formula_units_Z 40
_cell_length_a 15.203664
_cell_length_b 15.257643
_cell_length_c 7.366792
_cell_angle_alpha 90.000000
_cell_angle_beta 90.000000
_cell_angle_gamma 90.000000
_cell_volume 1708.890046
_symmetry_space_group_name_H-M "P B A N"
_symmetry_group_IT_number 50
_space_group.IT_coordinate_system_code '2'
_symmetry_cell_setting 'orthorhombic'
loop_
_space_group_symop_operation_xyz
x,y,z
1/2-x,1/2-y,z
x,1/2-y,-z
1/2-x,y,-z
-x,-y,-z
1/2+x,1/2+y,-z
-x,1/2+y,z
1/2+x,-y,z
loop_
_atom_site_type_symbol
_atom_site_label
_atom_site_fract_x
_atom_site_fract_y
_atom_site_fract_z
Si Si1 0.573437 0.555335 0.276992
Si Si2 0.571582 0.923702 0.294116
Si Si3 0.830629 0.297174 0.193681
Si Si4 0.240810 0.978494 0.288229
Si Si5 0.977646 0.737112 0.702662
O O1 0.559446 0.570887 0.490337
O O2 0.493349 0.495639 0.203586
O O3 0.663885 0.508744 0.216777
O O4 0.568893 0.654572 0.195212
O O5 0.544390 0.830275 0.203446
O O6 0.673691 0.941629 0.252048
O O7 0.750000 0.250000 0.298098
O O8 0.800741 0.398212 0.175728
O O9 0.918687 0.284494 0.308015
O O10 0.844220 0.250000 0.000000
O O11 0.250000 0.953471 0.500000
O O12 0.941126 0.750000 0.500000
#
# Coordination Sequence:
#
# PCOD8205088 Si02
#       5
#     8   8   8   8   8
#     4   9  17  31  52  87 122 151 200 245 285 351
#     4   9  17  31  51  88 120 148 203 248 283 346
#     4  11  24  38  55  85 122 146 198 249 292 353
#     4  10  20  34  60  86 118 162 195 242 305 346
#     4  10  20  34  60  87 117 158 198 245 293 346
#
# _framework density 23.407007
#
# number of rings (size 3 to 8) (size 9 to 14) (size 15 to 20)
#    0.000    2.200    2.000    1.200    5.600    0.800 
#    0.000    5.000    4.400    0.000    0.000    1.400 
#    0.000    0.000    0.000    0.000    0.000    0.000 
#
# Total GULP energy -495592.066020 kJ/mol
# GULP energy per Si atom -12389.801650 kJ/mol
# Density = 2.335373 g / cm^3
# Si number density = 23.407007 Si / 1000 Ang^3
#
#
#
# Elastic Constant Matrix: (Units=GPa)
#
#
# Indices 1 2 3 4 5 6 
#
# 1 142.2681 64.0230 1.3436 0.0000 0.0000 0.0000
# 2 64.0230 214.6082 13.5678 0.0000 0.0000 0.0000
# 3 1.3436 13.5678 33.8186 0.0000 0.0000 0.0000
# 4 0.0000 0.0000 0.0000 3.4333 0.0000 0.0000
# 5 0.0000 0.0000 0.0000 0.0000 0.8188 0.0000
# 6 0.0000 0.0000 0.0000 0.0000 0.0000 49.6090
#
#
#
# Elastic Compliance Matrix: (Units=1/GPa)
#
#
# Indices 1 2 3 4 5 6 
#
# 1 0.008134 -0.002469 0.000667 0.000000 0.000000 0.000000
# 2 -0.002469 0.005530 -0.002121 0.000000 0.000000 0.000000
# 3 0.000667 -0.002121 0.030394 0.000000 0.000000 0.000000
# 4 0.000000 0.000000 0.000000 0.291265 0.000000 0.000000
# 5 0.000000 0.000000 0.000000 0.000000 1.221347 0.000000
# 6 0.000000 0.000000 0.000000 0.000000 0.000000 0.020158
#
#
# Mechanical properties :
#
#
# Convention : Reuss Voigt Hill
#
# Bulk Modulus (GPa) = 27.61392 60.95151 44.28271
# Shear Modulus (GPa) = 3.13137 31.55623 17.34380
#
# Velocity S-wave (km/s) = 1.15789 3.67570 2.72502
# Velocity P-wave (km/s) = 3.68924 6.64160 5.37221
#
# Compressibility (1/GPa) = 0.03621362
#
# Stress axis : x y z
#
# Youngs Moduli (GPa) = 122.94659 180.82593 32.90145
#
# Poissons Ratio (x) = 0.44639 -0.02195
# Poissons Ratio (y) = 0.30351 0.06977
# Poissons Ratio (z) = -0.08204 0.38346
#
# Static dielectric constant tensor:
#      x y z
#    x 4.238300 0.000000 0.000000 
#    y 0.000000 4.724540 0.000000 
#    z 0.000000 0.000000 3.607830 
# 
# 
# High freq. dielectric constant tensor:
#      x y z
#    x 1.924610 0.000000 0.000000 
#    y 0.000000 1.942020 0.000000 
#    z 0.000000 0.000000 1.881250 
# 
# From -- ./inp_files/14058.got.cif
#   From: 2010.03.12/outbox.cif.g09.slc.cpg/sg50_8_cif.got.tgz:14058.got - 2010.04.16 13:23:21.
