data_PCOD8205917
_publ_section_title
;
Structure prediction by ZEFSAII (Michael W. Deem and Ramdas Pophale) SiO2 
 PCOD8205917
Probable space group: P B A N
;
_chemical_formula_sum "Si O2"
_cell_formula_units_Z 58
_cell_length_a 12.000000
_cell_length_b 9.000000
_cell_length_c 27.000000
_cell_angle_alpha 90.000000
_cell_angle_beta 90.000000
_cell_angle_gamma 90.000000
_cell_volume 2916.000000
_symmetry_space_group_name_H-M "P B A N"
_symmetry_group_IT_number 50
_space_group.IT_coordinate_system_code '2'
_symmetry_cell_setting 'orthorhombic'
loop_
_space_group_symop_operation_xyz
x,y,z
1/2-x,1/2-y,z
x,1/2-y,-z
1/2-x,y,-z
-x,-y,-z
1/2+x,1/2+y,-z
-x,1/2+y,z
1/2+x,-y,z
loop_
_atom_site_type_symbol
_atom_site_label
_atom_site_fract_x
_atom_site_fract_y
_atom_site_fract_z
Si Si1 0.250000 0.750000 0.000000
Si Si2 0.629148 0.723494 0.208990
Si Si3 0.559874 0.877603 0.467629
Si Si4 0.362896 0.827259 0.576264
Si Si5 0.127329 0.217268 0.906204
Si Si6 0.870598 0.227017 0.690294
Si Si7 0.943843 0.072568 0.047183
Si Si8 0.490857 0.526898 0.739933
O O1 0.171527 0.652899 0.034972
O O2 0.750000 0.750000 0.232616
O O3 0.631294 0.749199 0.151139
O O4 0.546601 0.847833 0.227705
O O5 0.596184 0.557323 0.224768
O O6 0.627104 0.750000 0.500000
O O7 0.467519 0.773653 0.440656
O O8 0.500000 0.000000 0.500000
O O9 0.635399 0.991483 0.434889
O O10 0.250000 0.750000 0.554558
O O11 0.361066 0.823408 0.634522
O O12 0.250000 0.250000 0.929535
O O13 0.034953 0.317426 0.931582
O O14 0.090447 0.048092 0.912558
O O15 0.750000 0.250000 0.714376
O O16 0.933367 0.385497 0.694352
O O17 0.924887 0.093476 0.719785
O O18 0.000000 0.000000 0.000000
#
# Coordination Sequence:
#
# PCOD8205917 Si02
#       8
#     2   8   8   8   8   8   8   8
#     4  12  24  40  64  88 116 152 194 238 284 344
#     4  10  21  38  58  83 114 148 187 229 277 338
#     4   9  19  35  54  78 109 146 189 232 280 337
#     4  10  20  36  56  81 113 147 189 237 285 335
#     4  11  24  40  62  86 117 153 192 239 287 342
#     4  10  20  34  57  84 111 147 186 230 282 333
#     4  12  23  42  62  87 117 151 195 237 292 343
#     4  10  20  36  58  82 115 147 184 229 281 334
#
# _framework density 19.890260999999999
#
# number of rings (size 3 to 8) (size 9 to 14) (size 15 to 20)
#    0.000    1.655    1.379    3.310    0.000    3.034 
#    0.000    4.828    3.034   11.586    0.000    0.000 
#    0.000    0.000    0.000    0.000    0.000    0.000 
#
# Total GULP energy -718521.829318 kJ/mol
# GULP energy per Si atom -12388.307402 kJ/mol
# Density = 1.984499 g / cm^3
# Si number density = 19.890261 Si / 1000 Ang^3
#
#
#
# Elastic Constant Matrix: (Units=GPa)
#
#
# Indices 1 2 3 4 5 6 
#
# 1 131.3534 71.5570 34.2688 0.0000 0.0000 0.0000
# 2 71.5570 169.8169 37.5842 0.0000 0.0000 0.0000
# 3 34.2688 37.5842 57.2347 0.0000 0.0000 0.0000
# 4 0.0000 0.0000 0.0000 12.7688 0.0000 0.0000
# 5 0.0000 0.0000 0.0000 0.0000 5.9223 0.0000
# 6 0.0000 0.0000 0.0000 0.0000 0.0000 32.1415
#
#
#
# Elastic Compliance Matrix: (Units=1/GPa)
#
#
# Indices 1 2 3 4 5 6 
#
# 1 0.010609 -0.003586 -0.003998 0.000000 0.000000 0.000000
# 2 -0.003586 0.008102 -0.003173 0.000000 0.000000 0.000000
# 3 -0.003998 -0.003173 0.021949 0.000000 0.000000 0.000000
# 4 0.000000 0.000000 0.000000 0.078316 0.000000 0.000000
# 5 0.000000 0.000000 0.000000 0.000000 0.168853 0.000000
# 6 0.000000 0.000000 0.000000 0.000000 0.000000 0.031112
#
#
# Mechanical properties :
#
#
# Convention : Reuss Voigt Hill
#
# Bulk Modulus (GPa) = 52.22708 71.69166 61.95937
# Shear Modulus (GPa) = 14.41595 24.49952 19.45773
#
# Velocity S-wave (km/s) = 2.69508 3.51341 3.13110
# Velocity P-wave (km/s) = 5.99994 7.25125 6.65507
#
# Compressibility (1/GPa) = 0.01914715
#
# Stress axis : x y z
#
# Youngs Moduli (GPa) = 94.25588 123.42620 45.55956
#
# Poissons Ratio (x) = 0.44258 0.18213
# Poissons Ratio (y) = 0.33798 0.14458
# Poissons Ratio (z) = 0.37680 0.39168
#
# Static dielectric constant tensor:
#      x y z
#    x 3.878770 0.000000 0.000000 
#    y 0.000000 5.838570 0.000000 
#    z 0.000000 0.000000 3.520860 
# 
# 
# High freq. dielectric constant tensor:
#      x y z
#    x 1.778860 0.000000 0.000000 
#    y 0.000000 1.801350 0.000000 
#    z 0.000000 0.000000 1.764220 
# 
# From -- ./inp_files/32146.got.cif
#   From: 2010.03.12/outbox.ucp.g09.slc.cvg/sg50_17_cif.got.tgz:32146.got - 2010.05.04 19:14:43.
