data_PCOD8205642
_publ_section_title
;
Structure prediction by ZEFSAII (Michael W. Deem and Ramdas Pophale) SiO2 
 PCOD8205642
Probable space group: P B A N
;
_chemical_formula_sum "Si O2"
_cell_formula_units_Z 64
_cell_length_a 13.202380
_cell_length_b 13.148240
_cell_length_c 18.025282
_cell_angle_alpha 90.000000
_cell_angle_beta 90.000000
_cell_angle_gamma 90.000000
_cell_volume 3128.973748
_symmetry_space_group_name_H-M "P B A N"
_symmetry_group_IT_number 50
_space_group.IT_coordinate_system_code '2'
_symmetry_cell_setting 'orthorhombic'
loop_
_space_group_symop_operation_xyz
x,y,z
1/2-x,1/2-y,z
x,1/2-y,-z
1/2-x,y,-z
-x,-y,-z
1/2+x,1/2+y,-z
-x,1/2+y,z
1/2+x,-y,z
loop_
_atom_site_type_symbol
_atom_site_label
_atom_site_fract_x
_atom_site_fract_y
_atom_site_fract_z
Si Si1 0.662190 0.823043 0.199638
Si Si2 0.531799 0.527542 0.584147
Si Si3 0.629917 0.760034 0.417519
Si Si4 0.825094 0.003646 0.701788
Si Si5 0.964948 0.637599 0.838204
Si Si6 0.893189 0.574982 0.681656
Si Si7 0.698173 0.140608 0.164290
Si Si8 0.218297 0.048508 0.915595
O O1 0.750000 0.750000 0.238269
O O2 0.568593 0.754024 0.174270
O O3 0.712636 0.871712 0.127609
O O4 0.617794 0.913988 0.250907
O O5 0.500000 0.500000 0.500000
O O6 0.589124 0.630541 0.603414
O O7 0.613843 0.455267 0.628442
O O8 0.430401 0.520150 0.632100
O O9 0.750000 0.750000 0.416714
O O10 0.586543 0.750000 0.500000
O O11 0.580186 0.678842 0.362368
O O12 0.800182 0.102573 0.750641
O O13 0.724814 0.940871 0.684307
O O14 0.948985 0.576233 0.760862
O O15 0.899115 0.580402 0.901647
O O16 0.081537 0.640161 0.863490
O O17 0.750000 0.250000 0.159195
O O18 0.763354 0.065988 0.112556
O O19 0.250000 0.057179 0.000000
#
# Coordination Sequence:
#
# PCOD8205642 Si02
#       8
#     8   8   8   8   8   8   8   8
#     4   9  18  36  65  98 123 157 222 278 328 391
#     4  12  25  39  60  97 136 169 220 282 345 398
#     4  11  23  39  64  90 123 168 220 274 327 398
#     4  11  22  41  63  93 130 171 222 283 328 401
#     4  11  22  39  68 103 132 173 226 281 344 399
#     4  12  22  40  68  96 124 174 227 278 341 394
#     4  11  25  43  65 100 139 180 228 272 341 410
#     4  10  23  44  68  98 137 175 222 278 334 408
#
# _framework density 20.453990999999998
#
# number of rings (size 3 to 8) (size 9 to 14) (size 15 to 20)
#    0.000    1.125    7.500    0.750    0.000    7.500 
#    0.000    1.250    0.000    0.000    0.000    0.000 
#    0.000    0.000    0.000    0.000    0.000    0.000 
#
# Total GULP energy -792862.732743 kJ/mol
# GULP energy per Si atom -12388.480199 kJ/mol
# Density = 2.040744 g / cm^3
# Si number density = 20.453991 Si / 1000 Ang^3
#
#
#
# Elastic Constant Matrix: (Units=GPa)
#
#
# Indices 1 2 3 4 5 6 
#
# 1 105.7183 55.5160 42.2363 0.0000 0.0000 0.0000
# 2 55.5160 105.6950 37.8656 0.0000 0.0000 0.0000
# 3 42.2363 37.8656 132.9488 0.0000 0.0000 0.0000
# 4 0.0000 0.0000 0.0000 18.2067 0.0000 0.0000
# 5 0.0000 0.0000 0.0000 0.0000 24.2633 0.0000
# 6 0.0000 0.0000 0.0000 0.0000 0.0000 26.5875
#
#
#
# Elastic Compliance Matrix: (Units=1/GPa)
#
#
# Indices 1 2 3 4 5 6 
#
# 1 0.013817 -0.006331 -0.002586 0.000000 0.000000 0.000000
# 2 -0.006331 0.013437 -0.001816 0.000000 0.000000 0.000000
# 3 -0.002586 -0.001816 0.008861 0.000000 0.000000 0.000000
# 4 0.000000 0.000000 0.000000 0.054925 0.000000 0.000000
# 5 0.000000 0.000000 0.000000 0.000000 0.041215 0.000000
# 6 0.000000 0.000000 0.000000 0.000000 0.000000 0.037612
#
#
# Mechanical properties :
#
#
# Convention : Reuss Voigt Hill
#
# Bulk Modulus (GPa) = 68.26647 68.39976 68.33311
# Shear Modulus (GPa) = 25.48238 27.72778 26.60508
#
# Velocity S-wave (km/s) = 3.53347 3.68586 3.61047
# Velocity P-wave (km/s) = 7.07781 7.18523 7.13172
#
# Compressibility (1/GPa) = 0.01464848
#
# Stress axis : x y z
#
# Youngs Moduli (GPa) = 72.37542 74.42202 112.86015
#
# Poissons Ratio (x) = 0.47114 0.29190
# Poissons Ratio (y) = 0.45819 0.20493
# Poissons Ratio (z) = 0.18719 0.13514
#
# Static dielectric constant tensor:
#      x y z
#    x 3.611070 0.000000 0.000000 
#    y 0.000000 4.111640 0.000000 
#    z 0.000000 0.000000 3.894740 
# 
# 
# High freq. dielectric constant tensor:
#      x y z
#    x 1.790650 0.000000 0.000000 
#    y 0.000000 1.797110 0.000000 
#    z 0.000000 0.000000 1.797970 
# 
# From -- ./inp_files/29539.got.cif
#   From: 2010.03.12/outbox.cif.g09.slc.cpg/sg50_15_cif.got.tgz:29539.got - 2010.04.16 13:23:21.
