data_PCOD8205340
_publ_section_title
;
Structure prediction by ZEFSAII (Michael W. Deem and Ramdas Pophale) SiO2 
 PCOD8205340
Probable space group: P B A N
;
_chemical_formula_sum "Si O2"
_cell_formula_units_Z 38
_cell_length_a 5.012709
_cell_length_b 12.548627
_cell_length_c 27.501330
_cell_angle_alpha 90.000000
_cell_angle_beta 90.000000
_cell_angle_gamma 90.000000
_cell_volume 1729.905587
_symmetry_space_group_name_H-M "P B A N"
_symmetry_group_IT_number 50
_space_group.IT_coordinate_system_code '2'
_symmetry_cell_setting 'orthorhombic'
loop_
_space_group_symop_operation_xyz
x,y,z
1/2-x,1/2-y,z
x,1/2-y,-z
1/2-x,y,-z
-x,-y,-z
1/2+x,1/2+y,-z
-x,1/2+y,z
1/2+x,-y,z
loop_
_atom_site_type_symbol
_atom_site_label
_atom_site_fract_x
_atom_site_fract_y
_atom_site_fract_z
Si Si1 0.750000 0.250000 0.645713
Si Si2 0.750000 0.250000 0.000000
Si Si3 0.314686 0.928635 0.278701
Si Si4 0.810439 0.432437 0.827207
Si Si5 0.441422 0.575790 0.929916
Si Si6 0.250000 0.075249 0.500000
Si Si7 0.250000 0.250000 0.419960
O O1 0.639889 0.156075 0.679407
O O2 0.503839 0.281568 0.612139
O O3 0.565396 0.173288 0.967435
O O4 0.358985 0.874364 0.224910
O O5 0.518966 0.025477 0.284809
O O6 0.498065 0.461890 0.829068
O O7 0.898777 0.369605 0.876121
O O8 0.720396 0.516084 0.937601
O O9 0.204600 0.146592 0.452576
O O10 0.500000 0.000000 0.500000
#
# Coordination Sequence:
#
# PCOD8205340 Si02
#       7
#     4   2   8   8   8   4   4
#     4  12  24  38  60  90 128 156 184 242 294 338
#     4  12  24  36  60  84 108 148 188 230 300 362
#     4  10  21  37  58  85 117 156 196 231 280 345
#     4   8  16  34  56  77 108 148 189 233 277 331
#     4  10  22  39  57  81 113 145 186 241 288 338
#     4  11  24  45  70  88 116 161 202 245 288 332
#     4  11  26  42  60  96 124 150 202 241 284 348
#
# _framework density 21.966515999999999
#
# number of rings (size 3 to 8) (size 9 to 14) (size 15 to 20)
#    0.000    1.895    0.000    3.158    0.000    9.263 
#    0.000    0.000    0.000   15.158    0.000    0.000 
#    0.000    0.000    0.000    0.000    0.000    0.000 
#
# Total GULP energy -470871.258776 kJ/mol
# GULP energy per Si atom -12391.348915 kJ/mol
# Density = 2.191652 g / cm^3
# Si number density = 21.966516 Si / 1000 Ang^3
#
#
#
# Elastic Constant Matrix: (Units=GPa)
#
#
# Indices 1 2 3 4 5 6 
#
# 1 99.0642 14.0664 23.4151 0.0000 0.0000 0.0000
# 2 14.0664 80.6591 57.9918 0.0000 0.0000 0.0000
# 3 23.4151 57.9918 163.7454 0.0000 0.0000 0.0000
# 4 0.0000 0.0000 0.0000 -4.2094 0.0000 0.0000
# 5 0.0000 0.0000 0.0000 0.0000 9.6517 0.0000
# 6 0.0000 0.0000 0.0000 0.0000 0.0000 23.2651
#
#
#
# Elastic Compliance Matrix: (Units=1/GPa)
#
#
# Indices 1 2 3 4 5 6 
#
# 1 0.010508 -0.001009 -0.001145 0.000000 0.000000 0.000000
# 2 -0.001009 0.016730 -0.005781 0.000000 0.000000 0.000000
# 3 -0.001145 -0.005781 0.008318 0.000000 0.000000 0.000000
# 4 0.000000 0.000000 0.000000 -0.237563 0.000000 0.000000
# 5 0.000000 0.000000 0.000000 0.000000 0.103609 0.000000
# 6 0.000000 0.000000 0.000000 0.000000 0.000000 0.042983
#
#
# Mechanical properties :
#
#
# Convention : Reuss Voigt Hill
#
# Bulk Modulus (GPa) = 50.79702 59.37947 55.08825
# Shear Modulus (GPa) = -151.59644 22.27451 -64.66097
#
# Velocity S-wave (km/s) = -8.31639 3.18782 -5.43140
# Velocity P-wave (km/s) = 8.30912 6.37496 3.76838
#
# Compressibility (1/GPa) = 0.01968619
#
# Stress axis : x y z
#
# Youngs Moduli (GPa) = 95.16142 59.77254 120.21935
#
# Poissons Ratio (x) = 0.06032 0.13768
# Poissons Ratio (y) = 0.09604 0.69496
# Poissons Ratio (z) = 0.10899 0.34553
#
# Static dielectric constant tensor:
#      x y z
#    x 4.293270 0.000000 0.000000 
#    y 0.000000 3.479760 0.000000 
#    z 0.000000 0.000000 4.607250 
# 
# 
# High freq. dielectric constant tensor:
#      x y z
#    x 1.876780 0.000000 0.000000 
#    y 0.000000 1.820880 0.000000 
#    z 0.000000 0.000000 1.896280 
# 
# From -- ./inp_files/31966.got.cif
#   From: 2010.03.12/outbox.cif.g09.slc.cpg/sg50_16_cif.got.tgz:31966.got - 2010.04.16 13:23:21.
