data_PCOD8205241
_publ_section_title
;
Structure prediction by ZEFSAII (Michael W. Deem and Ramdas Pophale) SiO2 
 PCOD8205241
Probable space group: P B A N
;
_chemical_formula_sum "Si O2"
_cell_formula_units_Z 64
_cell_length_a 17.772839
_cell_length_b 20.175675
_cell_length_c 9.063721
_cell_angle_alpha 90.000000
_cell_angle_beta 90.000000
_cell_angle_gamma 90.000000
_cell_volume 3250.060225
_symmetry_space_group_name_H-M "P B A N"
_symmetry_group_IT_number 50
_space_group.IT_coordinate_system_code '2'
_symmetry_cell_setting 'orthorhombic'
loop_
_space_group_symop_operation_xyz
x,y,z
1/2-x,1/2-y,z
x,1/2-y,-z
1/2-x,y,-z
-x,-y,-z
1/2+x,1/2+y,-z
-x,1/2+y,z
1/2+x,-y,z
loop_
_atom_site_type_symbol
_atom_site_label
_atom_site_fract_x
_atom_site_fract_y
_atom_site_fract_z
Si Si1 0.770953 0.037062 0.834153
Si Si2 0.926357 0.182614 0.569631
Si Si3 0.978965 0.603469 0.761149
Si Si4 0.195375 0.686023 0.806190
Si Si5 0.410993 0.009800 0.670577
Si Si6 0.450192 0.677364 0.995044
Si Si7 0.459277 0.601852 0.707037
Si Si8 0.638617 0.984005 0.662960
O O1 0.759345 0.116462 0.813294
O O2 0.855189 0.011552 0.802196
O O3 0.723413 0.995811 0.713730
O O4 0.750000 0.016374 0.000000
O O5 0.951565 0.250000 0.500000
O O6 0.844812 0.188319 0.646909
O O7 0.925051 0.125335 0.448106
O O8 0.993174 0.171456 0.686859
O O9 0.891610 0.586774 0.728964
O O10 0.025224 0.546328 0.674855
O O11 0.999170 0.617998 0.932516
O O12 0.250000 0.750000 0.825940
O O13 0.133275 0.683356 0.935434
O O14 0.452265 0.080692 0.697250
O O15 0.368872 0.011920 0.513489
O O16 0.488949 0.750000 0.000000
O O17 0.444078 0.659452 0.823866
O O18 0.410528 0.538211 0.751505
#
# Coordination Sequence:
#
# PCOD8205241 Si02
#       8
#     8   8   8   8   8   8   8   8
#     4  12  26  39  58  91 126 169 205 244 316 382
#     4  11  21  39  60  87 119 161 217 250 296 364
#     4  10  20  40  60  86 120 156 213 262 301 364
#     4  11  26  41  55  82 136 179 208 241 289 369
#     4  11  21  41  62  87 120 159 207 271 311 365
#     4  11  24  39  59  88 124 168 212 249 300 366
#     4  11  21  38  65  87 116 160 217 264 311 352
#     4  11  22  37  64  87 120 160 203 266 318 359
#
# _framework density 19.691942999999998
#
# number of rings (size 3 to 8) (size 9 to 14) (size 15 to 20)
#    0.000    1.000    5.000    3.375    7.000    1.250 
#    0.000    0.625    0.000    0.000    0.000    5.250 
#    0.000    0.000    0.000    0.000    0.000    0.000 
#
# Total GULP energy -793195.523576 kJ/mol
# GULP energy per Si atom -12393.680056 kJ/mol
# Density = 1.964712 g / cm^3
# Si number density = 19.691943 Si / 1000 Ang^3
#
#
#
# Elastic Constant Matrix: (Units=GPa)
#
#
# Indices 1 2 3 4 5 6 
#
# 1 72.2313 41.9865 28.2574 0.0000 0.0000 0.0000
# 2 41.9865 69.7823 29.1196 0.0000 0.0000 0.0000
# 3 28.2574 29.1196 92.9376 0.0000 0.0000 0.0000
# 4 0.0000 0.0000 0.0000 32.4368 0.0000 0.0000
# 5 0.0000 0.0000 0.0000 0.0000 30.5176 0.0000
# 6 0.0000 0.0000 0.0000 0.0000 0.0000 31.8367
#
#
#
# Elastic Compliance Matrix: (Units=1/GPa)
#
#
# Indices 1 2 3 4 5 6 
#
# 1 0.021958 -0.011994 -0.002918 0.000000 0.000000 0.000000
# 2 -0.011994 0.023037 -0.003571 0.000000 0.000000 0.000000
# 3 -0.002918 -0.003571 0.012766 0.000000 0.000000 0.000000
# 4 0.000000 0.000000 0.000000 0.030829 0.000000 0.000000
# 5 0.000000 0.000000 0.000000 0.000000 0.032768 0.000000
# 6 0.000000 0.000000 0.000000 0.000000 0.000000 0.031410
#
#
# Mechanical properties :
#
#
# Convention : Reuss Voigt Hill
#
# Bulk Modulus (GPa) = 48.09042 48.18646 48.13844
# Shear Modulus (GPa) = 25.42375 27.99740 26.71058
#
# Velocity S-wave (km/s) = 3.59705 3.77473 3.68696
# Velocity P-wave (km/s) = 6.45957 6.59707 6.52868
#
# Compressibility (1/GPa) = 0.02079416
#
# Stress axis : x y z
#
# Youngs Moduli (GPa) = 45.54200 43.40854 78.33186
#
# Poissons Ratio (x) = 0.52063 0.22859
# Poissons Ratio (y) = 0.54622 0.27975
# Poissons Ratio (z) = 0.13290 0.15503
#
# Static dielectric constant tensor:
#      x y z
#    x 3.529420 0.000000 0.000000 
#    y 0.000000 3.807550 0.000000 
#    z 0.000000 0.000000 3.726730 
# 
# 
# High freq. dielectric constant tensor:
#      x y z
#    x 1.735650 0.000000 0.000000 
#    y 0.000000 1.755540 0.000000 
#    z 0.000000 0.000000 1.784920 
# 
# From -- ./inp_files/14606.got.cif
#   From: 2010.03.12/outbox.cif.g09.slc.cpg/sg50_8_cif.got.tgz:14606.got - 2010.04.16 13:23:21.
