data_PCOD8205601
_publ_section_title
;
Structure prediction by ZEFSAII (Michael W. Deem and Ramdas Pophale) SiO2 
 PCOD8205601
Probable space group: P B A N
;
_chemical_formula_sum "Si O2"
_cell_formula_units_Z 40
_cell_length_a 33.751758
_cell_length_b 5.120652
_cell_length_c 10.496392
_cell_angle_alpha 90.000000
_cell_angle_beta 90.000000
_cell_angle_gamma 90.000000
_cell_volume 1814.102000
_symmetry_space_group_name_H-M "P B A N"
_symmetry_group_IT_number 50
_space_group.IT_coordinate_system_code '2'
_symmetry_cell_setting 'orthorhombic'
loop_
_space_group_symop_operation_xyz
x,y,z
1/2-x,1/2-y,z
x,1/2-y,-z
1/2-x,y,-z
-x,-y,-z
1/2+x,1/2+y,-z
-x,1/2+y,z
1/2+x,-y,z
loop_
_atom_site_type_symbol
_atom_site_label
_atom_site_fract_x
_atom_site_fract_y
_atom_site_fract_z
Si Si1 0.873595 0.250000 0.000000
Si Si2 0.893513 0.649042 0.364164
Si Si3 0.974952 0.732160 0.260077
Si Si4 0.929077 0.750000 0.000000
Si Si5 0.232157 0.503569 0.356740
Si Si6 0.646735 0.372246 0.269562
O O1 0.901773 0.497370 0.009135
O O2 0.845378 0.222377 0.124587
O O3 0.878370 0.750000 0.500000
O O4 0.940939 0.642683 0.358932
O O5 0.874814 0.363799 0.342980
O O6 0.880439 0.868260 0.260692
O O7 0.958329 0.728907 0.118316
O O8 0.010136 0.526030 0.283985
O O9 0.250000 0.750000 0.281908
O O10 0.250000 0.501667 0.500000
O O11 0.185079 0.530482 0.348166
O O12 0.250000 0.250000 0.286161
#
# Coordination Sequence:
#
# PCOD8205601 Si02
#       6
#     4   8   8   4   8   8
#     4  12  22  43  73  98 142 179 234 295 344 414
#     4  12  27  43  68 102 137 189 239 283 347 427
#     4  12  24  42  66  97 139 186 235 300 358 402
#     4  12  22  43  66 104 133 179 248 295 343 418
#     4  10  23  40  66 103 137 171 213 277 335 409
#     4  12  24  45  71 102 142 180 230 285 350 417
#
# _framework density 22.049475000000001
#
# number of rings (size 3 to 8) (size 9 to 14) (size 15 to 20)
#    0.000    0.400    4.000    4.800    8.400    0.800 
#    0.000    0.500    0.000    1.200    0.000    0.000 
#    0.000    0.000    0.000    0.000    0.000    0.000 
#
# Total GULP energy -495783.278214 kJ/mol
# GULP energy per Si atom -12394.581955 kJ/mol
# Density = 2.199929 g / cm^3
# Si number density = 22.049475 Si / 1000 Ang^3
#
#
#
# Elastic Constant Matrix: (Units=GPa)
#
#
# Indices 1 2 3 4 5 6 
#
# 1 126.5749 54.2670 32.2410 0.0000 0.0000 0.0000
# 2 54.2670 180.5058 4.8432 0.0000 0.0000 0.0000
# 3 32.2410 4.8432 71.1729 0.0000 0.0000 0.0000
# 4 0.0000 0.0000 0.0000 17.4919 0.0000 0.0000
# 5 0.0000 0.0000 0.0000 0.0000 36.0211 0.0000
# 6 0.0000 0.0000 0.0000 0.0000 0.0000 43.4931
#
#
#
# Elastic Compliance Matrix: (Units=1/GPa)
#
#
# Indices 1 2 3 4 5 6 
#
# 1 0.010318 -0.002982 -0.004471 0.000000 0.000000 0.000000
# 2 -0.002982 0.006412 0.000914 0.000000 0.000000 0.000000
# 3 -0.004471 0.000914 0.016013 0.000000 0.000000 0.000000
# 4 0.000000 0.000000 0.000000 0.057169 0.000000 0.000000
# 5 0.000000 0.000000 0.000000 0.000000 0.027762 0.000000
# 6 0.000000 0.000000 0.000000 0.000000 0.000000 0.022992
#
#
# Mechanical properties :
#
#
# Convention : Reuss Voigt Hill
#
# Bulk Modulus (GPa) = 50.84863 62.32842 56.58852
# Shear Modulus (GPa) = 31.19179 38.52803 34.85991
#
# Velocity S-wave (km/s) = 3.76523 4.18466 3.98047
# Velocity P-wave (km/s) = 6.48181 7.18870 6.84439
#
# Compressibility (1/GPa) = 0.01966621
#
# Stress axis : x y z
#
# Youngs Moduli (GPa) = 96.92019 155.95903 62.44770
#
# Poissons Ratio (x) = 0.46506 0.27920
# Poissons Ratio (y) = 0.28901 -0.05711
# Poissons Ratio (z) = 0.43333 -0.14262
#
# Static dielectric constant tensor:
#      x y z
#    x 4.093000 0.000000 0.000000 
#    y 0.000000 3.394260 0.000000 
#    z 0.000000 0.000000 3.979490 
# 
# 
# High freq. dielectric constant tensor:
#      x y z
#    x 1.860360 0.000000 0.000000 
#    y 0.000000 1.901420 0.000000 
#    z 0.000000 0.000000 1.849220 
# 
# From -- ./inp_files/23302.got.cif
#   From: 2010.03.12/outbox.cif.g09.slc.cpg/sg50_12_cif.got.tgz:23302.got - 2010.04.16 13:23:21.
