data_PCOD8205718
_publ_section_title
;
Structure prediction by ZEFSAII (Michael W. Deem and Ramdas Pophale) SiO2 
 PCOD8205718
Probable space group: P B A N
;
_chemical_formula_sum "Si O2"
_cell_formula_units_Z 58
_cell_length_a 26.649124
_cell_length_b 7.586729
_cell_length_c 12.849763
_cell_angle_alpha 90.000000
_cell_angle_beta 90.000000
_cell_angle_gamma 90.000000
_cell_volume 2597.960996
_symmetry_space_group_name_H-M "P B A N"
_symmetry_group_IT_number 50
_space_group.IT_coordinate_system_code '2'
_symmetry_cell_setting 'orthorhombic'
loop_
_space_group_symop_operation_xyz
x,y,z
1/2-x,1/2-y,z
x,1/2-y,-z
1/2-x,y,-z
-x,-y,-z
1/2+x,1/2+y,-z
-x,1/2+y,z
1/2+x,-y,z
loop_
_atom_site_type_symbol
_atom_site_label
_atom_site_fract_x
_atom_site_fract_y
_atom_site_fract_z
Si Si1 0.671981 0.293032 0.339700
Si Si2 0.956940 0.657786 0.106224
Si Si3 0.820255 0.906880 0.184734
Si Si4 0.979938 0.941268 0.252046
Si Si5 0.750000 0.250000 0.500000
Si Si6 0.794342 0.513509 0.191577
Si Si7 0.060569 0.740340 0.382305
Si Si8 0.366706 0.947415 0.981176
O O1 0.657921 0.463320 0.271912
O O2 0.711220 0.361741 0.428053
O O3 0.619713 0.216081 0.383418
O O4 0.698661 0.127748 0.283214
O O5 0.004136 0.546696 0.148006
O O6 0.908377 0.541356 0.087940
O O7 0.944522 0.789859 0.203026
O O8 0.975022 0.750000 0.000000
O O9 0.820497 0.701818 0.218910
O O10 0.763548 0.965485 0.163540
O O11 0.854988 0.935814 0.083054
O O12 0.030223 0.875157 0.309855
O O13 0.947501 0.045719 0.335965
O O14 0.816983 0.431389 0.087258
O O15 0.039916 0.750000 0.500000
O O16 0.386122 0.750000 0.000000
#
# Coordination Sequence:
#
# PCOD8205718 Si02
#       8
#     8   8   8   8   2   8   8   8
#     4  12  24  45  73 101 140 182 235 286 366 418
#     4  11  24  42  64  98 137 179 224 283 352 434
#     4  11  24  42  66  97 141 185 228 285 336 419
#     4  10  25  45  69  97 138 178 238 294 363 425
#     4  12  24  48  74 106 140 182 228 312 350 432
#     4  11  23  42  66  98 137 185 229 281 340 415
#     4  11  24  45  74 100 134 183 239 307 366 421
#     4  12  25  38  65  98 139 180 235 272 344 420
#
# _framework density 22.325201
#
# number of rings (size 3 to 8) (size 9 to 14) (size 15 to 20)
#    0.000    0.828    3.448    3.310    3.862    3.310 
#    0.000    1.379    0.000    0.000    0.000    0.000 
#    0.000    0.000    0.000    0.000    0.000    0.000 
#
# Total GULP energy -719063.067919 kJ/mol
# GULP energy per Si atom -12397.639102 kJ/mol
# Density = 2.227439 g / cm^3
# Si number density = 22.325201 Si / 1000 Ang^3
#
#
#
# Elastic Constant Matrix: (Units=GPa)
#
#
# Indices 1 2 3 4 5 6 
#
# 1 85.1581 26.5967 40.7707 0.0000 0.0000 0.0000
# 2 26.5967 124.1632 45.3740 0.0000 0.0000 0.0000
# 3 40.7707 45.3740 127.5851 0.0000 0.0000 0.0000
# 4 0.0000 0.0000 0.0000 25.7940 0.0000 0.0000
# 5 0.0000 0.0000 0.0000 0.0000 24.0728 0.0000
# 6 0.0000 0.0000 0.0000 0.0000 0.0000 15.5778
#
#
#
# Elastic Compliance Matrix: (Units=1/GPa)
#
#
# Indices 1 2 3 4 5 6 
#
# 1 0.014129 -0.001582 -0.003952 0.000000 0.000000 0.000000
# 2 -0.001582 0.009434 -0.002850 0.000000 0.000000 0.000000
# 3 -0.003952 -0.002850 0.010114 0.000000 0.000000 0.000000
# 4 0.000000 0.000000 0.000000 0.038769 0.000000 0.000000
# 5 0.000000 0.000000 0.000000 0.000000 0.041541 0.000000
# 6 0.000000 0.000000 0.000000 0.000000 0.000000 0.064194
#
#
# Mechanical properties :
#
#
# Convention : Reuss Voigt Hill
#
# Bulk Modulus (GPa) = 59.13854 62.48767 60.81311
# Shear Modulus (GPa) = 24.92697 28.03325 26.48011
#
# Velocity S-wave (km/s) = 3.34509 3.54740 3.44773
# Velocity P-wave (km/s) = 6.43946 6.69546 6.56871
#
# Compressibility (1/GPa) = 0.01690945
#
# Stress axis : x y z
#
# Youngs Moduli (GPa) = 70.77491 105.99761 98.86962
#
# Poissons Ratio (x) = 0.16771 0.39077
# Poissons Ratio (y) = 0.11198 0.28173
# Poissons Ratio (z) = 0.27973 0.30204
#
# Static dielectric constant tensor:
#      x y z
#    x 3.929770 0.000000 0.000000 
#    y 0.000000 4.168340 0.000000 
#    z 0.000000 0.000000 4.083490 
# 
# 
# High freq. dielectric constant tensor:
#      x y z
#    x 1.891150 0.000000 0.000000 
#    y 0.000000 1.877940 0.000000 
#    z 0.000000 0.000000 1.875850 
# 
# From -- ./inp_files/23170.got.cif
#   From: 2010.03.12/outbox.cif.g09.slc.cpg/sg50_12_cif.got.tgz:23170.got - 2010.04.16 13:23:21.
