data_PCOD8205640
_publ_section_title
;
Structure prediction by ZEFSAII (Michael W. Deem and Ramdas Pophale) SiO2 
 PCOD8205640
Probable space group: P B A N
;
_chemical_formula_sum "Si O2"
_cell_formula_units_Z 26
_cell_length_a 9.278681
_cell_length_b 22.612989
_cell_length_c 4.989056
_cell_angle_alpha 90.000000
_cell_angle_beta 90.000000
_cell_angle_gamma 90.000000
_cell_volume 1046.797301
_symmetry_space_group_name_H-M "P B A N"
_symmetry_group_IT_number 50
_space_group.IT_coordinate_system_code '2'
_symmetry_cell_setting 'orthorhombic'
loop_
_space_group_symop_operation_xyz
x,y,z
1/2-x,1/2-y,z
x,1/2-y,-z
1/2-x,y,-z
-x,-y,-z
1/2+x,1/2+y,-z
-x,1/2+y,z
1/2+x,-y,z
loop_
_atom_site_type_symbol
_atom_site_label
_atom_site_fract_x
_atom_site_fract_y
_atom_site_fract_z
Si Si1 0.977425 0.786840 0.740310
Si Si2 0.088141 0.413777 0.910615
Si Si3 0.852795 0.464089 0.252081
Si Si4 0.250000 0.750000 0.500000
O O1 0.901645 0.750000 0.500000
O O2 0.932559 0.854648 0.741828
O O3 0.150180 0.789877 0.693223
O O4 0.933569 0.750000 0.000000
O O5 0.068230 0.471165 0.711944
O O6 0.250000 0.411752 0.000000
O O7 0.977526 0.416958 0.166726
O O8 0.750000 0.444528 0.500000
O O9 0.750000 0.471382 0.000000
#
# Coordination Sequence:
#
# PCOD8205640 Si02
#       4
#     8   8   8   2
#     4  10  23  43  70 105 139 185 244 299 365 437
#     4  10  24  46  74 109 152 193 248 318 380 447
#     4  10  24  46  73 106 147 201 255 302 373 455
#     4   8  22  44  70  98 142 180 248 296 342 454
#
# _framework density 24.837668000000001
#
# number of rings (size 3 to 8) (size 9 to 14) (size 15 to 20)
#    0.923    1.231    0.000    0.462    0.000   21.538 
#    5.538    1.538    0.000    0.000    0.000    0.000 
#    0.000    0.000    0.000    0.000    0.000    0.000 
#
# Total GULP energy -322094.779766 kJ/mol
# GULP energy per Si atom -12388.260760 kJ/mol
# Density = 2.478114 g / cm^3
# Si number density = 24.837668 Si / 1000 Ang^3
#
#
#
# Elastic Constant Matrix: (Units=GPa)
#
#
# Indices 1 2 3 4 5 6 
#
# 1 127.5469 55.5124 35.2271 0.0000 0.0000 0.0000
# 2 55.5124 169.9280 62.2903 0.0000 0.0000 0.0000
# 3 35.2271 62.2903 151.8951 0.0000 0.0000 0.0000
# 4 0.0000 0.0000 0.0000 36.1682 0.0000 0.0000
# 5 0.0000 0.0000 0.0000 0.0000 -1.2406 0.0000
# 6 0.0000 0.0000 0.0000 0.0000 0.0000 63.4965
#
#
#
# Elastic Compliance Matrix: (Units=1/GPa)
#
#
# Indices 1 2 3 4 5 6 
#
# 1 0.009285 -0.002641 -0.001070 0.000000 0.000000 0.000000
# 2 -0.002641 0.007677 -0.002536 0.000000 0.000000 0.000000
# 3 -0.001070 -0.002536 0.007872 0.000000 0.000000 0.000000
# 4 0.000000 0.000000 0.000000 0.027649 0.000000 0.000000
# 5 0.000000 0.000000 0.000000 0.000000 -0.806072 0.000000
# 6 0.000000 0.000000 0.000000 0.000000 0.000000 0.015749
#
#
# Mechanical properties :
#
#
# Convention : Reuss Voigt Hill
#
# Bulk Modulus (GPa) = 81.03899 83.93663 82.48781
# Shear Modulus (GPa) = -6.93257 39.44082 16.25413
#
# Velocity S-wave (km/s) = -1.67249 3.98922 2.56093
# Velocity P-wave (km/s) = 5.38226 7.42199 6.48285
#
# Compressibility (1/GPa) = 0.01233974
#
# Stress axis : x y z
#
# Youngs Moduli (GPa) = 107.69686 130.25653 127.03825
#
# Poissons Ratio (x) = 0.34400 0.13598
# Poissons Ratio (y) = 0.28442 0.32215
# Poissons Ratio (z) = 0.11528 0.33031
#
# Static dielectric constant tensor:
#      x y z
#    x 4.783000 0.000000 0.000000 
#    y 0.000000 5.030790 0.000000 
#    z 0.000000 0.000000 2.621580 
# 
# 
# High freq. dielectric constant tensor:
#      x y z
#    x 2.004610 0.000000 0.000000 
#    y 0.000000 1.975770 0.000000 
#    z 0.000000 0.000000 1.978520 
# 
# From -- ./inp_files/988.got.cif
#   From: 2010.03.12/outbox.cif.g09.slc.cpg/sg50_1_cif.got.tgz:988.got - 2010.04.16 13:23:21.
