data_PCOD8205010
_publ_section_title
;
Structure prediction by ZEFSAII (Michael W. Deem and Ramdas Pophale) SiO2 
 PCOD8205010
Probable space group: P B A N
;
_chemical_formula_sum "Si O2"
_cell_formula_units_Z 64
_cell_length_a 16.875176
_cell_length_b 16.957806
_cell_length_c 10.578651
_cell_angle_alpha 90.000000
_cell_angle_beta 90.000000
_cell_angle_gamma 90.000000
_cell_volume 3027.249828
_symmetry_space_group_name_H-M "P B A N"
_symmetry_group_IT_number 50
_space_group.IT_coordinate_system_code '2'
_symmetry_cell_setting 'orthorhombic'
loop_
_space_group_symop_operation_xyz
x,y,z
1/2-x,1/2-y,z
x,1/2-y,-z
1/2-x,y,-z
-x,-y,-z
1/2+x,1/2+y,-z
-x,1/2+y,z
1/2+x,-y,z
loop_
_atom_site_type_symbol
_atom_site_label
_atom_site_fract_x
_atom_site_fract_y
_atom_site_fract_z
Si Si1 0.628474 0.879118 0.286431
Si Si2 0.161865 0.773007 0.853437
Si Si3 0.863066 0.479617 0.110221
Si Si4 0.375619 0.279705 0.861567
Si Si5 0.318902 0.953109 0.160226
Si Si6 0.195225 0.398527 0.305578
Si Si7 0.943061 0.840987 0.470904
Si Si8 0.962860 0.343720 0.229293
O O1 0.628006 0.790174 0.239330
O O2 0.713591 0.900405 0.348442
O O3 0.560477 0.888285 0.395467
O O4 0.612291 0.937166 0.170186
O O5 0.250000 0.750000 0.813108
O O6 0.147959 0.864991 0.822532
O O7 0.100793 0.726767 0.764545
O O8 0.146576 0.750000 0.000000
O O9 0.775756 0.448476 0.144210
O O10 0.926890 0.418219 0.159423
O O11 0.865286 0.489598 0.959682
O O12 0.310999 0.346207 0.823594
O O13 0.462980 0.316754 0.854546
O O14 0.354602 0.250000 0.000000
O O15 0.336108 0.011995 0.277385
O O16 0.142413 0.356115 0.409299
O O17 0.954275 0.750000 0.500000
O O18 0.012044 0.867410 0.373367
#
# Coordination Sequence:
#
# PCOD8205010 Si02
#       8
#     8   8   8   8   8   8   8   8
#     4  11  22  40  66  87 118 171 212 269 323 374
#     4  11  18  35  68  96 124 175 211 256 323 386
#     4  10  20  37  62  95 132 162 201 269 326 380
#     4  11  23  38  55  95 130 163 208 253 331 405
#     4  10  19  37  63 103 131 154 211 264 323 390
#     4  10  22  38  66  93 121 160 212 276 322 379
#     4  11  23  44  61  87 120 171 230 262 312 383
#     4  11  22  39  60  89 130 167 217 262 307 387
#
# _framework density 21.141300000000001
#
# number of rings (size 3 to 8) (size 9 to 14) (size 15 to 20)
#    0.000    1.375    5.000    2.625    0.000    3.000 
#    4.500    4.375    0.000    0.375    0.000    0.000 
#    0.000    0.000    0.000    0.000    0.000    0.000 
#
# Total GULP energy -793373.446325 kJ/mol
# GULP energy per Si atom -12396.460099 kJ/mol
# Density = 2.109318 g / cm^3
# Si number density = 21.141300 Si / 1000 Ang^3
#
#
#
# Elastic Constant Matrix: (Units=GPa)
#
#
# Indices 1 2 3 4 5 6 
#
# 1 70.3387 16.4814 24.4719 0.0000 0.0000 0.0000
# 2 16.4814 92.2624 4.8387 0.0000 0.0000 0.0000
# 3 24.4719 4.8387 70.0449 0.0000 0.0000 0.0000
# 4 0.0000 0.0000 0.0000 21.8666 0.0000 0.0000
# 5 0.0000 0.0000 0.0000 0.0000 31.2791 0.0000
# 6 0.0000 0.0000 0.0000 0.0000 0.0000 28.8405
#
#
#
# Elastic Compliance Matrix: (Units=1/GPa)
#
#
# Indices 1 2 3 4 5 6 
#
# 1 0.016832 -0.002708 -0.005694 0.000000 0.000000 0.000000
# 2 -0.002708 0.011314 0.000165 0.000000 0.000000 0.000000
# 3 -0.005694 0.000165 0.016254 0.000000 0.000000 0.000000
# 4 0.000000 0.000000 0.000000 0.045732 0.000000 0.000000
# 5 0.000000 0.000000 0.000000 0.000000 0.031970 0.000000
# 6 0.000000 0.000000 0.000000 0.000000 0.000000 0.034673
#
#
# Mechanical properties :
#
#
# Convention : Reuss Voigt Hill
#
# Bulk Modulus (GPa) = 35.80899 36.02555 35.91727
# Shear Modulus (GPa) = 27.38831 28.85417 28.12124
#
# Velocity S-wave (km/s) = 3.60319 3.69836 3.65109
# Velocity P-wave (km/s) = 5.85537 5.94260 5.89915
#
# Compressibility (1/GPa) = 0.02792595
#
# Stress axis : x y z
#
# Youngs Moduli (GPa) = 59.40903 88.38756 61.52169
#
# Poissons Ratio (x) = 0.23938 0.35029
# Poissons Ratio (y) = 0.16090 -0.01013
# Poissons Ratio (z) = 0.33826 -0.01455
#
# Static dielectric constant tensor:
#      x y z
#    x 3.758930 0.000000 0.000000 
#    y 0.000000 3.910830 0.000000 
#    z 0.000000 0.000000 3.864060 
# 
# 
# High freq. dielectric constant tensor:
#      x y z
#    x 1.818630 0.000000 0.000000 
#    y 0.000000 1.836340 0.000000 
#    z 0.000000 0.000000 1.811890 
# 
# From -- ./inp_files/21935.got.cif
#   From: 2010.03.12/outbox.cif.g09.slc.cpg/sg50_11_cif.got.tgz:21935.got - 2010.04.16 13:23:21.
