data_PCOD8205761
_publ_section_title
;
Structure prediction by ZEFSAII (Michael W. Deem and Ramdas Pophale) SiO2 
 PCOD8205761
Probable space group: P B A N
;
_chemical_formula_sum "Si O2"
_cell_formula_units_Z 56
_cell_length_a 14.796796
_cell_length_b 9.491065
_cell_length_c 19.887054
_cell_angle_alpha 90.000000
_cell_angle_beta 90.000000
_cell_angle_gamma 90.000000
_cell_volume 2792.885215
_symmetry_space_group_name_H-M "P B A N"
_symmetry_group_IT_number 50
_space_group.IT_coordinate_system_code '2'
_symmetry_cell_setting 'orthorhombic'
loop_
_space_group_symop_operation_xyz
x,y,z
1/2-x,1/2-y,z
x,1/2-y,-z
1/2-x,y,-z
-x,-y,-z
1/2+x,1/2+y,-z
-x,1/2+y,z
1/2+x,-y,z
loop_
_atom_site_type_symbol
_atom_site_label
_atom_site_fract_x
_atom_site_fract_y
_atom_site_fract_z
Si Si1 0.750039 0.913874 0.604734
Si Si2 0.402699 0.967571 0.841620
Si Si3 0.855077 0.280502 0.926771
Si Si4 0.405880 0.087083 0.499914
Si Si5 0.397960 0.025661 0.159559
Si Si6 0.645687 0.721752 0.926528
Si Si7 0.750181 0.419336 0.259417
O O1 0.750000 0.750000 0.627243
O O2 0.657661 0.946437 0.564160
O O3 0.842066 0.946505 0.563802
O O4 0.750326 0.021114 0.666072
O O5 0.406214 0.809591 0.870460
O O6 0.338105 0.979017 0.777716
O O7 0.501389 0.010166 0.815956
O O8 0.369970 0.061254 0.904618
O O9 0.750000 0.250000 0.923037
O O10 0.871458 0.442199 0.908313
O O11 0.895520 0.250000 0.000000
O O12 0.434555 0.250000 0.500000
O O13 0.500000 0.000000 0.500000
O O14 0.335915 0.983545 0.221751
O O15 0.392759 0.186894 0.135635
O O16 0.750000 0.750000 0.934097
O O17 0.599702 0.750000 0.000000
O O18 0.750000 0.250000 0.259722
#
# Coordination Sequence:
#
# PCOD8205761 Si02
#       7
#     8   8   8   8   8   8   8
#     4   9  22  42  68  95 133 175 203 247 300 349
#     4  12  24  40  60  85 118 157 205 260 318 376
#     4  11  21  41  65  82 113 157 200 260 329 381
#     4   9  19  41  70 106 138 165 207 247 292 350
#     4  12  24  40  60  85 118 157 205 260 318 376
#     4  11  23  39  61  88 115 149 202 266 327 387
#     4  12  25  45  60  87 127 167 214 251 301 369
#
# _framework density 20.05095
#
# number of rings (size 3 to 8) (size 9 to 14) (size 15 to 20)
#    0.000    1.143    4.286    2.571    2.000    8.000 
#    0.000    4.286    0.000    0.000    0.000    0.000 
#    0.000    0.000    0.000    0.000    0.000    0.000 
#
# Total GULP energy -694316.629069 kJ/mol
# GULP energy per Si atom -12398.511233 kJ/mol
# Density = 2.000531 g / cm^3
# Si number density = 20.050950 Si / 1000 Ang^3
#
#
#
# Elastic Constant Matrix: (Units=GPa)
#
#
# Indices 1 2 3 4 5 6 
#
# 1 161.8978 35.0202 53.1413 0.0000 0.0000 0.0000
# 2 35.0202 75.3277 43.3553 0.0000 0.0000 0.0000
# 3 53.1413 43.3553 130.6156 0.0000 0.0000 0.0000
# 4 0.0000 0.0000 0.0000 40.7047 0.0000 0.0000
# 5 0.0000 0.0000 0.0000 0.0000 -55.5343 0.0000
# 6 0.0000 0.0000 0.0000 0.0000 0.0000 29.5966
#
#
#
# Elastic Compliance Matrix: (Units=1/GPa)
#
#
# Indices 1 2 3 4 5 6 
#
# 1 0.007390 -0.002108 -0.002307 0.000000 0.000000 0.000000
# 2 -0.002108 0.017012 -0.004789 0.000000 0.000000 0.000000
# 3 -0.002307 -0.004789 0.010184 0.000000 0.000000 0.000000
# 4 0.000000 0.000000 0.000000 0.024567 0.000000 0.000000
# 5 0.000000 0.000000 0.000000 0.000000 -0.018007 0.000000
# 6 0.000000 0.000000 0.000000 0.000000 0.000000 0.033788
#
#
# Mechanical properties :
#
#
# Convention : Reuss Voigt Hill
#
# Bulk Modulus (GPa) = 61.81198 70.09719 65.95459
# Shear Modulus (GPa) = 50.64093 18.70835 34.67464
#
# Velocity S-wave (km/s) = 5.03100 3.05788 4.16303
# Velocity P-wave (km/s) = 8.04004 6.89224 7.48817
#
# Compressibility (1/GPa) = 0.01617809
#
# Stress axis : x y z
#
# Youngs Moduli (GPa) = 135.31959 58.78317 98.19038
#
# Poissons Ratio (x) = 0.12390 0.22652
# Poissons Ratio (y) = 0.28523 0.47025
# Poissons Ratio (z) = 0.31218 0.28152
#
# Static dielectric constant tensor:
#      x y z
#    x 3.757400 0.000000 0.000000 
#    y 0.000000 2.808400 0.000000 
#    z 0.000000 0.000000 3.544570 
# 
# 
# High freq. dielectric constant tensor:
#      x y z
#    x 1.794080 0.000000 0.000000 
#    y 0.000000 1.790650 0.000000 
#    z 0.000000 0.000000 1.766200 
# 
# From -- ./inp_files/30981.got.cif
#   From: 2010.03.12/outbox.cif.g09.slc.cpg/sg50_16_cif.got.tgz:30981.got - 2010.04.16 13:23:21.
