data_PCOD8205008
_publ_section_title
;
Structure prediction by ZEFSAII (Michael W. Deem and Ramdas Pophale) SiO2 
 PCOD8205008
Probable space group: P B A N
;
_chemical_formula_sum "Si O2"
_cell_formula_units_Z 48
_cell_length_a 9.201709
_cell_length_b 18.019510
_cell_length_c 14.821649
_cell_angle_alpha 90.000000
_cell_angle_beta 90.000000
_cell_angle_gamma 90.000000
_cell_volume 2457.581880
_symmetry_space_group_name_H-M "P B A N"
_symmetry_group_IT_number 50
_space_group.IT_coordinate_system_code '2'
_symmetry_cell_setting 'orthorhombic'
loop_
_space_group_symop_operation_xyz
x,y,z
1/2-x,1/2-y,z
x,1/2-y,-z
1/2-x,y,-z
-x,-y,-z
1/2+x,1/2+y,-z
-x,1/2+y,z
1/2+x,-y,z
loop_
_atom_site_type_symbol
_atom_site_label
_atom_site_fract_x
_atom_site_fract_y
_atom_site_fract_z
Si Si1 0.916770 0.232339 0.602822
Si Si2 0.399030 0.542324 0.749401
Si Si3 0.898403 0.666065 0.826506
Si Si4 0.586234 0.816010 0.242765
Si Si5 0.086748 0.584881 0.691931
Si Si6 0.120703 0.034902 0.939021
O O1 0.750000 0.250000 0.630993
O O2 0.950038 0.250000 0.500000
O O3 0.940446 0.143387 0.611403
O O4 0.032311 0.278749 0.663178
O O5 0.489675 0.613577 0.780232
O O6 0.256007 0.565005 0.695764
O O7 0.493408 0.490691 0.681458
O O8 0.359688 0.499260 0.840088
O O9 0.756067 0.658977 0.759673
O O10 0.932807 0.753856 0.836741
O O11 0.881378 0.624696 0.923152
O O12 0.038650 0.626561 0.783009
O O13 0.250000 0.010834 0.000000
O O14 0.000000 0.000000 0.000000
#
# Coordination Sequence:
#
# PCOD8205008 Si02
#       6
#     8   8   8   8   8   8
#     4  10  20  38  64  91 122 156 205 257 313 360
#     4  11  20  35  59  84 119 157 202 246 300 374
#     4   9  20  36  57  84 116 154 207 238 297 377
#     4  10  19  37  61  86 115 160 199 251 297 371
#     4  10  20  36  59  89 115 163 201 241 299 377
#     4  11  21  36  55  82 115 154 197 256 309 349
#
# _framework density 19.531393999999999
#
# number of rings (size 3 to 8) (size 9 to 14) (size 15 to 20)
#    0.000    1.833    1.667    5.000    0.000    0.000 
#    0.000   13.333    0.000    1.000    0.000    0.000 
#    0.000    0.000    0.000    0.000    0.000    0.000 
#
# Total GULP energy -594626.926755 kJ/mol
# GULP energy per Si atom -12388.060974 kJ/mol
# Density = 1.948694 g / cm^3
# Si number density = 19.531394 Si / 1000 Ang^3
#
#
#
# Elastic Constant Matrix: (Units=GPa)
#
#
# Indices 1 2 3 4 5 6 
#
# 1 106.8864 54.9339 26.3028 0.0000 0.0000 0.0000
# 2 54.9339 147.2707 43.3386 0.0000 0.0000 0.0000
# 3 26.3028 43.3386 82.2452 0.0000 0.0000 0.0000
# 4 0.0000 0.0000 0.0000 26.4785 0.0000 0.0000
# 5 0.0000 0.0000 0.0000 0.0000 23.9388 0.0000
# 6 0.0000 0.0000 0.0000 0.0000 0.0000 35.2619
#
#
#
# Elastic Compliance Matrix: (Units=1/GPa)
#
#
# Indices 1 2 3 4 5 6 
#
# 1 0.011776 -0.003887 -0.001718 0.000000 0.000000 0.000000
# 2 -0.003887 0.009320 -0.003668 0.000000 0.000000 0.000000
# 3 -0.001718 -0.003668 0.014641 0.000000 0.000000 0.000000
# 4 0.000000 0.000000 0.000000 0.037767 0.000000 0.000000
# 5 0.000000 0.000000 0.000000 0.000000 0.041773 0.000000
# 6 0.000000 0.000000 0.000000 0.000000 0.000000 0.028359
#
#
# Mechanical properties :
#
#
# Convention : Reuss Voigt Hill
#
# Bulk Modulus (GPa) = 58.16944 65.06142 61.61543
# Shear Modulus (GPa) = 29.77760 31.25762 30.51761
#
# Velocity S-wave (km/s) = 3.90885 4.00481 3.95712
# Velocity P-wave (km/s) = 7.08656 7.40056 7.24526
#
# Compressibility (1/GPa) = 0.01719116
#
# Stress axis : x y z
#
# Youngs Moduli (GPa) = 84.91668 107.30184 68.30220
#
# Poissons Ratio (x) = 0.41710 0.11733
# Poissons Ratio (y) = 0.33009 0.25051
# Poissons Ratio (z) = 0.14587 0.39355
#
# Static dielectric constant tensor:
#      x y z
#    x 6.801630 0.000000 0.000000 
#    y 0.000000 3.718410 0.000000 
#    z 0.000000 0.000000 3.411060 
# 
# 
# High freq. dielectric constant tensor:
#      x y z
#    x 1.773440 0.000000 0.000000 
#    y 0.000000 1.783640 0.000000 
#    z 0.000000 0.000000 1.714170 
# 
# From -- ./inp_files/24989.got.cif
#   From: 2010.03.12/outbox.cif.g09.slc.cpg/sg50_13_cif.got.tgz:24989.got - 2010.04.16 13:23:21.
