data_PCOD8205903
_publ_section_title
;
Structure prediction by ZEFSAII (Michael W. Deem and Ramdas Pophale) SiO2 
 PCOD8205903
Probable space group: P B A N
;
_chemical_formula_sum "Si O2"
_cell_formula_units_Z 32
_cell_length_a 19.518380
_cell_length_b 8.914204
_cell_length_c 7.860705
_cell_angle_alpha 90.000000
_cell_angle_beta 90.000000
_cell_angle_gamma 90.000000
_cell_volume 1367.690517
_symmetry_space_group_name_H-M "P B A N"
_symmetry_group_IT_number 50
_space_group.IT_coordinate_system_code '2'
_symmetry_cell_setting 'orthorhombic'
loop_
_space_group_symop_operation_xyz
x,y,z
1/2-x,1/2-y,z
x,1/2-y,-z
1/2-x,y,-z
-x,-y,-z
1/2+x,1/2+y,-z
-x,1/2+y,z
1/2+x,-y,z
loop_
_atom_site_type_symbol
_atom_site_label
_atom_site_fract_x
_atom_site_fract_y
_atom_site_fract_z
Si Si1 0.828394 0.404018 0.214238
Si Si2 0.674431 0.066153 0.813733
Si Si3 0.058818 0.157101 0.826741
Si Si4 0.540284 0.544510 0.667750
O O1 0.751493 0.461354 0.252780
O O2 0.844138 0.230348 0.258907
O O3 0.879843 0.498713 0.330794
O O4 0.837091 0.431590 0.015104
O O5 0.625432 0.931184 0.753552
O O6 0.037088 0.277057 0.684581
O O7 0.072201 0.250000 0.000000
O O8 0.996123 0.037505 0.831115
O O9 0.500000 0.500000 0.500000
#
# Coordination Sequence:
#
# PCOD8205903 Si02
#       4
#     8   8   8   8
#     4   9  19  39  66  99 138 172 222 290 355 422
#     4   9  19  38  68 102 129 172 232 290 346 413
#     4  12  24  41  67 100 133 185 243 296 347 421
#     4  12  26  42  62  96 143 186 229 293 365 428
#
# _framework density 23.397106000000001
#
# number of rings (size 3 to 8) (size 9 to 14) (size 15 to 20)
#    0.000    1.500    2.500    4.500    3.500    1.000 
#    0.000    1.250    0.000    6.000    0.000    0.000 
#    0.000    0.000    0.000    0.000    0.000    0.000 
#
# Total GULP energy -396537.870496 kJ/mol
# GULP energy per Si atom -12391.808453 kJ/mol
# Density = 2.334385 g / cm^3
# Si number density = 23.397106 Si / 1000 Ang^3
#
#
#
# Elastic Constant Matrix: (Units=GPa)
#
#
# Indices 1 2 3 4 5 6 
#
# 1 157.5338 80.6266 27.5607 0.0000 0.0000 0.0000
# 2 80.6266 152.6589 17.3805 0.0000 0.0000 0.0000
# 3 27.5607 17.3805 58.2390 0.0000 0.0000 0.0000
# 4 0.0000 0.0000 0.0000 27.3948 0.0000 0.0000
# 5 0.0000 0.0000 0.0000 0.0000 33.9487 0.0000
# 6 0.0000 0.0000 0.0000 0.0000 0.0000 59.3972
#
#
#
# Elastic Compliance Matrix: (Units=1/GPa)
#
#
# Indices 1 2 3 4 5 6 
#
# 1 0.009179 -0.004506 -0.002999 0.000000 0.000000 0.000000
# 2 -0.004506 0.008993 -0.000551 0.000000 0.000000 0.000000
# 3 -0.002999 -0.000551 0.018754 0.000000 0.000000 0.000000
# 4 0.000000 0.000000 0.000000 0.036503 0.000000 0.000000
# 5 0.000000 0.000000 0.000000 0.000000 0.029456 0.000000
# 6 0.000000 0.000000 0.000000 0.000000 0.000000 0.016836
#
#
# Mechanical properties :
#
#
# Convention : Reuss Voigt Hill
#
# Bulk Modulus (GPa) = 48.04616 68.84082 58.44349
# Shear Modulus (GPa) = 35.02062 40.33907 37.67984
#
# Velocity S-wave (km/s) = 3.87304 4.15674 4.01739
# Velocity P-wave (km/s) = 6.37026 7.24739 6.82293
#
# Compressibility (1/GPa) = 0.02081332
#
# Stress axis : x y z
#
# Youngs Moduli (GPa) = 108.94550 111.19309 53.32094
#
# Poissons Ratio (x) = 0.50108 0.15990
# Poissons Ratio (y) = 0.49095 0.02940
# Poissons Ratio (z) = 0.32672 0.06131
#
# Static dielectric constant tensor:
#      x y z
#    x 4.572400 0.000000 0.000000 
#    y 0.000000 4.711350 0.000000 
#    z 0.000000 0.000000 3.768220 
# 
# 
# High freq. dielectric constant tensor:
#      x y z
#    x 1.932920 0.000000 0.000000 
#    y 0.000000 1.935530 0.000000 
#    z 0.000000 0.000000 1.896350 
# 
# From -- ./inp_files/14826.got.cif
#   From: 2010.03.12/outbox.cif.g09.slc.cpg/sg50_8_cif.got.tgz:14826.got - 2010.04.16 13:23:21.
