data_PCOD8205623
_publ_section_title
;
Structure prediction by ZEFSAII (Michael W. Deem and Ramdas Pophale) SiO2 
 PCOD8205623
Probable space group: P B A N
;
_chemical_formula_sum "Si O2"
_cell_formula_units_Z 32
_cell_length_a 18.011427
_cell_length_b 5.552858
_cell_length_c 13.756378
_cell_angle_alpha 90.000000
_cell_angle_beta 90.000000
_cell_angle_gamma 90.000000
_cell_volume 1375.842722
_symmetry_space_group_name_H-M "P B A N"
_symmetry_group_IT_number 50
_space_group.IT_coordinate_system_code '2'
_symmetry_cell_setting 'orthorhombic'
loop_
_space_group_symop_operation_xyz
x,y,z
1/2-x,1/2-y,z
x,1/2-y,-z
1/2-x,y,-z
-x,-y,-z
1/2+x,1/2+y,-z
-x,1/2+y,z
1/2+x,-y,z
loop_
_atom_site_type_symbol
_atom_site_label
_atom_site_fract_x
_atom_site_fract_y
_atom_site_fract_z
Si Si1 0.174162 0.398837 0.636048
Si Si2 0.250000 0.750000 0.500000
Si Si3 0.951549 0.750000 0.500000
Si Si4 0.178578 0.406363 0.851725
Si Si5 0.973168 0.762937 0.109095
Si Si6 0.750000 0.250000 0.000000
O O1 0.250000 0.250000 0.635716
O O2 0.189705 0.616251 0.564876
O O3 0.102583 0.251237 0.595492
O O4 0.156758 0.502113 0.744200
O O5 0.000000 0.500000 0.500000
O O6 0.250000 0.250000 0.840462
O O7 0.115525 0.227444 0.891032
O O8 0.192816 0.611011 0.930687
O O9 0.997574 0.508565 0.161011
O O10 0.006211 0.750000 0.000000
#
# Coordination Sequence:
#
# PCOD8205623 Si02
#       6
#     8   2   4   8   8   2
#     4  11  24  45  73 105 139 199 246 296 382 460
#     4  12  18  44  76  98 140 186 252 302 350 472
#     4  12  26  46  75 111 154 190 242 322 388 444
#     4  11  26  43  70 104 145 189 251 311 365 443
#     4  10  23  42  67  95 136 190 234 286 356 424
#     4  12  24  44  68 108 144 192 254 324 366 414
#
# _framework density 23.258472999999999
#
# number of rings (size 3 to 8) (size 9 to 14) (size 15 to 20)
#    0.000    1.000    2.500    3.375    8.750    2.000 
#    0.000    0.000    0.000    0.000    0.000    0.000 
#    0.000    0.000    0.000    0.000    0.000    0.000 
#
# Total GULP energy -396437.292843 kJ/mol
# GULP energy per Si atom -12388.665401 kJ/mol
# Density = 2.320554 g / cm^3
# Si number density = 23.258473 Si / 1000 Ang^3
#
#
#
# Elastic Constant Matrix: (Units=GPa)
#
#
# Indices 1 2 3 4 5 6 
#
# 1 140.3042 57.4036 36.9469 0.0000 0.0000 0.0000
# 2 57.4036 155.2760 54.0667 0.0000 0.0000 0.0000
# 3 36.9469 54.0667 159.3882 0.0000 0.0000 0.0000
# 4 0.0000 0.0000 0.0000 41.1193 0.0000 0.0000
# 5 0.0000 0.0000 0.0000 0.0000 37.6771 0.0000
# 6 0.0000 0.0000 0.0000 0.0000 0.0000 34.0499
#
#
#
# Elastic Compliance Matrix: (Units=1/GPa)
#
#
# Indices 1 2 3 4 5 6 
#
# 1 0.008544 -0.002800 -0.001031 0.000000 0.000000 0.000000
# 2 -0.002800 0.008220 -0.002139 0.000000 0.000000 0.000000
# 3 -0.001031 -0.002139 0.007239 0.000000 0.000000 0.000000
# 4 0.000000 0.000000 0.000000 0.024319 0.000000 0.000000
# 5 0.000000 0.000000 0.000000 0.000000 0.026541 0.000000
# 6 0.000000 0.000000 0.000000 0.000000 0.000000 0.029369
#
#
# Mechanical properties :
#
#
# Convention : Reuss Voigt Hill
#
# Bulk Modulus (GPa) = 82.89800 83.53364 83.21582
# Shear Modulus (GPa) = 41.59953 43.00600 42.30277
#
# Velocity S-wave (km/s) = 4.23374 4.30472 4.26938
# Velocity P-wave (km/s) = 7.72133 7.79107 7.75628
#
# Compressibility (1/GPa) = 0.01206302
#
# Stress axis : x y z
#
# Youngs Moduli (GPa) = 117.03660 121.65273 138.14703
#
# Poissons Ratio (x) = 0.34060 0.14241
# Poissons Ratio (y) = 0.32768 0.29555
# Poissons Ratio (z) = 0.12065 0.26026
#
# Static dielectric constant tensor:
#      x y z
#    x 4.327570 0.000000 0.000000 
#    y 0.000000 4.376820 0.000000 
#    z 0.000000 0.000000 5.027990 
# 
# 
# High freq. dielectric constant tensor:
#      x y z
#    x 1.933720 0.000000 0.000000 
#    y 0.000000 1.913810 0.000000 
#    z 0.000000 0.000000 1.914210 
# 
# From -- ./inp_files/23695.got.cif
#   From: 2010.03.12/outbox.cif.g09.slc.cpg/sg50_12_cif.got.tgz:23695.got - 2010.04.16 13:23:21.
