data_PCOD8205651
_publ_section_title
;
Structure prediction by ZEFSAII (Michael W. Deem and Ramdas Pophale) SiO2 
 PCOD8205651
Probable space group: P B A N
;
_chemical_formula_sum "Si O2"
_cell_formula_units_Z 22
_cell_length_a 15.961834
_cell_length_b 11.065389
_cell_length_c 5.522549
_cell_angle_alpha 90.000000
_cell_angle_beta 90.000000
_cell_angle_gamma 90.000000
_cell_volume 975.414155
_symmetry_space_group_name_H-M "P B A N"
_symmetry_group_IT_number 50
_space_group.IT_coordinate_system_code '2'
_symmetry_cell_setting 'orthorhombic'
loop_
_space_group_symop_operation_xyz
x,y,z
1/2-x,1/2-y,z
x,1/2-y,-z
1/2-x,y,-z
-x,-y,-z
1/2+x,1/2+y,-z
-x,1/2+y,z
1/2+x,-y,z
loop_
_atom_site_type_symbol
_atom_site_label
_atom_site_fract_x
_atom_site_fract_y
_atom_site_fract_z
Si Si1 0.961470 0.750000 0.500000
Si Si2 0.832559 0.567343 0.348434
Si Si3 0.250000 0.250000 0.000000
Si Si4 0.379173 0.697831 0.251400
O O1 0.905731 0.628416 0.506171
O O2 0.022559 0.763751 0.265599
O O3 0.750000 0.537272 0.500000
O O4 0.867611 0.445560 0.232582
O O5 0.812136 0.666440 0.148848
O O6 0.334934 0.750000 0.500000
O O7 0.340875 0.750000 0.000000
#
# Coordination Sequence:
#
# PCOD8205651 Si02
#       4
#     4   8   2   8
#     4  10  23  46  73 106 142 188 238 296 353 418
#     4  12  25  47  69 106 142 189 241 295 353 430
#     4  12  26  40  78  94 148 180 252 290 362 412
#     4  10  27  46  73 106 144 187 235 292 359 421
#
# _framework density 22.554523
#
# number of rings (size 3 to 8) (size 9 to 14) (size 15 to 20)
#    1.091    0.000    3.636    1.091    7.636    2.182 
#    0.000    0.000    0.000    0.000    0.000    0.000 
#    0.000    0.000    0.000    0.000    0.000    0.000 
#
# Total GULP energy -272608.473710 kJ/mol
# GULP energy per Si atom -12391.294260 kJ/mol
# Density = 2.250319 g / cm^3
# Si number density = 22.554523 Si / 1000 Ang^3
#
#
#
# Elastic Constant Matrix: (Units=GPa)
#
#
# Indices 1 2 3 4 5 6 
#
# 1 90.3605 34.1720 9.6880 0.0000 0.0000 0.0000
# 2 34.1720 182.9840 53.7807 0.0000 0.0000 0.0000
# 3 9.6880 53.7807 143.3399 0.0000 0.0000 0.0000
# 4 0.0000 0.0000 0.0000 103.1146 0.0000 0.0000
# 5 0.0000 0.0000 0.0000 0.0000 344.7225 0.0000
# 6 0.0000 0.0000 0.0000 0.0000 0.0000 35.9163
#
#
#
# Elastic Compliance Matrix: (Units=1/GPa)
#
#
# Indices 1 2 3 4 5 6 
#
# 1 0.011908 -0.002234 0.000033 0.000000 0.000000 0.000000
# 2 -0.002234 0.006561 -0.002311 0.000000 0.000000 0.000000
# 3 0.000033 -0.002311 0.007841 0.000000 0.000000 0.000000
# 4 0.000000 0.000000 0.000000 0.009698 0.000000 0.000000
# 5 0.000000 0.000000 0.000000 0.000000 0.002901 0.000000
# 6 0.000000 0.000000 0.000000 0.000000 0.000000 0.027842
#
#
# Mechanical properties :
#
#
# Convention : Reuss Voigt Hill
#
# Bulk Modulus (GPa) = 57.84354 67.99622 62.91988
# Shear Modulus (GPa) = 61.32217 118.02027 89.67122
#
# Velocity S-wave (km/s) = 5.21991 7.24156 6.31220
# Velocity P-wave (km/s) = 7.87602 10.00666 9.00458
#
# Compressibility (1/GPa) = 0.01728801
#
# Stress axis : x y z
#
# Youngs Moduli (GPa) = 83.97798 152.41034 127.53177
#
# Poissons Ratio (x) = 0.34041 -0.00423
# Poissons Ratio (y) = 0.18757 0.29470
# Poissons Ratio (z) = -0.00279 0.35219
#
# Static dielectric constant tensor:
#      x y z
#    x 1.334040 0.000000 0.000000 
#    y 0.000000 4.105210 0.000000 
#    z 0.000000 0.000000 4.047940 
# 
# 
# High freq. dielectric constant tensor:
#      x y z
#    x 1.893460 0.000000 0.000000 
#    y 0.000000 1.898580 0.000000 
#    z 0.000000 0.000000 1.874420 
# 
# From -- ./inp_files/1513.got.cif
#   From: 2010.03.12/outbox.cif.g09.slc.cpg/sg50_1_cif.got.tgz:1513.got - 2010.04.16 13:23:21.
