data_PCOD8205187
_publ_section_title
;
Structure prediction by ZEFSAII (Michael W. Deem and Ramdas Pophale) SiO2 
 PCOD8205187
Probable space group: P B A N
;
_chemical_formula_sum "Si O2"
_cell_formula_units_Z 64
_cell_length_a 12.368823
_cell_length_b 23.578987
_cell_length_c 11.032724
_cell_angle_alpha 90.000000
_cell_angle_beta 90.000000
_cell_angle_gamma 90.000000
_cell_volume 3217.631253
_symmetry_space_group_name_H-M "P B A N"
_symmetry_group_IT_number 50
_space_group.IT_coordinate_system_code '2'
_symmetry_cell_setting 'orthorhombic'
loop_
_space_group_symop_operation_xyz
x,y,z
1/2-x,1/2-y,z
x,1/2-y,-z
1/2-x,y,-z
-x,-y,-z
1/2+x,1/2+y,-z
-x,1/2+y,z
1/2+x,-y,z
loop_
_atom_site_type_symbol
_atom_site_label
_atom_site_fract_x
_atom_site_fract_y
_atom_site_fract_z
Si Si1 0.632181 0.856423 0.366659
Si Si2 0.951412 0.419990 0.768702
Si Si3 0.625103 0.388158 0.974475
Si Si4 0.478724 0.243596 0.366068
Si Si5 0.231100 0.896769 0.359146
Si Si6 0.961840 0.454992 0.246369
Si Si7 0.369044 0.125255 0.357579
Si Si8 0.843269 0.208662 0.800167
O O1 0.527425 0.875943 0.296923
O O2 0.619921 0.788299 0.365632
O O3 0.631165 0.884877 0.498817
O O4 0.746702 0.871719 0.305406
O O5 0.836669 0.424067 0.701781
O O6 0.013434 0.479213 0.764667
O O7 0.940933 0.394671 0.902707
O O8 0.578219 0.434833 0.884102
O O9 0.610112 0.325153 0.916951
O O10 0.750000 0.401480 0.000000
O O11 0.532499 0.250000 0.500000
O O12 0.431483 0.182863 0.332368
O O13 0.571005 0.250863 0.264154
O O14 0.250000 0.885161 0.500000
O O15 0.200444 0.837498 0.296210
O O16 0.132755 0.941689 0.344087
O O17 0.072372 0.424950 0.286884
O O18 0.750000 0.250000 0.847636
#
# Coordination Sequence:
#
# PCOD8205187 Si02
#       8
#     8   8   8   8   8   8   8   8
#     4  10  23  37  64  97 130 171 214 260 324 395
#     4  12  25  43  65  95 127 169 227 268 330 384
#     4  11  23  47  64  89 127 167 221 272 322 380
#     4  10  20  37  63  94 132 168 209 258 318 393
#     4  11  24  41  63  97 140 165 210 277 333 403
#     4  11  24  43  67  92 123 175 219 273 328 384
#     4  10  20  42  63  93 132 171 212 263 324 393
#     4  11  23  38  65  97 132 173 215 263 335 395
#
# _framework density 19.890408999999998
#
# number of rings (size 3 to 8) (size 9 to 14) (size 15 to 20)
#    0.000    1.250    5.000    2.250    5.250    3.750 
#    0.000    0.625    0.000    0.000    3.250    0.000 
#    0.000    0.000    0.000    0.000    0.000    0.000 
#
# Total GULP energy -793505.241197 kJ/mol
# GULP energy per Si atom -12398.519394 kJ/mol
# Density = 1.984514 g / cm^3
# Si number density = 19.890409 Si / 1000 Ang^3
#
#
#
# Elastic Constant Matrix: (Units=GPa)
#
#
# Indices 1 2 3 4 5 6 
#
# 1 69.9616 8.9945 16.3843 0.0000 0.0000 0.0000
# 2 8.9945 69.5344 28.7088 0.0000 0.0000 0.0000
# 3 16.3843 28.7088 83.4756 0.0000 0.0000 0.0000
# 4 0.0000 0.0000 0.0000 15.4757 0.0000 0.0000
# 5 0.0000 0.0000 0.0000 0.0000 27.7661 0.0000
# 6 0.0000 0.0000 0.0000 0.0000 0.0000 29.8293
#
#
#
# Elastic Compliance Matrix: (Units=1/GPa)
#
#
# Indices 1 2 3 4 5 6 
#
# 1 0.015025 -0.000846 -0.002658 0.000000 0.000000 0.000000
# 2 -0.000846 0.016809 -0.005615 0.000000 0.000000 0.000000
# 3 -0.002658 -0.005615 0.014432 0.000000 0.000000 0.000000
# 4 0.000000 0.000000 0.000000 0.064617 0.000000 0.000000
# 5 0.000000 0.000000 0.000000 0.000000 0.036015 0.000000
# 6 0.000000 0.000000 0.000000 0.000000 0.000000 0.033524
#
#
# Mechanical properties :
#
#
# Convention : Reuss Voigt Hill
#
# Bulk Modulus (GPa) = 35.67837 36.79410 36.23624
# Shear Modulus (GPa) = 24.03806 25.87315 24.95561
#
# Velocity S-wave (km/s) = 3.48016 3.61055 3.54595
# Velocity P-wave (km/s) = 5.84167 5.99333 5.91799
#
# Compressibility (1/GPa) = 0.02802818
#
# Stress axis : x y z
#
# Youngs Moduli (GPa) = 66.55661 59.49177 69.28891
#
# Poissons Ratio (x) = 0.05034 0.18417
# Poissons Ratio (y) = 0.05631 0.38905
# Poissons Ratio (z) = 0.17691 0.33404
#
# Static dielectric constant tensor:
#      x y z
#    x 3.838750 0.000000 0.000000 
#    y 0.000000 3.531300 0.000000 
#    z 0.000000 0.000000 3.687230 
# 
# 
# High freq. dielectric constant tensor:
#      x y z
#    x 1.783870 0.000000 0.000000 
#    y 0.000000 1.775190 0.000000 
#    z 0.000000 0.000000 1.769070 
# 
# From -- ./inp_files/20533.got.cif
#   From: 2010.03.12/outbox.cif.g09.slc.cpg/sg50_11_cif.got.tgz:20533.got - 2010.04.16 13:23:21.
