data_PCOD8205778
_publ_section_title
;
Structure prediction by ZEFSAII (Michael W. Deem and Ramdas Pophale) SiO2 
 PCOD8205778
Probable space group: P B A N
;
_chemical_formula_sum "Si O2"
_cell_formula_units_Z 64
_cell_length_a 11.963616
_cell_length_b 30.403731
_cell_length_c 8.842571
_cell_angle_alpha 90.000000
_cell_angle_beta 90.000000
_cell_angle_gamma 90.000000
_cell_volume 3216.384066
_symmetry_space_group_name_H-M "P B A N"
_symmetry_group_IT_number 50
_space_group.IT_coordinate_system_code '2'
_symmetry_cell_setting 'orthorhombic'
loop_
_space_group_symop_operation_xyz
x,y,z
1/2-x,1/2-y,z
x,1/2-y,-z
1/2-x,y,-z
-x,-y,-z
1/2+x,1/2+y,-z
-x,1/2+y,z
1/2+x,-y,z
loop_
_atom_site_type_symbol
_atom_site_label
_atom_site_fract_x
_atom_site_fract_y
_atom_site_fract_z
Si Si1 0.019810 0.700521 0.673367
Si Si2 0.976604 0.049999 0.322278
Si Si3 0.750001 0.421544 0.171105
Si Si4 0.976606 0.050000 0.677721
Si Si5 0.880219 0.875523 0.176964
Si Si6 0.250001 0.682411 0.171326
Si Si7 0.980188 0.200521 0.326633
Si Si8 0.380221 0.375523 0.176962
O O1 0.142436 0.700455 0.743618
O O2 0.937573 0.668292 0.761224
O O3 0.971412 0.750000 0.685378
O O4 0.027590 0.684925 0.500000
O O5 0.856829 0.061520 0.258135
O O6 0.976693 0.057661 0.500000
O O7 0.071735 0.080563 0.251541
O O8 0.999998 1.000000 0.277692
O O9 0.856832 0.438479 0.258132
O O10 0.750000 0.369614 0.172752
O O11 0.750000 0.439661 0.000000
O O12 0.071738 0.080564 0.748455
O O13 0.749999 0.872948 0.215205
O O14 0.904705 0.878091 0.000001
O O15 0.142439 0.700456 0.256384
O O16 0.250000 0.700246 0.000000
O O17 0.062423 0.168292 0.238774
#
# Coordination Sequence:
#
# PCOD8205778 Si02
#       8
#     8   8   8   8   8   8   8   8
#     4  11  24  41  64  94 126 164 209 257 312 372
#     4  11  25  43  66  96 128 165 210 258 312 371
#     4  11  23  40  66  97 129 166 208 256 313 369
#     4  11  25  43  66  96 128 165 210 258 312 371
#     4  11  25  44  65  92 125 165 211 258 312 371
#     4  11  22  38  63  96 129 164 206 255 313 371
#     4  11  24  41  64  94 126 164 209 257 312 372
#     4  11  25  44  65  92 125 165 211 258 312 371
#
# _framework density 19.898121
#
# number of rings (size 3 to 8) (size 9 to 14) (size 15 to 20)
#    0.000    1.000    2.500    3.375    1.750    9.000 
#    0.000    2.500    0.000    0.000    0.000    0.000 
#    0.000    0.000    0.000    0.000    0.000    0.000 
#
# Total GULP energy -793952.264582 kJ/mol
# GULP energy per Si atom -12405.504134 kJ/mol
# Density = 1.985283 g / cm^3
# Si number density = 19.898121 Si / 1000 Ang^3
#
#
#
# Elastic Constant Matrix: (Units=GPa)
#
#
# Indices 1 2 3 4 5 6 
#
# 1 118.7820 63.7061 55.8067 0.0000 0.0000 0.0000
# 2 63.7061 136.3040 58.4047 0.0000 0.0000 0.0000
# 3 55.8067 58.4047 96.6340 0.0000 0.0000 0.0000
# 4 0.0000 0.0000 0.0000 -43.1376 0.0000 0.0000
# 5 0.0000 0.0000 0.0000 0.0000 62.0323 0.0000
# 6 0.0000 0.0000 0.0000 0.0000 0.0000 66.4523
#
#
#
# Elastic Compliance Matrix: (Units=1/GPa)
#
#
# Indices 1 2 3 4 5 6 
#
# 1 0.012877 -0.003822 -0.005127 0.000000 0.000000 0.000000
# 2 -0.003822 0.011035 -0.004462 0.000000 0.000000 0.000000
# 3 -0.005127 -0.004462 0.016006 0.000000 0.000000 0.000000
# 4 0.000000 0.000000 0.000000 -0.023182 0.000000 0.000000
# 5 0.000000 0.000000 0.000000 0.000000 0.016121 0.000000
# 6 0.000000 0.000000 0.000000 0.000000 0.000000 0.015048
#
#
# Mechanical properties :
#
#
# Convention : Reuss Voigt Hill
#
# Bulk Modulus (GPa) = 76.35704 78.61722 77.48713
# Shear Modulus (GPa) = 63.21705 28.65622 45.93664
#
# Velocity S-wave (km/s) = 5.64264 3.79904 4.80999
# Velocity P-wave (km/s) = 8.99498 7.67068 8.35910
#
# Compressibility (1/GPa) = 0.01309637
#
# Stress axis : x y z
#
# Youngs Moduli (GPa) = 77.65642 90.62240 62.47653
#
# Poissons Ratio (x) = 0.34634 0.32031
# Poissons Ratio (y) = 0.29679 0.27878
# Poissons Ratio (z) = 0.39813 0.40438
#
# Static dielectric constant tensor:
#      x y z
#    x 3.709940 0.000000 0.000000 
#    y 0.000000 3.960790 0.000000 
#    z 0.000000 0.000000 3.923680 
# 
# 
# High freq. dielectric constant tensor:
#      x y z
#    x 1.782040 0.000000 0.000000 
#    y 0.000000 1.793430 0.000000 
#    z 0.000000 0.000000 1.797570 
# 
# From -- ./inp_files/11869.got.cif
#   From: 2010.03.12/outbox.cif.g09.slc.cpg/sg50_6_cif.got.tgz:11869.got - 2010.04.16 13:23:21.
