data_PCOD8205026
_publ_section_title
;
Structure prediction by ZEFSAII (Michael W. Deem and Ramdas Pophale) SiO2 
 PCOD8205026
Probable space group: P B A N
;
_chemical_formula_sum "Si O2"
_cell_formula_units_Z 58
_cell_length_a 14.008514
_cell_length_b 12.436744
_cell_length_c 16.644016
_cell_angle_alpha 90.000000
_cell_angle_beta 90.000000
_cell_angle_gamma 90.000000
_cell_volume 2899.725501
_symmetry_space_group_name_H-M "P B A N"
_symmetry_group_IT_number 50
_space_group.IT_coordinate_system_code '2'
_symmetry_cell_setting 'orthorhombic'
loop_
_space_group_symop_operation_xyz
x,y,z
1/2-x,1/2-y,z
x,1/2-y,-z
1/2-x,y,-z
-x,-y,-z
1/2+x,1/2+y,-z
-x,1/2+y,z
1/2+x,-y,z
loop_
_atom_site_type_symbol
_atom_site_label
_atom_site_fract_x
_atom_site_fract_y
_atom_site_fract_z
Si Si1 0.750000 0.750000 0.500000
Si Si2 0.501638 0.339846 0.699308
Si Si3 0.349778 0.212289 0.091289
Si Si4 0.866498 0.984867 0.194029
Si Si5 0.021973 0.150536 0.192230
Si Si6 0.618821 0.576361 0.574660
Si Si7 0.560394 0.364120 0.520513
Si Si8 0.342860 0.989054 0.745689
O O1 0.687193 0.673421 0.554152
O O2 0.420348 0.417445 0.736580
O O3 0.484477 0.215636 0.723119
O O4 0.498673 0.353461 0.603094
O O5 0.606163 0.373451 0.734198
O O6 0.250000 0.250000 0.133179
O O7 0.355742 0.084792 0.111693
O O8 0.446770 0.263591 0.125635
O O9 0.345578 0.250000 0.000000
O O10 0.766447 0.024017 0.230792
O O11 0.921346 0.094675 0.171835
O O12 0.102199 0.058084 0.187317
O O13 0.637573 0.460852 0.529172
O O14 0.510526 0.608998 0.553015
O O15 0.637384 0.560001 0.667441
O O16 0.611525 0.250000 0.500000
#
# Coordination Sequence:
#
# PCOD8205026 Si02
#       8
#     2   8   8   8   8   8   8   8
#     4  12  24  36  50  84 100 138 190 254 288 364
#     4   9  21  35  56  83 110 150 200 244 298 348
#     4  10  20  37  61  90 121 152 190 237 285 347
#     4  10  21  36  60  85 115 152 191 242 290 354
#     4  10  20  36  59  86 114 154 192 233 294 350
#     4  10  23  34  55  81 110 148 198 248 310 349
#     4  10  19  39  56  76 112 157 194 252 305 365
#     4  10  20  37  54  84 113 147 197 246 291 354
#
# _framework density 20.001894
#
# number of rings (size 3 to 8) (size 9 to 14) (size 15 to 20)
#    0.000    2.069    2.069    0.828    1.931    3.310 
#    0.000    0.345    0.000    0.000    0.000    0.966 
#    0.000    0.000    0.000    0.000    0.000    0.000 
#
# Total GULP energy -718592.934015 kJ/mol
# GULP energy per Si atom -12389.533345 kJ/mol
# Density = 1.995637 g / cm^3
# Si number density = 20.001894 Si / 1000 Ang^3
#
#
#
# Elastic Constant Matrix: (Units=GPa)
#
#
# Indices 1 2 3 4 5 6 
#
# 1 119.9122 38.0827 21.9303 0.0000 0.0000 0.0000
# 2 38.0827 110.2664 5.4118 0.0000 0.0000 0.0000
# 3 21.9303 5.4118 60.6521 0.0000 0.0000 0.0000
# 4 0.0000 0.0000 0.0000 25.7611 0.0000 0.0000
# 5 0.0000 0.0000 0.0000 0.0000 67.0471 0.0000
# 6 0.0000 0.0000 0.0000 0.0000 0.0000 39.8940
#
#
#
# Elastic Compliance Matrix: (Units=1/GPa)
#
#
# Indices 1 2 3 4 5 6 
#
# 1 0.009991 -0.003288 -0.003319 0.000000 0.000000 0.000000
# 2 -0.003288 0.010191 0.000279 0.000000 0.000000 0.000000
# 3 -0.003319 0.000279 0.017663 0.000000 0.000000 0.000000
# 4 0.000000 0.000000 0.000000 0.038818 0.000000 0.000000
# 5 0.000000 0.000000 0.000000 0.000000 0.014915 0.000000
# 6 0.000000 0.000000 0.000000 0.000000 0.000000 0.025066
#
#
# Mechanical properties :
#
#
# Convention : Reuss Voigt Hill
#
# Bulk Modulus (GPa) = 39.69899 46.85336 43.27618
# Shear Modulus (GPa) = 36.31240 41.56750 38.93995
#
# Velocity S-wave (km/s) = 4.26543 4.56365 4.41706
# Velocity P-wave (km/s) = 6.64449 7.15853 6.90629
#
# Compressibility (1/GPa) = 0.02518955
#
# Stress axis : x y z
#
# Youngs Moduli (GPa) = 100.09500 98.12927 56.61676
#
# Poissons Ratio (x) = 0.32260 0.18791
# Poissons Ratio (y) = 0.32906 -0.01582
# Poissons Ratio (z) = 0.33221 -0.02742
#
# Static dielectric constant tensor:
#      x y z
#    x 3.681430 0.000000 0.000000 
#    y 0.000000 3.943690 0.000000 
#    z 0.000000 0.000000 3.337620 
# 
# 
# High freq. dielectric constant tensor:
#      x y z
#    x 1.764620 0.000000 0.000000 
#    y 0.000000 1.794700 0.000000 
#    z 0.000000 0.000000 1.753140 
# 
# From -- ./inp_files/29519.got.cif
#   From: 2010.03.12/outbox.cif.g09.slc.cpg/sg50_15_cif.got.tgz:29519.got - 2010.04.16 13:23:21.
