data_PCOD8205729
_publ_section_title
;
Structure prediction by ZEFSAII (Michael W. Deem and Ramdas Pophale) SiO2 
 PCOD8205729
Probable space group: P B A N
;
_chemical_formula_sum "Si O2"
_cell_formula_units_Z 40
_cell_length_a 10.762863
_cell_length_b 29.644047
_cell_length_c 5.023882
_cell_angle_alpha 90.000000
_cell_angle_beta 90.000000
_cell_angle_gamma 90.000000
_cell_volume 1602.893750
_symmetry_space_group_name_H-M "P B A N"
_symmetry_group_IT_number 50
_space_group.IT_coordinate_system_code '2'
_symmetry_cell_setting 'orthorhombic'
loop_
_space_group_symop_operation_xyz
x,y,z
1/2-x,1/2-y,z
x,1/2-y,-z
1/2-x,y,-z
-x,-y,-z
1/2+x,1/2+y,-z
-x,1/2+y,z
1/2+x,-y,z
loop_
_atom_site_type_symbol
_atom_site_label
_atom_site_fract_x
_atom_site_fract_y
_atom_site_fract_z
Si Si1 0.675674 0.376678 0.772998
Si Si2 0.614881 0.666540 0.603928
Si Si3 0.622097 0.493414 0.171733
Si Si4 0.522698 0.571714 0.489100
Si Si5 0.983050 0.299456 0.095687
O O1 0.750000 0.368411 0.500000
O O2 0.550210 0.405614 0.754343
O O3 0.640217 0.329887 0.923149
O O4 0.750000 0.404172 0.000000
O O5 0.750000 0.677857 0.500000
O O6 0.594765 0.612479 0.631827
O O7 0.524102 0.693642 0.403580
O O8 0.594407 0.684885 0.900567
O O9 0.622795 0.534974 0.384921
O O10 0.593610 0.448197 0.337989
O O11 0.750000 0.493185 0.000000
O O12 0.500000 0.500000 0.000000
O O13 0.944281 0.250000 0.000000
#
# Coordination Sequence:
#
# PCOD8205729 Si02
#       5
#     8   8   8   8   8
#     4  11  25  44  74 102 140 194 240 297 371 438
#     4  11  25  43  74 103 141 194 237 300 372 445
#     4  11  28  46  73 106 148 196 246 313 372 434
#     4  10  27  44  67 106 142 186 248 303 363 450
#     4  11  25  46  68 107 145 183 243 303 366 447
#
# _framework density 24.954865999999999
#
# number of rings (size 3 to 8) (size 9 to 14) (size 15 to 20)
#    0.000    1.200    0.000    3.600   14.000    4.400 
#    0.000    3.000    0.000    0.000    0.000    0.000 
#    0.000    0.000    0.000    0.000    0.000    0.000 
#
# Total GULP energy -495578.442322 kJ/mol
# GULP energy per Si atom -12389.461058 kJ/mol
# Density = 2.489807 g / cm^3
# Si number density = 24.954866 Si / 1000 Ang^3
#
#
#
# Elastic Constant Matrix: (Units=GPa)
#
#
# Indices 1 2 3 4 5 6 
#
# 1 107.6859 4.6001 28.8561 0.0000 0.0000 0.0000
# 2 4.6001 122.9249 28.7702 0.0000 0.0000 0.0000
# 3 28.8561 28.7702 109.6301 0.0000 0.0000 0.0000
# 4 0.0000 0.0000 0.0000 19.2624 0.0000 0.0000
# 5 0.0000 0.0000 0.0000 0.0000 56.2119 0.0000
# 6 0.0000 0.0000 0.0000 0.0000 0.0000 8.8311
#
#
#
# Elastic Compliance Matrix: (Units=1/GPa)
#
#
# Indices 1 2 3 4 5 6 
#
# 1 0.009999 0.000258 -0.002699 0.000000 0.000000 0.000000
# 2 0.000258 0.008674 -0.002344 0.000000 0.000000 0.000000
# 3 -0.002699 -0.002344 0.010447 0.000000 0.000000 0.000000
# 4 0.000000 0.000000 0.000000 0.051914 0.000000 0.000000
# 5 0.000000 0.000000 0.000000 0.000000 0.017790 0.000000
# 6 0.000000 0.000000 0.000000 0.000000 0.000000 0.113236
#
#
# Mechanical properties :
#
#
# Convention : Reuss Voigt Hill
#
# Bulk Modulus (GPa) = 51.15582 51.63265 51.39423
# Shear Modulus (GPa) = 21.91556 35.39538 28.65547
#
# Velocity S-wave (km/s) = 2.96667 3.77022 3.39232
# Velocity P-wave (km/s) = 5.68143 6.29985 5.99861
#
# Compressibility (1/GPa) = 0.01954812
#
# Stress axis : x y z
#
# Youngs Moduli (GPa) = 100.01405 115.28642 95.71888
#
# Poissons Ratio (x) = -0.02970 0.25838
# Poissons Ratio (y) = -0.02576 0.22438
# Poissons Ratio (z) = 0.26997 0.27025
#
# Static dielectric constant tensor:
#      x y z
#    x 4.495680 0.000000 0.000000 
#    y 0.000000 5.846720 0.000000 
#    z 0.000000 0.000000 4.663540 
# 
# 
# High freq. dielectric constant tensor:
#      x y z
#    x 1.989870 0.000000 0.000000 
#    y 0.000000 2.001550 0.000000 
#    z 0.000000 0.000000 2.003870 
# 
# From -- ./inp_files/2546.got.cif
#   From: 2010.03.12/outbox.cif.g09.slc.cpg/sg50_2_cif.got.tgz:2546.got - 2010.04.16 13:23:21.
