data_PCOD8205608
_publ_section_title
;
Structure prediction by ZEFSAII (Michael W. Deem and Ramdas Pophale) SiO2 
 PCOD8205608
Probable space group: P B A N
;
_chemical_formula_sum "Si O2"
_cell_formula_units_Z 32
_cell_length_a 22.633457
_cell_length_b 7.954891
_cell_length_c 7.709023
_cell_angle_alpha 90.000000
_cell_angle_beta 90.000000
_cell_angle_gamma 90.000000
_cell_volume 1387.984023
_symmetry_space_group_name_H-M "P B A N"
_symmetry_group_IT_number 50
_space_group.IT_coordinate_system_code '2'
_symmetry_cell_setting 'orthorhombic'
loop_
_space_group_symop_operation_xyz
x,y,z
1/2-x,1/2-y,z
x,1/2-y,-z
1/2-x,y,-z
-x,-y,-z
1/2+x,1/2+y,-z
-x,1/2+y,z
1/2+x,-y,z
loop_
_atom_site_type_symbol
_atom_site_label
_atom_site_fract_x
_atom_site_fract_y
_atom_site_fract_z
Si Si1 0.315158 0.794234 0.296890
Si Si2 0.973692 0.789295 0.688897
Si Si3 0.124665 0.400303 0.127009
Si Si4 0.073904 0.607279 0.832126
O O1 0.250000 0.750000 0.229308
O O2 0.320284 0.750000 0.500000
O O3 0.360428 0.669704 0.205610
O O4 0.327307 0.987746 0.233900
O O5 0.999167 0.750000 0.500000
O O6 0.915775 0.679271 0.725276
O O7 0.026731 0.760739 0.828939
O O8 0.953036 0.981804 0.690102
O O9 0.151082 0.250000 0.000000
O O10 0.080238 0.517657 0.017072
#
# Coordination Sequence:
#
# PCOD8205608 Si02
#       4
#     8   8   8   8
#     4  11  24  44  68  93 125 170 221 270 323 391
#     4  11  21  37  62  94 132 169 211 265 326 392
#     4  10  23  41  64  94 130 167 211 267 328 392
#     4  11  22  37  61  94 128 167 212 265 327 390
#
# _framework density 23.055019000000001
#
# number of rings (size 3 to 8) (size 9 to 14) (size 15 to 20)
#    0.000    1.250    0.000    6.000    0.000    6.000 
#    0.000    8.750    0.000   13.500    0.000    0.000 
#    0.000    0.000    0.000    0.000    0.000    0.000 
#
# Total GULP energy -396477.814674 kJ/mol
# GULP energy per Si atom -12389.931709 kJ/mol
# Density = 2.300255 g / cm^3
# Si number density = 23.055019 Si / 1000 Ang^3
#
#
#
# Elastic Constant Matrix: (Units=GPa)
#
#
# Indices 1 2 3 4 5 6 
#
# 1 120.8823 83.5517 2.4947 0.0000 0.0000 0.0000
# 2 83.5517 145.0614 60.8084 0.0000 0.0000 0.0000
# 3 2.4947 60.8084 81.5325 0.0000 0.0000 0.0000
# 4 0.0000 0.0000 0.0000 40.2678 0.0000 0.0000
# 5 0.0000 0.0000 0.0000 0.0000 11.7836 0.0000
# 6 0.0000 0.0000 0.0000 0.0000 0.0000 38.3225
#
#
#
# Elastic Compliance Matrix: (Units=1/GPa)
#
#
# Indices 1 2 3 4 5 6 
#
# 1 0.018561 -0.015207 0.010774 0.000000 0.000000 0.000000
# 2 -0.015207 0.022488 -0.016307 0.000000 0.000000 0.000000
# 3 0.010774 -0.016307 0.024097 0.000000 0.000000 0.000000
# 4 0.000000 0.000000 0.000000 0.024834 0.000000 0.000000
# 5 0.000000 0.000000 0.000000 0.000000 0.084864 0.000000
# 6 0.000000 0.000000 0.000000 0.000000 0.000000 0.026094
#
#
# Mechanical properties :
#
#
# Convention : Reuss Voigt Hill
#
# Bulk Modulus (GPa) = 42.25422 71.24286 56.74854
# Shear Modulus (GPa) = 19.97556 31.44953 25.71255
#
# Velocity S-wave (km/s) = 2.94671 3.69739 3.34319
# Velocity P-wave (km/s) = 5.47219 7.01398 6.29050
#
# Compressibility (1/GPa) = 0.02366628
#
# Stress axis : x y z
#
# Youngs Moduli (GPa) = 53.87711 44.46844 41.49869
#
# Poissons Ratio (x) = 0.67622 -0.44709
# Poissons Ratio (y) = 0.81929 0.67670
# Poissons Ratio (z) = -0.58045 0.72513
#
# Static dielectric constant tensor:
#      x y z
#    x 4.012610 0.000000 0.000000 
#    y 0.000000 4.994530 0.000000 
#    z 0.000000 0.000000 4.249170 
# 
# 
# High freq. dielectric constant tensor:
#      x y z
#    x 1.889730 0.000000 0.000000 
#    y 0.000000 1.933900 0.000000 
#    z 0.000000 0.000000 1.919520 
# 
# From -- ./inp_files/14829.got.cif
#   From: 2010.03.12/outbox.cif.g09.slc.cpg/sg50_8_cif.got.tgz:14829.got - 2010.04.16 13:23:21.
