data_PCOD8205023
_publ_section_title
;
Structure prediction by ZEFSAII (Michael W. Deem and Ramdas Pophale) SiO2 
 PCOD8205023
Probable space group: P B A N
;
_chemical_formula_sum "Si O2"
_cell_formula_units_Z 58
_cell_length_a 17.955840
_cell_length_b 13.853109
_cell_length_c 11.295015
_cell_angle_alpha 90.000000
_cell_angle_beta 90.000000
_cell_angle_gamma 90.000000
_cell_volume 2809.569569
_symmetry_space_group_name_H-M "P B A N"
_symmetry_group_IT_number 50
_space_group.IT_coordinate_system_code '2'
_symmetry_cell_setting 'orthorhombic'
loop_
_space_group_symop_operation_xyz
x,y,z
1/2-x,1/2-y,z
x,1/2-y,-z
1/2-x,y,-z
-x,-y,-z
1/2+x,1/2+y,-z
-x,1/2+y,z
1/2+x,-y,z
loop_
_atom_site_type_symbol
_atom_site_label
_atom_site_fract_x
_atom_site_fract_y
_atom_site_fract_z
Si Si1 0.757710 0.921441 0.862040
Si Si2 0.170306 0.616330 0.818421
Si Si3 0.018977 0.511158 0.862986
Si Si4 0.330918 0.657365 0.443394
Si Si5 0.750000 0.250000 0.000000
Si Si6 0.107935 0.373185 0.264116
Si Si7 0.104577 0.344843 0.749661
Si Si8 0.339205 0.056268 0.512601
O O1 0.684178 0.876903 0.807702
O O2 0.825760 0.848303 0.840092
O O3 0.775603 0.024192 0.800160
O O4 0.750000 0.940078 0.000000
O O5 0.087919 0.582939 0.851084
O O6 0.171786 0.675637 0.696795
O O7 0.196448 0.684772 0.922327
O O8 0.037266 0.408196 0.802794
O O9 0.948953 0.553396 0.794446
O O10 0.000000 0.500000 0.000000
O O11 0.374694 0.750000 0.500000
O O12 0.250000 0.655517 0.500000
O O13 0.368323 0.553958 0.470905
O O14 0.075958 0.264608 0.259591
O O15 0.120306 0.401242 0.399209
O O16 0.133224 0.382092 0.623325
O O17 0.250000 0.063936 0.500000
#
# Coordination Sequence:
#
# PCOD8205023 Si02
#       8
#     8   8   8   8   2   8   8   8
#     4  11  21  40  68  98 134 173 231 290 337 392
#     4  11  23  44  63 102 139 173 235 294 329 409
#     4  11  27  49  65  94 146 185 223 286 349 410
#     4  10  19  38  65  97 135 174 217 278 345 397
#     4  12  24  36  78 100 126 188 250 282 344 396
#     4  12  25  41  72 103 131 192 222 271 367 409
#     4  11  24  45  68 100 141 171 231 290 333 416
#     4  11  21  42  71 105 142 172 225 294 344 403
#
# _framework density 20.643732
#
# number of rings (size 3 to 8) (size 9 to 14) (size 15 to 20)
#    0.000    0.966    4.828    4.138    0.000    4.966 
#    2.483    0.000    0.000    0.000    0.000    0.000 
#    0.000    0.000    0.000    0.000    0.000    0.000 
#
# Total GULP energy -719334.144661 kJ/mol
# GULP energy per Si atom -12402.312839 kJ/mol
# Density = 2.059675 g / cm^3
# Si number density = 20.643732 Si / 1000 Ang^3
#
#
#
# Elastic Constant Matrix: (Units=GPa)
#
#
# Indices 1 2 3 4 5 6 
#
# 1 61.8979 36.9097 37.1663 0.0000 0.0000 0.0000
# 2 36.9097 120.6598 49.0565 0.0000 0.0000 0.0000
# 3 37.1663 49.0565 159.7367 0.0000 0.0000 0.0000
# 4 0.0000 0.0000 0.0000 16.1379 0.0000 0.0000
# 5 0.0000 0.0000 0.0000 0.0000 -546.5396 0.0000
# 6 0.0000 0.0000 0.0000 0.0000 0.0000 16.9063
#
#
#
# Elastic Compliance Matrix: (Units=1/GPa)
#
#
# Indices 1 2 3 4 5 6 
#
# 1 0.021234 -0.005127 -0.003366 0.000000 0.000000 0.000000
# 2 -0.005127 0.010708 -0.002096 0.000000 0.000000 0.000000
# 3 -0.003366 -0.002096 0.007687 0.000000 0.000000 0.000000
# 4 0.000000 0.000000 0.000000 0.061966 0.000000 0.000000
# 5 0.000000 0.000000 0.000000 0.000000 -0.001830 0.000000
# 6 0.000000 0.000000 0.000000 0.000000 0.000000 0.059150
#
#
# Mechanical properties :
#
#
# Convention : Reuss Voigt Hill
#
# Bulk Modulus (GPa) = 54.19492 65.39549 59.79520
# Shear Modulus (GPa) = 26.84667 -88.08830 -30.62081
#
# Velocity S-wave (km/s) = 3.61012 -6.53937 -3.85554
# Velocity P-wave (km/s) = 6.60960 5.02702 3.03446
#
# Compressibility (1/GPa) = 0.01845192
#
# Stress axis : x y z
#
# Youngs Moduli (GPa) = 47.09441 93.38713 130.08841
#
# Poissons Ratio (x) = 0.47879 0.43788
# Poissons Ratio (y) = 0.24145 0.27262
# Poissons Ratio (z) = 0.15852 0.19571
#
# Static dielectric constant tensor:
#      x y z
#    x 3.809060 0.000000 0.000000 
#    y 0.000000 4.385170 0.000000 
#    z 0.000000 0.000000 3.954790 
# 
# 
# High freq. dielectric constant tensor:
#      x y z
#    x 1.785370 0.000000 0.000000 
#    y 0.000000 1.818940 0.000000 
#    z 0.000000 0.000000 1.829570 
# 
# From -- ./inp_files/21911.got.cif
#   From: 2010.03.12/outbox.cif.g09.slc.cpg/sg50_11_cif.got.tgz:21911.got - 2010.04.16 13:23:21.
