data_PCOD8205506
_publ_section_title
;
Structure prediction by ZEFSAII (Michael W. Deem and Ramdas Pophale) SiO2 
 PCOD8205506
Probable space group: P B A N
;
_chemical_formula_sum "Si O2"
_cell_formula_units_Z 40
_cell_length_a 13.422412
_cell_length_b 9.628123
_cell_length_c 13.896694
_cell_angle_alpha 90.000000
_cell_angle_beta 90.000000
_cell_angle_gamma 90.000000
_cell_volume 1795.906365
_symmetry_space_group_name_H-M "P B A N"
_symmetry_group_IT_number 50
_space_group.IT_coordinate_system_code '2'
_symmetry_cell_setting 'orthorhombic'
loop_
_space_group_symop_operation_xyz
x,y,z
1/2-x,1/2-y,z
x,1/2-y,-z
1/2-x,y,-z
-x,-y,-z
1/2+x,1/2+y,-z
-x,1/2+y,z
1/2+x,-y,z
loop_
_atom_site_type_symbol
_atom_site_label
_atom_site_fract_x
_atom_site_fract_y
_atom_site_fract_z
Si Si1 0.698985 0.889530 0.268295
Si Si2 0.140580 0.585944 0.890150
Si Si3 0.123761 0.603648 0.100419
Si Si4 0.970819 0.730794 0.387062
Si Si5 0.906191 0.003926 0.296436
O O1 0.750000 0.750000 0.222380
O O2 0.630588 0.848487 0.358578
O O3 0.624867 0.967558 0.191943
O O4 0.787171 0.985658 0.310576
O O5 0.093168 0.738003 0.871755
O O6 0.258470 0.596825 0.894739
O O7 0.094014 0.545481 0.994726
O O8 0.071661 0.507803 0.181059
O O9 0.975158 0.750000 0.500000
O O10 0.066878 0.646219 0.350795
O O11 0.973695 0.881250 0.337901
#
# Coordination Sequence:
#
# PCOD8205506 Si02
#       5
#     8   8   8   8   8
#     4   9  20  38  63  91 123 168 210 259 317 374
#     4   8  14  30  58  88 119 163 204 251 306 369
#     4   8  15  30  57  88 121 158 205 253 310 364
#     4  11  24  43  64  88 126 165 206 265 328 367
#     4  10  22  40  63  91 122 163 210 259 312 380
#
# _framework density 22.272874999999999
#
# number of rings (size 3 to 8) (size 9 to 14) (size 15 to 20)
#    0.000    2.800    0.000    1.800    2.800    3.600 
#    0.000   18.000    0.000    0.000    0.000    0.000 
#    0.000    0.000    0.000    0.000    0.000    0.000 
#
# Total GULP energy -495570.094993 kJ/mol
# GULP energy per Si atom -12389.252375 kJ/mol
# Density = 2.222218 g / cm^3
# Si number density = 22.272875 Si / 1000 Ang^3
#
#
#
# Elastic Constant Matrix: (Units=GPa)
#
#
# Indices 1 2 3 4 5 6 
#
# 1 47.5785 28.0090 28.4476 0.0000 0.0000 0.0000
# 2 28.0090 97.4587 84.4862 0.0000 0.0000 0.0000
# 3 28.4476 84.4862 192.8740 0.0000 0.0000 0.0000
# 4 0.0000 0.0000 0.0000 71.3363 0.0000 0.0000
# 5 0.0000 0.0000 0.0000 0.0000 63.7119 0.0000
# 6 0.0000 0.0000 0.0000 0.0000 0.0000 19.1301
#
#
#
# Elastic Compliance Matrix: (Units=1/GPa)
#
#
# Indices 1 2 3 4 5 6 
#
# 1 0.025391 -0.006531 -0.000884 0.000000 0.000000 0.000000
# 2 -0.006531 0.018222 -0.007019 0.000000 0.000000 0.000000
# 3 -0.000884 -0.007019 0.008390 0.000000 0.000000 0.000000
# 4 0.000000 0.000000 0.000000 0.014018 0.000000 0.000000
# 5 0.000000 0.000000 0.000000 0.000000 0.015696 0.000000
# 6 0.000000 0.000000 0.000000 0.000000 0.000000 0.052274
#
#
# Mechanical properties :
#
#
# Convention : Reuss Voigt Hill
#
# Bulk Modulus (GPa) = 43.22369 68.86632 56.04500
# Shear Modulus (GPa) = 29.31351 43.96688 36.64020
#
# Velocity S-wave (km/s) = 3.63176 4.44780 4.06033
# Velocity P-wave (km/s) = 6.08562 7.57389 6.87017
#
# Compressibility (1/GPa) = 0.02313546
#
# Stress axis : x y z
#
# Youngs Moduli (GPa) = 39.38378 54.87826 119.19421
#
# Poissons Ratio (x) = 0.35839 0.10541
# Poissons Ratio (y) = 0.25720 0.83660
# Poissons Ratio (z) = 0.03483 0.38518
#
# Static dielectric constant tensor:
#      x y z
#    x 3.790250 0.000000 0.000000 
#    y 0.000000 4.408240 0.000000 
#    z 0.000000 0.000000 4.277320 
# 
# 
# High freq. dielectric constant tensor:
#      x y z
#    x 1.868860 0.000000 0.000000 
#    y 0.000000 1.875750 0.000000 
#    z 0.000000 0.000000 1.866740 
# 
# From -- ./inp_files/26305.got.cif
#   From: 2010.03.12/outbox.cif.g09.slc.cpg/sg50_14_cif.got.tgz:26305.got - 2010.04.16 13:23:21.
