data_PCOD8205203
_publ_section_title
;
Structure prediction by ZEFSAII (Michael W. Deem and Ramdas Pophale) SiO2 
 PCOD8205203
Probable space group: P B A N
;
_chemical_formula_sum "Si O2"
_cell_formula_units_Z 56
_cell_length_a 24.840342
_cell_length_b 8.581778
_cell_length_c 12.946317
_cell_angle_alpha 90.000000
_cell_angle_beta 90.000000
_cell_angle_gamma 90.000000
_cell_volume 2759.822070
_symmetry_space_group_name_H-M "P B A N"
_symmetry_group_IT_number 50
_space_group.IT_coordinate_system_code '2'
_symmetry_cell_setting 'orthorhombic'
loop_
_space_group_symop_operation_xyz
x,y,z
1/2-x,1/2-y,z
x,1/2-y,-z
1/2-x,y,-z
-x,-y,-z
1/2+x,1/2+y,-z
-x,1/2+y,z
1/2+x,-y,z
loop_
_atom_site_type_symbol
_atom_site_label
_atom_site_fract_x
_atom_site_fract_y
_atom_site_fract_z
Si Si1 0.339574 0.653598 0.895407
Si Si2 0.245717 0.426514 0.877117
Si Si3 0.065166 0.541734 0.601665
Si Si4 0.866858 0.459356 0.205254
Si Si5 0.952276 0.401606 0.620306
Si Si6 0.062622 0.007101 0.834290
Si Si7 0.544450 0.665713 0.891085
O O1 0.290139 0.556098 0.845089
O O2 0.363983 0.774277 0.812391
O O3 0.387286 0.526482 0.912395
O O4 0.323773 0.750000 0.000000
O O5 0.250000 0.250000 0.835391
O O6 0.190645 0.476281 0.825535
O O7 0.250000 0.426501 0.000000
O O8 0.116964 0.506968 0.674577
O O9 0.074023 0.508811 0.479043
O O10 0.048546 0.719198 0.608229
O O11 0.014870 0.442150 0.641685
O O12 0.910589 0.536076 0.129785
O O13 0.919502 0.449054 0.721411
O O14 0.012935 0.916143 0.884852
O O15 0.049755 0.188718 0.813616
O O16 0.553144 0.750000 0.000000
#
# Coordination Sequence:
#
# PCOD8205203 Si02
#       7
#     8   8   8   8   8   8   8
#     4  12  23  40  63  91 123 172 214 261 313 387
#     4  11  25  43  64  89 123 167 220 266 313 377
#     4  10  21  38  61  93 124 163 208 267 320 382
#     4  12  23  39  63  91 127 162 217 269 318 382
#     4  10  20  38  61  89 128 160 209 261 322 385
#     4  12  22  39  60  88 130 170 214 257 327 389
#     4  12  25  38  56  92 134 177 208 258 321 393
#
# _framework density 20.291163000000001
#
# number of rings (size 3 to 8) (size 9 to 14) (size 15 to 20)
#    0.000    0.714    4.286    4.714    2.000    0.000 
#    0.000    0.000    0.000    0.857    0.000    1.000 
#    0.000    0.000    0.000    0.000    0.000    0.000 
#
# Total GULP energy -693873.376411 kJ/mol
# GULP energy per Si atom -12390.596007 kJ/mol
# Density = 2.024498 g / cm^3
# Si number density = 20.291163 Si / 1000 Ang^3
#
#
#
# Elastic Constant Matrix: (Units=GPa)
#
#
# Indices 1 2 3 4 5 6 
#
# 1 19.8394 -149.4967 50.7346 0.0000 0.0000 0.0000
# 2 -149.4967 -200.7745 30.2499 0.0000 0.0000 0.0000
# 3 50.7346 30.2499 102.7365 0.0000 0.0000 0.0000
# 4 0.0000 0.0000 0.0000 21.0358 0.0000 0.0000
# 5 0.0000 0.0000 0.0000 0.0000 28.9250 0.0000
# 6 0.0000 0.0000 0.0000 0.0000 0.0000 33.1014
#
#
#
# Elastic Compliance Matrix: (Units=1/GPa)
#
#
# Indices 1 2 3 4 5 6 
#
# 1 0.008082 -0.006338 -0.002125 0.000000 0.000000 0.000000
# 2 -0.006338 0.000201 0.003071 0.000000 0.000000 0.000000
# 3 -0.002125 0.003071 0.009879 0.000000 0.000000 0.000000
# 4 0.000000 0.000000 0.000000 0.047538 0.000000 0.000000
# 5 0.000000 0.000000 0.000000 0.000000 0.034572 0.000000
# 6 0.000000 0.000000 0.000000 0.000000 0.000000 0.030210
#
#
# Mechanical properties :
#
#
# Convention : Reuss Voigt Hill
#
# Bulk Modulus (GPa) = 135.54790 -23.91368 55.81711
# Shear Modulus (GPa) = 34.78861 15.96666 25.37764
#
# Velocity S-wave (km/s) = 4.14511 2.80818 3.54032
# Velocity P-wave (km/s) = 9.47923 1.13859 6.65430
#
# Compressibility (1/GPa) = 0.00737747
#
# Stress axis : x y z
#
# Youngs Moduli (GPa) = 123.73738 4975.13057 101.22623
#
# Poissons Ratio (x) = 31.53104 0.21509
# Poissons Ratio (y) = 0.78421 -0.31082
# Poissons Ratio (z) = 0.26293 -15.27661
#
# Static dielectric constant tensor:
#      x y z
#    x 3.411950 0.000000 0.000000 
#    y 0.000000 4.578030 0.000000 
#    z 0.000000 0.000000 0.834470 
# 
# 
# High freq. dielectric constant tensor:
#      x y z
#    x 1.772090 0.000000 0.000000 
#    y 0.000000 1.818560 0.000000 
#    z 0.000000 0.000000 1.779700 
# 
# From -- ./inp_files/27265.got.cif
#   From: 2010.03.12/outbox.cif.g09.slc.cpg/sg50_14_cif.got.tgz:27265.got - 2010.04.16 13:23:21.
