data_PCOD8205784
_publ_section_title
;
Structure prediction by ZEFSAII (Michael W. Deem and Ramdas Pophale) SiO2 
 PCOD8205784
Probable space group: P B A N
;
_chemical_formula_sum "Si O2"
_cell_formula_units_Z 64
_cell_length_a 11.302037
_cell_length_b 17.997577
_cell_length_c 15.680946
_cell_angle_alpha 90.000000
_cell_angle_beta 90.000000
_cell_angle_gamma 90.000000
_cell_volume 3189.649954
_symmetry_space_group_name_H-M "P B A N"
_symmetry_group_IT_number 50
_space_group.IT_coordinate_system_code '2'
_symmetry_cell_setting 'orthorhombic'
loop_
_space_group_symop_operation_xyz
x,y,z
1/2-x,1/2-y,z
x,1/2-y,-z
1/2-x,y,-z
-x,-y,-z
1/2+x,1/2+y,-z
-x,1/2+y,z
1/2+x,-y,z
loop_
_atom_site_type_symbol
_atom_site_label
_atom_site_fract_x
_atom_site_fract_y
_atom_site_fract_z
Si Si1 0.828713 0.915668 0.831074
Si Si2 0.499233 0.411877 0.017383
Si Si3 0.941153 0.258704 0.592830
Si Si4 0.679176 0.323127 0.129801
Si Si5 0.850538 0.075506 0.761842
Si Si6 0.453592 0.282429 0.236855
Si Si7 0.073564 0.365376 0.162780
Si Si8 0.252600 0.872329 0.593724
O O1 0.872140 0.855065 0.762935
O O2 0.687581 0.918086 0.837826
O O3 0.887736 0.895514 0.921718
O O4 0.871850 0.994478 0.798948
O O5 0.618130 0.374737 0.057073
O O6 0.500000 0.500000 0.000000
O O7 0.487089 0.368905 0.929159
O O8 0.002921 0.250000 0.500000
O O9 0.877840 0.338558 0.608055
O O10 0.844517 0.194606 0.597586
O O11 0.038937 0.252811 0.666199
O O12 0.750000 0.250000 0.094343
O O13 0.769799 0.376562 0.176552
O O14 0.584290 0.295983 0.199204
O O15 0.791926 0.070237 0.667604
O O16 0.981951 0.110798 0.762576
O O17 0.388894 0.219423 0.180375
O O18 0.250000 0.911350 0.500000
#
# Coordination Sequence:
#
# PCOD8205784 Si02
#       8
#     8   8   8   8   8   8   8   8
#     4  11  27  42  64  86 129 180 213 257 323 400
#     4  11  24  45  63  93 127 172 216 270 334 385
#     4   9  16  31  63  99 123 155 202 264 321 373
#     4  11  22  39  63  97 127 158 217 284 323 371
#     4  12  22  39  66  95 129 168 212 271 328 381
#     4  11  22  42  63  92 126 170 216 263 321 380
#     4  12  24  42  63  89 125 168 222 262 312 393
#     4   9  17  31  60 100 130 153 199 266 324 371
#
# _framework density 20.064897999999999
#
# number of rings (size 3 to 8) (size 9 to 14) (size 15 to 20)
#    0.000    1.250    5.000    2.250    1.750    2.500 
#    2.250    2.500    2.750    3.000    0.000    0.000 
#    0.000    0.000    0.000    0.000    0.000    0.000 
#
# Total GULP energy -793401.330429 kJ/mol
# GULP energy per Si atom -12396.895788 kJ/mol
# Density = 2.001923 g / cm^3
# Si number density = 20.064898 Si / 1000 Ang^3
#
#
#
# Elastic Constant Matrix: (Units=GPa)
#
#
# Indices 1 2 3 4 5 6 
#
# 1 86.0356 22.0258 31.1216 0.0000 0.0000 0.0000
# 2 22.0258 99.4413 34.2878 0.0000 0.0000 0.0000
# 3 31.1216 34.2878 130.6835 0.0000 0.0000 0.0000
# 4 0.0000 0.0000 0.0000 24.8998 0.0000 0.0000
# 5 0.0000 0.0000 0.0000 0.0000 23.4928 0.0000
# 6 0.0000 0.0000 0.0000 0.0000 0.0000 30.0547
#
#
#
# Elastic Compliance Matrix: (Units=1/GPa)
#
#
# Indices 1 2 3 4 5 6 
#
# 1 0.013072 -0.002003 -0.002587 0.000000 0.000000 0.000000
# 2 -0.002003 0.011363 -0.002504 0.000000 0.000000 0.000000
# 3 -0.002587 -0.002504 0.008925 0.000000 0.000000 0.000000
# 4 0.000000 0.000000 0.000000 0.040161 0.000000 0.000000
# 5 0.000000 0.000000 0.000000 0.000000 0.042566 0.000000
# 6 0.000000 0.000000 0.000000 0.000000 0.000000 0.033273
#
#
# Mechanical properties :
#
#
# Convention : Reuss Voigt Hill
#
# Bulk Modulus (GPa) = 52.16324 54.55898 53.36111
# Shear Modulus (GPa) = 29.42202 30.93780 30.17991
#
# Velocity S-wave (km/s) = 3.83344 3.93095 3.88250
# Velocity P-wave (km/s) = 6.75628 6.91762 6.83743
#
# Compressibility (1/GPa) = 0.01917059
#
# Stress axis : x y z
#
# Youngs Moduli (GPa) = 76.50009 88.00171 112.04054
#
# Poissons Ratio (x) = 0.17629 0.28990
# Poissons Ratio (y) = 0.15325 0.28059
# Poissons Ratio (z) = 0.19794 0.22039
#
# Static dielectric constant tensor:
#      x y z
#    x 3.655790 0.000000 0.000000 
#    y 0.000000 3.653980 0.000000 
#    z 0.000000 0.000000 3.998880 
# 
# 
# High freq. dielectric constant tensor:
#      x y z
#    x 1.768990 0.000000 0.000000 
#    y 0.000000 1.774230 0.000000 
#    z 0.000000 0.000000 1.781800 
# 
# From -- ./inp_files/26056.got.cif
#   From: 2010.03.12/outbox.cif.g09.slc.cpg/sg50_14_cif.got.tgz:26056.got - 2010.04.16 13:23:21.
