data_PCOD8205054
_publ_section_title
;
Structure prediction by ZEFSAII (Michael W. Deem and Ramdas Pophale) SiO2 
 PCOD8205054
Probable space group: P B A N
;
_chemical_formula_sum "Si O2"
_cell_formula_units_Z 64
_cell_length_a 8.709220
_cell_length_b 35.856959
_cell_length_c 11.725550
_cell_angle_alpha 90.000000
_cell_angle_beta 90.000000
_cell_angle_gamma 90.000000
_cell_volume 3661.726801
_symmetry_space_group_name_H-M "P B A N"
_symmetry_group_IT_number 50
_space_group.IT_coordinate_system_code '2'
_symmetry_cell_setting 'orthorhombic'
loop_
_space_group_symop_operation_xyz
x,y,z
1/2-x,1/2-y,z
x,1/2-y,-z
1/2-x,y,-z
-x,-y,-z
1/2+x,1/2+y,-z
-x,1/2+y,z
1/2+x,-y,z
loop_
_atom_site_type_symbol
_atom_site_label
_atom_site_fract_x
_atom_site_fract_y
_atom_site_fract_z
Si Si1 0.929630 0.114036 0.631999
Si Si2 0.432478 0.250000 0.626571
Si Si3 0.578113 0.537102 0.364924
Si Si4 0.068697 0.180246 0.770265
Si Si5 0.929630 0.385964 0.631999
Si Si6 0.568697 0.819754 0.229735
Si Si7 0.568420 0.292654 1.000000
Si Si8 0.578113 0.962898 0.364924
O O1 0.750000 0.119676 0.651907
O O2 0.974659 0.121140 0.500000
O O3 0.976154 0.072532 0.670292
O O4 0.023845 0.141694 0.711736
O O5 0.250000 0.250000 0.621092
O O6 0.503377 0.250000 0.500000
O O7 0.493537 0.286430 0.690938
O O8 0.493537 0.213570 0.690939
O O9 0.750000 0.541316 0.315008
O O10 0.585716 0.533439 0.500000
O O11 0.500000 0.500000 0.312813
O O12 0.250000 0.182241 0.786496
O O13 0.990245 0.184305 0.892155
O O14 0.023845 0.358306 0.711736
O O15 0.976154 0.427468 0.670291
O O16 0.490246 0.815695 0.107845
O O17 0.504063 0.250000 0.000000
O O18 0.750000 0.292090 0.000000
#
# Coordination Sequence:
#
# PCOD8205054 Si02
#       8
#     8   8   8   8   8   8   8   8
#     4  10  20  33  49  74 109 143 174 212 260 313
#     4   9  18  31  49  74 102 131 164 205 254 307
#     4   9  16  27  45  70 101 138 176 212 253 304
#     4  11  21  35  55  76 101 133 175 219 261 308
#     4  10  20  33  49  74 109 143 174 212 260 313
#     4  11  21  35  55  76 101 133 175 219 261 308
#     4  11  23  39  57  75 100 131 170 219 269 315
#     4   9  16  27  45  70 101 138 176 212 253 304
#
# _framework density 17.478092
#
# number of rings (size 3 to 8) (size 9 to 14) (size 15 to 20)
#    0.000    2.000    1.250    3.375    0.000    6.000 
#    0.000    0.000    0.000    3.000    0.000    0.875 
#    0.000    0.000    0.000    0.000    0.000    0.000 
#
# Total GULP energy -793737.054549 kJ/mol
# GULP energy per Si atom -12402.141477 kJ/mol
# Density = 1.743831 g / cm^3
# Si number density = 17.478092 Si / 1000 Ang^3
#
#
#
# Elastic Constant Matrix: (Units=GPa)
#
#
# Indices 1 2 3 4 5 6 
#
# 1 68.5505 23.1283 25.7779 0.0000 0.0000 0.0000
# 2 23.1283 121.2141 48.2713 0.0000 0.0000 0.0000
# 3 25.7779 48.2713 96.9524 0.0000 0.0000 0.0000
# 4 0.0000 0.0000 0.0000 2.9009 0.0000 0.0000
# 5 0.0000 0.0000 0.0000 0.0000 20.4108 0.0000
# 6 0.0000 0.0000 0.0000 0.0000 0.0000 31.8241
#
#
#
# Elastic Compliance Matrix: (Units=1/GPa)
#
#
# Indices 1 2 3 4 5 6 
#
# 1 0.016500 -0.001748 -0.003517 0.000000 0.000000 0.000000
# 2 -0.001748 0.010475 -0.004751 0.000000 0.000000 0.000000
# 3 -0.003517 -0.004751 0.013615 0.000000 0.000000 0.000000
# 4 0.000000 0.000000 0.000000 0.344719 0.000000 0.000000
# 5 0.000000 0.000000 0.000000 0.000000 0.048994 0.000000
# 6 0.000000 0.000000 0.000000 0.000000 0.000000 0.031423
#
#
# Mechanical properties :
#
#
# Convention : Reuss Voigt Hill
#
# Bulk Modulus (GPa) = 48.64009 53.45245 51.04627
# Shear Modulus (GPa) = 10.15004 23.66313 16.90659
#
# Velocity S-wave (km/s) = 2.41245 3.68349 3.11352
# Velocity P-wave (km/s) = 5.97072 6.98139 6.49574
#
# Compressibility (1/GPa) = 0.02055917
#
# Stress axis : x y z
#
# Youngs Moduli (GPa) = 60.60621 95.46299 73.44964
#
# Poissons Ratio (x) = 0.16685 0.25831
# Poissons Ratio (y) = 0.10592 0.34894
# Poissons Ratio (z) = 0.21314 0.45353
#
# Static dielectric constant tensor:
#      x y z
#    x 3.259390 0.000000 0.000000 
#    y 0.000000 3.369480 0.000000 
#    z 0.000000 0.000000 3.008730 
# 
# 
# High freq. dielectric constant tensor:
#      x y z
#    x 1.682010 0.000000 0.000000 
#    y 0.000000 1.683920 0.000000 
#    z 0.000000 0.000000 1.636410 
# 
# From -- ./inp_files/19549.got.cif
#   From: 2010.03.12/outbox.cif.g09.slc.cpg/sg50_10_cif.got.tgz:19549.got - 2010.04.16 13:23:21.
