data_PCOD8205060
_publ_section_title
;
Structure prediction by ZEFSAII (Michael W. Deem and Ramdas Pophale) SiO2 
 PCOD8205060
Probable space group: P B A N
;
_chemical_formula_sum "Si O2"
_cell_formula_units_Z 64
_cell_length_a 9.383367
_cell_length_b 21.950025
_cell_length_c 16.313033
_cell_angle_alpha 90.000000
_cell_angle_beta 90.000000
_cell_angle_gamma 90.000000
_cell_volume 3359.916129
_symmetry_space_group_name_H-M "P B A N"
_symmetry_group_IT_number 50
_space_group.IT_coordinate_system_code '2'
_symmetry_cell_setting 'orthorhombic'
loop_
_space_group_symop_operation_xyz
x,y,z
1/2-x,1/2-y,z
x,1/2-y,-z
1/2-x,y,-z
-x,-y,-z
1/2+x,1/2+y,-z
-x,1/2+y,z
1/2+x,-y,z
loop_
_atom_site_type_symbol
_atom_site_label
_atom_site_fract_x
_atom_site_fract_y
_atom_site_fract_z
Si Si1 0.166327 0.558776 0.074918
Si Si2 0.526110 0.874976 0.356286
Si Si3 0.330046 0.431362 0.073595
Si Si4 0.708876 0.061709 0.742776
Si Si5 0.981340 0.377254 0.326848
Si Si6 0.418739 0.749398 0.406144
Si Si7 0.585889 0.560046 0.485334
Si Si8 0.238172 0.417037 0.246051
O O1 0.233968 0.491990 0.079405
O O2 0.195079 0.588058 0.164224
O O3 0.996936 0.556321 0.055824
O O4 0.250000 0.593710 0.000000
O O5 0.436149 0.924320 0.304869
O O6 0.470961 0.806113 0.351455
O O7 0.526809 0.889386 0.452538
O O8 0.683423 0.881461 0.319463
O O9 0.312859 0.397892 0.160542
O O10 0.250000 0.393806 0.000000
O O11 0.825169 0.099325 0.693033
O O12 0.740252 0.989922 0.740656
O O13 0.977806 0.308358 0.357291
O O14 0.057553 0.418896 0.393963
O O15 0.078577 0.388787 0.246143
O O16 0.250000 0.750000 0.408194
O O17 0.477259 0.750000 0.500000
O O18 0.750000 0.545421 0.500000
O O19 0.500000 0.500000 0.500000
#
# Coordination Sequence:
#
# PCOD8205060 Si02
#       8
#     8   8   8   8   8   8   8   8
#     4  10  20  33  54  87 125 166 196 237 299 368
#     4  12  23  42  61  84 123 159 203 255 299 353
#     4  10  20  33  55  86 126 165 196 236 298 373
#     4  11  23  38  62  90 129 159 197 250 305 372
#     4  12  25  40  61  89 115 165 207 251 305 353
#     4  11  24  44  62  83 115 160 215 261 297 357
#     4  12  26  40  58  89 123 158 198 245 312 372
#     4  11  23  38  58  94 127 155 200 250 311 359
#
# _framework density 19.048096000000001
#
# number of rings (size 3 to 8) (size 9 to 14) (size 15 to 20)
#    0.000    0.875    5.000    3.750    8.750    0.500 
#    0.000    1.250    0.000    0.000    0.000    5.250 
#    0.000    0.000    0.000    0.000    0.000    0.000 
#
# Total GULP energy -793309.633734 kJ/mol
# GULP energy per Si atom -12395.463027 kJ/mol
# Density = 1.900474 g / cm^3
# Si number density = 19.048096 Si / 1000 Ang^3
#
#
#
# Elastic Constant Matrix: (Units=GPa)
#
#
# Indices 1 2 3 4 5 6 
#
# 1 106.9327 30.1139 38.3607 0.0000 0.0000 0.0000
# 2 30.1139 90.2029 25.2053 0.0000 0.0000 0.0000
# 3 38.3607 25.2053 101.3530 0.0000 0.0000 0.0000
# 4 0.0000 0.0000 0.0000 7.5042 0.0000 0.0000
# 5 0.0000 0.0000 0.0000 0.0000 36.6663 0.0000
# 6 0.0000 0.0000 0.0000 0.0000 0.0000 23.1620
#
#
#
# Elastic Compliance Matrix: (Units=1/GPa)
#
#
# Indices 1 2 3 4 5 6 
#
# 1 0.011445 -0.002806 -0.003634 0.000000 0.000000 0.000000
# 2 -0.002806 0.012602 -0.002072 0.000000 0.000000 0.000000
# 3 -0.003634 -0.002072 0.011757 0.000000 0.000000 0.000000
# 4 0.000000 0.000000 0.000000 0.133258 0.000000 0.000000
# 5 0.000000 0.000000 0.000000 0.000000 0.027273 0.000000
# 6 0.000000 0.000000 0.000000 0.000000 0.000000 0.043174
#
#
# Mechanical properties :
#
#
# Convention : Reuss Voigt Hill
#
# Bulk Modulus (GPa) = 53.24566 53.98316 53.61441
# Shear Modulus (GPa) = 19.02634 27.12041 23.07337
#
# Velocity S-wave (km/s) = 3.16390 3.77740 3.48418
# Velocity P-wave (km/s) = 6.43125 6.88673 6.66288
#
# Compressibility (1/GPa) = 0.01878087
#
# Stress axis : x y z
#
# Youngs Moduli (GPa) = 87.37061 79.35431 85.05339
#
# Poissons Ratio (x) = 0.22263 0.30911
# Poissons Ratio (y) = 0.24512 0.17623
# Poissons Ratio (z) = 0.31753 0.16443
#
# Static dielectric constant tensor:
#      x y z
#    x 3.585320 0.000000 0.000000 
#    y 0.000000 3.463630 0.000000 
#    z 0.000000 0.000000 4.466940 
# 
# 
# High freq. dielectric constant tensor:
#      x y z
#    x 1.760980 0.000000 0.000000 
#    y 0.000000 1.689890 0.000000 
#    z 0.000000 0.000000 1.756770 
# 
# From -- ./inp_files/28972.got.cif
#   From: 2010.03.12/outbox.cif.g09.slc.cpg/sg50_15_cif.got.tgz:28972.got - 2010.04.16 13:23:21.
