data_PCOD8205486
_publ_section_title
;
Structure prediction by ZEFSAII (Michael W. Deem and Ramdas Pophale) SiO2 
 PCOD8205486
Probable space group: P B A N
;
_chemical_formula_sum "Si O2"
_cell_formula_units_Z 56
_cell_length_a 12.053864
_cell_length_b 18.131802
_cell_length_c 12.516371
_cell_angle_alpha 90.000000
_cell_angle_beta 90.000000
_cell_angle_gamma 90.000000
_cell_volume 2735.556460
_symmetry_space_group_name_H-M "P B A N"
_symmetry_group_IT_number 50
_space_group.IT_coordinate_system_code '2'
_symmetry_cell_setting 'orthorhombic'
loop_
_space_group_symop_operation_xyz
x,y,z
1/2-x,1/2-y,z
x,1/2-y,-z
1/2-x,y,-z
-x,-y,-z
1/2+x,1/2+y,-z
-x,1/2+y,z
1/2+x,-y,z
loop_
_atom_site_type_symbol
_atom_site_label
_atom_site_fract_x
_atom_site_fract_y
_atom_site_fract_z
Si Si1 0.766821 0.410110 0.376164
Si Si2 0.493789 0.914397 0.111292
Si Si3 0.278904 0.326502 0.620806
Si Si4 0.203432 0.446971 0.759412
Si Si5 0.857073 0.296331 0.762393
Si Si6 0.911851 0.927833 0.106245
Si Si7 0.483968 0.844901 0.703858
O O1 0.750000 0.433255 0.500000
O O2 0.752713 0.476798 0.291832
O O3 0.681864 0.345780 0.339074
O O4 0.891596 0.381646 0.369641
O O5 0.578455 0.946840 0.198954
O O6 0.412712 0.848585 0.148326
O O7 0.418464 0.984667 0.084356
O O8 0.562535 0.887596 0.006648
O O9 0.250000 0.250000 0.681676
O O10 0.250000 0.316546 0.500000
O O11 0.198974 0.389134 0.664156
O O12 0.406516 0.347529 0.633607
O O13 0.286808 0.416310 0.851192
O O14 0.750000 0.250000 0.807314
O O15 0.952277 0.239502 0.728482
O O16 0.000184 0.893105 0.188887
#
# Coordination Sequence:
#
# PCOD8205486 Si02
#       7
#     8   8   8   8   8   8   8
#     4  11  23  39  62  93 129 171 222 272 325 390
#     4  11  21  39  67  90 126 173 206 261 329 375
#     4  10  22  39  58  86 119 162 214 266 325 390
#     4  11  21  40  61  94 125 165 213 273 313 392
#     4  10  23  42  64  95 132 169 217 269 326 389
#     4  10  22  39  63  93 125 163 216 256 321 391
#     4  10  22  42  60  88 129 164 206 273 322 389
#
# _framework density 20.471155
#
# number of rings (size 3 to 8) (size 9 to 14) (size 15 to 20)
#    0.000    1.571    2.857    1.714    0.000    6.571 
#    0.000    7.857    0.000    2.571    0.000    0.000 
#    0.000    0.000    0.000    0.000    0.000    0.000 
#
# Total GULP energy -694143.136815 kJ/mol
# GULP energy per Si atom -12395.413157 kJ/mol
# Density = 2.042456 g / cm^3
# Si number density = 20.471155 Si / 1000 Ang^3
#
#
#
# Elastic Constant Matrix: (Units=GPa)
#
#
# Indices 1 2 3 4 5 6 
#
# 1 68.9645 21.2880 45.1830 0.0000 0.0000 0.0000
# 2 21.2880 98.6160 40.2223 0.0000 0.0000 0.0000
# 3 45.1830 40.2223 105.7625 0.0000 0.0000 0.0000
# 4 0.0000 0.0000 0.0000 26.9199 0.0000 0.0000
# 5 0.0000 0.0000 0.0000 0.0000 27.7141 0.0000
# 6 0.0000 0.0000 0.0000 0.0000 0.0000 38.1772
#
#
#
# Elastic Compliance Matrix: (Units=1/GPa)
#
#
# Indices 1 2 3 4 5 6 
#
# 1 0.020219 -0.000996 -0.008259 0.000000 0.000000 0.000000
# 2 -0.000996 0.012051 -0.004158 0.000000 0.000000 0.000000
# 3 -0.008259 -0.004158 0.014565 0.000000 0.000000 0.000000
# 4 0.000000 0.000000 0.000000 0.037147 0.000000 0.000000
# 5 0.000000 0.000000 0.000000 0.000000 0.036083 0.000000
# 6 0.000000 0.000000 0.000000 0.000000 0.000000 0.026194
#
#
# Mechanical properties :
#
#
# Convention : Reuss Voigt Hill
#
# Bulk Modulus (GPa) = 49.97669 54.08107 52.02888
# Shear Modulus (GPa) = 27.81603 29.67223 28.74413
#
# Velocity S-wave (km/s) = 3.69018 3.81131 3.75124
# Velocity P-wave (km/s) = 6.52861 6.77080 6.65081
#
# Compressibility (1/GPa) = 0.02000933
#
# Stress axis : x y z
#
# Youngs Moduli (GPa) = 49.45955 82.97994 68.65971
#
# Poissons Ratio (x) = 0.08265 0.56705
# Poissons Ratio (y) = 0.04926 0.28546
# Poissons Ratio (z) = 0.40848 0.34500
#
# Static dielectric constant tensor:
#      x y z
#    x 3.239290 0.000000 0.000000 
#    y 0.000000 4.032470 0.000000 
#    z 0.000000 0.000000 3.620440 
# 
# 
# High freq. dielectric constant tensor:
#      x y z
#    x 1.804230 0.000000 0.000000 
#    y 0.000000 1.809350 0.000000 
#    z 0.000000 0.000000 1.788090 
# 
# From -- ./inp_files/20372.got.cif
#   From: 2010.03.12/outbox.cif.g09.slc.cpg/sg50_11_cif.got.tgz:20372.got - 2010.04.16 13:23:21.
