data_PCOD8205677
_publ_section_title
;
Structure prediction by ZEFSAII (Michael W. Deem and Ramdas Pophale) SiO2 
 PCOD8205677
Probable space group: P B A N
;
_chemical_formula_sum "Si O2"
_cell_formula_units_Z 40
_cell_length_a 14.018880
_cell_length_b 8.259147
_cell_length_c 15.121130
_cell_angle_alpha 90.000000
_cell_angle_beta 90.000000
_cell_angle_gamma 90.000000
_cell_volume 1750.784775
_symmetry_space_group_name_H-M "P B A N"
_symmetry_group_IT_number 50
_space_group.IT_coordinate_system_code '2'
_symmetry_cell_setting 'orthorhombic'
loop_
_space_group_symop_operation_xyz
x,y,z
1/2-x,1/2-y,z
x,1/2-y,-z
1/2-x,y,-z
-x,-y,-z
1/2+x,1/2+y,-z
-x,1/2+y,z
1/2+x,-y,z
loop_
_atom_site_type_symbol
_atom_site_label
_atom_site_fract_x
_atom_site_fract_y
_atom_site_fract_z
Si Si1 0.102065 0.850530 0.287050
Si Si2 0.408522 0.463926 0.112198
Si Si3 0.250000 0.250000 0.819083
Si Si4 0.945619 0.886692 0.435344
Si Si5 0.193343 0.979774 0.697144
Si Si6 0.954120 0.250000 0.000000
O O1 0.139098 0.672563 0.257511
O O2 0.195210 0.945501 0.323645
O O3 0.018974 0.827334 0.359059
O O4 0.060088 0.955823 0.205593
O O5 0.309990 0.368610 0.119145
O O6 0.390197 0.609825 0.043251
O O7 0.484854 0.334623 0.077612
O O8 0.318493 0.363212 0.759679
O O9 0.905009 0.750000 0.500000
O O10 0.855134 0.979137 0.395745
O O11 0.000000 0.000000 0.500000
#
# Coordination Sequence:
#
# PCOD8205677 Si02
#       6
#     8   8   4   8   8   4
#     4  10  24  46  70  98 138 193 229 284 353 426
#     4  10  24  44  70 102 143 182 231 283 357 421
#     4  10  24  45  71 100 138 190 230 278 347 433
#     4  12  26  43  66 105 134 181 237 291 349 410
#     4  10  24  45  67 100 137 183 237 281 346 410
#     4  10  24  43  72 113 136 180 228 302 348 410
#
# _framework density 22.846896999999998
#
# number of rings (size 3 to 8) (size 9 to 14) (size 15 to 20)
#    0.000    1.600    2.000    0.000   11.200    2.800 
#    0.000    6.000    0.000    0.000    0.000    0.000 
#    0.000    0.000    0.000    0.000    0.000    0.000 
#
# Total GULP energy -495873.108375 kJ/mol
# GULP energy per Si atom -12396.827709 kJ/mol
# Density = 2.279490 g / cm^3
# Si number density = 22.846897 Si / 1000 Ang^3
#
#
#
# Elastic Constant Matrix: (Units=GPa)
#
#
# Indices 1 2 3 4 5 6 
#
# 1 78.9930 46.0546 59.1270 0.0000 0.0000 0.0000
# 2 46.0546 159.3150 65.3563 0.0000 0.0000 0.0000
# 3 59.1270 65.3563 125.0661 0.0000 0.0000 0.0000
# 4 0.0000 0.0000 0.0000 53.1651 0.0000 0.0000
# 5 0.0000 0.0000 0.0000 0.0000 38.5837 0.0000
# 6 0.0000 0.0000 0.0000 0.0000 0.0000 28.8279
#
#
#
# Elastic Compliance Matrix: (Units=1/GPa)
#
#
# Indices 1 2 3 4 5 6 
#
# 1 0.020323 -0.002461 -0.008322 0.000000 0.000000 0.000000
# 2 -0.002461 0.008288 -0.003167 0.000000 0.000000 0.000000
# 3 -0.008322 -0.003167 0.013585 0.000000 0.000000 0.000000
# 4 0.000000 0.000000 0.000000 0.018809 0.000000 0.000000
# 5 0.000000 0.000000 0.000000 0.000000 0.025918 0.000000
# 6 0.000000 0.000000 0.000000 0.000000 0.000000 0.034689
#
#
# Mechanical properties :
#
#
# Convention : Reuss Voigt Hill
#
# Bulk Modulus (GPa) = 69.95321 78.27221 74.11271
# Shear Modulus (GPa) = 32.40894 36.97109 34.69001
#
# Velocity S-wave (km/s) = 3.77042 4.02706 3.90085
# Velocity P-wave (km/s) = 7.04553 7.48043 7.26623
#
# Compressibility (1/GPa) = 0.01429527
#
# Stress axis : x y z
#
# Youngs Moduli (GPa) = 49.20442 120.66082 73.60833
#
# Poissons Ratio (x) = 0.29695 0.61258
# Poissons Ratio (y) = 0.12109 0.23315
# Poissons Ratio (z) = 0.40949 0.38219
#
# Static dielectric constant tensor:
#      x y z
#    x 3.486970 0.000000 0.000000 
#    y 0.000000 4.457220 0.000000 
#    z 0.000000 0.000000 4.080220 
# 
# 
# High freq. dielectric constant tensor:
#      x y z
#    x 1.886570 0.000000 0.000000 
#    y 0.000000 1.930360 0.000000 
#    z 0.000000 0.000000 1.894160 
# 
# From -- ./inp_files/26326.got.cif
#   From: 2010.03.12/outbox.cif.g09.slc.cpg/sg50_14_cif.got.tgz:26326.got - 2010.04.16 13:23:21.
