data_PCOD8205510
_publ_section_title
;
Structure prediction by ZEFSAII (Michael W. Deem and Ramdas Pophale) SiO2 
 PCOD8205510
Probable space group: P B A N
;
_chemical_formula_sum "Si O2"
_cell_formula_units_Z 26
_cell_length_a 11.698194
_cell_length_b 4.773307
_cell_length_c 19.243277
_cell_angle_alpha 90.000000
_cell_angle_beta 90.000000
_cell_angle_gamma 90.000000
_cell_volume 1074.526717
_symmetry_space_group_name_H-M "P B A N"
_symmetry_group_IT_number 50
_space_group.IT_coordinate_system_code '2'
_symmetry_cell_setting 'orthorhombic'
loop_
_space_group_symop_operation_xyz
x,y,z
1/2-x,1/2-y,z
x,1/2-y,-z
1/2-x,y,-z
-x,-y,-z
1/2+x,1/2+y,-z
-x,1/2+y,z
1/2+x,-y,z
loop_
_atom_site_type_symbol
_atom_site_label
_atom_site_fract_x
_atom_site_fract_y
_atom_site_fract_z
Si Si1 0.750000 0.750000 0.000000
Si Si2 0.926467 0.715705 0.423874
Si Si3 0.250000 0.250000 0.689117
Si Si4 0.750000 0.250000 0.784247
Si Si5 0.917892 0.423736 0.900725
O O1 0.674235 0.532004 0.043952
O O2 0.868512 0.750000 0.500000
O O3 0.851127 0.840723 0.361807
O O4 0.954860 0.387650 0.417610
O O5 0.202127 0.503466 0.736083
O O6 0.851225 0.401890 0.827827
O O7 0.032366 0.610646 0.909100
#
# Coordination Sequence:
#
# PCOD8205510 Si02
#       5
#     2   8   4   4   8
#     4  12  26  50  80 114 136 174 242 286 344 438
#     4  10  22  40  64  96 131 172 229 290 347 408
#     4  12  24  42  68  94 134 184 228 284 342 404
#     4  12  28  45  65 102 140 180 236 276 332 432
#     4  12  27  48  74 103 142 182 222 285 350 408
#
# _framework density 24.1967
#
# number of rings (size 3 to 8) (size 9 to 14) (size 15 to 20)
#    0.000    0.615    0.000    7.846    0.000   11.692 
#    0.000    6.154    0.000    0.000    0.000    0.000 
#    0.000    0.000    0.000    0.000    0.000    0.000 
#
# Total GULP energy -322126.287331 kJ/mol
# GULP energy per Si atom -12389.472590 kJ/mol
# Density = 2.414163 g / cm^3
# Si number density = 24.196700 Si / 1000 Ang^3
#
#
#
# Elastic Constant Matrix: (Units=GPa)
#
#
# Indices 1 2 3 4 5 6 
#
# 1 101.9853 30.1079 65.6210 0.0000 0.0000 0.0000
# 2 30.1079 120.7686 62.9429 0.0000 0.0000 0.0000
# 3 65.6210 62.9429 173.0968 0.0000 0.0000 0.0000
# 4 0.0000 0.0000 0.0000 45.2098 0.0000 0.0000
# 5 0.0000 0.0000 0.0000 0.0000 26.8883 0.0000
# 6 0.0000 0.0000 0.0000 0.0000 0.0000 38.9673
#
#
#
# Elastic Compliance Matrix: (Units=1/GPa)
#
#
# Indices 1 2 3 4 5 6 
#
# 1 0.013036 -0.000832 -0.004640 0.000000 0.000000 0.000000
# 2 -0.000832 0.010270 -0.003419 0.000000 0.000000 0.000000
# 3 -0.004640 -0.003419 0.008779 0.000000 0.000000 0.000000
# 4 0.000000 0.000000 0.000000 0.022119 0.000000 0.000000
# 5 0.000000 0.000000 0.000000 0.000000 0.037191 0.000000
# 6 0.000000 0.000000 0.000000 0.000000 0.000000 0.025663
#
#
# Mechanical properties :
#
#
# Convention : Reuss Voigt Hill
#
# Bulk Modulus (GPa) = 69.90941 79.24383 74.57662
# Shear Modulus (GPa) = 35.81502 38.02500 36.92001
#
# Velocity S-wave (km/s) = 3.85146 3.96851 3.91042
# Velocity P-wave (km/s) = 6.98091 7.33619 7.16076
#
# Compressibility (1/GPa) = 0.01430423
#
# Stress axis : x y z
#
# Youngs Moduli (GPa) = 76.70977 97.37483 113.90594
#
# Poissons Ratio (x) = 0.08101 0.52847
# Poissons Ratio (y) = 0.06381 0.38944
# Poissons Ratio (z) = 0.35590 0.33292
#
# Static dielectric constant tensor:
#      x y z
#    x 4.138930 0.000000 0.000000 
#    y 0.000000 4.596830 0.000000 
#    z 0.000000 0.000000 4.580800 
# 
# 
# High freq. dielectric constant tensor:
#      x y z
#    x 1.947250 0.000000 0.000000 
#    y 0.000000 1.979050 0.000000 
#    z 0.000000 0.000000 1.974440 
# 
# From -- ./inp_files/29031.got.cif
#   From: 2010.03.12/outbox.cif.g09.slc.cpg/sg50_15_cif.got.tgz:29031.got - 2010.04.16 13:23:21.
