data_PCOD8205291
_publ_section_title
;
Structure prediction by ZEFSAII (Michael W. Deem and Ramdas Pophale) SiO2 
 PCOD8205291
Probable space group: P B A N
;
_chemical_formula_sum "Si O2"
_cell_formula_units_Z 64
_cell_length_a 15.172368
_cell_length_b 25.285088
_cell_length_c 8.102573
_cell_angle_alpha 90.000000
_cell_angle_beta 90.000000
_cell_angle_gamma 90.000000
_cell_volume 3108.427838
_symmetry_space_group_name_H-M "P B A N"
_symmetry_group_IT_number 50
_space_group.IT_coordinate_system_code '2'
_symmetry_cell_setting 'orthorhombic'
loop_
_space_group_symop_operation_xyz
x,y,z
1/2-x,1/2-y,z
x,1/2-y,-z
1/2-x,y,-z
-x,-y,-z
1/2+x,1/2+y,-z
-x,1/2+y,z
1/2+x,-y,z
loop_
_atom_site_type_symbol
_atom_site_label
_atom_site_fract_x
_atom_site_fract_y
_atom_site_fract_z
Si Si1 0.753686 0.640577 0.808030
Si Si2 0.943561 0.109313 0.688772
Si Si3 0.063789 0.892123 0.695329
Si Si4 0.476371 0.495197 0.193750
Si Si5 0.778822 0.971206 0.691667
Si Si6 0.249550 0.914687 0.304073
Si Si7 0.575926 0.811428 0.188480
Si Si8 0.074404 0.305190 0.195392
O O1 0.765541 0.578180 0.781588
O O2 0.662991 0.662700 0.727674
O O3 0.836994 0.670029 0.723878
O O4 0.750000 0.652547 0.000000
O O5 0.949146 0.119184 0.495767
O O6 0.842580 0.110537 0.755607
O O7 0.990552 0.158297 0.773823
O O8 0.990283 0.053677 0.731581
O O9 0.165297 0.881202 0.752247
O O10 0.045371 0.953649 0.731559
O O11 0.005413 0.851028 0.794882
O O12 0.382505 0.472108 0.257469
O O13 0.500000 0.500000 0.000000
O O14 0.750000 0.965922 0.500000
O O15 0.740608 0.025642 0.766035
O O16 0.250000 0.919739 0.500000
O O17 0.557533 0.753691 0.269063
O O18 0.591857 0.802440 0.997415
#
# Coordination Sequence:
#
# PCOD8205291 Si02
#       8
#     8   8   8   8   8   8   8   8
#     4  10  21  35  58  86 119 160 202 248 306 372
#     4  10  22  38  60  90 116 154 206 254 310 369
#     4  11  21  38  64  84 120 159 201 257 310 365
#     4  11  23  38  60  90 127 161 205 252 311 387
#     4  10  21  37  57  87 127 158 200 254 311 378
#     4   8  19  38  56  82 117 154 193 244 307 364
#     4  10  21  41  57  87 119 159 208 249 311 372
#     4  10  22  38  62  82 121 162 201 258 306 372
#
# _framework density 20.589185000000001
#
# number of rings (size 3 to 8) (size 9 to 14) (size 15 to 20)
#    0.000    2.000    1.250    2.250    5.250    2.000 
#    0.000    5.625    0.000    6.000    0.000    0.000 
#    0.000    0.000    0.000    0.000    0.000    0.000 
#
# Total GULP energy -792999.242082 kJ/mol
# GULP energy per Si atom -12390.613158 kJ/mol
# Density = 2.054232 g / cm^3
# Si number density = 20.589185 Si / 1000 Ang^3
#
#
#
# Elastic Constant Matrix: (Units=GPa)
#
#
# Indices 1 2 3 4 5 6 
#
# 1 150.8494 76.6195 19.2467 0.0000 0.0000 0.0000
# 2 76.6195 139.4470 5.3541 0.0000 0.0000 0.0000
# 3 19.2467 5.3541 39.3691 0.0000 0.0000 0.0000
# 4 0.0000 0.0000 0.0000 -4.0710 0.0000 0.0000
# 5 0.0000 0.0000 0.0000 0.0000 27.8447 0.0000
# 6 0.0000 0.0000 0.0000 0.0000 0.0000 26.7437
#
#
#
# Elastic Compliance Matrix: (Units=1/GPa)
#
#
# Indices 1 2 3 4 5 6 
#
# 1 0.009808 -0.005232 -0.004083 0.000000 0.000000 0.000000
# 2 -0.005232 0.010000 0.001198 0.000000 0.000000 0.000000
# 3 -0.004083 0.001198 0.027234 0.000000 0.000000 0.000000
# 4 0.000000 0.000000 0.000000 -0.245639 0.000000 0.000000
# 5 0.000000 0.000000 0.000000 0.000000 0.035914 0.000000
# 6 0.000000 0.000000 0.000000 0.000000 0.000000 0.037392
#
#
# Mechanical properties :
#
#
# Convention : Reuss Voigt Hill
#
# Bulk Modulus (GPa) = 32.46045 59.12291 45.79168
# Shear Modulus (GPa) = -50.61287 25.33315 -12.63986
#
# Velocity S-wave (km/s) = -4.96343 3.51153 -2.48040
# Velocity P-wave (km/s) = 4.12886 6.72450 3.75310
#
# Compressibility (1/GPa) = 0.03080672
#
# Stress axis : x y z
#
# Youngs Moduli (GPa) = 101.96253 100.00076 36.71898
#
# Poissons Ratio (x) = 0.52320 0.14993
# Poissons Ratio (y) = 0.53347 -0.04398
# Poissons Ratio (z) = 0.41633 -0.11978
#
# Static dielectric constant tensor:
#      x y z
#    x 4.057010 0.000000 0.000000 
#    y 0.000000 3.840380 0.000000 
#    z 0.000000 0.000000 3.504460 
# 
# 
# High freq. dielectric constant tensor:
#      x y z
#    x 1.814660 0.000000 0.000000 
#    y 0.000000 1.801720 0.000000 
#    z 0.000000 0.000000 1.782250 
# 
# From -- ./inp_files/13487.got.cif
#   From: 2010.03.12/outbox.cif.g09.slc.cpg/sg50_7_cif.got.tgz:13487.got - 2010.04.16 13:23:21.
