data_PCOD8205498
_publ_section_title
;
Structure prediction by ZEFSAII (Michael W. Deem and Ramdas Pophale) SiO2 
 PCOD8205498
Probable space group: P B A N
;
_chemical_formula_sum "Si O2"
_cell_formula_units_Z 48
_cell_length_a 26.554413
_cell_length_b 9.966354
_cell_length_c 8.811877
_cell_angle_alpha 90.000000
_cell_angle_beta 90.000000
_cell_angle_gamma 90.000000
_cell_volume 2332.069242
_symmetry_space_group_name_H-M "P B A N"
_symmetry_group_IT_number 50
_space_group.IT_coordinate_system_code '2'
_symmetry_cell_setting 'orthorhombic'
loop_
_space_group_symop_operation_xyz
x,y,z
1/2-x,1/2-y,z
x,1/2-y,-z
1/2-x,y,-z
-x,-y,-z
1/2+x,1/2+y,-z
-x,1/2+y,z
1/2+x,-y,z
loop_
_atom_site_type_symbol
_atom_site_label
_atom_site_fract_x
_atom_site_fract_y
_atom_site_fract_z
Si Si1 0.641995 0.248069 0.829463
Si Si2 0.192501 0.271083 0.336083
Si Si3 0.958249 0.278713 0.676551
Si Si4 0.021795 0.500639 0.831731
Si Si5 0.636915 0.543549 0.844958
Si Si6 0.700952 0.495872 0.111641
O O1 0.600116 0.190171 0.715208
O O2 0.655811 0.399774 0.776475
O O3 0.693078 0.158577 0.834366
O O4 0.618109 0.250000 0.000000
O O5 0.250000 0.250000 0.363153
O O6 0.165142 0.250000 0.500000
O O7 0.166764 0.165103 0.227333
O O8 0.195209 0.418823 0.264024
O O9 0.964634 0.250000 0.500000
O O10 0.989207 0.410909 0.718376
O O11 0.978205 0.152718 0.772865
O O12 0.077525 0.437854 0.828572
O O13 0.000000 0.500000 0.000000
O O14 0.651490 0.543119 0.021187
O O15 0.750000 0.513761 0.000000
#
# Coordination Sequence:
#
# PCOD8205498 Si02
#       6
#     8   8   8   8   8   8
#     4   9  21  40  62  93 123 159 208 261 313 372
#     4  11  24  41  58  85 126 163 201 256 312 373
#     4  11  23  40  63  93 132 169 210 266 327 383
#     4  11  23  41  64  93 128 169 216 267 316 384
#     4  10  22  39  63  92 120 161 210 254 315 374
#     4  11  21  38  64  91 115 158 209 257 312 370
#
# _framework density 20.58258
#
# number of rings (size 3 to 8) (size 9 to 14) (size 15 to 20)
#    0.000    1.500    1.667    4.500    0.000   10.333 
#    0.000    0.000    0.000    2.000    0.000    0.000 
#    0.000    0.000    0.000    0.000    0.000    0.000 
#
# Total GULP energy -594679.370359 kJ/mol
# GULP energy per Si atom -12389.153549 kJ/mol
# Density = 2.053573 g / cm^3
# Si number density = 20.582580 Si / 1000 Ang^3
#
#
#
# Elastic Constant Matrix: (Units=GPa)
#
#
# Indices 1 2 3 4 5 6 
#
# 1 65.4208 46.9003 26.4663 0.0000 0.0000 0.0000
# 2 46.9003 95.6804 36.2719 0.0000 0.0000 0.0000
# 3 26.4663 36.2719 102.8827 0.0000 0.0000 0.0000
# 4 0.0000 0.0000 0.0000 33.4185 0.0000 0.0000
# 5 0.0000 0.0000 0.0000 0.0000 22.0049 0.0000
# 6 0.0000 0.0000 0.0000 0.0000 0.0000 43.5506
#
#
#
# Elastic Compliance Matrix: (Units=1/GPa)
#
#
# Indices 1 2 3 4 5 6 
#
# 1 0.024047 -0.010899 -0.002344 0.000000 0.000000 0.000000
# 2 -0.010899 0.017004 -0.003191 0.000000 0.000000 0.000000
# 3 -0.002344 -0.003191 0.011448 0.000000 0.000000 0.000000
# 4 0.000000 0.000000 0.000000 0.029924 0.000000 0.000000
# 5 0.000000 0.000000 0.000000 0.000000 0.045444 0.000000
# 6 0.000000 0.000000 0.000000 0.000000 0.000000 0.022962
#
#
# Mechanical properties :
#
#
# Convention : Reuss Voigt Hill
#
# Bulk Modulus (GPa) = 50.93871 53.69565 52.31718
# Shear Modulus (GPa) = 26.28270 30.08448 28.18359
#
# Velocity S-wave (km/s) = 3.57731 3.82730 3.70441
# Velocity P-wave (km/s) = 6.47032 6.75836 6.61591
#
# Compressibility (1/GPa) = 0.01963143
#
# Stress axis : x y z
#
# Youngs Moduli (GPa) = 41.58477 58.81122 87.35389
#
# Poissons Ratio (x) = 0.64098 0.20472
# Poissons Ratio (y) = 0.45323 0.27874
# Poissons Ratio (z) = 0.09746 0.18767
#
# Static dielectric constant tensor:
#      x y z
#    x 3.816850 0.000000 0.000000 
#    y 0.000000 4.020690 0.000000 
#    z 0.000000 0.000000 2.928990 
# 
# 
# High freq. dielectric constant tensor:
#      x y z
#    x 1.799900 0.000000 0.000000 
#    y 0.000000 1.817140 0.000000 
#    z 0.000000 0.000000 1.796850 
# 
# From -- ./inp_files/16944.got.cif
#   From: 2010.03.12/outbox.cif.g09.slc.cpg/sg50_9_cif.got.tgz:16944.got - 2010.04.16 13:23:21.
