data_PCOD8205156
_publ_section_title
;
Structure prediction by ZEFSAII (Michael W. Deem and Ramdas Pophale) SiO2 
 PCOD8205156
Probable space group: P B A N
;
_chemical_formula_sum "Si O2"
_cell_formula_units_Z 44
_cell_length_a 14.609615
_cell_length_b 17.367813
_cell_length_c 7.999144
_cell_angle_alpha 90.000000
_cell_angle_beta 90.000000
_cell_angle_gamma 90.000000
_cell_volume 2029.679292
_symmetry_space_group_name_H-M "P B A N"
_symmetry_group_IT_number 50
_space_group.IT_coordinate_system_code '2'
_symmetry_cell_setting 'orthorhombic'
loop_
_space_group_symop_operation_xyz
x,y,z
1/2-x,1/2-y,z
x,1/2-y,-z
1/2-x,y,-z
-x,-y,-z
1/2+x,1/2+y,-z
-x,1/2+y,z
1/2+x,-y,z
loop_
_atom_site_type_symbol
_atom_site_label
_atom_site_fract_x
_atom_site_fract_y
_atom_site_fract_z
Si Si1 0.399090 0.333344 0.207651
Si Si2 0.534866 0.750000 0.500000
Si Si3 0.314079 0.481627 0.345271
Si Si4 0.750000 0.446207 0.000000
Si Si5 0.750000 0.750000 0.000000
Si Si6 0.250000 0.750000 0.500000
Si Si7 0.417123 0.836921 0.994942
Si Si8 0.102075 0.639797 0.625753
O O1 0.406317 0.260408 0.333503
O O2 0.380836 0.410912 0.310056
O O3 0.491457 0.346053 0.103373
O O4 0.312709 0.310150 0.098269
O O5 0.472539 0.827352 0.497444
O O6 0.250000 0.456468 0.500000
O O7 0.266468 0.503493 0.167541
O O8 0.371664 0.553005 0.419420
O O9 0.836662 0.394052 0.947124
O O10 0.190973 0.695217 0.621338
O O11 0.380110 0.750000 0.000000
O O12 0.444179 0.858120 0.806882
#
# Coordination Sequence:
#
# PCOD8205156 Si02
#       8
#     8   4   8   4   2   2   8   8
#     4  12  27  46  71 101 143 187 253 293 368 433
#     4  11  24  42  68 107 128 186 238 300 350 446
#     4  11  26  46  67 106 146 195 236 307 368 436
#     4  10  26  42  74 108 148 182 236 288 387 445
#     4  12  26  50  76  92 140 196 244 316 332 450
#     4  10  20  36  66 106 144 182 236 286 360 456
#     4  11  22  43  69 108 137 187 233 296 359 435
#     4  10  22  39  69 100 145 178 232 295 367 434
#
# _framework density 21.678303
#
# number of rings (size 3 to 8) (size 9 to 14) (size 15 to 20)
#    0.000    1.091    3.636    0.818   10.182    3.636 
#    3.273    0.000    0.000    0.000    0.000    0.000 
#    0.000    0.000    0.000    0.000    0.000    0.000 
#
# Total GULP energy -545423.101072 kJ/mol
# GULP energy per Si atom -12395.979570 kJ/mol
# Density = 2.162896 g / cm^3
# Si number density = 21.678303 Si / 1000 Ang^3
#
#
#
# Elastic Constant Matrix: (Units=GPa)
#
#
# Indices 1 2 3 4 5 6 
#
# 1 126.8833 50.6510 61.3639 0.0000 0.0000 0.0000
# 2 50.6510 112.5910 26.5173 0.0000 0.0000 0.0000
# 3 61.3639 26.5173 113.7412 0.0000 0.0000 0.0000
# 4 0.0000 0.0000 0.0000 36.0892 0.0000 0.0000
# 5 0.0000 0.0000 0.0000 0.0000 20.1137 0.0000
# 6 0.0000 0.0000 0.0000 0.0000 0.0000 25.8086
#
#
#
# Elastic Compliance Matrix: (Units=1/GPa)
#
#
# Indices 1 2 3 4 5 6 
#
# 1 0.012291 -0.004198 -0.005652 0.000000 0.000000 0.000000
# 2 -0.004198 0.010832 -0.000260 0.000000 0.000000 0.000000
# 3 -0.005652 -0.000260 0.011902 0.000000 0.000000 0.000000
# 4 0.000000 0.000000 0.000000 0.027709 0.000000 0.000000
# 5 0.000000 0.000000 0.000000 0.000000 0.049717 0.000000
# 6 0.000000 0.000000 0.000000 0.000000 0.000000 0.038747
#
#
# Mechanical properties :
#
#
# Convention : Reuss Voigt Hill
#
# Bulk Modulus (GPa) = 67.55345 70.03108 68.79226
# Shear Modulus (GPa) = 28.35229 30.71452 29.53341
#
# Velocity S-wave (km/s) = 3.62036 3.76817 3.69500
# Velocity P-wave (km/s) = 6.97893 7.16289 7.07151
#
# Compressibility (1/GPa) = 0.01480309
#
# Stress axis : x y z
#
# Youngs Moduli (GPa) = 81.36329 92.32284 84.01980
#
# Poissons Ratio (x) = 0.38757 0.47489
# Poissons Ratio (y) = 0.34156 0.02188
# Poissons Ratio (z) = 0.45988 0.02404
#
# Static dielectric constant tensor:
#      x y z
#    x 3.888730 0.000000 0.000000 
#    y 0.000000 3.946550 0.000000 
#    z 0.000000 0.000000 3.959280 
# 
# 
# High freq. dielectric constant tensor:
#      x y z
#    x 1.846790 0.000000 0.000000 
#    y 0.000000 1.853150 0.000000 
#    z 0.000000 0.000000 1.863750 
# 
# From -- ./inp_files/12928.got.cif
#   From: 2010.03.12/outbox.cif.g09.slc.cpg/sg50_7_cif.got.tgz:12928.got - 2010.04.16 13:23:21.
