data_PCOD8205333
_publ_section_title
;
Structure prediction by ZEFSAII (Michael W. Deem and Ramdas Pophale) SiO2 
 PCOD8205333
Probable space group: P B A N
;
_chemical_formula_sum "Si O2"
_cell_formula_units_Z 44
_cell_length_a 8.669974
_cell_length_b 14.250740
_cell_length_c 16.100432
_cell_angle_alpha 90.000000
_cell_angle_beta 90.000000
_cell_angle_gamma 90.000000
_cell_volume 1989.265454
_symmetry_space_group_name_H-M "P B A N"
_symmetry_group_IT_number 50
_space_group.IT_coordinate_system_code '2'
_symmetry_cell_setting 'orthorhombic'
loop_
_space_group_symop_operation_xyz
x,y,z
1/2-x,1/2-y,z
x,1/2-y,-z
1/2-x,y,-z
-x,-y,-z
1/2+x,1/2+y,-z
-x,1/2+y,z
1/2+x,-y,z
loop_
_atom_site_type_symbol
_atom_site_label
_atom_site_fract_x
_atom_site_fract_y
_atom_site_fract_z
Si Si1 0.501881 0.250000 0.000000
Si Si2 0.098322 0.618431 0.294983
Si Si3 0.156625 0.901471 0.889283
Si Si4 0.072229 0.233196 0.595261
Si Si5 0.954651 0.425133 0.307993
Si Si6 0.518990 0.601416 0.123877
O O1 0.605031 0.169884 0.959138
O O2 0.408802 0.308920 0.928048
O O3 0.088668 0.639032 0.196889
O O4 0.273175 0.591750 0.315192
O O5 0.042927 0.708244 0.345970
O O6 0.981995 0.535321 0.318510
O O7 0.338603 0.906012 0.892450
O O8 0.098973 0.006628 0.907669
O O9 0.250000 0.250000 0.615402
O O10 0.030867 0.250000 0.500000
O O11 0.037851 0.125058 0.615094
O O12 0.036951 0.387149 0.223316
#
# Coordination Sequence:
#
# PCOD8205333 Si02
#       6
#     4   8   8   8   8   8
#     4  12  21  34  57  82 115 154 189 232 285 334
#     4  10  21  39  62  86 115 154 196 237 286 342
#     4  10  21  37  57  82 112 149 192 235 280 334
#     4  11  24  40  60  89 120 149 187 235 287 346
#     4  10  21  39  62  86 115 154 196 237 286 342
#     4  10  21  37  57  82 112 149 192 235 280 334
#
# _framework density 22.118717
#
# number of rings (size 3 to 8) (size 9 to 14) (size 15 to 20)
#    0.000    1.636    0.000    4.909    0.000    6.545 
#    0.000    1.818    0.000    0.000    0.000    0.000 
#    0.000    0.000    0.000    0.000    0.000    0.000 
#
# Total GULP energy -545452.852580 kJ/mol
# GULP energy per Si atom -12396.655740 kJ/mol
# Density = 2.206837 g / cm^3
# Si number density = 22.118717 Si / 1000 Ang^3
#
#
#
# Elastic Constant Matrix: (Units=GPa)
#
#
# Indices 1 2 3 4 5 6 
#
# 1 41.6311 16.2124 24.2123 0.0000 0.0000 0.0000
# 2 16.2124 85.3442 43.9383 0.0000 0.0000 0.0000
# 3 24.2123 43.9383 101.3849 0.0000 0.0000 0.0000
# 4 0.0000 0.0000 0.0000 39.6572 0.0000 0.0000
# 5 0.0000 0.0000 0.0000 0.0000 21.6942 0.0000
# 6 0.0000 0.0000 0.0000 0.0000 0.0000 44.0102
#
#
#
# Elastic Compliance Matrix: (Units=1/GPa)
#
#
# Indices 1 2 3 4 5 6 
#
# 1 0.028284 -0.002440 -0.005697 0.000000 0.000000 0.000000
# 2 -0.002440 0.015293 -0.006045 0.000000 0.000000 0.000000
# 3 -0.005697 -0.006045 0.013844 0.000000 0.000000 0.000000
# 4 0.000000 0.000000 0.000000 0.025216 0.000000 0.000000
# 5 0.000000 0.000000 0.000000 0.000000 0.046095 0.000000
# 6 0.000000 0.000000 0.000000 0.000000 0.000000 0.022722
#
#
# Mechanical properties :
#
#
# Convention : Reuss Voigt Hill
#
# Bulk Modulus (GPa) = 34.41556 44.12068 39.26812
# Shear Modulus (GPa) = 26.38465 30.67212 28.52839
#
# Velocity S-wave (km/s) = 3.45754 3.72789 3.59525
# Velocity P-wave (km/s) = 5.61539 6.20645 5.91831
#
# Compressibility (1/GPa) = 0.02905663
#
# Stress axis : x y z
#
# Youngs Moduli (GPa) = 35.35546 65.38974 72.23447
#
# Poissons Ratio (x) = 0.15954 0.41154
# Poissons Ratio (y) = 0.08626 0.43666
# Poissons Ratio (z) = 0.20143 0.39528
#
# Static dielectric constant tensor:
#      x y z
#    x 3.769590 0.000000 0.000000 
#    y 0.000000 4.418780 0.000000 
#    z 0.000000 0.000000 4.401900 
# 
# 
# High freq. dielectric constant tensor:
#      x y z
#    x 1.859290 0.000000 0.000000 
#    y 0.000000 1.879810 0.000000 
#    z 0.000000 0.000000 1.876410 
# 
# From -- ./inp_files/28628.got.cif
#   From: 2010.03.12/outbox.cif.g09.slc.cpg/sg50_15_cif.got.tgz:28628.got - 2010.04.16 13:23:21.
