data_PCOD8205829
_publ_section_title
;
Structure prediction by ZEFSAII (Michael W. Deem and Ramdas Pophale) SiO2 
 PCOD8205829
Probable space group: P B A N
;
_chemical_formula_sum "Si O2"
_cell_formula_units_Z 58
_cell_length_a 18.134413
_cell_length_b 13.892405
_cell_length_c 11.343406
_cell_angle_alpha 90.000000
_cell_angle_beta 90.000000
_cell_angle_gamma 90.000000
_cell_volume 2857.751191
_symmetry_space_group_name_H-M "P B A N"
_symmetry_group_IT_number 50
_space_group.IT_coordinate_system_code '2'
_symmetry_cell_setting 'orthorhombic'
loop_
_space_group_symop_operation_xyz
x,y,z
1/2-x,1/2-y,z
x,1/2-y,-z
1/2-x,y,-z
-x,-y,-z
1/2+x,1/2+y,-z
-x,1/2+y,z
1/2+x,-y,z
loop_
_atom_site_type_symbol
_atom_site_label
_atom_site_fract_x
_atom_site_fract_y
_atom_site_fract_z
Si Si1 0.755862 0.914965 0.859949
Si Si2 0.174230 0.612967 0.822132
Si Si3 0.020857 0.510134 0.866206
Si Si4 0.329249 0.655454 0.443422
Si Si5 0.750000 0.250000 0.000000
Si Si6 0.103897 0.373185 0.263780
Si Si7 0.097691 0.346728 0.745268
Si Si8 0.416803 0.035365 0.509228
O O1 0.681544 0.877620 0.801368
O O2 0.823350 0.852373 0.809928
O O3 0.767039 0.026202 0.824963
O O4 0.750000 0.901507 0.000000
O O5 0.093033 0.574093 0.848393
O O6 0.176341 0.666822 0.697197
O O7 0.194885 0.688005 0.921838
O O8 0.035135 0.402401 0.819213
O O9 0.953572 0.557056 0.798236
O O10 0.000000 0.500000 0.000000
O O11 0.368700 0.750000 0.500000
O O12 0.250000 0.646003 0.500000
O O13 0.372539 0.561624 0.477379
O O14 0.073826 0.264160 0.262756
O O15 0.112411 0.406781 0.397384
O O16 0.100598 0.394799 0.617330
O O17 0.500000 0.000000 0.500000
#
# Coordination Sequence:
#
# PCOD8205829 Si02
#       8
#     8   8   8   8   2   8   8   8
#     4  11  23  45  71  97 139 182 224 286 338 402
#     4  11  23  44  62  99 144 169 229 290 328 408
#     4  11  25  46  66  97 138 178 225 285 342 400
#     4  11  23  43  70  98 131 176 221 277 347 406
#     4  12  24  36  74 104 126 192 230 274 352 400
#     4  12  25  42  73 101 128 189 226 272 356 406
#     4  11  25  46  67 100 141 169 229 289 334 412
#     4  12  24  45  66  99 139 176 223 282 339 404
#
# _framework density 20.295679
#
# number of rings (size 3 to 8) (size 9 to 14) (size 15 to 20)
#    0.000    0.690    4.828    4.138    0.000    6.069 
#    0.000    1.379    0.000    0.000    0.000    0.000 
#    0.000    0.000    0.000    0.000    0.000    0.000 
#
# Total GULP energy -719403.816072 kJ/mol
# GULP energy per Si atom -12403.514070 kJ/mol
# Density = 2.024949 g / cm^3
# Si number density = 20.295679 Si / 1000 Ang^3
#
#
#
# Elastic Constant Matrix: (Units=GPa)
#
#
# Indices 1 2 3 4 5 6 
#
# 1 86.4267 38.4588 49.0105 0.0000 0.0000 0.0000
# 2 38.4588 119.5243 60.5781 0.0000 0.0000 0.0000
# 3 49.0105 60.5781 195.1852 0.0000 0.0000 0.0000
# 4 0.0000 0.0000 0.0000 36.2955 0.0000 0.0000
# 5 0.0000 0.0000 0.0000 0.0000 38.5444 0.0000
# 6 0.0000 0.0000 0.0000 0.0000 0.0000 27.9704
#
#
#
# Elastic Compliance Matrix: (Units=1/GPa)
#
#
# Indices 1 2 3 4 5 6 
#
# 1 0.014545 -0.003357 -0.002610 0.000000 0.000000 0.000000
# 2 -0.003357 0.010703 -0.002479 0.000000 0.000000 0.000000
# 3 -0.002610 -0.002479 0.006548 0.000000 0.000000 0.000000
# 4 0.000000 0.000000 0.000000 0.027552 0.000000 0.000000
# 5 0.000000 0.000000 0.000000 0.000000 0.025944 0.000000
# 6 0.000000 0.000000 0.000000 0.000000 0.000000 0.035752
#
#
# Mechanical properties :
#
#
# Convention : Reuss Voigt Hill
#
# Bulk Modulus (GPa) = 67.09845 77.47010 72.28428
# Shear Modulus (GPa) = 34.98863 37.43463 36.21163
#
# Velocity S-wave (km/s) = 4.15655 4.29938 4.22857
# Velocity P-wave (km/s) = 7.49454 7.93094 7.71582
#
# Compressibility (1/GPa) = 0.01490347
#
# Stress axis : x y z
#
# Youngs Moduli (GPa) = 68.75449 93.43146 152.71599
#
# Poissons Ratio (x) = 0.31365 0.39862
# Poissons Ratio (y) = 0.23081 0.37856
# Poissons Ratio (z) = 0.17946 0.23161
#
# Static dielectric constant tensor:
#      x y z
#    x 3.648570 0.000000 0.000000 
#    y 0.000000 4.781610 0.000000 
#    z 0.000000 0.000000 3.972870 
# 
# 
# High freq. dielectric constant tensor:
#      x y z
#    x 1.796000 0.000000 0.000000 
#    y 0.000000 1.805580 0.000000 
#    z 0.000000 0.000000 1.815730 
# 
# From -- ./inp_files/21912.got.cif
#   From: 2010.03.12/outbox.cif.g09.slc.cpg/sg50_11_cif.got.tgz:21912.got - 2010.04.16 13:23:21.
