data_PCOD8205283
_publ_section_title
;
Structure prediction by ZEFSAII (Michael W. Deem and Ramdas Pophale) SiO2 
 PCOD8205283
Probable space group: P B A N
;
_chemical_formula_sum "Si O2"
_cell_formula_units_Z 64
_cell_length_a 8.793067
_cell_length_b 29.639112
_cell_length_c 13.399555
_cell_angle_alpha 90.000000
_cell_angle_beta 90.000000
_cell_angle_gamma 90.000000
_cell_volume 3492.174573
_symmetry_space_group_name_H-M "P B A N"
_symmetry_group_IT_number 50
_space_group.IT_coordinate_system_code '2'
_symmetry_cell_setting 'orthorhombic'
loop_
_space_group_symop_operation_xyz
x,y,z
1/2-x,1/2-y,z
x,1/2-y,-z
1/2-x,y,-z
-x,-y,-z
1/2+x,1/2+y,-z
-x,1/2+y,z
1/2+x,-y,z
loop_
_atom_site_type_symbol
_atom_site_label
_atom_site_fract_x
_atom_site_fract_y
_atom_site_fract_z
Si Si1 0.577969 0.954777 0.118219
Si Si2 0.927456 0.949216 0.104235
Si Si3 0.935230 0.848023 0.603284
Si Si4 0.085511 0.758576 0.616650
Si Si5 0.051520 0.905816 0.288850
Si Si6 0.614202 0.520921 0.425198
Si Si7 0.397479 0.325866 0.626953
Si Si8 0.105934 0.929923 0.692071
O O1 0.756265 0.956218 0.144742
O O2 0.481202 0.929045 0.202007
O O3 0.521457 0.005334 0.113113
O O4 0.561696 0.931266 0.009647
O O5 0.010816 0.913871 0.174161
O O6 0.919597 0.839921 0.486868
O O7 0.774538 0.838451 0.658023
O O8 0.048109 0.810005 0.646076
O O9 0.000312 0.898678 0.620726
O O10 0.250000 0.750000 0.667861
O O11 0.102618 0.750000 0.500000
O O12 0.946167 0.725741 0.650455
O O13 0.230623 0.907959 0.301781
O O14 0.954076 0.937168 0.364695
O O15 0.012476 0.854406 0.307168
O O16 0.750000 0.536382 0.500000
O O17 0.500000 0.500000 0.500000
O O18 0.643096 0.480489 0.346480
#
# Coordination Sequence:
#
# PCOD8205283 Si02
#       8
#     8   8   8   8   8   8   8   8
#     4  10  21  37  56  76 103 133 179 226 274 320
#     4  10  21  37  56  77 100 137 176 227 274 320
#     4  10  21  34  54  76 109 142 183 223 266 320
#     4   9  17  33  53  75 105 139 177 225 270 314
#     4  12  24  36  55  77 106 143 187 223 271 322
#     4  12  26  38  49  70 109 152 186 220 260 315
#     4  10  21  34  53  78 106 144 183 222 267 321
#     4  12  24  37  53  79 105 145 184 226 270 322
#
# _framework density 18.326689999999999
#
# number of rings (size 3 to 8) (size 9 to 14) (size 15 to 20)
#    0.000    1.375    2.500    3.375    5.250    4.000 
#    0.000    0.000    0.000    0.000    0.000    0.875 
#    0.000    7.000    0.000    0.000    0.000    0.000 
#
# Total GULP energy -793070.471515 kJ/mol
# GULP energy per Si atom -12391.726117 kJ/mol
# Density = 1.828498 g / cm^3
# Si number density = 18.326690 Si / 1000 Ang^3
#
#
#
# Elastic Constant Matrix: (Units=GPa)
#
#
# Indices 1 2 3 4 5 6 
#
# 1 111.3426 8.3975 17.8952 0.0000 0.0000 0.0000
# 2 8.3975 58.5098 5.8219 0.0000 0.0000 0.0000
# 3 17.8952 5.8219 60.6389 0.0000 0.0000 0.0000
# 4 0.0000 0.0000 0.0000 12.1587 0.0000 0.0000
# 5 0.0000 0.0000 0.0000 0.0000 28.4033 0.0000
# 6 0.0000 0.0000 0.0000 0.0000 0.0000 30.4082
#
#
#
# Elastic Compliance Matrix: (Units=1/GPa)
#
#
# Indices 1 2 3 4 5 6 
#
# 1 0.009497 -0.001095 -0.002698 0.000000 0.000000 0.000000
# 2 -0.001095 0.017382 -0.001346 0.000000 0.000000 0.000000
# 3 -0.002698 -0.001346 0.017416 0.000000 0.000000 0.000000
# 4 0.000000 0.000000 0.000000 0.082246 0.000000 0.000000
# 5 0.000000 0.000000 0.000000 0.000000 0.035207 0.000000
# 6 0.000000 0.000000 0.000000 0.000000 0.000000 0.032886
#
#
# Mechanical properties :
#
#
# Convention : Reuss Voigt Hill
#
# Bulk Modulus (GPa) = 29.39477 32.74673 31.07075
# Shear Modulus (GPa) = 23.12129 27.41915 25.27022
#
# Velocity S-wave (km/s) = 3.55578 3.87218 3.71735
# Velocity P-wave (km/s) = 5.73866 6.15620 5.95110
#
# Compressibility (1/GPa) = 0.03401966
#
# Stress axis : x y z
#
# Youngs Moduli (GPa) = 105.29164 57.53023 57.41717
#
# Poissons Ratio (x) = 0.06298 0.15489
# Poissons Ratio (y) = 0.11526 0.07727
# Poissons Ratio (z) = 0.28405 0.07742
#
# Static dielectric constant tensor:
#      x y z
#    x 3.666550 0.000000 0.000000 
#    y 0.000000 3.070930 0.000000 
#    z 0.000000 0.000000 3.424010 
# 
# 
# High freq. dielectric constant tensor:
#      x y z
#    x 1.736170 0.000000 0.000000 
#    y 0.000000 1.692970 0.000000 
#    z 0.000000 0.000000 1.678170 
# 
# From -- ./inp_files/19550.got.cif
#   From: 2010.03.12/outbox.cif.g09.slc.cpg/sg50_10_cif.got.tgz:19550.got - 2010.04.16 13:23:21.
