data_PCOD8205255
_publ_section_title
;
Structure prediction by ZEFSAII (Michael W. Deem and Ramdas Pophale) SiO2 
 PCOD8205255
Probable space group: P B A N
;
_chemical_formula_sum "Si O2"
_cell_formula_units_Z 38
_cell_length_a 17.903099
_cell_length_b 12.165477
_cell_length_c 8.378647
_cell_angle_alpha 90.000000
_cell_angle_beta 90.000000
_cell_angle_gamma 90.000000
_cell_volume 1824.867131
_symmetry_space_group_name_H-M "P B A N"
_symmetry_group_IT_number 50
_space_group.IT_coordinate_system_code '2'
_symmetry_cell_setting 'orthorhombic'
loop_
_space_group_symop_operation_xyz
x,y,z
1/2-x,1/2-y,z
x,1/2-y,-z
1/2-x,y,-z
-x,-y,-z
1/2+x,1/2+y,-z
-x,1/2+y,z
1/2+x,-y,z
loop_
_atom_site_type_symbol
_atom_site_label
_atom_site_fract_x
_atom_site_fract_y
_atom_site_fract_z
Si Si1 0.750000 0.250000 0.500000
Si Si2 0.102956 0.068849 0.140250
Si Si3 0.338378 0.373620 0.483904
Si Si4 0.250000 0.022806 0.000000
Si Si5 0.831910 0.070681 0.288681
Si Si6 0.051119 0.865793 0.952385
O O1 0.803042 0.169519 0.398771
O O2 0.127727 0.075688 0.323015
O O3 0.176956 0.096717 0.035547
O O4 0.036899 0.150008 0.087105
O O5 0.070497 0.947746 0.098195
O O6 0.372131 0.250000 0.500000
O O7 0.250000 0.365441 0.500000
O O8 0.357778 0.459560 0.621910
O O9 0.267294 0.948667 0.155776
O O10 0.910089 0.100822 0.210966
O O11 0.085213 0.750000 0.000000
#
# Coordination Sequence:
#
# PCOD8205255 Si02
#       6
#     2   8   8   4   8   8
#     4  12  24  38  66 100 136 170 234 274 340 414
#     4  10  22  44  65  92 134 173 226 274 336 410
#     4  11  23  43  64  98 135 171 227 284 335 403
#     4  10  20  41  69  92 128 172 229 281 322 402
#     4  11  24  40  66 101 130 182 220 280 341 396
#     4  10  25  43  66  98 137 178 222 279 341 411
#
# _framework density 20.823433000000001
#
# number of rings (size 3 to 8) (size 9 to 14) (size 15 to 20)
#    0.000    1.474    3.158    0.000    8.842    5.895 
#    1.895    1.053    0.000    0.000    0.000    0.000 
#    0.000    0.000    0.000    0.000    0.000    0.000 
#
# Total GULP energy -470807.323996 kJ/mol
# GULP energy per Si atom -12389.666421 kJ/mol
# Density = 2.077604 g / cm^3
# Si number density = 20.823433 Si / 1000 Ang^3
#
#
#
# Elastic Constant Matrix: (Units=GPa)
#
#
# Indices 1 2 3 4 5 6 
#
# 1 139.8006 39.0132 58.1699 0.0000 0.0000 0.0000
# 2 39.0132 139.1301 76.6475 0.0000 0.0000 0.0000
# 3 58.1699 76.6475 152.8162 0.0000 0.0000 0.0000
# 4 0.0000 0.0000 0.0000 17.8828 0.0000 0.0000
# 5 0.0000 0.0000 0.0000 0.0000 34.4978 0.0000
# 6 0.0000 0.0000 0.0000 0.0000 0.0000 16.4636
#
#
#
# Elastic Compliance Matrix: (Units=1/GPa)
#
#
# Indices 1 2 3 4 5 6 
#
# 1 0.008569 -0.000837 -0.002842 0.000000 0.000000 0.000000
# 2 -0.000837 0.010014 -0.004704 0.000000 0.000000 0.000000
# 3 -0.002842 -0.004704 0.009985 0.000000 0.000000 0.000000
# 4 0.000000 0.000000 0.000000 0.055920 0.000000 0.000000
# 5 0.000000 0.000000 0.000000 0.000000 0.028987 0.000000
# 6 0.000000 0.000000 0.000000 0.000000 0.000000 0.060740
#
#
# Mechanical properties :
#
#
# Convention : Reuss Voigt Hill
#
# Bulk Modulus (GPa) = 84.73342 86.60092 85.66717
# Shear Modulus (GPa) = 25.65222 30.96324 28.30773
#
# Velocity S-wave (km/s) = 3.51364 3.86027 3.69103
# Velocity P-wave (km/s) = 7.56575 7.84522 7.70675
#
# Compressibility (1/GPa) = 0.01180172
#
# Stress axis : x y z
#
# Youngs Moduli (GPa) = 116.69690 99.86373 100.15125
#
# Poissons Ratio (x) = 0.08361 0.28463
# Poissons Ratio (y) = 0.09770 0.47109
# Poissons Ratio (z) = 0.33165 0.46974
#
# Static dielectric constant tensor:
#      x y z
#    x 3.868600 0.000000 0.000000 
#    y 0.000000 4.023310 0.000000 
#    z 0.000000 0.000000 3.859560 
# 
# 
# High freq. dielectric constant tensor:
#      x y z
#    x 1.818650 0.000000 0.000000 
#    y 0.000000 1.809780 0.000000 
#    z 0.000000 0.000000 1.820480 
# 
# From -- ./inp_files/11103.got.cif
#   From: 2010.03.12/outbox.cif.g09.slc.cpg/sg50_6_cif.got.tgz:11103.got - 2010.04.16 13:23:21.
