data_PCOD8205944
_publ_section_title
;
Structure prediction by ZEFSAII (Michael W. Deem and Ramdas Pophale) SiO2 
 PCOD8205944
Probable space group: P M M A
;
_chemical_formula_sum "Si O2"
_cell_formula_units_Z 40
_cell_length_a 8.937490
_cell_length_b 20.780181
_cell_length_c 14.416334
_cell_angle_alpha 90.000000
_cell_angle_beta 90.000000
_cell_angle_gamma 90.000000
_cell_volume 2677.439896
_symmetry_space_group_name_H-M "P M M A"
_symmetry_group_IT_number 51
_symmetry_cell_setting 'orthorhombic'
loop_
_space_group_symop_operation_xyz
x,y,z
1/2-x,-y,z
1/2+x,-y,-z
-x,y,-z
-x,-y,-z
1/2+x,y,-z
1/2-x,y,z
x,-y,z
loop_
_atom_site_type_symbol
_atom_site_label
_atom_site_fract_x
_atom_site_fract_y
_atom_site_fract_z
Si Si1 0.423122 0.234568 0.099462
Si Si2 0.423401 0.622844 0.098646
Si Si3 0.928239 0.500000 0.103005
Si Si4 0.926556 0.124742 0.212053
Si Si5 0.426667 0.000000 0.900602
Si Si6 0.925906 0.073278 0.407521
O O1 0.250000 0.218321 0.084086
O O2 0.442919 0.306404 0.143320
O O3 0.492220 0.187714 0.175186
O O4 0.500000 0.225493 0.000000
O O5 0.250000 0.604026 0.088052
O O6 0.509454 0.565007 0.153828
O O7 0.500000 0.628995 0.000000
O O8 0.750000 0.500000 0.101492
O O9 0.000000 0.500000 0.000000
O O10 0.750000 0.133965 0.202497
O O11 0.980819 0.062879 0.154370
O O12 0.974653 0.115307 0.318960
O O13 0.250000 0.000000 0.911614
O O14 0.500000 0.000000 0.000000
O O15 0.750000 0.075159 0.420515
O O16 0.000000 0.102854 0.500000
O O17 0.980690 0.000000 0.391837
#
# Coordination Sequence:
#
# PCOD8205944 Si02
#       6
#     8   8   4   8   4   8
#     4  10  20  31  43  60  83 113 148 180 212 252
#     4   9  16  26  38  53  76 105 137 173 209 244
#     4  10  16  22  36  56  76 100 135 174 207 242
#     4  10  19  32  47  61  83 111 139 175 217 257
#     4  10  20  32  43  58  80 108 141 176 211 248
#     4   9  17  31  49  67  85 105 131 169 217 264
#
# _framework density 14.939643999999999
#
# number of rings (size 3 to 8) (size 9 to 14) (size 15 to 20)
#    0.000    2.400    1.000    3.900    0.000    5.600 
#    0.000    0.000    0.000    0.000    0.000    0.000 
#    0.000    0.000    0.000    0.900    0.000   11.900 
#
# Total GULP energy -495731.319742 kJ/mol
# GULP energy per Si atom -12393.282994 kJ/mol
# Density = 1.490564 g / cm^3
# Si number density = 14.939644 Si / 1000 Ang^3
#
#
#
# Elastic Constant Matrix: (Units=GPa)
#
#
# Indices 1 2 3 4 5 6 
#
# 1 79.4359 54.0486 38.4347 0.0000 0.0000 0.0000
# 2 54.0486 121.8926 50.9892 0.0000 0.0000 0.0000
# 3 38.4347 50.9892 89.4866 0.0000 0.0000 0.0000
# 4 0.0000 0.0000 0.0000 3.3706 0.0000 0.0000
# 5 0.0000 0.0000 0.0000 0.0000 21.0569 0.0000
# 6 0.0000 0.0000 0.0000 0.0000 0.0000 26.3851
#
#
#
# Elastic Compliance Matrix: (Units=1/GPa)
#
#
# Indices 1 2 3 4 5 6 
#
# 1 0.019307 -0.006686 -0.004483 0.000000 0.000000 0.000000
# 2 -0.006686 0.013086 -0.004585 0.000000 0.000000 0.000000
# 3 -0.004483 -0.004585 0.015713 0.000000 0.000000 0.000000
# 4 0.000000 0.000000 0.000000 0.296680 0.000000 0.000000
# 5 0.000000 0.000000 0.000000 0.000000 0.047490 0.000000
# 6 0.000000 0.000000 0.000000 0.000000 0.000000 0.037900
#
#
# Mechanical properties :
#
#
# Convention : Reuss Voigt Hill
#
# Bulk Modulus (GPa) = 60.24518 64.19556 62.22037
# Shear Modulus (GPa) = 10.70169 19.98538 15.34353
#
# Velocity S-wave (km/s) = 2.67933 3.66148 3.20821
# Velocity P-wave (km/s) = 7.07001 7.80631 7.44727
#
# Compressibility (1/GPa) = 0.01659884
#
# Stress axis : x y z
#
# Youngs Moduli (GPa) = 51.79564 76.41505 63.64215
#
# Poissons Ratio (x) = 0.51088 0.28530
# Poissons Ratio (y) = 0.34628 0.29181
# Poissons Ratio (z) = 0.23219 0.35037
#
# Static dielectric constant tensor:
#      x y z
#    x 2.923130 0.000000 0.000000 
#    y 0.000000 3.671720 0.000000 
#    z 0.000000 0.000000 2.550830 
# 
# 
# High freq. dielectric constant tensor:
#      x y z
#    x 1.582470 0.000000 0.000000 
#    y 0.000000 1.577830 0.000000 
#    z 0.000000 0.000000 1.519750 
# 
# From -- ./inp_files/21318.got.cif
#   From: 2010.03.12/outbox.cif.g09.slc.cpg/sg51_11_cif.got.tgz:21318.got - 2010.04.16 13:43:02.
