data_PCOD8205602
_publ_section_title
;
Structure prediction by ZEFSAII (Michael W. Deem and Ramdas Pophale) SiO2 
 PCOD8205602
Probable space group: P B A N
;
_chemical_formula_sum "Si O2"
_cell_formula_units_Z 64
_cell_length_a 17.810306
_cell_length_b 11.729500
_cell_length_c 15.665902
_cell_angle_alpha 90.000000
_cell_angle_beta 90.000000
_cell_angle_gamma 90.000000
_cell_volume 3272.700676
_symmetry_space_group_name_H-M "P B A N"
_symmetry_group_IT_number 50
_space_group.IT_coordinate_system_code '2'
_symmetry_cell_setting 'orthorhombic'
loop_
_space_group_symop_operation_xyz
x,y,z
1/2-x,1/2-y,z
x,1/2-y,-z
1/2-x,y,-z
-x,-y,-z
1/2+x,1/2+y,-z
-x,1/2+y,z
1/2+x,-y,z
loop_
_atom_site_type_symbol
_atom_site_label
_atom_site_fract_x
_atom_site_fract_y
_atom_site_fract_z
Si Si1 0.432844 0.552632 0.675211
Si Si2 0.910423 0.642203 0.804572
Si Si3 0.679554 0.309033 0.089955
Si Si4 0.162388 0.882962 0.511674
Si Si5 0.718018 0.570433 0.088789
Si Si6 0.311322 0.337414 0.248510
Si Si7 0.432439 0.775560 0.775385
Si Si8 0.600672 0.473597 0.657530
O O1 0.393475 0.465544 0.742157
O O2 0.371851 0.569429 0.600132
O O3 0.455340 0.675766 0.711442
O O4 0.512744 0.501265 0.649740
O O5 0.863864 0.623923 0.891817
O O6 0.885179 0.763809 0.768626
O O7 0.998936 0.656341 0.819696
O O8 0.750000 0.250000 0.136094
O O9 0.703006 0.438094 0.076957
O O10 0.609161 0.289900 0.149443
O O11 0.662485 0.250000 0.000000
O O12 0.147093 0.750000 0.500000
O O13 0.250000 0.911054 0.500000
O O14 0.118455 0.946921 0.438768
O O15 0.776295 0.602729 0.164065
O O16 0.750000 0.620592 0.000000
O O17 0.250000 0.250000 0.288651
O O18 0.340037 0.430174 0.315058
O O19 0.384643 0.868622 0.722712
#
# Coordination Sequence:
#
# PCOD8205602 Si02
#       8
#     8   8   8   8   8   8   8   8
#     4  11  22  43  68  95 129 174 221 268 336 390
#     4  10  23  42  65  95 129 169 224 265 324 400
#     4  11  22  39  61  95 130 163 218 264 327 385
#     4  11  25  41  63 101 133 163 218 277 328 395
#     4  11  22  41  66  94 130 174 215 274 325 390
#     4  10  23  40  66  93 128 172 227 263 326 395
#     4  11  22  41  68  95 125 175 218 277 327 387
#     4  11  23  42  68  92 131 174 219 270 335 394
#
# _framework density 19.555714999999999
#
# number of rings (size 3 to 8) (size 9 to 14) (size 15 to 20)
#    0.000    1.250    5.000    1.125    3.500    3.250 
#    2.250    1.250    0.000    0.000    0.000    0.000 
#    0.000    0.000    0.000    0.000    0.000    0.000 
#
# Total GULP energy -793128.025218 kJ/mol
# GULP energy per Si atom -12392.625394 kJ/mol
# Density = 1.951121 g / cm^3
# Si number density = 19.555715 Si / 1000 Ang^3
#
#
#
# Elastic Constant Matrix: (Units=GPa)
#
#
# Indices 1 2 3 4 5 6 
#
# 1 87.9893 34.2754 62.9936 0.0000 0.0000 0.0000
# 2 34.2754 105.0915 36.5625 0.0000 0.0000 0.0000
# 3 62.9936 36.5625 97.0123 0.0000 0.0000 0.0000
# 4 0.0000 0.0000 0.0000 60.6563 0.0000 0.0000
# 5 0.0000 0.0000 0.0000 0.0000 33.4700 0.0000
# 6 0.0000 0.0000 0.0000 0.0000 0.0000 58.9363
#
#
#
# Elastic Compliance Matrix: (Units=1/GPa)
#
#
# Indices 1 2 3 4 5 6 
#
# 1 0.021801 -0.002515 -0.013208 0.000000 0.000000 0.000000
# 2 -0.002515 0.011242 -0.002604 0.000000 0.000000 0.000000
# 3 -0.013208 -0.002604 0.019866 0.000000 0.000000 0.000000
# 4 0.000000 0.000000 0.000000 0.016486 0.000000 0.000000
# 5 0.000000 0.000000 0.000000 0.000000 0.029878 0.000000
# 6 0.000000 0.000000 0.000000 0.000000 0.000000 0.016967
#
#
# Mechanical properties :
#
#
# Convention : Reuss Voigt Hill
#
# Bulk Modulus (GPa) = 61.52168 61.97292 61.74730
# Shear Modulus (GPa) = 31.58333 41.02996 36.30664
#
# Velocity S-wave (km/s) = 4.02312 4.58548 4.31347
# Velocity P-wave (km/s) = 7.28757 7.73270 7.51343
#
# Compressibility (1/GPa) = 0.01625443
#
# Stress axis : x y z
#
# Youngs Moduli (GPa) = 45.87003 88.95491 50.33780
#
# Poissons Ratio (x) = 0.22372 0.66487
# Poissons Ratio (y) = 0.11536 0.13107
# Poissons Ratio (z) = 0.60586 0.23161
#
# Static dielectric constant tensor:
#      x y z
#    x 3.618540 0.000000 0.000000 
#    y 0.000000 3.797200 0.000000 
#    z 0.000000 0.000000 3.321810 
# 
# 
# High freq. dielectric constant tensor:
#      x y z
#    x 1.769430 0.000000 0.000000 
#    y 0.000000 1.783220 0.000000 
#    z 0.000000 0.000000 1.745650 
# 
# From -- ./inp_files/27002.got.cif
#   From: 2010.03.12/outbox.cif.g09.slc.cpg/sg50_14_cif.got.tgz:27002.got - 2010.04.16 13:23:21.
