data_PCOD8206331
_publ_section_title
;
Structure prediction by ZEFSAII (Michael W. Deem and Ramdas Pophale) SiO2 
 PCOD8206331
Probable space group: P M M A
;
_chemical_formula_sum "Si O2"
_cell_formula_units_Z 48
_cell_length_a 8.838126
_cell_length_b 24.346985
_cell_length_c 13.584447
_cell_angle_alpha 90.000000
_cell_angle_beta 90.000000
_cell_angle_gamma 90.000000
_cell_volume 2923.124686
_symmetry_space_group_name_H-M "P M M A"
_symmetry_group_IT_number 51
_symmetry_cell_setting 'orthorhombic'
loop_
_space_group_symop_operation_xyz
x,y,z
1/2-x,-y,z
1/2+x,-y,-z
-x,y,-z
-x,-y,-z
1/2+x,y,-z
1/2-x,y,z
x,-y,z
loop_
_atom_site_type_symbol
_atom_site_label
_atom_site_fract_x
_atom_site_fract_y
_atom_site_fract_z
Si Si1 0.927627 0.562793 0.300273
Si Si2 0.429280 0.177302 0.108014
Si Si3 0.926298 0.057917 0.894891
Si Si4 0.075534 0.383900 0.898455
Si Si5 0.927869 0.723251 0.216090
Si Si6 0.570480 0.663299 0.602783
O O1 0.750000 0.576501 0.311236
O O2 0.964526 0.500000 0.325787
O O3 0.980663 0.575985 0.188822
O O4 0.019302 0.600810 0.375418
O O5 0.250000 0.187752 0.100858
O O6 0.469322 0.116557 0.154139
O O7 0.504063 0.219040 0.183660
O O8 0.500000 0.184706 0.000000
O O9 0.750000 0.058610 0.913826
O O10 0.970831 0.000000 0.837981
O O11 0.000000 0.056177 0.000000
O O12 0.250000 0.392801 0.916425
O O13 0.038249 0.321117 0.869358
O O14 0.000000 0.400829 0.000000
O O15 0.750000 0.728373 0.236252
O O16 0.009134 0.705092 0.315770
O O17 0.500000 0.682459 0.500000
O O18 0.750000 0.666237 0.598267
#
# Coordination Sequence:
#
# PCOD8206331 Si02
#       6
#     8   8   8   8   8   8
#     4   9  19  36  53  70  95 124 154 188 225 268
#     4  10  18  27  42  66  95 129 166 200 236 275
#     4   8  14  24  37  55  84 123 164 201 233 267
#     4   9  18  30  45  65  90 122 154 185 222 263
#     4  10  20  34  49  67  93 122 155 194 234 277
#     4  11  22  37  56  75  94 116 145 183 232 285
#
# _framework density 16.420784999999999
#
# number of rings (size 3 to 8) (size 9 to 14) (size 15 to 20)
#    0.000    2.500    0.000    4.000    0.000    6.333 
#    0.000    0.000    0.000    0.000    0.000    0.000 
#    0.000    0.667    0.000    1.833    0.000    3.000 
#
# Total GULP energy -594783.051726 kJ/mol
# GULP energy per Si atom -12391.313578 kJ/mol
# Density = 1.638341 g / cm^3
# Si number density = 16.420785 Si / 1000 Ang^3
#
#
#
# Elastic Constant Matrix: (Units=GPa)
#
#
# Indices 1 2 3 4 5 6 
#
# 1 80.9379 46.5372 37.5890 0.0000 0.0000 0.0000
# 2 46.5372 125.9346 32.6508 0.0000 0.0000 0.0000
# 3 37.5890 32.6508 74.9589 0.0000 0.0000 0.0000
# 4 0.0000 0.0000 0.0000 0.8218 0.0000 0.0000
# 5 0.0000 0.0000 0.0000 0.0000 26.8256 0.0000
# 6 0.0000 0.0000 0.0000 0.0000 0.0000 19.8718
#
#
#
# Elastic Compliance Matrix: (Units=1/GPa)
#
#
# Indices 1 2 3 4 5 6 
#
# 1 0.018538 -0.005005 -0.007116 0.000000 0.000000 0.000000
# 2 -0.005005 0.010303 -0.001978 0.000000 0.000000 0.000000
# 3 -0.007116 -0.001978 0.017770 0.000000 0.000000 0.000000
# 4 0.000000 0.000000 0.000000 1.216865 0.000000 0.000000
# 5 0.000000 0.000000 0.000000 0.000000 0.037278 0.000000
# 6 0.000000 0.000000 0.000000 0.000000 0.000000 0.050322
#
#
# Mechanical properties :
#
#
# Convention : Reuss Voigt Hill
#
# Bulk Modulus (GPa) = 54.30844 57.26504 55.78674
# Shear Modulus (GPa) = 3.60903 20.50747 12.05825
#
# Velocity S-wave (km/s) = 1.48412 3.53777 2.71279
# Velocity P-wave (km/s) = 6.00680 7.18589 6.62264
#
# Compressibility (1/GPa) = 0.01841335
#
# Stress axis : x y z
#
# Youngs Moduli (GPa) = 53.94371 97.05806 56.27340
#
# Poissons Ratio (x) = 0.48582 0.40043
# Poissons Ratio (y) = 0.27002 0.11130
# Poissons Ratio (z) = 0.38385 0.19196
#
# Static dielectric constant tensor:
#      x y z
#    x 3.141140 0.000000 0.000000 
#    y 0.000000 3.579290 0.000000 
#    z 0.000000 0.000000 2.884340 
# 
# 
# High freq. dielectric constant tensor:
#      x y z
#    x 1.641110 0.000000 0.000000 
#    y 0.000000 1.639100 0.000000 
#    z 0.000000 0.000000 1.594760 
# 
# From -- ./inp_files/14411.got.cif
#   From: 2010.03.12/outbox.cif.g09.slc.cpg/sg51_8_cif.got.tgz:14411.got - 2010.04.16 13:43:02.
