data_PCOD8206429
_publ_section_title
;
Structure prediction by ZEFSAII (Michael W. Deem and Ramdas Pophale) SiO2 
 PCOD8206429
Probable space group: P M M A
;
_chemical_formula_sum "Si O2"
_cell_formula_units_Z 56
_cell_length_a 22.187069
_cell_length_b 8.886937
_cell_length_c 17.551358
_cell_angle_alpha 90.000000
_cell_angle_beta 90.000000
_cell_angle_gamma 90.000000
_cell_volume 3460.690495
_symmetry_space_group_name_H-M "P M M A"
_symmetry_group_IT_number 51
_symmetry_cell_setting 'orthorhombic'
loop_
_space_group_symop_operation_xyz
x,y,z
1/2-x,-y,z
1/2+x,-y,-z
-x,y,-z
-x,-y,-z
1/2+x,y,-z
1/2-x,y,z
x,-y,z
loop_
_atom_site_type_symbol
_atom_site_label
_atom_site_fract_x
_atom_site_fract_y
_atom_site_fract_z
Si Si1 0.100158 0.821852 0.371403
Si Si2 0.464905 0.174980 0.827815
Si Si3 0.066829 0.166268 0.532748
Si Si4 0.679332 0.674178 0.749220
Si Si5 0.931089 0.330168 0.024784
Si Si6 0.601336 0.175181 0.876806
Si Si7 0.974805 0.322916 0.326598
O O1 0.108528 0.782327 0.461394
O O2 0.157398 0.756840 0.327341
O O3 0.039968 0.750292 0.337119
O O4 0.095073 0.000000 0.358820
O O5 0.424329 0.242635 0.895581
O O6 0.535231 0.204044 0.843159
O O7 0.445791 0.259908 0.750778
O O8 0.450108 0.000000 0.820096
O O9 0.070027 0.281030 0.603450
O O10 0.000000 0.159838 0.500000
O O11 0.085776 0.000000 0.561566
O O12 0.750000 0.699019 0.755919
O O13 0.661493 0.500000 0.744171
O O14 0.649433 0.744793 0.823488
O O15 0.907029 0.500000 0.034061
O O16 0.892006 0.245148 0.960947
O O17 0.000000 0.329262 0.000000
O O18 0.616332 0.000000 0.881639
O O19 0.982002 0.500000 0.321721
#
# Coordination Sequence:
#
# PCOD8206429 Si02
#       7
#     8   8   8   8   8   8   8
#     4  10  19  32  47  62  84 118 153 189 229 270
#     4  10  18  28  43  64  91 121 154 185 219 268
#     4   8  16  29  43  60  85 115 149 183 221 269
#     4  11  23  35  48  67  90 118 155 198 236 269
#     4   9  17  28  43  63  88 116 148 185 224 268
#     4  10  19  31  47  63  85 119 154 188 227 270
#     4  11  19  26  42  66  92 120 151 184 223 269
#
# _framework density 16.181740999999999
#
# number of rings (size 3 to 8) (size 9 to 14) (size 15 to 20)
#    0.000    2.143    1.429    4.286    0.000    7.143 
#    0.000    0.000    0.000    0.000    0.000    0.000 
#    0.000    1.143    0.000    8.286    0.000    6.857 
#
# Total GULP energy -694357.691168 kJ/mol
# GULP energy per Si atom -12399.244485 kJ/mol
# Density = 1.614491 g / cm^3
# Si number density = 16.181741 Si / 1000 Ang^3
#
#
#
# Elastic Constant Matrix: (Units=GPa)
#
#
# Indices 1 2 3 4 5 6 
#
# 1 34.4117 32.2261 41.1159 0.0000 0.0000 0.0000
# 2 32.2261 133.6590 84.1300 0.0000 0.0000 0.0000
# 3 41.1159 84.1300 146.5416 0.0000 0.0000 0.0000
# 4 0.0000 0.0000 0.0000 29.4652 0.0000 0.0000
# 5 0.0000 0.0000 0.0000 0.0000 14.4467 0.0000
# 6 0.0000 0.0000 0.0000 0.0000 0.0000 13.1244
#
#
#
# Elastic Compliance Matrix: (Units=1/GPa)
#
#
# Indices 1 2 3 4 5 6 
#
# 1 0.045445 -0.004590 -0.010115 0.000000 0.000000 0.000000
# 2 -0.004590 0.012179 -0.005704 0.000000 0.000000 0.000000
# 3 -0.010115 -0.005704 0.012937 0.000000 0.000000 0.000000
# 4 0.000000 0.000000 0.000000 0.033938 0.000000 0.000000
# 5 0.000000 0.000000 0.000000 0.000000 0.069220 0.000000
# 6 0.000000 0.000000 0.000000 0.000000 0.000000 0.076194
#
#
# Mechanical properties :
#
#
# Convention : Reuss Voigt Hill
#
# Bulk Modulus (GPa) = 33.62339 69.95069 51.78704
# Shear Modulus (GPa) = 16.63091 21.88328 19.25709
#
# Velocity S-wave (km/s) = 3.20934 3.68141 3.45345
# Velocity P-wave (km/s) = 5.87851 7.83533 6.92637
#
# Compressibility (1/GPa) = 0.02974120
#
# Stress axis : x y z
#
# Youngs Moduli (GPa) = 22.00486 82.11051 77.29860
#
# Poissons Ratio (x) = 0.37688 0.78191
# Poissons Ratio (y) = 0.10100 0.44091
# Poissons Ratio (z) = 0.22259 0.46836
#
# Static dielectric constant tensor:
#      x y z
#    x 2.536570 0.000000 0.000000 
#    y 0.000000 3.232000 0.000000 
#    z 0.000000 0.000000 3.444510 
# 
# 
# High freq. dielectric constant tensor:
#      x y z
#    x 1.545410 0.000000 0.000000 
#    y 0.000000 1.640840 0.000000 
#    z 0.000000 0.000000 1.639630 
# 
# From -- ./inp_files/30463.got.cif
#   From: 2010.03.12/outbox.cif.g09.slc.cpg/sg51_16_cif.got.tgz:30463.got - 2010.04.16 13:43:02.
