data_PCOD8206935
_publ_section_title
;
Structure prediction by ZEFSAII (Michael W. Deem and Ramdas Pophale) SiO2 
 PCOD8206935
Probable space group: P M M A
;
_chemical_formula_sum "Si O2"
_cell_formula_units_Z 56
_cell_length_a 20.932315
_cell_length_b 9.231522
_cell_length_c 15.761695
_cell_angle_alpha 90.000000
_cell_angle_beta 90.000000
_cell_angle_gamma 90.000000
_cell_volume 3045.744650
_symmetry_space_group_name_H-M "P M M A"
_symmetry_group_IT_number 51
_symmetry_cell_setting 'orthorhombic'
loop_
_space_group_symop_operation_xyz
x,y,z
1/2-x,-y,z
1/2+x,-y,-z
-x,y,-z
-x,-y,-z
1/2+x,y,-z
1/2-x,y,z
x,-y,z
loop_
_atom_site_type_symbol
_atom_site_label
_atom_site_fract_x
_atom_site_fract_y
_atom_site_fract_z
Si Si1 0.250000 0.670354 0.117575
Si Si2 0.567869 0.833077 0.263158
Si Si3 0.250000 0.836534 0.286703
Si Si4 0.002487 0.329768 0.402727
Si Si5 0.951397 0.835363 0.852341
Si Si6 0.323651 0.831902 0.859176
Si Si7 0.126509 0.672052 0.017707
Si Si8 0.112280 0.162413 0.320614
O O1 0.250000 0.500000 0.118685
O O2 0.250000 0.721941 0.212694
O O3 0.188114 0.727528 0.068792
O O4 0.554824 0.742766 0.348781
O O5 0.518622 0.785210 0.188796
O O6 0.640560 0.809205 0.231266
O O7 0.554470 0.000000 0.285544
O O8 0.313286 0.812026 0.343448
O O9 0.250000 0.000000 0.249348
O O10 0.995641 0.500000 0.391750
O O11 0.071468 0.280302 0.369989
O O12 0.000000 0.281131 0.500000
O O13 0.935523 0.734679 0.933425
O O14 0.896598 0.818136 0.780682
O O15 0.955525 0.000000 0.885283
O O16 0.250000 0.779036 0.851230
O O17 0.326459 0.000000 0.886252
O O18 0.364857 0.737723 0.924570
O O19 0.120105 0.500000 0.011219
O O20 0.090435 0.000000 0.346892
#
# Coordination Sequence:
#
# PCOD8206935 Si02
#       8
#     4   8   4   8   8   8   8   8
#     4  10  20  30  42  68 105 144 183 220 257 298
#     4   9  20  38  58  81 105 133 171 218 270 318
#     4  10  18  30  50  76 107 140 177 214 255 310
#     4  10  21  37  59  84 107 133 169 208 255 320
#     4   9  17  31  50  73 103 138 176 216 261 307
#     4  10  21  37  57  77 100 136 182 226 266 309
#     4  11  21  32  47  72 106 143 185 223 258 302
#     4   9  18  31  51  79 108 140 174 211 256 306
#
# _framework density 18.386309000000001
#
# number of rings (size 3 to 8) (size 9 to 14) (size 15 to 20)
#    0.000    2.286    2.143    1.714    0.000    5.714 
#    0.000    2.857    1.571    0.000    0.000    0.000 
#    0.000    0.000    0.000    0.000    0.000    0.000 
#
# Total GULP energy -694275.472373 kJ/mol
# GULP energy per Si atom -12397.776292 kJ/mol
# Density = 1.834446 g / cm^3
# Si number density = 18.386309 Si / 1000 Ang^3
#
#
#
# Elastic Constant Matrix: (Units=GPa)
#
#
# Indices 1 2 3 4 5 6 
#
# 1 75.7522 25.6361 41.6720 0.0000 0.0000 0.0000
# 2 25.6361 59.2182 49.4606 0.0000 0.0000 0.0000
# 3 41.6720 49.4606 97.7876 0.0000 0.0000 0.0000
# 4 0.0000 0.0000 0.0000 29.6933 0.0000 0.0000
# 5 0.0000 0.0000 0.0000 0.0000 15.0101 0.0000
# 6 0.0000 0.0000 0.0000 0.0000 0.0000 16.1609
#
#
#
# Elastic Compliance Matrix: (Units=1/GPa)
#
#
# Indices 1 2 3 4 5 6 
#
# 1 0.017426 -0.002323 -0.006251 0.000000 0.000000 0.000000
# 2 -0.002323 0.029548 -0.013956 0.000000 0.000000 0.000000
# 3 -0.006251 -0.013956 0.019949 0.000000 0.000000 0.000000
# 4 0.000000 0.000000 0.000000 0.033678 0.000000 0.000000
# 5 0.000000 0.000000 0.000000 0.000000 0.066622 0.000000
# 6 0.000000 0.000000 0.000000 0.000000 0.000000 0.061878
#
#
# Mechanical properties :
#
#
# Convention : Reuss Voigt Hill
#
# Bulk Modulus (GPa) = 45.73714 51.81061 48.77388
# Shear Modulus (GPa) = 17.76532 19.90546 18.83539
#
# Velocity S-wave (km/s) = 3.11179 3.29390 3.20414
# Velocity P-wave (km/s) = 6.15147 6.53501 6.34614
#
# Compressibility (1/GPa) = 0.02186407
#
# Stress axis : x y z
#
# Youngs Moduli (GPa) = 57.38610 33.84285 50.12802
#
# Poissons Ratio (x) = 0.07860 0.31336
# Poissons Ratio (y) = 0.13329 0.69957
# Poissons Ratio (z) = 0.35873 0.47230
#
# Static dielectric constant tensor:
#      x y z
#    x 3.555000 0.000000 0.000000 
#    y 0.000000 3.254640 0.000000 
#    z 0.000000 0.000000 3.105910 
# 
# 
# High freq. dielectric constant tensor:
#      x y z
#    x 1.716560 0.000000 0.000000 
#    y 0.000000 1.708740 0.000000 
#    z 0.000000 0.000000 1.680780 
# 
# From -- ./inp_files/25825.got.cif
#   From: 2010.03.12/outbox.cif.g09.slc.cpg/sg51_13_cif.got.tgz:25825.got - 2010.04.16 13:43:02.
