data_PCOD8206773
_publ_section_title
;
Structure prediction by ZEFSAII (Michael W. Deem and Ramdas Pophale) SiO2 
 PCOD8206773
Probable space group: P M M A
;
_chemical_formula_sum "Si O2"
_cell_formula_units_Z 52
_cell_length_a 8.740420
_cell_length_b 13.692953
_cell_length_c 23.756200
_cell_angle_alpha 90.000000
_cell_angle_beta 90.000000
_cell_angle_gamma 90.000000
_cell_volume 2843.193336
_symmetry_space_group_name_H-M "P M M A"
_symmetry_group_IT_number 51
_symmetry_cell_setting 'orthorhombic'
loop_
_space_group_symop_operation_xyz
x,y,z
1/2-x,-y,z
1/2+x,-y,-z
-x,y,-z
-x,-y,-z
1/2+x,y,-z
1/2-x,y,z
x,-y,z
loop_
_atom_site_type_symbol
_atom_site_label
_atom_site_fract_x
_atom_site_fract_y
_atom_site_fract_z
Si Si1 0.073514 0.777481 0.662988
Si Si2 0.429649 0.111510 0.771539
Si Si3 0.575745 0.719787 0.840369
Si Si4 0.566980 0.500000 0.437864
Si Si5 0.424074 0.388368 0.272256
Si Si6 0.930083 0.300948 0.560922
Si Si7 0.570030 0.610311 0.058748
O O1 0.250000 0.787395 0.646388
O O2 0.022213 0.860867 0.707341
O O3 0.044215 0.673729 0.692441
O O4 0.975271 0.784628 0.605071
O O5 0.250000 0.129947 0.778688
O O6 0.516307 0.176668 0.817193
O O7 0.476048 0.000000 0.782339
O O8 0.750000 0.733801 0.859194
O O9 0.559339 0.636299 0.793418
O O10 0.479375 0.686385 0.893777
O O11 0.750000 0.500000 0.436923
O O12 0.500000 0.500000 0.500000
O O13 0.500278 0.599577 0.411060
O O14 0.250000 0.366285 0.292461
O O15 0.468843 0.500000 0.281626
O O16 0.750000 0.311106 0.554088
O O17 0.000000 0.277044 0.500000
O O18 0.750000 0.612999 0.053103
O O19 0.512947 0.500000 0.072913
O O20 0.500000 0.646013 0.000000
#
# Coordination Sequence:
#
# PCOD8206773 Si02
#       7
#     8   8   8   4   8   8   8
#     4  10  20  33  50  74 100 128 166 210 255 307
#     4   9  19  37  59  80 103 133 170 215 267 319
#     4  10  19  32  52  78 107 139 176 219 263 310
#     4  10  18  30  46  66  92 126 168 204 237 282
#     4   9  18  31  46  67  99 136 170 205 249 300
#     4  11  21  34  50  69  97 132 168 207 250 301
#     4  10  20  33  51  77 111 151 190 224 257 300
#
# _framework density 18.289296
#
# number of rings (size 3 to 8) (size 9 to 14) (size 15 to 20)
#    0.000    2.154    0.000    4.846    1.077    3.385 
#    0.000    0.000    0.000    0.923    0.000    0.000 
#    0.000    0.000    0.000    0.000    0.000    0.000 
#
# Total GULP energy -644741.956258 kJ/mol
# GULP energy per Si atom -12398.883774 kJ/mol
# Density = 1.824767 g / cm^3
# Si number density = 18.289296 Si / 1000 Ang^3
#
#
#
# Elastic Constant Matrix: (Units=GPa)
#
#
# Indices 1 2 3 4 5 6 
#
# 1 94.8835 22.1651 37.8960 0.0000 0.0000 0.0000
# 2 22.1651 64.7957 26.2472 0.0000 0.0000 0.0000
# 3 37.8960 26.2472 94.1698 0.0000 0.0000 0.0000
# 4 0.0000 0.0000 0.0000 17.5486 0.0000 0.0000
# 5 0.0000 0.0000 0.0000 0.0000 33.5520 0.0000
# 6 0.0000 0.0000 0.0000 0.0000 0.0000 21.4867
#
#
#
# Elastic Compliance Matrix: (Units=1/GPa)
#
#
# Indices 1 2 3 4 5 6 
#
# 1 0.012938 -0.002612 -0.004479 0.000000 0.000000 0.000000
# 2 -0.002612 0.017925 -0.003945 0.000000 0.000000 0.000000
# 3 -0.004479 -0.003945 0.013521 0.000000 0.000000 0.000000
# 4 0.000000 0.000000 0.000000 0.056985 0.000000 0.000000
# 5 0.000000 0.000000 0.000000 0.000000 0.029805 0.000000
# 6 0.000000 0.000000 0.000000 0.000000 0.000000 0.046540
#
#
# Mechanical properties :
#
#
# Convention : Reuss Voigt Hill
#
# Bulk Modulus (GPa) = 44.81680 47.38506 46.10093
# Shear Modulus (GPa) = 24.12878 25.68682 24.90780
#
# Velocity S-wave (km/s) = 3.63614 3.75170 3.69437
# Velocity P-wave (km/s) = 6.49509 6.68819 6.59235
#
# Compressibility (1/GPa) = 0.02231306
#
# Stress axis : x y z
#
# Youngs Moduli (GPa) = 77.29122 55.78947 73.95915
#
# Poissons Ratio (x) = 0.14570 0.33124
# Poissons Ratio (y) = 0.20186 0.29177
# Poissons Ratio (z) = 0.34616 0.22009
#
# Static dielectric constant tensor:
#      x y z
#    x 3.391490 0.000000 0.000000 
#    y 0.000000 3.347900 0.000000 
#    z 0.000000 0.000000 3.366990 
# 
# 
# High freq. dielectric constant tensor:
#      x y z
#    x 1.717720 0.000000 0.000000 
#    y 0.000000 1.675420 0.000000 
#    z 0.000000 0.000000 1.709820 
# 
# From -- ./inp_files/34699.got.cif
#   From: 2010.03.12/outbox.cif.g09.slc.cpg/sg51_18_cif.got.tgz:34699.got - 2010.04.16 13:43:02.
