data_PCOD8206672
_publ_section_title
;
Structure prediction by ZEFSAII (Michael W. Deem and Ramdas Pophale) SiO2 
 PCOD8206672
Probable space group: P M M A
;
_chemical_formula_sum "Si O2"
_cell_formula_units_Z 56
_cell_length_a 19.024475
_cell_length_b 14.179519
_cell_length_c 12.789838
_cell_angle_alpha 90.000000
_cell_angle_beta 90.000000
_cell_angle_gamma 90.000000
_cell_volume 3450.159901
_symmetry_space_group_name_H-M "P M M A"
_symmetry_group_IT_number 51
_symmetry_cell_setting 'orthorhombic'
loop_
_space_group_symop_operation_xyz
x,y,z
1/2-x,-y,z
1/2+x,-y,-z
-x,y,-z
-x,-y,-z
1/2+x,y,-z
1/2-x,y,z
x,-y,z
loop_
_atom_site_type_symbol
_atom_site_label
_atom_site_fract_x
_atom_site_fract_y
_atom_site_fract_z
Si Si1 0.082474 0.274808 0.002646
Si Si2 0.331230 0.107123 0.937010
Si Si3 0.666700 0.897938 0.300124
Si Si4 0.422051 0.609361 0.205155
Si Si5 0.831202 0.609386 0.599001
Si Si6 0.833125 0.702656 0.384251
Si Si7 0.084220 0.391037 0.799320
O O1 0.122863 0.175551 0.009507
O O2 0.107386 0.332070 0.900648
O O3 0.103788 0.334111 0.104181
O O4 0.000000 0.254945 0.000000
O O5 0.250000 0.136586 0.945785
O O6 0.358930 0.118411 0.818343
O O7 0.342106 0.000000 0.975809
O O8 0.750000 0.902360 0.299283
O O9 0.640620 0.811187 0.371601
O O10 0.637846 0.000000 0.341263
O O11 0.407579 0.500000 0.182157
O O12 0.377286 0.644808 0.303955
O O13 0.503393 0.628643 0.229806
O O14 0.750000 0.627897 0.625875
O O15 0.845185 0.500000 0.574048
O O16 0.855732 0.669024 0.498800
O O17 0.750000 0.693484 0.367845
O O18 0.868676 0.636358 0.298893
O O19 0.096275 0.500000 0.826535
#
# Coordination Sequence:
#
# PCOD8206672 Si02
#       7
#     8   8   8   8   8   8   8
#     4  10  19  31  48  70  96 123 158 195 234 272
#     4   9  17  30  48  70  95 121 151 190 235 283
#     4   8  14  26  45  68  92 116 144 181 230 285
#     4   9  19  34  48  64  92 130 165 190 220 275
#     4   9  18  32  48  67  92 122 156 192 227 268
#     4  10  18  29  47  71  96 118 148 194 240 276
#     4  10  19  30  46  69  96 124 153 192 239 278
#
# _framework density 16.231131999999999
#
# number of rings (size 3 to 8) (size 9 to 14) (size 15 to 20)
#    0.000    2.714    1.429    1.714    0.000    4.000 
#    0.000    2.143    0.000    3.429    0.000    3.000 
#    0.000    0.000    0.000    0.000    0.000    0.000 
#
# Total GULP energy -694334.421178 kJ/mol
# GULP energy per Si atom -12398.828950 kJ/mol
# Density = 1.619419 g / cm^3
# Si number density = 16.231132 Si / 1000 Ang^3
#
#
#
# Elastic Constant Matrix: (Units=GPa)
#
#
# Indices 1 2 3 4 5 6 
#
# 1 42.7848 37.7035 47.1906 0.0000 0.0000 0.0000
# 2 37.7035 96.8604 56.2990 0.0000 0.0000 0.0000
# 3 47.1906 56.2990 112.4477 0.0000 0.0000 0.0000
# 4 0.0000 0.0000 0.0000 21.6640 0.0000 0.0000
# 5 0.0000 0.0000 0.0000 0.0000 26.3544 0.0000
# 6 0.0000 0.0000 0.0000 0.0000 0.0000 24.3541
#
#
#
# Elastic Compliance Matrix: (Units=1/GPa)
#
#
# Indices 1 2 3 4 5 6 
#
# 1 0.049764 -0.010201 -0.015777 0.000000 0.000000 0.000000
# 2 -0.010201 0.016653 -0.004057 0.000000 0.000000 0.000000
# 3 -0.015777 -0.004057 0.017545 0.000000 0.000000 0.000000
# 4 0.000000 0.000000 0.000000 0.046160 0.000000 0.000000
# 5 0.000000 0.000000 0.000000 0.000000 0.037944 0.000000
# 6 0.000000 0.000000 0.000000 0.000000 0.000000 0.041061
#
#
# Mechanical properties :
#
#
# Convention : Reuss Voigt Hill
#
# Bulk Modulus (GPa) = 41.85336 59.38657 50.61997
# Shear Modulus (GPa) = 18.04020 21.86781 19.95400
#
# Velocity S-wave (km/s) = 3.33747 3.67451 3.51004
# Velocity P-wave (km/s) = 6.37914 7.39393 6.90520
#
# Compressibility (1/GPa) = 0.02389294
#
# Stress axis : x y z
#
# Youngs Moduli (GPa) = 20.09503 60.05060 56.99579
#
# Poissons Ratio (x) = 0.61255 0.89923
# Poissons Ratio (y) = 0.20498 0.23121
# Poissons Ratio (z) = 0.31704 0.24360
#
# Static dielectric constant tensor:
#      x y z
#    x 2.881580 0.000000 0.000000 
#    y 0.000000 3.302100 0.000000 
#    z 0.000000 0.000000 2.998370 
# 
# 
# High freq. dielectric constant tensor:
#      x y z
#    x 1.605370 0.000000 0.000000 
#    y 0.000000 1.628530 0.000000 
#    z 0.000000 0.000000 1.610940 
# 
# From -- ./inp_files/11002.got.cif
#   From: 2010.03.12/outbox.cif.g09.slc.cpg/sg51_6_cif.got.tgz:11002.got - 2010.04.16 13:43:02.
