data_PCOD8206357
_publ_section_title
;
Structure prediction by ZEFSAII (Michael W. Deem and Ramdas Pophale) SiO2 
 PCOD8206357
Probable space group: P M M A
;
_chemical_formula_sum "Si O2"
_cell_formula_units_Z 64
_cell_length_a 29.997635
_cell_length_b 9.076120
_cell_length_c 14.513050
_cell_angle_alpha 90.000000
_cell_angle_beta 90.000000
_cell_angle_gamma 90.000000
_cell_volume 3951.353978
_symmetry_space_group_name_H-M "P M M A"
_symmetry_group_IT_number 51
_symmetry_cell_setting 'orthorhombic'
loop_
_space_group_symop_operation_xyz
x,y,z
1/2-x,-y,z
1/2+x,-y,-z
-x,y,-z
-x,-y,-z
1/2+x,y,-z
1/2-x,y,z
x,-y,z
loop_
_atom_site_type_symbol
_atom_site_label
_atom_site_fract_x
_atom_site_fract_y
_atom_site_fract_z
Si Si1 0.923030 0.163680 0.261910
Si Si2 0.621220 0.671721 0.420236
Si Si3 0.457785 0.175515 0.057540
Si Si4 0.800311 0.827511 0.347911
Si Si5 0.527586 0.832232 0.738415
Si Si6 0.043393 0.673932 0.445170
Si Si7 0.621200 0.168938 0.068671
Si Si8 0.801036 0.672039 0.155351
O O1 0.900707 0.289464 0.322656
O O2 0.909795 0.188548 0.157158
O O3 0.975178 0.180327 0.270897
O O4 0.907926 0.000000 0.295106
O O5 0.631557 0.500000 0.424343
O O6 0.667961 0.759869 0.427184
O O7 0.588022 0.721277 0.501028
O O8 0.458157 0.234314 0.162573
O O9 0.462212 0.000000 0.056973
O O10 0.500000 0.240419 0.000000
O O11 0.410214 0.224462 0.014806
O O12 0.750000 0.789669 0.376804
O O13 0.812461 0.756593 0.249594
O O14 0.808353 0.000000 0.338188
O O15 0.549251 0.739429 0.656310
O O16 0.544000 0.000000 0.728870
O O17 0.038872 0.500000 0.436733
O O18 0.000000 0.736307 0.500000
O O19 0.666026 0.267117 0.075939
O O20 0.636014 0.000000 0.054479
O O21 0.750000 0.702416 0.125067
O O22 0.809498 0.500000 0.171481
#
# Coordination Sequence:
#
# PCOD8206357 Si02
#       8
#     8   8   8   8   8   8   8   8
#     4  10  18  27  44  70  97 127 163 198 233 275
#     4  11  21  32  48  68  94 132 166 197 236 281
#     4   9  16  29  48  71  98 126 158 196 238 281
#     4  10  20  33  49  70  97 125 154 194 242 289
#     4  10  19  31  49  71  95 128 168 205 236 276
#     4  10  21  35  47  65  97 133 164 198 242 283
#     4  10  18  29  48  71  96 129 162 195 236 282
#     4  10  20  32  46  67  97 129 160 195 234 281
#
# _framework density 16.196981000000001
#
# number of rings (size 3 to 8) (size 9 to 14) (size 15 to 20)
#    0.000    2.000    3.750    1.125    0.000    2.750 
#    0.000    0.625    0.000    0.750    0.000    0.875 
#    0.000    1.000    0.000    0.000    0.000    0.000 
#
# Total GULP energy -793497.711157 kJ/mol
# GULP energy per Si atom -12398.401737 kJ/mol
# Density = 1.616012 g / cm^3
# Si number density = 16.196981 Si / 1000 Ang^3
#
#
#
# Elastic Constant Matrix: (Units=GPa)
#
#
# Indices 1 2 3 4 5 6 
#
# 1 102.0948 38.1532 60.5001 0.0000 0.0000 0.0000
# 2 38.1532 47.2297 33.9837 0.0000 0.0000 0.0000
# 3 60.5001 33.9837 94.9631 0.0000 0.0000 0.0000
# 4 0.0000 0.0000 0.0000 12.0416 0.0000 0.0000
# 5 0.0000 0.0000 0.0000 0.0000 20.9483 0.0000
# 6 0.0000 0.0000 0.0000 0.0000 0.0000 23.3024
#
#
#
# Elastic Compliance Matrix: (Units=1/GPa)
#
#
# Indices 1 2 3 4 5 6 
#
# 1 0.017926 -0.008436 -0.008402 0.000000 0.000000 0.000000
# 2 -0.008436 0.032486 -0.006251 0.000000 0.000000 0.000000
# 3 -0.008402 -0.006251 0.018120 0.000000 0.000000 0.000000
# 4 0.000000 0.000000 0.000000 0.083045 0.000000 0.000000
# 5 0.000000 0.000000 0.000000 0.000000 0.047737 0.000000
# 6 0.000000 0.000000 0.000000 0.000000 0.000000 0.042914
#
#
# Mechanical properties :
#
#
# Convention : Reuss Voigt Hill
#
# Bulk Modulus (GPa) = 44.73319 56.61795 50.67557
# Shear Modulus (GPa) = 16.90012 18.70183 17.80097
#
# Velocity S-wave (km/s) = 3.23369 3.40170 3.31876
# Velocity P-wave (km/s) = 6.45140 7.10355 6.78532
#
# Compressibility (1/GPa) = 0.02235477
#
# Stress axis : x y z
#
# Youngs Moduli (GPa) = 55.78496 30.78295 55.18743
#
# Poissons Ratio (x) = 0.25967 0.46367
# Poissons Ratio (y) = 0.47058 0.34498
# Poissons Ratio (z) = 0.46869 0.19243
#
# Static dielectric constant tensor:
#      x y z
#    x 3.230350 0.000000 0.000000 
#    y 0.000000 2.989380 0.000000 
#    z 0.000000 0.000000 2.967720 
# 
# 
# High freq. dielectric constant tensor:
#      x y z
#    x 1.623530 0.000000 0.000000 
#    y 0.000000 1.613780 0.000000 
#    z 0.000000 0.000000 1.593690 
# 
# From -- ./inp_files/26682.got.cif
#   From: 2010.03.12/outbox.cif.g09.slc.cpg/sg51_14_cif.got.tgz:26682.got - 2010.04.16 13:43:02.
