data_PCOD8206284
_publ_section_title
;
Structure prediction by ZEFSAII (Michael W. Deem and Ramdas Pophale) SiO2 
 PCOD8206284
Probable space group: P M M A
;
_chemical_formula_sum "Si O2"
_cell_formula_units_Z 64
_cell_length_a 8.960351
_cell_length_b 18.359486
_cell_length_c 26.283598
_cell_angle_alpha 90.000000
_cell_angle_beta 90.000000
_cell_angle_gamma 90.000000
_cell_volume 4323.847388
_symmetry_space_group_name_H-M "P M M A"
_symmetry_group_IT_number 51
_symmetry_cell_setting 'orthorhombic'
loop_
_space_group_symop_operation_xyz
x,y,z
1/2-x,-y,z
1/2+x,-y,-z
-x,y,-z
-x,-y,-z
1/2+x,y,-z
1/2-x,y,z
x,-y,z
loop_
_atom_site_type_symbol
_atom_site_label
_atom_site_fract_x
_atom_site_fract_y
_atom_site_fract_z
Si Si1 0.917970 0.413339 0.049738
Si Si2 0.575973 0.916732 0.643621
Si Si3 0.425878 0.416544 0.152145
Si Si4 0.075759 0.583113 0.651208
Si Si5 0.427187 0.162836 0.551978
Si Si6 0.923313 0.662236 0.244430
Si Si7 0.915107 0.213698 0.707099
Si Si8 0.916913 0.293320 0.599791
O O1 0.750000 0.382868 0.051000
O O2 0.918826 0.500000 0.047276
O O3 0.003102 0.386607 0.100063
O O4 0.000000 0.381188 0.000000
O O5 0.750000 0.904333 0.629504
O O6 0.476481 0.892319 0.596136
O O7 0.535593 0.869356 0.694215
O O8 0.540477 0.000000 0.656936
O O9 0.250000 0.409612 0.147214
O O10 0.474738 0.500000 0.162242
O O11 0.482534 0.366914 0.197625
O O12 0.250000 0.591851 0.640574
O O13 0.022552 0.500000 0.648241
O O14 0.036511 0.612584 0.707217
O O15 0.989566 0.627178 0.607286
O O16 0.500000 0.133663 0.500000
O O17 0.250000 0.162991 0.547676
O O18 0.484250 0.245148 0.561655
O O19 0.750000 0.659121 0.230663
O O20 0.969473 0.746232 0.255276
O O21 0.750000 0.215846 0.731920
O O22 0.912745 0.254168 0.653583
O O23 0.750000 0.301929 0.577435
#
# Coordination Sequence:
#
# PCOD8206284 Si02
#       8
#     8   8   8   8   8   8   8   8
#     4   9  16  26  39  53  71  98 134 175 217 259
#     4   9  18  33  51  70  91 112 135 163 193 228
#     4  10  19  28  38  54  77 105 139 180 222 258
#     4   9  17  28  42  61  84 108 134 166 205 247
#     4  11  21  33  49  67  87 110 135 162 195 234
#     4  10  18  27  40  58  81 108 137 170 206 243
#     4   8  15  28  44  61  82 108 134 160 192 233
#     4   9  17  30  46  63  82 105 135 166 197 237
#
# _framework density 14.801633000000001
#
# number of rings (size 3 to 8) (size 9 to 14) (size 15 to 20)
#    0.000    2.625    0.000    3.750    0.000    7.000 
#    0.000    0.000    0.000    0.375    0.000    0.000 
#    0.000    0.000    0.000    0.000    0.000    0.625 
#
# Total GULP energy -793483.370285 kJ/mol
# GULP energy per Si atom -12398.177661 kJ/mol
# Density = 1.476794 g / cm^3
# Si number density = 14.801633 Si / 1000 Ang^3
#
#
#
# Elastic Constant Matrix: (Units=GPa)
#
#
# Indices 1 2 3 4 5 6 
#
# 1 86.7491 33.8210 32.7777 0.0000 0.0000 0.0000
# 2 33.8210 91.6905 30.6988 0.0000 0.0000 0.0000
# 3 32.7777 30.6988 51.1246 0.0000 0.0000 0.0000
# 4 0.0000 0.0000 0.0000 9.1502 0.0000 0.0000
# 5 0.0000 0.0000 0.0000 0.0000 25.2038 0.0000
# 6 0.0000 0.0000 0.0000 0.0000 0.0000 19.1145
#
#
#
# Elastic Compliance Matrix: (Units=1/GPa)
#
#
# Indices 1 2 3 4 5 6 
#
# 1 0.015872 -0.003063 -0.008336 0.000000 0.000000 0.000000
# 2 -0.003063 0.014242 -0.006588 0.000000 0.000000 0.000000
# 3 -0.008336 -0.006588 0.028861 0.000000 0.000000 0.000000
# 4 0.000000 0.000000 0.000000 0.109287 0.000000 0.000000
# 5 0.000000 0.000000 0.000000 0.000000 0.039677 0.000000
# 6 0.000000 0.000000 0.000000 0.000000 0.000000 0.052316
#
#
# Mechanical properties :
#
#
# Convention : Reuss Voigt Hill
#
# Bulk Modulus (GPa) = 43.48012 47.12878 45.30445
# Shear Modulus (GPa) = 16.45302 19.51148 17.98225
#
# Velocity S-wave (km/s) = 3.33764 3.63464 3.48930
# Velocity P-wave (km/s) = 6.65523 7.03729 6.84893
#
# Compressibility (1/GPa) = 0.02299902
#
# Stress axis : x y z
#
# Youngs Moduli (GPa) = 63.00530 70.21564 34.64932
#
# Poissons Ratio (x) = 0.21509 0.28885
# Poissons Ratio (y) = 0.19301 0.22826
# Poissons Ratio (z) = 0.52524 0.46257
#
# Static dielectric constant tensor:
#      x y z
#    x 2.999630 0.000000 0.000000 
#    y 0.000000 2.884790 0.000000 
#    z 0.000000 0.000000 2.719880 
# 
# 
# High freq. dielectric constant tensor:
#      x y z
#    x 1.580180 0.000000 0.000000 
#    y 0.000000 1.537400 0.000000 
#    z 0.000000 0.000000 1.537540 
# 
# From -- ./inp_files/35097.got.cif
#   From: 2010.03.12/outbox.cif.g09.slc.cpg/sg51_18_cif.got.tgz:35097.got - 2010.04.16 13:43:02.
