data_PCOD8206698
_publ_section_title
;
Structure prediction by ZEFSAII (Michael W. Deem and Ramdas Pophale) SiO2 
 PCOD8206698
Probable space group: P M M A
;
_chemical_formula_sum "Si O2"
_cell_formula_units_Z 56
_cell_length_a 9.053349
_cell_length_b 22.677876
_cell_length_c 14.558716
_cell_angle_alpha 90.000000
_cell_angle_beta 90.000000
_cell_angle_gamma 90.000000
_cell_volume 2989.060552
_symmetry_space_group_name_H-M "P M M A"
_symmetry_group_IT_number 51
_symmetry_cell_setting 'orthorhombic'
loop_
_space_group_symop_operation_xyz
x,y,z
1/2-x,-y,z
1/2+x,-y,-z
-x,y,-z
-x,-y,-z
1/2+x,y,-z
1/2-x,y,z
x,-y,z
loop_
_atom_site_type_symbol
_atom_site_label
_atom_site_fract_x
_atom_site_fract_y
_atom_site_fract_z
Si Si1 0.076072 0.710894 0.912011
Si Si2 0.922108 0.432102 0.593133
Si Si3 0.584898 0.899427 0.412304
Si Si4 0.076548 0.933507 0.789322
Si Si5 0.923663 0.177331 0.844664
Si Si6 0.415744 0.217490 0.672149
Si Si7 0.082026 0.656663 0.715692
O O1 0.250000 0.715157 0.926864
O O2 0.037363 0.674583 0.819618
O O3 0.006702 0.776589 0.910338
O O4 0.000000 0.678789 0.000000
O O5 0.750000 0.421603 0.580063
O O6 0.960627 0.500000 0.613067
O O7 0.000000 0.410293 0.500000
O O8 0.977704 0.395296 0.680570
O O9 0.500000 0.924880 0.500000
O O10 0.750000 0.922422 0.424135
O O11 0.522134 0.924559 0.316204
O O12 0.576864 0.827280 0.413636
O O13 0.250000 0.919040 0.795371
O O14 0.988665 0.889045 0.856775
O O15 0.041256 0.000000 0.820835
O O16 0.750000 0.177643 0.865082
O O17 0.956960 0.197292 0.741101
O O18 0.250000 0.212290 0.718170
O O19 0.439792 0.286380 0.648264
O O20 0.250000 0.633892 0.712515
#
# Coordination Sequence:
#
# PCOD8206698 Si02
#       7
#     8   8   8   8   8   8   8
#     4  10  20  35  56  83 113 142 172 208 255 312
#     4  10  21  36  54  77 107 145 188 230 268 309
#     4   9  17  28  41  59  86 119 155 199 251 307
#     4   9  18  33  49  62  83 122 167 208 255 310
#     4  10  18  29  48  73  98 124 157 199 247 298
#     4   8  16  31  46  63  91 125 160 198 247 305
#     4   9  18  33  54  79 107 139 175 219 267 312
#
# _framework density 18.734983
#
# number of rings (size 3 to 8) (size 9 to 14) (size 15 to 20)
#    0.000    2.714    0.000    3.857    0.000    7.143 
#    0.000    1.429    0.000    0.857    0.000    0.000 
#    0.000    0.000    0.000    0.000    0.000    0.000 
#
# Total GULP energy -693942.994328 kJ/mol
# GULP energy per Si atom -12391.839184 kJ/mol
# Density = 1.869234 g / cm^3
# Si number density = 18.734983 Si / 1000 Ang^3
#
#
#
# Elastic Constant Matrix: (Units=GPa)
#
#
# Indices 1 2 3 4 5 6 
#
# 1 92.4627 44.7003 38.6718 0.0000 0.0000 0.0000
# 2 44.7003 95.4254 35.1952 0.0000 0.0000 0.0000
# 3 38.6718 35.1952 66.1083 0.0000 0.0000 0.0000
# 4 0.0000 0.0000 0.0000 17.4314 0.0000 0.0000
# 5 0.0000 0.0000 0.0000 0.0000 28.9598 0.0000
# 6 0.0000 0.0000 0.0000 0.0000 0.0000 27.6271
#
#
#
# Elastic Compliance Matrix: (Units=1/GPa)
#
#
# Indices 1 2 3 4 5 6 
#
# 1 0.016062 -0.005050 -0.006707 0.000000 0.000000 0.000000
# 2 -0.005050 0.014628 -0.004833 0.000000 0.000000 0.000000
# 3 -0.006707 -0.004833 0.021623 0.000000 0.000000 0.000000
# 4 0.000000 0.000000 0.000000 0.057368 0.000000 0.000000
# 5 0.000000 0.000000 0.000000 0.000000 0.034531 0.000000
# 6 0.000000 0.000000 0.000000 0.000000 0.000000 0.036196
#
#
# Mechanical properties :
#
#
# Convention : Reuss Voigt Hill
#
# Bulk Modulus (GPa) = 52.26948 54.57013 53.41981
# Shear Modulus (GPa) = 22.73076 23.83227 23.28151
#
# Velocity S-wave (km/s) = 3.48699 3.57048 3.52899
# Velocity P-wave (km/s) = 6.64621 6.79621 6.72163
#
# Compressibility (1/GPa) = 0.01913162
#
# Stress axis : x y z
#
# Youngs Moduli (GPa) = 62.25942 68.36349 46.24599
#
# Poissons Ratio (x) = 0.34524 0.31018
# Poissons Ratio (y) = 0.31442 0.22353
# Poissons Ratio (z) = 0.41759 0.33043
#
# Static dielectric constant tensor:
#      x y z
#    x 3.339440 0.000000 0.000000 
#    y 0.000000 3.432000 0.000000 
#    z 0.000000 0.000000 3.210170 
# 
# 
# High freq. dielectric constant tensor:
#      x y z
#    x 1.724300 0.000000 0.000000 
#    y 0.000000 1.715260 0.000000 
#    z 0.000000 0.000000 1.698710 
# 
# From -- ./inp_files/21827.got.cif
#   From: 2010.03.12/outbox.cif.g09.slc.cpg/sg51_11_cif.got.tgz:21827.got - 2010.04.16 13:43:02.
