data_PCOD8206098
_publ_section_title
;
Structure prediction by ZEFSAII (Michael W. Deem and Ramdas Pophale) SiO2 
 PCOD8206098
Probable space group: P M M A
;
_chemical_formula_sum "Si O2"
_cell_formula_units_Z 64
_cell_length_a 26.450624
_cell_length_b 9.175381
_cell_length_c 17.022068
_cell_angle_alpha 90.000000
_cell_angle_beta 90.000000
_cell_angle_gamma 90.000000
_cell_volume 4131.163182
_symmetry_space_group_name_H-M "P M M A"
_symmetry_group_IT_number 51
_symmetry_cell_setting 'orthorhombic'
loop_
_space_group_symop_operation_xyz
x,y,z
1/2-x,-y,z
1/2+x,-y,-z
-x,y,-z
-x,-y,-z
1/2+x,y,-z
1/2-x,y,z
x,-y,z
loop_
_atom_site_type_symbol
_atom_site_label
_atom_site_fract_x
_atom_site_fract_y
_atom_site_fract_z
Si Si1 0.424340 0.171426 0.139177
Si Si2 0.307477 0.170642 0.397010
Si Si3 0.040930 0.167998 0.836990
Si Si4 0.893874 0.166658 0.488877
Si Si5 0.371781 0.332201 0.275535
Si Si6 0.940642 0.335849 0.013805
Si Si7 0.555243 0.166151 0.336758
Si Si8 0.039374 0.665485 0.398199
O O1 0.481281 0.206067 0.168362
O O2 0.383476 0.246381 0.195702
O O3 0.413892 0.000000 0.136323
O O4 0.414455 0.238830 0.053159
O O5 0.250000 0.212073 0.416993
O O6 0.340587 0.218181 0.473547
O O7 0.324467 0.258709 0.319790
O O8 0.313535 0.000000 0.378761
O O9 0.069948 0.264986 0.901223
O O10 0.067734 0.204403 0.753692
O O11 0.047511 0.000000 0.861354
O O12 0.895561 0.186654 0.393699
O O13 0.941050 0.254730 0.523934
O O14 0.902995 0.000000 0.512393
O O15 0.358835 0.500000 0.256515
O O16 0.420390 0.317264 0.329588
O O17 0.918788 0.500000 0.011971
O O18 0.000000 0.336421 0.000000
O O19 0.512242 0.269703 0.368048
O O20 0.535360 0.000000 0.340346
O O21 0.029962 0.500000 0.421860
#
# Coordination Sequence:
#
# PCOD8206098 Si02
#       8
#     8   8   8   8   8   8   8   8
#     4  10  17  27  43  60  82 112 147 180 209 249
#     4   9  18  33  50  65  83 109 142 180 221 263
#     4   9  17  27  39  56  80 113 149 180 211 248
#     4   9  18  30  44  60  80 108 142 177 215 258
#     4  10  19  29  43  64  87 112 143 178 217 259
#     4   9  17  27  39  56  81 112 145 179 214 247
#     4  10  18  28  41  58  82 113 146 178 212 252
#     4  10  19  28  39  57  84 113 142 176 212 249
#
# _framework density 15.492004
#
# number of rings (size 3 to 8) (size 9 to 14) (size 15 to 20)
#    0.000    2.500    1.250    1.875    0.000    5.750 
#    0.000    0.000    0.000    0.000    0.000    0.000 
#    0.000    1.000    0.000    7.500    0.000    1.750 
#
# Total GULP energy -793403.697580 kJ/mol
# GULP energy per Si atom -12396.932775 kJ/mol
# Density = 1.545674 g / cm^3
# Si number density = 15.492004 Si / 1000 Ang^3
#
#
#
# Elastic Constant Matrix: (Units=GPa)
#
#
# Indices 1 2 3 4 5 6 
#
# 1 41.2528 27.7660 33.0562 0.0000 0.0000 0.0000
# 2 27.7660 81.8669 53.1791 0.0000 0.0000 0.0000
# 3 33.0562 53.1791 123.7869 0.0000 0.0000 0.0000
# 4 0.0000 0.0000 0.0000 17.9718 0.0000 0.0000
# 5 0.0000 0.0000 0.0000 0.0000 11.2145 0.0000
# 6 0.0000 0.0000 0.0000 0.0000 0.0000 10.1157
#
#
#
# Elastic Compliance Matrix: (Units=1/GPa)
#
#
# Indices 1 2 3 4 5 6 
#
# 1 0.034121 -0.007842 -0.005743 0.000000 0.000000 0.000000
# 2 -0.007842 0.018745 -0.005959 0.000000 0.000000 0.000000
# 3 -0.005743 -0.005959 0.012172 0.000000 0.000000 0.000000
# 4 0.000000 0.000000 0.000000 0.055643 0.000000 0.000000
# 5 0.000000 0.000000 0.000000 0.000000 0.089170 0.000000
# 6 0.000000 0.000000 0.000000 0.000000 0.000000 0.098856
#
#
# Mechanical properties :
#
#
# Convention : Reuss Voigt Hill
#
# Bulk Modulus (GPa) = 38.53455 52.76770 45.65113
# Shear Modulus (GPa) = 14.02743 16.72075 15.37409
#
# Velocity S-wave (km/s) = 3.01235 3.28886 3.15364
# Velocity P-wave (km/s) = 6.08497 6.96831 6.54157
#
# Compressibility (1/GPa) = 0.02595074
#
# Stress axis : x y z
#
# Youngs Moduli (GPa) = 29.30774 53.34624 82.15640
#
# Poissons Ratio (x) = 0.41834 0.47180
# Poissons Ratio (y) = 0.22983 0.48957
# Poissons Ratio (z) = 0.16831 0.31789
#
# Static dielectric constant tensor:
#      x y z
#    x 2.577640 0.000000 0.000000 
#    y 0.000000 3.105860 0.000000 
#    z 0.000000 0.000000 3.146270 
# 
# 
# High freq. dielectric constant tensor:
#      x y z
#    x 1.531250 0.000000 0.000000 
#    y 0.000000 1.605440 0.000000 
#    z 0.000000 0.000000 1.600010 
# 
# From -- ./inp_files/26679.got.cif
#   From: 2010.03.12/outbox.cif.g09.slc.cpg/sg51_14_cif.got.tgz:26679.got - 2010.04.16 13:43:02.
