data_PCOD8206475
_publ_section_title
;
Structure prediction by ZEFSAII (Michael W. Deem and Ramdas Pophale) SiO2 
 PCOD8206475
Probable space group: P M M A
;
_chemical_formula_sum "Si O2"
_cell_formula_units_Z 64
_cell_length_a 22.916326
_cell_length_b 9.214749
_cell_length_c 16.878882
_cell_angle_alpha 90.000000
_cell_angle_beta 90.000000
_cell_angle_gamma 90.000000
_cell_volume 3564.282996
_symmetry_space_group_name_H-M "P M M A"
_symmetry_group_IT_number 51
_symmetry_cell_setting 'orthorhombic'
loop_
_space_group_symop_operation_xyz
x,y,z
1/2-x,-y,z
1/2+x,-y,-z
-x,y,-z
-x,-y,-z
1/2+x,y,-z
1/2-x,y,z
x,-y,z
loop_
_atom_site_type_symbol
_atom_site_label
_atom_site_fract_x
_atom_site_fract_y
_atom_site_fract_z
Si Si1 0.514846 0.835269 0.167206
Si Si2 0.684184 0.166178 0.767831
Si Si3 0.100541 0.838270 0.684728
Si Si4 0.103967 0.331426 0.929021
Si Si5 0.487358 0.668658 0.589018
Si Si6 0.315871 0.166950 0.045901
Si Si7 0.184486 0.665477 0.779125
Si Si8 0.573416 0.670650 0.729559
O O1 0.559849 0.835695 0.238809
O O2 0.543796 0.752536 0.092155
O O3 0.457321 0.750280 0.195995
O O4 0.498173 0.000000 0.142575
O O5 0.750000 0.206724 0.741266
O O6 0.677499 0.189361 0.861063
O O7 0.639310 0.270577 0.721840
O O8 0.670337 0.000000 0.745367
O O9 0.161086 0.761623 0.706743
O O10 0.070509 0.753670 0.613318
O O11 0.113935 0.000000 0.655847
O O12 0.089321 0.500000 0.943343
O O13 0.149147 0.307674 0.858627
O O14 0.134492 0.265799 0.006464
O O15 0.500000 0.718396 0.500000
O O16 0.472503 0.500000 0.594248
O O17 0.541264 0.707250 0.646812
O O18 0.250000 0.213005 0.020061
O O19 0.326672 0.000000 0.021831
O O20 0.250000 0.713455 0.797378
O O21 0.179694 0.500000 0.751436
O O22 0.573175 0.500000 0.746800
#
# Coordination Sequence:
#
# PCOD8206475 Si02
#       8
#     8   8   8   8   8   8   8   8
#     4   9  17  30  47  67  95 131 164 194 237 292
#     4   9  19  36  55  73  96 129 165 199 241 294
#     4   9  17  28  44  68  95 122 155 195 232 267
#     4  10  18  28  44  68  97 126 162 210 255 289
#     4   9  18  33  53  76 101 127 152 181 226 285
#     4   9  18  32  48  66  91 126 167 207 248 296
#     4   9  17  28  42  62  91 129 166 195 231 281
#     4  10  19  32  53  79 102 124 156 200 242 282
#
# _framework density 17.955926000000002
#
# number of rings (size 3 to 8) (size 9 to 14) (size 15 to 20)
#    0.000    2.750    0.000    2.625    0.000    6.000 
#    0.000    1.875    0.000    4.500    0.000    1.750 
#    0.000    0.000    0.000    0.000    0.000    0.000 
#
# Total GULP energy -793541.297538 kJ/mol
# GULP energy per Si atom -12399.082774 kJ/mol
# Density = 1.791506 g / cm^3
# Si number density = 17.955926 Si / 1000 Ang^3
#
#
#
# Elastic Constant Matrix: (Units=GPa)
#
#
# Indices 1 2 3 4 5 6 
#
# 1 81.7353 40.8727 17.8854 0.0000 0.0000 0.0000
# 2 40.8727 90.2818 27.5355 0.0000 0.0000 0.0000
# 3 17.8854 27.5355 42.1010 0.0000 0.0000 0.0000
# 4 0.0000 0.0000 0.0000 21.1705 0.0000 0.0000
# 5 0.0000 0.0000 0.0000 0.0000 21.4025 0.0000
# 6 0.0000 0.0000 0.0000 0.0000 0.0000 33.5784
#
#
#
# Elastic Compliance Matrix: (Units=1/GPa)
#
#
# Indices 1 2 3 4 5 6 
#
# 1 0.016036 -0.006473 -0.002579 0.000000 0.000000 0.000000
# 2 -0.006473 0.016450 -0.008009 0.000000 0.000000 0.000000
# 3 -0.002579 -0.008009 0.030086 0.000000 0.000000 0.000000
# 4 0.000000 0.000000 0.000000 0.047235 0.000000 0.000000
# 5 0.000000 0.000000 0.000000 0.000000 0.046724 0.000000
# 6 0.000000 0.000000 0.000000 0.000000 0.000000 0.029781
#
#
# Mechanical properties :
#
#
# Convention : Reuss Voigt Hill
#
# Bulk Modulus (GPa) = 35.14920 42.96728 39.05824
# Shear Modulus (GPa) = 21.74707 23.75192 22.74950
#
# Velocity S-wave (km/s) = 3.48391 3.64096 3.56330
# Velocity P-wave (km/s) = 5.98342 6.45420 6.22326
#
# Compressibility (1/GPa) = 0.02845015
#
# Stress axis : x y z
#
# Youngs Moduli (GPa) = 62.35977 60.79147 33.23837
#
# Poissons Ratio (x) = 0.39353 0.08571
# Poissons Ratio (y) = 0.40368 0.26619
# Poissons Ratio (z) = 0.16080 0.48685
#
# Static dielectric constant tensor:
#      x y z
#    x 3.393210 0.000000 0.000000 
#    y 0.000000 3.407880 0.000000 
#    z 0.000000 0.000000 3.023170 
# 
# 
# High freq. dielectric constant tensor:
#      x y z
#    x 1.692540 0.000000 0.000000 
#    y 0.000000 1.701920 0.000000 
#    z 0.000000 0.000000 1.659330 
# 
# From -- ./inp_files/30598.got.cif
#   From: 2010.03.12/outbox.cif.g09.slc.cpg/sg51_16_cif.got.tgz:30598.got - 2010.04.16 13:43:02.
