data_PCOD8206114
_publ_section_title
;
Structure prediction by ZEFSAII (Michael W. Deem and Ramdas Pophale) SiO2 
 PCOD8206114
Probable space group: P M M A
;
_chemical_formula_sum "Si O2"
_cell_formula_units_Z 56
_cell_length_a 17.168269
_cell_length_b 14.723277
_cell_length_c 12.569698
_cell_angle_alpha 90.000000
_cell_angle_beta 90.000000
_cell_angle_gamma 90.000000
_cell_volume 3177.282536
_symmetry_space_group_name_H-M "P M M A"
_symmetry_group_IT_number 51
_symmetry_cell_setting 'orthorhombic'
loop_
_space_group_symop_operation_xyz
x,y,z
1/2-x,-y,z
1/2+x,-y,-z
-x,y,-z
-x,-y,-z
1/2+x,y,-z
1/2-x,y,z
x,-y,z
loop_
_atom_site_type_symbol
_atom_site_label
_atom_site_fract_x
_atom_site_fract_y
_atom_site_fract_z
Si Si1 0.160015 0.601213 0.761033
Si Si2 0.410766 0.597656 0.535320
Si Si3 0.160158 0.784323 0.867964
Si Si4 0.592740 0.787752 0.519756
Si Si5 0.086367 0.104157 0.043999
Si Si6 0.098473 0.100340 0.678564
Si Si7 0.418888 0.900677 0.287090
O O1 0.250000 0.613675 0.723165
O O2 0.148921 0.500000 0.810812
O O3 0.100978 0.613126 0.662013
O O4 0.138544 0.677752 0.849622
O O5 0.500000 0.592548 0.500000
O O6 0.371406 0.500000 0.504430
O O7 0.372336 0.685159 0.478729
O O8 0.250000 0.799828 0.848341
O O9 0.115435 0.846891 0.785660
O O10 0.138650 0.820573 0.985028
O O11 0.500000 0.782406 0.500000
O O12 0.630704 0.845713 0.423954
O O13 0.620712 0.830440 0.631443
O O14 0.087895 0.134468 0.166822
O O15 0.116985 0.000000 0.029363
O O16 0.000000 0.110465 0.000000
O O17 0.006463 0.089676 0.672687
O O18 0.136937 0.000000 0.680727
O O19 0.379052 0.000000 0.296369
#
# Coordination Sequence:
#
# PCOD8206114 Si02
#       7
#     8   8   8   8   8   8   8
#     4   9  18  33  51  72 101 133 164 201 251 312
#     4   9  16  26  44  71  99 126 160 202 247 293
#     4  11  21  32  50  75  98 125 163 210 258 295
#     4   9  16  26  43  68  97 126 158 194 241 286
#     4  10  19  32  49  69  96 133 173 208 244 292
#     4  10  17  27  44  70 100 125 155 199 245 289
#     4   9  17  29  46  67  93 130 169 196 228 287
#
# _framework density 17.625125000000001
#
# number of rings (size 3 to 8) (size 9 to 14) (size 15 to 20)
#    0.000    2.429    2.857    0.857    0.000    2.857 
#    0.000    0.000    0.000    3.000    0.000    2.000 
#    0.000    0.000    0.000    0.000    0.000    0.000 
#
# Total GULP energy -693768.103740 kJ/mol
# GULP energy per Si atom -12388.716138 kJ/mol
# Density = 1.758501 g / cm^3
# Si number density = 17.625125 Si / 1000 Ang^3
#
#
#
# Elastic Constant Matrix: (Units=GPa)
#
#
# Indices 1 2 3 4 5 6 
#
# 1 11.8584 8.0267 -2.2785 0.0000 0.0000 0.0000
# 2 8.0267 168.3037 71.2992 0.0000 0.0000 0.0000
# 3 -2.2785 71.2992 116.5126 0.0000 0.0000 0.0000
# 4 0.0000 0.0000 0.0000 1.8556 0.0000 0.0000
# 5 0.0000 0.0000 0.0000 0.0000 13.7263 0.0000
# 6 0.0000 0.0000 0.0000 0.0000 0.0000 15.7459
#
#
#
# Elastic Compliance Matrix: (Units=1/GPa)
#
#
# Indices 1 2 3 4 5 6 
#
# 1 0.090075 -0.006807 0.005927 0.000000 0.000000 0.000000
# 2 -0.006807 0.008535 -0.005356 0.000000 0.000000 0.000000
# 3 0.005927 -0.005356 0.011976 0.000000 0.000000 0.000000
# 4 0.000000 0.000000 0.000000 0.538910 0.000000 0.000000
# 5 0.000000 0.000000 0.000000 0.000000 0.072853 0.000000
# 6 0.000000 0.000000 0.000000 0.000000 0.000000 0.063509
#
#
# Mechanical properties :
#
#
# Convention : Reuss Voigt Hill
#
# Bulk Modulus (GPa) = 10.19221 50.08551 30.13886
# Shear Modulus (GPa) = 6.01659 20.90738 13.46198
#
# Velocity S-wave (km/s) = 1.84961 3.44790 2.76668
# Velocity P-wave (km/s) = 3.21819 6.65804 5.22906
#
# Compressibility (1/GPa) = 0.09811415
#
# Stress axis : x y z
#
# Youngs Moduli (GPa) = 11.10190 117.15971 83.49758
#
# Poissons Ratio (x) = 0.79746 -0.49487
# Poissons Ratio (y) = 0.07557 0.44724
# Poissons Ratio (z) = -0.06580 0.62754
#
# Static dielectric constant tensor:
#      x y z
#    x 2.860500 0.000000 0.000000 
#    y 0.000000 3.917120 0.000000 
#    z 0.000000 0.000000 3.290410 
# 
# 
# High freq. dielectric constant tensor:
#      x y z
#    x 1.633700 0.000000 0.000000 
#    y 0.000000 1.699400 0.000000 
#    z 0.000000 0.000000 1.665350 
# 
# From -- ./inp_files/16591.got.cif
#   From: 2010.03.12/outbox.cif.g09.slc.cpg/sg51_9_cif.got.tgz:16591.got - 2010.04.16 13:43:02.
