data_PCOD8206870
_publ_section_title
;
Structure prediction by ZEFSAII (Michael W. Deem and Ramdas Pophale) SiO2 
 PCOD8206870
Probable space group: P M M A
;
_chemical_formula_sum "Si O2"
_cell_formula_units_Z 64
_cell_length_a 8.838545
_cell_length_b 18.188393
_cell_length_c 23.470751
_cell_angle_alpha 90.000000
_cell_angle_beta 90.000000
_cell_angle_gamma 90.000000
_cell_volume 3773.132817
_symmetry_space_group_name_H-M "P M M A"
_symmetry_group_IT_number 51
_symmetry_cell_setting 'orthorhombic'
loop_
_space_group_symop_operation_xyz
x,y,z
1/2-x,-y,z
1/2+x,-y,-z
-x,y,-z
-x,-y,-z
1/2+x,y,-z
1/2-x,y,z
x,-y,z
loop_
_atom_site_type_symbol
_atom_site_label
_atom_site_fract_x
_atom_site_fract_y
_atom_site_fract_z
Si Si1 0.924127 0.125043 0.558845
Si Si2 0.582699 0.417413 0.760394
Si Si3 0.074364 0.917263 0.676090
Si Si4 0.572979 0.785573 0.249362
Si Si5 0.571712 0.583393 0.939096
Si Si6 0.925845 0.652601 0.331920
Si Si7 0.424798 0.702104 0.442433
Si Si8 0.425945 0.680599 0.844920
O O1 0.750000 0.101980 0.555951
O O2 0.947001 0.211453 0.565026
O O3 0.000000 0.096510 0.500000
O O4 0.995396 0.088665 0.614808
O O5 0.750000 0.380748 0.768318
O O6 0.596386 0.500000 0.781017
O O7 0.526068 0.412717 0.695268
O O8 0.450281 0.380322 0.796751
O O9 0.250000 0.897798 0.666206
O O10 0.006687 0.862838 0.725680
O O11 0.052061 0.000000 0.699079
O O12 0.750000 0.793815 0.241442
O O13 0.532481 0.726393 0.297415
O O14 0.515035 0.757310 0.186069
O O15 0.750000 0.589213 0.944326
O O16 0.526871 0.500000 0.917968
O O17 0.518213 0.651144 0.899269
O O18 0.500000 0.598414 0.000000
O O19 0.750000 0.633256 0.329618
O O20 0.978674 0.660163 0.395851
O O21 0.500000 0.674233 0.500000
O O22 0.250000 0.679517 0.439751
O O23 0.250000 0.685913 0.861483
#
# Coordination Sequence:
#
# PCOD8206870 Si02
#       8
#     8   8   8   8   8   8   8   8
#     4  10  20  32  47  66  89 118 152 192 236 289
#     4  10  20  32  46  67  95 123 154 193 232 275
#     4  10  19  32  50  68  91 124 158 196 242 291
#     4   8  16  30  46  67  92 118 154 195 235 278
#     4  10  20  33  49  72 104 140 174 205 236 275
#     4  10  18  30  49  67  88 115 145 189 234 280
#     4  10  19  30  46  67  87 111 144 184 230 281
#     4  10  19  31  49  71  97 131 166 203 238 274
#
# _framework density 16.962033000000002
#
# number of rings (size 3 to 8) (size 9 to 14) (size 15 to 20)
#    0.000    2.250    1.250    3.375    0.000    4.750 
#    0.000    0.625    0.000    0.375    0.000    0.000 
#    0.000    0.500    0.000    0.875    0.000    1.250 
#
# Total GULP energy -792848.970183 kJ/mol
# GULP energy per Si atom -12388.265159 kJ/mol
# Density = 1.692343 g / cm^3
# Si number density = 16.962033 Si / 1000 Ang^3
#
#
#
# Elastic Constant Matrix: (Units=GPa)
#
#
# Indices 1 2 3 4 5 6 
#
# 1 61.9348 19.6803 26.9127 0.0000 0.0000 0.0000
# 2 19.6803 59.7645 43.2401 0.0000 0.0000 0.0000
# 3 26.9127 43.2401 106.7409 0.0000 0.0000 0.0000
# 4 0.0000 0.0000 0.0000 10.8322 0.0000 0.0000
# 5 0.0000 0.0000 0.0000 0.0000 29.8828 0.0000
# 6 0.0000 0.0000 0.0000 0.0000 0.0000 16.3153
#
#
#
# Elastic Compliance Matrix: (Units=1/GPa)
#
#
# Indices 1 2 3 4 5 6 
#
# 1 0.018753 -0.003896 -0.003150 0.000000 0.000000 0.000000
# 2 -0.003896 0.024479 -0.008934 0.000000 0.000000 0.000000
# 3 -0.003150 -0.008934 0.013782 0.000000 0.000000 0.000000
# 4 0.000000 0.000000 0.000000 0.092317 0.000000 0.000000
# 5 0.000000 0.000000 0.000000 0.000000 0.033464 0.000000
# 6 0.000000 0.000000 0.000000 0.000000 0.000000 0.061292
#
#
# Mechanical properties :
#
#
# Convention : Reuss Voigt Hill
#
# Bulk Modulus (GPa) = 39.91458 45.34516 42.62987
# Shear Modulus (GPa) = 17.58098 20.64655 19.11376
#
# Velocity S-wave (km/s) = 3.22295 3.49265 3.36051
# Velocity P-wave (km/s) = 6.11822 6.56172 6.34385
#
# Compressibility (1/GPa) = 0.02505350
#
# Stress axis : x y z
#
# Youngs Moduli (GPa) = 53.32542 40.85098 72.55976
#
# Poissons Ratio (x) = 0.15917 0.22855
# Poissons Ratio (y) = 0.20777 0.64825
# Poissons Ratio (z) = 0.16796 0.36496
#
# Static dielectric constant tensor:
#      x y z
#    x 3.264320 0.000000 0.000000 
#    y 0.000000 3.240040 0.000000 
#    z 0.000000 0.000000 3.133100 
# 
# 
# High freq. dielectric constant tensor:
#      x y z
#    x 1.657520 0.000000 0.000000 
#    y 0.000000 1.622790 0.000000 
#    z 0.000000 0.000000 1.641930 
# 
# From -- ./inp_files/35099.got.cif
#   From: 2010.03.12/outbox.cif.g09.slc.cpg/sg51_18_cif.got.tgz:35099.got - 2010.04.16 13:43:02.
