data_PCOD8206952
_publ_section_title
;
Structure prediction by ZEFSAII (Michael W. Deem and Ramdas Pophale) SiO2 
 PCOD8206952
Probable space group: P M M A
;
_chemical_formula_sum "Si O2"
_cell_formula_units_Z 56
_cell_length_a 18.027572
_cell_length_b 18.311530
_cell_length_c 9.619944
_cell_angle_alpha 90.000000
_cell_angle_beta 90.000000
_cell_angle_gamma 90.000000
_cell_volume 3175.663047
_symmetry_space_group_name_H-M "P M M A"
_symmetry_group_IT_number 51
_symmetry_cell_setting 'orthorhombic'
loop_
_space_group_symop_operation_xyz
x,y,z
1/2-x,-y,z
1/2+x,-y,-z
-x,y,-z
-x,-y,-z
1/2+x,y,-z
1/2-x,y,z
x,-y,z
loop_
_atom_site_type_symbol
_atom_site_label
_atom_site_fract_x
_atom_site_fract_y
_atom_site_fract_z
Si Si1 0.335831 0.802230 0.599897
Si Si2 0.165102 0.680559 0.399118
Si Si3 0.926332 0.584711 0.416790
Si Si4 0.470989 0.817703 0.143000
Si Si5 0.457617 0.919303 0.641390
Si Si6 0.836774 0.725452 0.901786
Si Si7 0.406412 0.298830 0.813612
O O1 0.250000 0.823868 0.583623
O O2 0.368263 0.755453 0.467805
O O3 0.381048 0.876612 0.618090
O O4 0.346976 0.752368 0.736129
O O5 0.250000 0.685490 0.437887
O O6 0.137120 0.608128 0.475568
O O7 0.151599 0.674602 0.234130
O O8 0.919397 0.500000 0.381109
O O9 0.921116 0.626641 0.270066
O O10 0.000000 0.605206 0.500000
O O11 0.485020 0.877423 0.259510
O O12 0.383305 0.799814 0.126737
O O13 0.514883 0.742116 0.173362
O O14 0.500000 0.852520 0.000000
O O15 0.500000 0.928310 0.500000
O O16 0.438910 0.000000 0.701297
O O17 0.750000 0.745029 0.922092
O O18 0.870609 0.683410 0.035457
#
# Coordination Sequence:
#
# PCOD8206952 Si02
#       7
#     8   8   8   8   8   8   8
#     4   9  17  31  51  73  96 126 167 212 255 300
#     4   9  18  31  49  72  97 128 164 203 248 298
#     4  10  20  34  52  73  98 130 166 203 244 295
#     4   9  18  32  51  72  95 127 160 197 245 293
#     4  10  20  32  47  70 100 132 165 202 247 300
#     4  10  18  30  51  76  99 124 163 211 249 287
#     4   9  18  32  52  76 100 125 161 207 252 296
#
# _framework density 17.634111999999998
#
# number of rings (size 3 to 8) (size 9 to 14) (size 15 to 20)
#    0.000    2.571    0.000    2.143    0.000    5.429 
#    0.000    0.714    0.000    7.714    0.000    0.000 
#    0.000    0.000    0.000    0.000    0.000    0.000 
#
# Total GULP energy -694124.204119 kJ/mol
# GULP energy per Si atom -12395.075074 kJ/mol
# Density = 1.759398 g / cm^3
# Si number density = 17.634112 Si / 1000 Ang^3
#
#
#
# Elastic Constant Matrix: (Units=GPa)
#
#
# Indices 1 2 3 4 5 6 
#
# 1 77.7772 44.8542 40.8634 0.0000 0.0000 0.0000
# 2 44.8542 95.6425 57.5161 0.0000 0.0000 0.0000
# 3 40.8634 57.5161 127.3077 0.0000 0.0000 0.0000
# 4 0.0000 0.0000 0.0000 -30.0149 0.0000 0.0000
# 5 0.0000 0.0000 0.0000 0.0000 25.8899 0.0000
# 6 0.0000 0.0000 0.0000 0.0000 0.0000 25.8280
#
#
#
# Elastic Compliance Matrix: (Units=1/GPa)
#
#
# Indices 1 2 3 4 5 6 
#
# 1 0.018295 -0.006932 -0.002741 0.000000 0.000000 0.000000
# 2 -0.006932 0.016982 -0.005447 0.000000 0.000000 0.000000
# 3 -0.002741 -0.005447 0.011196 0.000000 0.000000 0.000000
# 4 0.000000 0.000000 0.000000 -0.033317 0.000000 0.000000
# 5 0.000000 0.000000 0.000000 0.000000 0.038625 0.000000
# 6 0.000000 0.000000 0.000000 0.000000 0.000000 0.038718
#
#
# Mechanical properties :
#
#
# Convention : Reuss Voigt Hill
#
# Bulk Modulus (GPa) = 61.60199 65.24387 63.42293
# Shear Modulus (GPa) = 39.63558 14.84018 27.23788
#
# Velocity S-wave (km/s) = 4.74610 2.90411 3.93442
# Velocity P-wave (km/s) = 8.06494 6.95156 7.52886
#
# Compressibility (1/GPa) = 0.01623324
#
# Stress axis : x y z
#
# Youngs Moduli (GPa) = 54.66090 58.88468 89.31949
#
# Poissons Ratio (x) = 0.40817 0.24479
# Poissons Ratio (y) = 0.37889 0.48657
# Poissons Ratio (z) = 0.14980 0.32077
#
# Static dielectric constant tensor:
#      x y z
#    x 3.385880 0.000000 0.000000 
#    y 0.000000 3.037370 0.000000 
#    z 0.000000 0.000000 3.516020 
# 
# 
# High freq. dielectric constant tensor:
#      x y z
#    x 1.686870 0.000000 0.000000 
#    y 0.000000 1.645920 0.000000 
#    z 0.000000 0.000000 1.697160 
# 
# From -- ./inp_files/11158.got.cif
#   From: 2010.03.12/outbox.cif.g09.slc.cpg/sg51_6_cif.got.tgz:11158.got - 2010.04.16 13:43:02.
