data_PCOD8206153
_publ_section_title
;
Structure prediction by ZEFSAII (Michael W. Deem and Ramdas Pophale) SiO2 
 PCOD8206153
Probable space group: P M M A
;
_chemical_formula_sum "Si O2"
_cell_formula_units_Z 64
_cell_length_a 8.619343
_cell_length_b 19.219662
_cell_length_c 23.775639
_cell_angle_alpha 90.000000
_cell_angle_beta 90.000000
_cell_angle_gamma 90.000000
_cell_volume 3938.692783
_symmetry_space_group_name_H-M "P M M A"
_symmetry_group_IT_number 51
_symmetry_cell_setting 'orthorhombic'
loop_
_space_group_symop_operation_xyz
x,y,z
1/2-x,-y,z
1/2+x,-y,-z
-x,y,-z
-x,-y,-z
1/2+x,y,-z
1/2-x,y,z
x,-y,z
loop_
_atom_site_type_symbol
_atom_site_label
_atom_site_fract_x
_atom_site_fract_y
_atom_site_fract_z
Si Si1 0.934474 0.784147 0.060293
Si Si2 0.067430 0.423688 0.227051
Si Si3 0.566140 0.075313 0.241303
Si Si4 0.066678 0.289652 0.164981
Si Si5 0.567254 0.421435 0.440729
Si Si6 0.432799 0.344750 0.336431
Si Si7 0.432743 0.221761 0.725810
Si Si8 0.066052 0.076017 0.884799
O O1 0.750000 0.779776 0.060527
O O2 0.996938 0.861532 0.076186
O O3 0.002435 0.728358 0.103855
O O4 0.000000 0.763342 0.000000
O O5 0.250000 0.430602 0.233419
O O6 0.993451 0.500000 0.215529
O O7 0.026827 0.371076 0.176380
O O8 0.002927 0.393282 0.285961
O O9 0.750000 0.074820 0.236431
O O10 0.516352 0.140335 0.280535
O O11 0.499114 0.085405 0.178221
O O12 0.508746 0.000000 0.265591
O O13 0.250000 0.276041 0.169612
O O14 0.979920 0.243847 0.211427
O O15 0.500000 0.395920 0.500000
O O16 0.750000 0.418993 0.444330
O O17 0.508861 0.500000 0.427125
O O18 0.510608 0.368076 0.393893
O O19 0.250000 0.350009 0.343035
O O20 0.478833 0.265258 0.322135
O O21 0.250000 0.232175 0.718033
O O22 0.250000 0.080261 0.883146
O O23 0.013331 0.000000 0.908497
#
# Coordination Sequence:
#
# PCOD8206153 Si02
#       8
#     8   8   8   8   8   8   8   8
#     4  11  21  33  48  65  85 113 145 183 224 270
#     4   8  15  28  47  69  90 114 144 180 224 269
#     4   8  13  23  42  66  89 117 153 188 227 277
#     4  10  19  31  47  67  90 114 143 181 226 280
#     4  10  20  33  49  70  98 134 173 208 240 277
#     4  10  19  30  46  70 100 132 163 197 233 275
#     4  10  17  28  47  69  93 123 156 194 236 275
#     4   8  14  26  44  64  85 112 146 181 219 265
#
# _framework density 16.249046
#
# number of rings (size 3 to 8) (size 9 to 14) (size 15 to 20)
#    0.000    2.625    1.250    3.750    0.000    1.500 
#    0.000    0.000    0.000   11.250    0.000    0.000 
#    0.000    0.500    0.000    1.375    0.000    2.000 
#
# Total GULP energy -793182.425718 kJ/mol
# GULP energy per Si atom -12393.475402 kJ/mol
# Density = 1.621206 g / cm^3
# Si number density = 16.249046 Si / 1000 Ang^3
#
#
#
# Elastic Constant Matrix: (Units=GPa)
#
#
# Indices 1 2 3 4 5 6 
#
# 1 34.7249 17.9717 17.2393 0.0000 0.0000 0.0000
# 2 17.9717 128.3874 60.4914 0.0000 0.0000 0.0000
# 3 17.2393 60.4914 101.2580 0.0000 0.0000 0.0000
# 4 0.0000 0.0000 0.0000 21.3182 0.0000 0.0000
# 5 0.0000 0.0000 0.0000 0.0000 23.1119 0.0000
# 6 0.0000 0.0000 0.0000 0.0000 0.0000 17.1240
#
#
#
# Elastic Compliance Matrix: (Units=1/GPa)
#
#
# Indices 1 2 3 4 5 6 
#
# 1 0.032101 -0.002670 -0.003870 0.000000 0.000000 0.000000
# 2 -0.002670 0.011062 -0.006154 0.000000 0.000000 0.000000
# 3 -0.003870 -0.006154 0.014211 0.000000 0.000000 0.000000
# 4 0.000000 0.000000 0.000000 0.046908 0.000000 0.000000
# 5 0.000000 0.000000 0.000000 0.000000 0.043268 0.000000
# 6 0.000000 0.000000 0.000000 0.000000 0.000000 0.058398
#
#
# Mechanical properties :
#
#
# Convention : Reuss Voigt Hill
#
# Bulk Modulus (GPa) = 31.26381 50.64169 40.95275
# Shear Modulus (GPa) = 20.66132 23.55535 22.10834
#
# Velocity S-wave (km/s) = 3.56974 3.81155 3.69262
# Velocity P-wave (km/s) = 6.02269 7.11366 6.59079
#
# Compressibility (1/GPa) = 0.03198587
#
# Stress axis : x y z
#
# Youngs Moduli (GPa) = 31.15171 90.39797 70.36782
#
# Poissons Ratio (x) = 0.24136 0.27234
# Poissons Ratio (y) = 0.08318 0.43304
# Poissons Ratio (z) = 0.12056 0.55631
#
# Static dielectric constant tensor:
#      x y z
#    x 2.871700 0.000000 0.000000 
#    y 0.000000 3.538500 0.000000 
#    z 0.000000 0.000000 2.883860 
# 
# 
# High freq. dielectric constant tensor:
#      x y z
#    x 1.610310 0.000000 0.000000 
#    y 0.000000 1.629070 0.000000 
#    z 0.000000 0.000000 1.590200 
# 
# From -- ./inp_files/32585.got.cif
#   From: 2010.03.12/outbox.cif.g09.slc.cpg/sg51_17_cif.got.tgz:32585.got - 2010.04.16 13:43:02.
