data_PCOD8206345
_publ_section_title
;
Structure prediction by ZEFSAII (Michael W. Deem and Ramdas Pophale) SiO2 
 PCOD8206345
Probable space group: P M M A
;
_chemical_formula_sum "Si O2"
_cell_formula_units_Z 64
_cell_length_a 9.131227
_cell_length_b 20.507811
_cell_length_c 19.654619
_cell_angle_alpha 90.000000
_cell_angle_beta 90.000000
_cell_angle_gamma 90.000000
_cell_volume 3680.552994
_symmetry_space_group_name_H-M "P M M A"
_symmetry_group_IT_number 51
_symmetry_cell_setting 'orthorhombic'
loop_
_space_group_symop_operation_xyz
x,y,z
1/2-x,-y,z
1/2+x,-y,-z
-x,y,-z
-x,-y,-z
1/2+x,y,-z
1/2-x,y,z
x,-y,z
loop_
_atom_site_type_symbol
_atom_site_label
_atom_site_fract_x
_atom_site_fract_y
_atom_site_fract_z
Si Si1 0.079348 0.072993 0.432028
Si Si2 0.911556 0.382467 0.063132
Si Si3 0.081231 0.764140 0.197542
Si Si4 0.415567 0.226721 0.934518
Si Si5 0.423356 0.629933 0.790000
Si Si6 0.424832 0.301995 0.571687
Si Si7 0.917687 0.806423 0.655851
Si Si8 0.423018 0.428782 0.649218
O O1 0.250000 0.074072 0.448062
O O2 0.038288 0.122305 0.371623
O O3 0.000000 0.097350 0.500000
O O4 0.027646 0.000000 0.411406
O O5 0.750000 0.409157 0.051334
O O6 0.917831 0.304552 0.062890
O O7 0.967519 0.404821 0.138129
O O8 0.000000 0.412622 0.000000
O O9 0.250000 0.753750 0.176602
O O10 0.064738 0.810916 0.262786
O O11 0.996983 0.796736 0.134028
O O12 0.012826 0.695741 0.219539
O O13 0.250000 0.199922 0.934433
O O14 0.500000 0.197953 0.000000
O O15 0.250000 0.646878 0.790906
O O16 0.467277 0.583531 0.727699
O O17 0.500000 0.288160 0.500000
O O18 0.250000 0.299755 0.564387
O O19 0.474187 0.247229 0.624744
O O20 0.481931 0.372189 0.599514
O O21 0.750000 0.788377 0.636238
O O22 0.250000 0.429574 0.643728
O O23 0.486805 0.500000 0.627905
#
# Coordination Sequence:
#
# PCOD8206345 Si02
#       8
#     8   8   8   8   8   8   8   8
#     4   9  18  33  51  71  97 130 166 201 237 281
#     4   8  14  22  36  58  83 110 141 178 218 265
#     4  10  18  27  43  67  96 125 155 194 238 281
#     4   9  16  26  40  61  92 127 162 195 234 281
#     4   9  16  29  46  64  86 115 154 194 234 281
#     4  11  22  35  53  73  95 121 153 195 245 296
#     4  10  20  33  50  74 102 130 162 198 238 284
#     4   9  18  33  52  70  87 114 156 201 244 292
#
# _framework density 17.388693
#
# number of rings (size 3 to 8) (size 9 to 14) (size 15 to 20)
#    0.000    2.625    1.250    2.250    0.000    5.250 
#    0.000    0.000    0.000    3.375    0.000    0.000 
#    0.000    0.500    0.000    0.875    0.000    2.750 
#
# Total GULP energy -793280.383020 kJ/mol
# GULP energy per Si atom -12395.005985 kJ/mol
# Density = 1.734912 g / cm^3
# Si number density = 17.388693 Si / 1000 Ang^3
#
#
#
# Elastic Constant Matrix: (Units=GPa)
#
#
# Indices 1 2 3 4 5 6 
#
# 1 70.7351 26.4306 42.6667 0.0000 0.0000 0.0000
# 2 26.4306 65.8112 35.8601 0.0000 0.0000 0.0000
# 3 42.6667 35.8601 112.8630 0.0000 0.0000 0.0000
# 4 0.0000 0.0000 0.0000 15.4709 0.0000 0.0000
# 5 0.0000 0.0000 0.0000 0.0000 27.9392 0.0000
# 6 0.0000 0.0000 0.0000 0.0000 0.0000 13.1094
#
#
#
# Elastic Compliance Matrix: (Units=1/GPa)
#
#
# Indices 1 2 3 4 5 6 
#
# 1 0.019395 -0.004588 -0.005874 0.000000 0.000000 0.000000
# 2 -0.004588 0.019462 -0.004449 0.000000 0.000000 0.000000
# 3 -0.005874 -0.004449 0.012495 0.000000 0.000000 0.000000
# 4 0.000000 0.000000 0.000000 0.064638 0.000000 0.000000
# 5 0.000000 0.000000 0.000000 0.000000 0.035792 0.000000
# 6 0.000000 0.000000 0.000000 0.000000 0.000000 0.076281
#
#
# Mechanical properties :
#
#
# Convention : Reuss Voigt Hill
#
# Bulk Modulus (GPa) = 46.45077 51.03602 48.74340
# Shear Modulus (GPa) = 18.86352 20.93402 19.89877
#
# Velocity S-wave (km/s) = 3.29723 3.47347 3.38650
# Velocity P-wave (km/s) = 6.42392 6.74541 6.58663
#
# Compressibility (1/GPa) = 0.02152817
#
# Stress axis : x y z
#
# Youngs Moduli (GPa) = 51.55969 51.38202 80.03470
#
# Poissons Ratio (x) = 0.23577 0.47014
# Poissons Ratio (y) = 0.23658 0.35608
# Poissons Ratio (z) = 0.30287 0.22860
#
# Static dielectric constant tensor:
#      x y z
#    x 3.233200 0.000000 0.000000 
#    y 0.000000 3.029050 0.000000 
#    z 0.000000 0.000000 3.502860 
# 
# 
# High freq. dielectric constant tensor:
#      x y z
#    x 1.665250 0.000000 0.000000 
#    y 0.000000 1.621760 0.000000 
#    z 0.000000 0.000000 1.685090 
# 
# From -- ./inp_files/32580.got.cif
#   From: 2010.03.12/outbox.cif.g09.slc.cpg/sg51_17_cif.got.tgz:32580.got - 2010.04.16 13:43:02.
