data_PCOD8206311
_publ_section_title
;
Structure prediction by ZEFSAII (Michael W. Deem and Ramdas Pophale) SiO2 
 PCOD8206311
Probable space group: P M M A
;
_chemical_formula_sum "Si O2"
_cell_formula_units_Z 52
_cell_length_a 8.655884
_cell_length_b 26.870564
_cell_length_c 13.546152
_cell_angle_alpha 90.000000
_cell_angle_beta 90.000000
_cell_angle_gamma 90.000000
_cell_volume 3150.678971
_symmetry_space_group_name_H-M "P M M A"
_symmetry_group_IT_number 51
_symmetry_cell_setting 'orthorhombic'
loop_
_space_group_symop_operation_xyz
x,y,z
1/2-x,-y,z
1/2+x,-y,-z
-x,y,-z
-x,-y,-z
1/2+x,y,-z
1/2-x,y,z
x,-y,z
loop_
_atom_site_type_symbol
_atom_site_label
_atom_site_fract_x
_atom_site_fract_y
_atom_site_fract_z
Si Si1 0.569850 0.349863 0.396284
Si Si2 0.567478 0.746897 0.284408
Si Si3 0.433317 0.160490 0.390437
Si Si4 0.567160 0.694357 0.896815
Si Si5 0.431846 0.500000 0.108989
Si Si6 0.569092 0.947518 0.607287
Si Si7 0.567179 0.598199 0.198382
O O1 0.500000 0.366471 0.500000
O O2 0.750000 0.351097 0.410392
O O3 0.516981 0.294185 0.365770
O O4 0.519551 0.388408 0.310828
O O5 0.750000 0.744381 0.265255
O O6 0.516735 0.800929 0.319420
O O7 0.479419 0.735642 0.183139
O O8 0.500000 0.166332 0.500000
O O9 0.250000 0.170087 0.392910
O O10 0.476635 0.105636 0.344142
O O11 0.750000 0.688175 0.901111
O O12 0.489837 0.641363 0.873983
O O13 0.500000 0.713700 0.000000
O O14 0.250000 0.500000 0.098770
O O15 0.485207 0.547445 0.170428
O O16 0.500000 0.500000 0.000000
O O17 0.500000 0.948599 0.500000
O O18 0.750000 0.947278 0.593643
O O19 0.519134 0.000000 0.662679
O O20 0.750000 0.592705 0.186381
#
# Coordination Sequence:
#
# PCOD8206311 Si02
#       7
#     8   8   8   8   4   8   8
#     4   9  19  33  51  71  95 126 159 193 230 271
#     4  10  20  33  47  68  96 126 160 198 237 280
#     4  10  18  27  41  63  91 125 162 200 241 282
#     4  11  21  35  54  75  98 125 155 190 233 283
#     4  12  24  38  57  80 101 126 157 196 242 286
#     4   8  14  24  37  54  80 116 157 197 236 279
#     4  10  21  38  55  76 103 130 159 194 233 277
#
# _framework density 16.504377999999999
#
# number of rings (size 3 to 8) (size 9 to 14) (size 15 to 20)
#    0.000    2.154    0.000    5.308    0.000    5.538 
#    0.000    0.385    0.000    0.000    0.000    0.000 
#    0.000    0.615    0.000    1.692    0.000    2.769 
#
# Total GULP energy -644429.243349 kJ/mol
# GULP energy per Si atom -12392.870064 kJ/mol
# Density = 1.646681 g / cm^3
# Si number density = 16.504378 Si / 1000 Ang^3
#
#
#
# Elastic Constant Matrix: (Units=GPa)
#
#
# Indices 1 2 3 4 5 6 
#
# 1 72.8762 35.8006 33.2396 0.0000 0.0000 0.0000
# 2 35.8006 140.3143 52.3787 0.0000 0.0000 0.0000
# 3 33.2396 52.3787 98.8183 0.0000 0.0000 0.0000
# 4 0.0000 0.0000 0.0000 16.3316 0.0000 0.0000
# 5 0.0000 0.0000 0.0000 0.0000 27.6311 0.0000
# 6 0.0000 0.0000 0.0000 0.0000 0.0000 22.2686
#
#
#
# Elastic Compliance Matrix: (Units=1/GPa)
#
#
# Indices 1 2 3 4 5 6 
#
# 1 0.017019 -0.002749 -0.004267 0.000000 0.000000 0.000000
# 2 -0.002749 0.009329 -0.004020 0.000000 0.000000 0.000000
# 3 -0.004267 -0.004020 0.013686 0.000000 0.000000 0.000000
# 4 0.000000 0.000000 0.000000 0.061231 0.000000 0.000000
# 5 0.000000 0.000000 0.000000 0.000000 0.036191 0.000000
# 6 0.000000 0.000000 0.000000 0.000000 0.000000 0.044906
#
#
# Mechanical properties :
#
#
# Convention : Reuss Voigt Hill
#
# Bulk Modulus (GPa) = 55.67853 61.64961 58.66407
# Shear Modulus (GPa) = 23.76175 25.95227 24.85701
#
# Velocity S-wave (km/s) = 3.79849 3.96971 3.88504
# Velocity P-wave (km/s) = 7.28333 7.64500 7.46635
#
# Compressibility (1/GPa) = 0.01796024
#
# Stress axis : x y z
#
# Youngs Moduli (GPa) = 58.75813 107.19274 73.06821
#
# Poissons Ratio (x) = 0.29470 0.31181
# Poissons Ratio (y) = 0.16154 0.29374
# Poissons Ratio (z) = 0.25075 0.43092
#
# Static dielectric constant tensor:
#      x y z
#    x 3.217960 0.000000 0.000000 
#    y 0.000000 3.535620 0.000000 
#    z 0.000000 0.000000 3.557550 
# 
# 
# High freq. dielectric constant tensor:
#      x y z
#    x 1.650270 0.000000 0.000000 
#    y 0.000000 1.640810 0.000000 
#    z 0.000000 0.000000 1.605260 
# 
# From -- ./inp_files/14640.got.cif
#   From: 2010.03.12/outbox.cif.g09.slc.cpg/sg51_8_cif.got.tgz:14640.got - 2010.04.16 13:43:02.
