data_PCOD8206271
_publ_section_title
;
Structure prediction by ZEFSAII (Michael W. Deem and Ramdas Pophale) SiO2 
 PCOD8206271
Probable space group: P M M A
;
_chemical_formula_sum "Si O2"
_cell_formula_units_Z 64
_cell_length_a 21.911774
_cell_length_b 9.201309
_cell_length_c 20.435194
_cell_angle_alpha 90.000000
_cell_angle_beta 90.000000
_cell_angle_gamma 90.000000
_cell_volume 4120.082576
_symmetry_space_group_name_H-M "P M M A"
_symmetry_group_IT_number 51
_symmetry_cell_setting 'orthorhombic'
loop_
_space_group_symop_operation_xyz
x,y,z
1/2-x,-y,z
1/2+x,-y,-z
-x,y,-z
-x,-y,-z
1/2+x,y,-z
1/2-x,y,z
x,-y,z
loop_
_atom_site_type_symbol
_atom_site_label
_atom_site_fract_x
_atom_site_fract_y
_atom_site_fract_z
Si Si1 0.461610 0.830446 0.588858
Si Si2 0.572293 0.663439 0.009638
Si Si3 0.056344 0.161312 0.868888
Si Si4 0.680162 0.669498 0.635089
Si Si5 0.588505 0.164335 0.885458
Si Si6 0.091876 0.171993 0.457796
Si Si7 0.400960 0.671235 0.242001
Si Si8 0.524681 0.170027 0.268843
O O1 0.413750 0.774449 0.534072
O O2 0.530338 0.771324 0.578100
O O3 0.440048 0.794359 0.663070
O O4 0.466795 0.000000 0.576283
O O5 0.597473 0.500000 0.006741
O O6 0.588778 0.728901 0.080995
O O7 0.500000 0.667469 0.000000
O O8 0.605561 0.756954 0.953588
O O9 0.069298 0.204702 0.792860
O O10 0.983810 0.165189 0.876647
O O11 0.081055 0.000000 0.884456
O O12 0.750000 0.719214 0.639310
O O13 0.673514 0.500000 0.620976
O O14 0.649707 0.751963 0.574505
O O15 0.649435 0.710251 0.704092
O O16 0.619183 0.251324 0.825580
O O17 0.613810 0.000000 0.887339
O O18 0.101366 0.000000 0.451260
O O19 0.406709 0.500000 0.229016
O O20 0.465210 0.730885 0.267118
O O21 0.504724 0.000000 0.266009
#
# Coordination Sequence:
#
# PCOD8206271 Si02
#       8
#     8   8   8   8   8   8   8   8
#     4   8  14  25  43  64  84 104 129 170 214 248
#     4   9  15  22  32  47  69  97 128 161 191 221
#     4   8  14  21  31  48  70  99 130 156 186 230
#     4  10  21  34  44  57  82 112 138 171 214 253
#     4   9  16  25  37  50  68  95 127 164 199 233
#     4   9  16  28  46  64  80 102 136 172 207 250
#     4  10  18  27  39  55  74  98 133 171 203 240
#     4   9  15  25  40  56  78 106 132 161 202 246
#
# _framework density 15.533670000000001
#
# number of rings (size 3 to 8) (size 9 to 14) (size 15 to 20)
#    0.000    3.000    1.250    2.625    0.000    5.250 
#    0.000    1.875    0.000    0.000    0.000    0.000 
#    0.000    0.000    0.000    1.125    0.000   18.375 
#
# Total GULP energy -793084.648497 kJ/mol
# GULP energy per Si atom -12391.947633 kJ/mol
# Density = 1.549831 g / cm^3
# Si number density = 15.533670 Si / 1000 Ang^3
#
#
#
# Elastic Constant Matrix: (Units=GPa)
#
#
# Indices 1 2 3 4 5 6 
#
# 1 36.2688 24.6067 33.8354 0.0000 0.0000 0.0000
# 2 24.6067 81.4224 63.2775 0.0000 0.0000 0.0000
# 3 33.8354 63.2775 168.0823 0.0000 0.0000 0.0000
# 4 0.0000 0.0000 0.0000 24.0034 0.0000 0.0000
# 5 0.0000 0.0000 0.0000 0.0000 11.5489 0.0000
# 6 0.0000 0.0000 0.0000 0.0000 0.0000 11.8247
#
#
#
# Elastic Compliance Matrix: (Units=1/GPa)
#
#
# Indices 1 2 3 4 5 6 
#
# 1 0.037020 -0.007628 -0.004581 0.000000 0.000000 0.000000
# 2 -0.007628 0.018933 -0.005592 0.000000 0.000000 0.000000
# 3 -0.004581 -0.005592 0.008977 0.000000 0.000000 0.000000
# 4 0.000000 0.000000 0.000000 0.041661 0.000000 0.000000
# 5 0.000000 0.000000 0.000000 0.000000 0.086588 0.000000
# 6 0.000000 0.000000 0.000000 0.000000 0.000000 0.084569
#
#
# Mechanical properties :
#
#
# Convention : Reuss Voigt Hill
#
# Bulk Modulus (GPa) = 34.09648 58.80140 46.44894
# Shear Modulus (GPa) = 15.47384 20.41231 17.94307
#
# Velocity S-wave (km/s) = 3.15961 3.62894 3.40238
# Velocity P-wave (km/s) = 5.94210 7.44952 6.73809
#
# Compressibility (1/GPa) = 0.02932854
#
# Stress axis : x y z
#
# Youngs Moduli (GPa) = 27.01208 52.81849 111.39884
#
# Poissons Ratio (x) = 0.40291 0.51027
# Poissons Ratio (y) = 0.20605 0.62294
# Poissons Ratio (z) = 0.12373 0.29536
#
# Static dielectric constant tensor:
#      x y z
#    x 2.365170 0.000000 0.000000 
#    y 0.000000 2.959960 0.000000 
#    z 0.000000 0.000000 3.412110 
# 
# 
# High freq. dielectric constant tensor:
#      x y z
#    x 1.509390 0.000000 0.000000 
#    y 0.000000 1.593380 0.000000 
#    z 0.000000 0.000000 1.619350 
# 
# From -- ./inp_files/34161.got.cif
#   From: 2010.03.12/outbox.cif.g09.slc.cpg/sg51_18_cif.got.tgz:34161.got - 2010.04.16 13:43:02.
