data_PCOD8206609
_publ_section_title
;
Structure prediction by ZEFSAII (Michael W. Deem and Ramdas Pophale) SiO2 
 PCOD8206609
Probable space group: P M M A
;
_chemical_formula_sum "Si O2"
_cell_formula_units_Z 64
_cell_length_a 18.903004
_cell_length_b 13.994389
_cell_length_c 13.356314
_cell_angle_alpha 90.000000
_cell_angle_beta 90.000000
_cell_angle_gamma 90.000000
_cell_volume 3533.225763
_symmetry_space_group_name_H-M "P M M A"
_symmetry_group_IT_number 51
_symmetry_cell_setting 'orthorhombic'
loop_
_space_group_symop_operation_xyz
x,y,z
1/2-x,-y,z
1/2+x,-y,-z
-x,y,-z
-x,-y,-z
1/2+x,y,-z
1/2-x,y,z
x,-y,z
loop_
_atom_site_type_symbol
_atom_site_label
_atom_site_fract_x
_atom_site_fract_y
_atom_site_fract_z
Si Si1 0.551083 0.249644 0.264021
Si Si2 0.975104 0.610327 0.887530
Si Si3 0.170956 0.611758 0.201613
Si Si4 0.937991 0.395961 0.432723
Si Si5 0.831258 0.108131 0.286523
Si Si6 0.828107 0.138408 0.515667
Si Si7 0.969228 0.105695 0.606187
Si Si8 0.327465 0.648583 0.420886
O O1 0.520415 0.313152 0.174636
O O2 0.581624 0.323342 0.345404
O O3 0.616756 0.182182 0.228701
O O4 0.489939 0.181259 0.308481
O O5 0.988499 0.500000 0.852478
O O6 0.890826 0.634952 0.878911
O O7 0.000000 0.623897 0.000000
O O8 0.250000 0.650101 0.168870
O O9 0.176461 0.500000 0.219402
O O10 0.144587 0.657893 0.306664
O O11 0.960271 0.500000 0.388271
O O12 0.874190 0.417685 0.508815
O O13 0.000000 0.350058 0.500000
O O14 0.750000 0.140845 0.270817
O O15 0.852115 0.109980 0.403749
O O16 0.842052 0.000000 0.246030
O O17 0.750000 0.095501 0.538265
O O18 0.884118 0.097997 0.595504
O O19 0.826595 0.251130 0.523623
O O20 0.000000 0.140901 0.500000
O O21 0.998146 0.000000 0.635024
O O22 0.250000 0.602270 0.414739
#
# Coordination Sequence:
#
# PCOD8206609 Si02
#       8
#     8   8   8   8   8   8   8   8
#     4  12  21  34  54  75 103 139 183 229 277 329
#     4  10  22  40  60  82 108 138 180 239 299 343
#     4   9  17  31  53  78 104 139 183 224 266 327
#     4  11  21  30  43  67 101 139 172 205 254 319
#     4  10  20  34  52  74 104 144 186 223 261 314
#     4  10  18  29  45  68 104 146 181 213 250 300
#     4  11  20  30  47  75 107 140 177 217 259 310
#     4  10  18  29  46  72 106 142 176 212 252 305
#
# _framework density 18.113759000000002
#
# number of rings (size 3 to 8) (size 9 to 14) (size 15 to 20)
#    0.000    1.625    2.500    4.125    0.000    3.500 
#    0.000    0.625    0.000    3.375    0.000    0.000 
#    0.000    0.000    0.000    0.000    0.000    0.000 
#
# Total GULP energy -793106.130747 kJ/mol
# GULP energy per Si atom -12392.283293 kJ/mol
# Density = 1.807253 g / cm^3
# Si number density = 18.113759 Si / 1000 Ang^3
#
#
#
# Elastic Constant Matrix: (Units=GPa)
#
#
# Indices 1 2 3 4 5 6 
#
# 1 110.5245 40.4108 47.6402 0.0000 0.0000 0.0000
# 2 40.4108 98.0494 34.2356 0.0000 0.0000 0.0000
# 3 47.6402 34.2356 71.0532 0.0000 0.0000 0.0000
# 4 0.0000 0.0000 0.0000 18.3405 0.0000 0.0000
# 5 0.0000 0.0000 0.0000 0.0000 22.5163 0.0000
# 6 0.0000 0.0000 0.0000 0.0000 0.0000 31.1460
#
#
#
# Elastic Compliance Matrix: (Units=1/GPa)
#
#
# Indices 1 2 3 4 5 6 
#
# 1 0.013361 -0.002860 -0.007580 0.000000 0.000000 0.000000
# 2 -0.002860 0.012874 -0.004286 0.000000 0.000000 0.000000
# 3 -0.007580 -0.004286 0.021221 0.000000 0.000000 0.000000
# 4 0.000000 0.000000 0.000000 0.054524 0.000000 0.000000
# 5 0.000000 0.000000 0.000000 0.000000 0.044412 0.000000
# 6 0.000000 0.000000 0.000000 0.000000 0.000000 0.032107
#
#
# Mechanical properties :
#
#
# Convention : Reuss Voigt Hill
#
# Bulk Modulus (GPa) = 55.54096 58.24448 56.89272
# Shear Modulus (GPa) = 23.36969 24.88994 24.12981
#
# Velocity S-wave (km/s) = 3.59578 3.71089 3.65379
# Velocity P-wave (km/s) = 6.92592 7.11236 7.01976
#
# Compressibility (1/GPa) = 0.01800473
#
# Stress axis : x y z
#
# Youngs Moduli (GPa) = 74.84596 77.67589 47.12228
#
# Poissons Ratio (x) = 0.22214 0.35720
# Poissons Ratio (y) = 0.21405 0.20195
# Poissons Ratio (z) = 0.56735 0.33289
#
# Static dielectric constant tensor:
#      x y z
#    x 3.804590 0.000000 0.000000 
#    y 0.000000 3.403960 0.000000 
#    z 0.000000 0.000000 2.819440 
# 
# 
# High freq. dielectric constant tensor:
#      x y z
#    x 1.719650 0.000000 0.000000 
#    y 0.000000 1.711760 0.000000 
#    z 0.000000 0.000000 1.631690 
# 
# From -- ./inp_files/17607.got.cif
#   From: 2010.03.12/outbox.cif.g09.slc.cpg/sg51_9_cif.got.tgz:17607.got - 2010.04.16 13:43:02.
