data_PCOD8206593
_publ_section_title
;
Structure prediction by ZEFSAII (Michael W. Deem and Ramdas Pophale) SiO2 
 PCOD8206593
Probable space group: P M M A
;
_chemical_formula_sum "Si O2"
_cell_formula_units_Z 32
_cell_length_a 8.658302
_cell_length_b 15.666587
_cell_length_c 14.467025
_cell_angle_alpha 90.000000
_cell_angle_beta 90.000000
_cell_angle_gamma 90.000000
_cell_volume 1962.394674
_symmetry_space_group_name_H-M "P M M A"
_symmetry_group_IT_number 51
_symmetry_cell_setting 'orthorhombic'
loop_
_space_group_symop_operation_xyz
x,y,z
1/2-x,-y,z
1/2+x,-y,-z
-x,y,-z
-x,-y,-z
1/2+x,y,-z
1/2-x,y,z
x,-y,z
loop_
_atom_site_type_symbol
_atom_site_label
_atom_site_fract_x
_atom_site_fract_y
_atom_site_fract_z
Si Si1 0.933348 0.662525 0.787277
Si Si2 0.066150 0.826722 0.102232
Si Si3 0.066282 0.000000 0.897496
Si Si4 0.432415 0.402575 0.405366
Si Si5 0.933677 0.500000 0.898836
O O1 0.750000 0.659553 0.788708
O O2 0.992522 0.750560 0.831812
O O3 0.992618 0.653329 0.681550
O O4 0.997717 0.583447 0.846600
O O5 0.250000 0.832029 0.095989
O O6 0.999082 0.913497 0.148943
O O7 0.000000 0.811235 0.000000
O O8 0.250000 0.000000 0.896691
O O9 0.000000 0.000000 0.000000
O O10 0.500000 0.363380 0.500000
O O11 0.250000 0.399494 0.411315
O O12 0.489657 0.500000 0.391953
O O13 0.750000 0.500000 0.902108
O O14 0.000000 0.500000 0.000000
#
# Coordination Sequence:
#
# PCOD8206593 Si02
#       5
#     8   8   4   8   4
#     4   9  17  29  46  64  88 122 153 178 217 267
#     4  10  18  29  45  66  90 119 152 185 219 261
#     4  10  18  30  46  64  87 116 147 186 229 264
#     4   9  16  29  47  65  86 115 150 187 223 261
#     4  10  18  30  43  60  88 124 155 180 209 252
#
# _framework density 16.306608000000001
#
# number of rings (size 3 to 8) (size 9 to 14) (size 15 to 20)
#    0.000    2.500    1.250    4.125    0.000    0.000 
#    0.000    5.000    0.000    0.000    0.000    0.875 
#    0.000    0.000    0.000    0.000    0.000    0.000 
#
# Total GULP energy -396645.875915 kJ/mol
# GULP energy per Si atom -12395.183622 kJ/mol
# Density = 1.626949 g / cm^3
# Si number density = 16.306608 Si / 1000 Ang^3
#
#
#
# Elastic Constant Matrix: (Units=GPa)
#
#
# Indices 1 2 3 4 5 6 
#
# 1 47.3917 32.5311 22.3285 0.0000 0.0000 0.0000
# 2 32.5311 152.8549 77.0123 0.0000 0.0000 0.0000
# 3 22.3285 77.0123 132.9762 0.0000 0.0000 0.0000
# 4 0.0000 0.0000 0.0000 14.5327 0.0000 0.0000
# 5 0.0000 0.0000 0.0000 0.0000 22.5171 0.0000
# 6 0.0000 0.0000 0.0000 0.0000 0.0000 17.7217
#
#
#
# Elastic Compliance Matrix: (Units=1/GPa)
#
#
# Indices 1 2 3 4 5 6 
#
# 1 0.024942 -0.004516 -0.001573 0.000000 0.000000 0.000000
# 2 -0.004516 0.010055 -0.005065 0.000000 0.000000 0.000000
# 3 -0.001573 -0.005065 0.010718 0.000000 0.000000 0.000000
# 4 0.000000 0.000000 0.000000 0.068811 0.000000 0.000000
# 5 0.000000 0.000000 0.000000 0.000000 0.044411 0.000000
# 6 0.000000 0.000000 0.000000 0.000000 0.000000 0.056428
#
#
# Mechanical properties :
#
#
# Convention : Reuss Voigt Hill
#
# Bulk Modulus (GPa) = 42.72212 66.32962 54.52587
# Shear Modulus (GPa) = 20.36882 24.37768 22.37325
#
# Velocity S-wave (km/s) = 3.53812 3.87066 3.70812
# Velocity P-wave (km/s) = 6.55341 7.79364 7.20028
#
# Compressibility (1/GPa) = 0.02340708
#
# Stress axis : x y z
#
# Youngs Moduli (GPa) = 40.09381 99.45157 93.30400
#
# Poissons Ratio (x) = 0.44910 0.14674
# Poissons Ratio (y) = 0.18105 0.47260
# Poissons Ratio (z) = 0.06306 0.50373
#
# Static dielectric constant tensor:
#      x y z
#    x 2.860550 0.000000 0.000000 
#    y 0.000000 3.608560 0.000000 
#    z 0.000000 0.000000 3.186740 
# 
# 
# High freq. dielectric constant tensor:
#      x y z
#    x 1.613120 0.000000 0.000000 
#    y 0.000000 1.622430 0.000000 
#    z 0.000000 0.000000 1.608300 
# 
# From -- ./inp_files/20243.got.cif
#   From: 2010.03.12/outbox.cif.g09.slc.cpg/sg51_11_cif.got.tgz:20243.got - 2010.04.16 13:43:02.
