data_PCOD8206888
_publ_section_title
;
Structure prediction by ZEFSAII (Michael W. Deem and Ramdas Pophale) SiO2 
 PCOD8206888
Probable space group: P M M A
;
_chemical_formula_sum "Si O2"
_cell_formula_units_Z 44
_cell_length_a 8.874104
_cell_length_b 27.940595
_cell_length_c 9.679573
_cell_angle_alpha 90.000000
_cell_angle_beta 90.000000
_cell_angle_gamma 90.000000
_cell_volume 2400.028306
_symmetry_space_group_name_H-M "P M M A"
_symmetry_group_IT_number 51
_symmetry_cell_setting 'orthorhombic'
loop_
_space_group_symop_operation_xyz
x,y,z
1/2-x,-y,z
1/2+x,-y,-z
-x,y,-z
-x,-y,-z
1/2+x,y,-z
1/2-x,y,z
x,-y,z
loop_
_atom_site_type_symbol
_atom_site_label
_atom_site_fract_x
_atom_site_fract_y
_atom_site_fract_z
Si Si1 0.927660 0.715703 0.143050
Si Si2 0.570905 0.095061 0.350747
Si Si3 0.426371 0.176417 0.859025
Si Si4 0.927872 0.365112 0.350653
Si Si5 0.069384 0.000000 0.347479
Si Si6 0.572673 0.445829 0.142820
O O1 0.750000 0.711884 0.124386
O O2 0.980038 0.769809 0.178433
O O3 0.982860 0.681800 0.267276
O O4 0.000000 0.698086 0.000000
O O5 0.500000 0.103512 0.500000
O O6 0.750000 0.088006 0.362215
O O7 0.524236 0.141238 0.262884
O O8 0.495897 0.048280 0.277018
O O9 0.250000 0.174961 0.882391
O O10 0.500000 0.158207 0.000000
O O11 0.750000 0.365088 0.369063
O O12 0.982678 0.412056 0.267305
O O13 0.000000 0.365122 0.500000
O O14 0.000000 0.000000 0.500000
O O15 0.250000 0.000000 0.348006
O O16 0.750000 0.441670 0.123184
O O17 0.522292 0.500000 0.178200
O O18 0.500000 0.428232 0.000000
#
# Coordination Sequence:
#
# PCOD8206888 Si02
#       6
#     8   8   8   8   4   8
#     4   9  18  34  53  73  96 126 164 203 243 290
#     4  10  19  32  50  73  99 128 161 199 241 286
#     4   9  19  34  52  73  99 128 160 200 245 291
#     4  10  21  34  49  72 103 133 163 203 248 293
#     4  10  18  30  49  72  97 128 164 200 238 284
#     4   9  18  33  52  74  99 129 167 208 247 291
#
# _framework density 18.333117000000001
#
# number of rings (size 3 to 8) (size 9 to 14) (size 15 to 20)
#    0.000    2.545    0.000    3.000    0.000    4.000 
#    0.000    0.455    0.000    0.000    0.000    0.000 
#    0.000    0.000    0.000    0.000    0.000    0.000 
#
# Total GULP energy -545525.629636 kJ/mol
# GULP energy per Si atom -12398.309764 kJ/mol
# Density = 1.829139 g / cm^3
# Si number density = 18.333117 Si / 1000 Ang^3
#
#
#
# Elastic Constant Matrix: (Units=GPa)
#
#
# Indices 1 2 3 4 5 6 
#
# 1 50.7995 44.4662 43.2599 0.0000 0.0000 0.0000
# 2 44.4662 143.3742 96.6138 0.0000 0.0000 0.0000
# 3 43.2599 96.6138 146.2747 0.0000 0.0000 0.0000
# 4 0.0000 0.0000 0.0000 -8.7608 0.0000 0.0000
# 5 0.0000 0.0000 0.0000 0.0000 33.4108 0.0000
# 6 0.0000 0.0000 0.0000 0.0000 0.0000 10.9470
#
#
#
# Elastic Compliance Matrix: (Units=1/GPa)
#
#
# Indices 1 2 3 4 5 6 
#
# 1 0.028710 -0.005735 -0.004703 0.000000 0.000000 0.000000
# 2 -0.005735 0.013715 -0.007362 0.000000 0.000000 0.000000
# 3 -0.004703 -0.007362 0.013090 0.000000 0.000000 0.000000
# 4 0.000000 0.000000 0.000000 -0.114144 0.000000 0.000000
# 5 0.000000 0.000000 0.000000 0.000000 0.029930 0.000000
# 6 0.000000 0.000000 0.000000 0.000000 0.000000 0.091349
#
#
# Mechanical properties :
#
#
# Convention : Reuss Voigt Hill
#
# Bulk Modulus (GPa) = 50.21520 78.79202 64.50361
# Shear Modulus (GPa) = 47.66965 17.52664 32.59814
#
# Velocity S-wave (km/s) = 5.10474 3.09530 4.22133
# Velocity P-wave (km/s) = 7.88634 7.47300 7.68245
#
# Compressibility (1/GPa) = 0.01991429
#
# Stress axis : x y z
#
# Youngs Moduli (GPa) = 34.83080 72.91494 76.39400
#
# Poissons Ratio (x) = 0.41818 0.35927
# Poissons Ratio (y) = 0.19976 0.56243
# Poissons Ratio (z) = 0.16380 0.53682
#
# Static dielectric constant tensor:
#      x y z
#    x 3.269900 0.000000 0.000000 
#    y 0.000000 4.067880 0.000000 
#    z 0.000000 0.000000 3.345910 
# 
# 
# High freq. dielectric constant tensor:
#      x y z
#    x 1.706550 0.000000 0.000000 
#    y 0.000000 1.729060 0.000000 
#    z 0.000000 0.000000 1.692470 
# 
# From -- ./inp_files/5706.got.cif
#   From: 2010.03.12/outbox.cif.g09.slc.cpg/sg51_3_cif.got.tgz:5706.got - 2010.04.16 13:43:02.
