data_PCOD8206743
_publ_section_title
;
Structure prediction by ZEFSAII (Michael W. Deem and Ramdas Pophale) SiO2 
 PCOD8206743
Probable space group: P M M A
;
_chemical_formula_sum "Si O2"
_cell_formula_units_Z 64
_cell_length_a 19.216377
_cell_length_b 9.118708
_cell_length_c 19.796962
_cell_angle_alpha 90.000000
_cell_angle_beta 90.000000
_cell_angle_gamma 90.000000
_cell_volume 3468.992563
_symmetry_space_group_name_H-M "P M M A"
_symmetry_group_IT_number 51
_symmetry_cell_setting 'orthorhombic'
loop_
_space_group_symop_operation_xyz
x,y,z
1/2-x,-y,z
1/2+x,-y,-z
-x,y,-z
-x,-y,-z
1/2+x,y,-z
1/2-x,y,z
x,-y,z
loop_
_atom_site_type_symbol
_atom_site_label
_atom_site_fract_x
_atom_site_fract_y
_atom_site_fract_z
Si Si1 0.572445 0.669086 0.214938
Si Si2 0.898730 0.167088 0.609476
Si Si3 0.080654 0.665809 0.518274
Si Si4 0.946063 0.828064 0.351448
Si Si5 0.170151 0.166180 0.254391
Si Si6 0.074379 0.671757 0.154436
Si Si7 0.830760 0.668983 0.092611
Si Si8 0.078087 0.173353 0.017197
O O1 0.565832 0.500000 0.237042
O O2 0.583000 0.765686 0.281382
O O3 0.503775 0.718108 0.174028
O O4 0.638474 0.697187 0.167054
O O5 0.878017 0.264336 0.544755
O O6 0.839957 0.192006 0.665714
O O7 0.972557 0.212154 0.642556
O O8 0.902690 0.000000 0.584286
O O9 0.105931 0.500000 0.528664
O O10 0.096095 0.754711 0.586756
O O11 0.000000 0.676035 0.500000
O O12 0.932154 0.000000 0.353287
O O13 0.250000 0.191284 0.235868
O O14 0.125413 0.284412 0.214620
O O15 0.146417 0.000000 0.236039
O O16 0.080289 0.500000 0.140288
O O17 0.099356 0.757535 0.088392
O O18 0.750000 0.711558 0.094370
O O19 0.842275 0.500000 0.071598
O O20 0.868890 0.770868 0.038963
O O21 0.084442 0.000000 0.022246
O O22 0.000000 0.224324 0.000000
#
# Coordination Sequence:
#
# PCOD8206743 Si02
#       8
#     8   8   8   8   8   8   8   8
#     4  10  20  34  55  83 112 143 179 225 276 327
#     4   9  17  30  48  72 103 139 180 223 271 326
#     4   9  17  28  45  72 105 137 172 220 273 323
#     4  10  18  29  50  78 107 140 177 223 272 323
#     4  10  21  37  55  77 110 150 189 231 279 333
#     4  11  22  36  58  83 111 145 185 232 277 327
#     4  10  22  41  63  86 114 148 184 225 277 335
#     4  11  23  38  60  87 115 147 185 229 276 327
#
# _framework density 18.449159999999999
#
# number of rings (size 3 to 8) (size 9 to 14) (size 15 to 20)
#    0.000    2.000    2.500    1.500    0.000    5.000 
#    0.000    0.000    0.000    0.750    0.000    0.000 
#    0.000    0.000    0.000    0.000    0.000    0.000 
#
# Total GULP energy -793830.451975 kJ/mol
# GULP energy per Si atom -12403.600812 kJ/mol
# Density = 1.840717 g / cm^3
# Si number density = 18.449160 Si / 1000 Ang^3
#
#
#
# Elastic Constant Matrix: (Units=GPa)
#
#
# Indices 1 2 3 4 5 6 
#
# 1 79.6404 37.5443 36.5835 0.0000 0.0000 0.0000
# 2 37.5443 92.2539 66.6341 0.0000 0.0000 0.0000
# 3 36.5835 66.6341 122.9258 0.0000 0.0000 0.0000
# 4 0.0000 0.0000 0.0000 41.2523 0.0000 0.0000
# 5 0.0000 0.0000 0.0000 0.0000 20.7011 0.0000
# 6 0.0000 0.0000 0.0000 0.0000 0.0000 16.3468
#
#
#
# Elastic Compliance Matrix: (Units=1/GPa)
#
#
# Indices 1 2 3 4 5 6 
#
# 1 0.015832 -0.004996 -0.002004 0.000000 0.000000 0.000000
# 2 -0.004996 0.019391 -0.009025 0.000000 0.000000 0.000000
# 3 -0.002004 -0.009025 0.013623 0.000000 0.000000 0.000000
# 4 0.000000 0.000000 0.000000 0.024241 0.000000 0.000000
# 5 0.000000 0.000000 0.000000 0.000000 0.048307 0.000000
# 6 0.000000 0.000000 0.000000 0.000000 0.000000 0.061174
#
#
# Mechanical properties :
#
#
# Convention : Reuss Voigt Hill
#
# Bulk Modulus (GPa) = 59.52986 64.03820 61.78403
# Shear Modulus (GPa) = 22.70503 25.93059 24.31781
#
# Velocity S-wave (km/s) = 3.51191 3.75309 3.63450
# Velocity P-wave (km/s) = 6.98439 7.31894 7.15362
#
# Compressibility (1/GPa) = 0.01679829
#
# Stress axis : x y z
#
# Youngs Moduli (GPa) = 63.16329 51.56990 73.40443
#
# Poissons Ratio (x) = 0.25764 0.14707
# Poissons Ratio (y) = 0.31556 0.66244
# Poissons Ratio (z) = 0.12655 0.46539
#
# Static dielectric constant tensor:
#      x y z
#    x 3.113300 0.000000 0.000000 
#    y 0.000000 3.407910 0.000000 
#    z 0.000000 0.000000 3.415400 
# 
# 
# High freq. dielectric constant tensor:
#      x y z
#    x 1.680250 0.000000 0.000000 
#    y 0.000000 1.720160 0.000000 
#    z 0.000000 0.000000 1.726000 
# 
# From -- ./inp_files/30535.got.cif
#   From: 2010.03.12/outbox.cif.g09.slc.cpg/sg51_16_cif.got.tgz:30535.got - 2010.04.16 13:43:02.
