data_PCOD8206514
_publ_section_title
;
Structure prediction by ZEFSAII (Michael W. Deem and Ramdas Pophale) SiO2 
 PCOD8206514
Probable space group: P M M A
;
_chemical_formula_sum "Si O2"
_cell_formula_units_Z 40
_cell_length_a 19.850754
_cell_length_b 9.410657
_cell_length_c 12.606029
_cell_angle_alpha 90.000000
_cell_angle_beta 90.000000
_cell_angle_gamma 90.000000
_cell_volume 2354.915097
_symmetry_space_group_name_H-M "P M M A"
_symmetry_group_IT_number 51
_symmetry_cell_setting 'orthorhombic'
loop_
_space_group_symop_operation_xyz
x,y,z
1/2-x,-y,z
1/2+x,-y,-z
-x,y,-z
-x,-y,-z
1/2+x,y,-z
1/2-x,y,z
x,-y,z
loop_
_atom_site_type_symbol
_atom_site_label
_atom_site_fract_x
_atom_site_fract_y
_atom_site_fract_z
Si Si1 0.173332 0.164171 0.111726
Si Si2 0.088043 0.835128 0.314318
Si Si3 0.419831 0.657131 0.510202
Si Si4 0.044145 0.335714 0.732593
Si Si5 0.426088 0.335747 0.966697
O O1 0.250000 0.217156 0.106711
O O2 0.147727 0.189565 0.231115
O O3 0.166820 0.000000 0.080739
O O4 0.131091 0.250385 0.026420
O O5 0.111792 0.767513 0.426644
O O6 0.021874 0.761247 0.267690
O O7 0.072275 0.000000 0.333192
O O8 0.500000 0.657836 0.500000
O O9 0.390655 0.500000 0.486120
O O10 0.406083 0.700961 0.633343
O O11 0.020095 0.500000 0.723780
O O12 0.084580 0.310347 0.841170
O O13 0.418698 0.500000 0.998367
O O14 0.500000 0.280236 0.000000
#
# Coordination Sequence:
#
# PCOD8206514 Si02
#       5
#     8   8   8   8   8
#     4  10  22  37  50  69 101 137 169 205 253 303
#     4  10  18  28  46  70  96 126 164 204 241 287
#     4   8  15  27  44  66  96 128 152 185 241 295
#     4   9  17  30  47  71 101 128 154 197 253 297
#     4  10  19  32  53  77 100 128 168 212 251 298
#
# _framework density 16.985749999999999
#
# number of rings (size 3 to 8) (size 9 to 14) (size 15 to 20)
#    0.000    2.600    2.000    1.800    0.000    6.000 
#    0.000    0.000    0.000    1.200    0.000    5.600 
#    0.000    0.000    0.000    0.000    0.000    0.000 
#
# Total GULP energy -495855.938083 kJ/mol
# GULP energy per Si atom -12396.398452 kJ/mol
# Density = 1.694709 g / cm^3
# Si number density = 16.985750 Si / 1000 Ang^3
#
#
#
# Elastic Constant Matrix: (Units=GPa)
#
#
# Indices 1 2 3 4 5 6 
#
# 1 85.5840 52.6279 56.3764 0.0000 0.0000 0.0000
# 2 52.6279 89.1780 65.4559 0.0000 0.0000 0.0000
# 3 56.3764 65.4559 151.7950 0.0000 0.0000 0.0000
# 4 0.0000 0.0000 0.0000 29.4713 0.0000 0.0000
# 5 0.0000 0.0000 0.0000 0.0000 16.8408 0.0000
# 6 0.0000 0.0000 0.0000 0.0000 0.0000 16.3136
#
#
#
# Elastic Compliance Matrix: (Units=1/GPa)
#
#
# Indices 1 2 3 4 5 6 
#
# 1 0.019421 -0.009023 -0.003322 0.000000 0.000000 0.000000
# 2 -0.009023 0.020598 -0.005531 0.000000 0.000000 0.000000
# 3 -0.003322 -0.005531 0.010207 0.000000 0.000000 0.000000
# 4 0.000000 0.000000 0.000000 0.033931 0.000000 0.000000
# 5 0.000000 0.000000 0.000000 0.000000 0.059380 0.000000
# 6 0.000000 0.000000 0.000000 0.000000 0.000000 0.061299
#
#
# Mechanical properties :
#
#
# Convention : Reuss Voigt Hill
#
# Bulk Modulus (GPa) = 69.09055 75.05305 72.07180
# Shear Modulus (GPa) = 20.37383 22.66491 21.51937
#
# Velocity S-wave (km/s) = 3.46709 3.65684 3.56323
# Velocity P-wave (km/s) = 7.53601 7.88110 7.71049
#
# Compressibility (1/GPa) = 0.01447376
#
# Stress axis : x y z
#
# Youngs Moduli (GPa) = 51.48986 48.54823 97.97410
#
# Poissons Ratio (x) = 0.43804 0.32550
# Poissons Ratio (y) = 0.46459 0.54190
# Poissons Ratio (z) = 0.17106 0.26852
#
# Static dielectric constant tensor:
#      x y z
#    x 2.741630 0.000000 0.000000 
#    y 0.000000 3.205020 0.000000 
#    z 0.000000 0.000000 3.747310 
# 
# 
# High freq. dielectric constant tensor:
#      x y z
#    x 1.598330 0.000000 0.000000 
#    y 0.000000 1.656150 0.000000 
#    z 0.000000 0.000000 1.677950 
# 
# From -- ./inp_files/24549.got.cif
#   From: 2010.03.12/outbox.cif.g09.slc.cpg/sg51_13_cif.got.tgz:24549.got - 2010.04.16 13:43:02.
