data_PCOD8206048
_publ_section_title
;
Structure prediction by ZEFSAII (Michael W. Deem and Ramdas Pophale) SiO2 
 PCOD8206048
Probable space group: P M M A
;
_chemical_formula_sum "Si O2"
_cell_formula_units_Z 64
_cell_length_a 14.139203
_cell_length_b 9.259400
_cell_length_c 31.402888
_cell_angle_alpha 90.000000
_cell_angle_beta 90.000000
_cell_angle_gamma 90.000000
_cell_volume 4111.282937
_symmetry_space_group_name_H-M "P M M A"
_symmetry_group_IT_number 51
_symmetry_cell_setting 'orthorhombic'
loop_
_space_group_symop_operation_xyz
x,y,z
1/2-x,-y,z
1/2+x,-y,-z
-x,y,-z
-x,-y,-z
1/2+x,y,-z
1/2-x,y,z
x,-y,z
loop_
_atom_site_type_symbol
_atom_site_label
_atom_site_fract_x
_atom_site_fract_y
_atom_site_fract_z
Si Si1 0.361920 0.840830 0.765883
Si Si2 0.538951 0.671001 0.065641
Si Si3 0.959179 0.170577 0.391461
Si Si4 0.855207 0.671107 0.981521
Si Si5 0.139547 0.837160 0.525715
Si Si6 0.146710 0.170467 0.432884
Si Si7 0.642051 0.829662 0.139280
Si Si8 0.639485 0.668403 0.315245
O O1 0.250000 0.852615 0.765919
O O2 0.392810 0.789609 0.812981
O O3 0.396148 0.727521 0.730384
O O4 0.404201 0.000000 0.755594
O O5 0.545161 0.500000 0.072235
O O6 0.431000 0.719126 0.054423
O O7 0.570055 0.748978 0.108457
O O8 0.608300 0.722610 0.027718
O O9 0.911248 0.237636 0.434059
O O10 0.920816 0.253043 0.350959
O O11 0.070978 0.205821 0.396268
O O12 0.939167 0.000000 0.385703
O O13 0.750000 0.735920 0.972520
O O14 0.850502 0.500000 0.981934
O O15 0.250000 0.830194 0.534566
O O16 0.116251 0.765426 0.479542
O O17 0.100807 0.000000 0.525565
O O18 0.250000 0.231908 0.419252
O O19 0.155193 0.000000 0.440013
O O20 0.750000 0.776872 0.131561
O O21 0.635473 0.000000 0.131784
O O22 0.750000 0.702080 0.322546
O O23 0.617927 0.500000 0.316755
#
# Coordination Sequence:
#
# PCOD8206048 Si02
#       8
#     8   8   8   8   8   8   8   8
#     4   8  15  29  46  61  80 108 137 162 196 248
#     4   9  16  25  41  63  82 109 150 184 208 240
#     4  10  17  25  42  64  83 108 140 168 198 240
#     4   8  14  25  39  57  85 117 147 180 213 242
#     4   8  13  21  35  58  85 108 133 167 200 230
#     4   8  14  24  38  59  85 108 135 174 208 229
#     4   9  17  28  42  62  88 113 134 164 209 251
#     4  10  20  31  42  60  87 112 132 161 202 245
#
# _framework density 15.566917999999999
#
# number of rings (size 3 to 8) (size 9 to 14) (size 15 to 20)
#    0.000    3.250    0.000    3.750    0.000    4.000 
#    0.000    2.500    0.000    3.000    0.000    2.625 
#    0.000    1.000    0.000    0.000    0.000    0.000 
#
# Total GULP energy -792979.524163 kJ/mol
# GULP energy per Si atom -12390.305065 kJ/mol
# Density = 1.553149 g / cm^3
# Si number density = 15.566918 Si / 1000 Ang^3
#
#
#
# Elastic Constant Matrix: (Units=GPa)
#
#
# Indices 1 2 3 4 5 6 
#
# 1 89.7410 32.5369 67.8390 0.0000 0.0000 0.0000
# 2 32.5369 42.1469 48.4616 0.0000 0.0000 0.0000
# 3 67.8390 48.4616 127.6636 0.0000 0.0000 0.0000
# 4 0.0000 0.0000 0.0000 -26.9970 0.0000 0.0000
# 5 0.0000 0.0000 0.0000 0.0000 24.1621 0.0000
# 6 0.0000 0.0000 0.0000 0.0000 0.0000 12.5188
#
#
#
# Elastic Compliance Matrix: (Units=1/GPa)
#
#
# Indices 1 2 3 4 5 6 
#
# 1 0.019322 -0.005520 -0.008172 0.000000 0.000000 0.000000
# 2 -0.005520 0.043681 -0.013648 0.000000 0.000000 0.000000
# 3 -0.008172 -0.013648 0.017357 0.000000 0.000000 0.000000
# 4 0.000000 0.000000 0.000000 -0.037041 0.000000 0.000000
# 5 0.000000 0.000000 0.000000 0.000000 0.041387 0.000000
# 6 0.000000 0.000000 0.000000 0.000000 0.000000 0.079880
#
#
# Mechanical properties :
#
#
# Convention : Reuss Voigt Hill
#
# Bulk Modulus (GPa) = 38.94218 61.91406 50.42812
# Shear Modulus (GPa) = 21.94653 9.31771 15.63212
#
# Velocity S-wave (km/s) = 3.75883 2.44920 3.17233
# Velocity P-wave (km/s) = 6.62636 6.91790 6.77370
#
# Compressibility (1/GPa) = 0.02567910
#
# Stress axis : x y z
#
# Youngs Moduli (GPa) = 51.75386 22.89325 57.61468
#
# Poissons Ratio (x) = 0.12637 0.47084
# Poissons Ratio (y) = 0.28567 0.78634
# Poissons Ratio (z) = 0.42295 0.31245
#
# Static dielectric constant tensor:
#      x y z
#    x 3.085510 0.000000 0.000000 
#    y 0.000000 2.633380 0.000000 
#    z 0.000000 0.000000 3.037620 
# 
# 
# High freq. dielectric constant tensor:
#      x y z
#    x 1.581000 0.000000 0.000000 
#    y 0.000000 1.556850 0.000000 
#    z 0.000000 0.000000 1.592070 
# 
# From -- ./inp_files/37810.got.cif
#   From: 2010.03.12/outbox.cif.g09.slc.cpg/sg51_19_cif.got.tgz:37810.got - 2010.04.16 13:43:02.
