data_PCOD8206303
_publ_section_title
;
Structure prediction by ZEFSAII (Michael W. Deem and Ramdas Pophale) SiO2 
 PCOD8206303
Probable space group: P M M A
;
_chemical_formula_sum "Si O2"
_cell_formula_units_Z 56
_cell_length_a 9.029477
_cell_length_b 21.426824
_cell_length_c 18.292416
_cell_angle_alpha 90.000000
_cell_angle_beta 90.000000
_cell_angle_gamma 90.000000
_cell_volume 3539.088866
_symmetry_space_group_name_H-M "P M M A"
_symmetry_group_IT_number 51
_symmetry_cell_setting 'orthorhombic'
loop_
_space_group_symop_operation_xyz
x,y,z
1/2-x,-y,z
1/2+x,-y,-z
-x,y,-z
-x,-y,-z
1/2+x,y,-z
1/2-x,y,z
x,-y,z
loop_
_atom_site_type_symbol
_atom_site_label
_atom_site_fract_x
_atom_site_fract_y
_atom_site_fract_z
Si Si1 0.924051 0.570407 0.075734
Si Si2 0.927073 0.174104 0.577186
Si Si3 0.078030 0.317496 0.828126
Si Si4 0.083227 0.871074 0.199759
Si Si5 0.920306 0.071758 0.328663
Si Si6 0.587171 0.745440 0.708225
Si Si7 0.424689 0.803578 0.921885
O O1 0.750000 0.578688 0.063724
O O2 0.965081 0.500000 0.099845
O O3 0.982695 0.617763 0.137870
O O4 0.000000 0.588382 0.000000
O O5 0.750000 0.166753 0.571711
O O6 0.971489 0.233101 0.628617
O O7 0.000000 0.188433 0.500000
O O8 0.993095 0.110357 0.609675
O O9 0.250000 0.321877 0.814788
O O10 0.037349 0.261934 0.883366
O O11 0.011217 0.307103 0.747339
O O12 0.250000 0.895322 0.183591
O O13 0.090122 0.806736 0.242746
O O14 0.995200 0.920799 0.249061
O O15 0.994810 0.860576 0.124259
O O16 0.750000 0.094634 0.324319
O O17 0.929510 0.000000 0.352345
O O18 0.750000 0.716479 0.700739
O O19 0.250000 0.814214 0.929432
O O20 0.500000 0.802683 0.000000
#
# Coordination Sequence:
#
# PCOD8206303 Si02
#       7
#     8   8   8   8   8   8   8
#     4   9  17  28  40  57  85 120 156 190 222 256
#     4  10  20  33  49  69  93 119 144 172 211 255
#     4   9  17  27  41  61  84 114 149 183 218 256
#     4   9  17  30  46  63  84 110 141 177 218 260
#     4  10  20  33  49  68  89 115 146 176 207 248
#     4   8  16  29  44  63  85 110 140 175 213 254
#     4  10  18  27  41  62  86 110 141 181 224 267
#
# _framework density 15.823282000000001
#
# number of rings (size 3 to 8) (size 9 to 14) (size 15 to 20)
#    0.000    2.714    0.000    3.000    0.000    6.571 
#    0.000    0.000    0.000    0.429    0.000    0.000 
#    0.000    0.571    0.000    1.286    0.000    2.000 
#
# Total GULP energy -694205.371079 kJ/mol
# GULP energy per Si atom -12396.524484 kJ/mol
# Density = 1.578727 g / cm^3
# Si number density = 15.823282 Si / 1000 Ang^3
#
#
#
# Elastic Constant Matrix: (Units=GPa)
#
#
# Indices 1 2 3 4 5 6 
#
# 1 80.8834 32.0114 63.3696 0.0000 0.0000 0.0000
# 2 32.0114 63.0069 54.6988 0.0000 0.0000 0.0000
# 3 63.3696 54.6988 125.3023 0.0000 0.0000 0.0000
# 4 0.0000 0.0000 0.0000 21.3019 0.0000 0.0000
# 5 0.0000 0.0000 0.0000 0.0000 31.5641 0.0000
# 6 0.0000 0.0000 0.0000 0.0000 0.0000 18.2744
#
#
#
# Elastic Compliance Matrix: (Units=1/GPa)
#
#
# Indices 1 2 3 4 5 6 
#
# 1 0.020682 -0.002298 -0.009456 0.000000 0.000000 0.000000
# 2 -0.002298 0.025812 -0.010105 0.000000 0.000000 0.000000
# 3 -0.009456 -0.010105 0.017174 0.000000 0.000000 0.000000
# 4 0.000000 0.000000 0.000000 0.046944 0.000000 0.000000
# 5 0.000000 0.000000 0.000000 0.000000 0.031682 0.000000
# 6 0.000000 0.000000 0.000000 0.000000 0.000000 0.054721
#
#
# Mechanical properties :
#
#
# Convention : Reuss Voigt Hill
#
# Bulk Modulus (GPa) = 50.12998 63.26136 56.69567
# Shear Modulus (GPa) = 20.21147 22.16894 21.19021
#
# Velocity S-wave (km/s) = 3.57785 3.74710 3.66345
# Velocity P-wave (km/s) = 6.98698 7.66731 7.33504
#
# Compressibility (1/GPa) = 0.01994814
#
# Stress axis : x y z
#
# Youngs Moduli (GPa) = 48.35193 38.74182 58.22628
#
# Poissons Ratio (x) = 0.08904 0.55060
# Poissons Ratio (y) = 0.11113 0.58840
# Poissons Ratio (z) = 0.45722 0.39150
#
# Static dielectric constant tensor:
#      x y z
#    x 3.209610 0.000000 0.000000 
#    y 0.000000 2.929550 0.000000 
#    z 0.000000 0.000000 3.092640 
# 
# 
# High freq. dielectric constant tensor:
#      x y z
#    x 1.620630 0.000000 0.000000 
#    y 0.000000 1.573090 0.000000 
#    z 0.000000 0.000000 1.597310 
# 
# From -- ./inp_files/28228.got.cif
#   From: 2010.03.12/outbox.cif.g09.slc.cpg/sg51_15_cif.got.tgz:28228.got - 2010.04.16 13:43:02.
