data_PCOD8206528
_publ_section_title
;
Structure prediction by ZEFSAII (Michael W. Deem and Ramdas Pophale) SiO2 
 PCOD8206528
Probable space group: P M M A
;
_chemical_formula_sum "Si O2"
_cell_formula_units_Z 56
_cell_length_a 9.126970
_cell_length_b 14.644217
_cell_length_c 23.374946
_cell_angle_alpha 90.000000
_cell_angle_beta 90.000000
_cell_angle_gamma 90.000000
_cell_volume 3124.232853
_symmetry_space_group_name_H-M "P M M A"
_symmetry_group_IT_number 51
_symmetry_cell_setting 'orthorhombic'
loop_
_space_group_symop_operation_xyz
x,y,z
1/2-x,-y,z
1/2+x,-y,-z
-x,y,-z
-x,-y,-z
1/2+x,y,-z
1/2-x,y,z
x,-y,z
loop_
_atom_site_type_symbol
_atom_site_label
_atom_site_fract_x
_atom_site_fract_y
_atom_site_fract_z
Si Si1 0.423390 0.784281 0.942466
Si Si2 0.423877 0.099996 0.282433
Si Si3 0.083935 0.106627 0.153573
Si Si4 0.584146 0.394223 0.238211
Si Si5 0.077797 0.604686 0.441943
Si Si6 0.576502 0.715610 0.666494
Si Si7 0.076310 0.599307 0.889756
O O1 0.250000 0.793650 0.949115
O O2 0.473781 0.843922 0.889103
O O3 0.474044 0.679168 0.932416
O O4 0.500000 0.820029 0.000000
O O5 0.250000 0.093745 0.281491
O O6 0.474267 0.125055 0.217986
O O7 0.476393 0.178660 0.326691
O O8 0.487160 0.000000 0.300805
O O9 0.250000 0.143563 0.145490
O O10 0.079554 0.000000 0.139832
O O11 0.750000 0.357002 0.243962
O O12 0.579049 0.500000 0.254805
O O13 0.478990 0.340491 0.279924
O O14 0.520933 0.378984 0.174351
O O15 0.250000 0.616193 0.450731
O O16 0.037772 0.500000 0.426228
O O17 0.016836 0.671402 0.392239
O O18 0.000000 0.635543 0.500000
O O19 0.750000 0.709128 0.667120
O O20 0.250000 0.594136 0.886269
O O21 0.015036 0.500000 0.910408
#
# Coordination Sequence:
#
# PCOD8206528 Si02
#       7
#     8   8   8   8   8   8   8
#     4  11  22  34  50  70  92 120 155 195 234 274
#     4   8  15  29  50  75  99 122 149 184 232 287
#     4   9  18  34  54  73  95 122 150 184 229 282
#     4   9  17  29  46  69  96 124 152 183 227 285
#     4   9  18  31  45  64  93 128 164 198 230 266
#     4  10  18  28  47  73  98 123 154 196 237 271
#     4   8  16  32  50  67  91 123 155 187 227 277
#
# _framework density 17.924401
#
# number of rings (size 3 to 8) (size 9 to 14) (size 15 to 20)
#    0.000    2.857    0.000    3.429    0.000    2.286 
#    0.000    2.143    0.000    4.714    0.000    0.000 
#    0.000    0.000    0.000    0.000    0.000    0.000 
#
# Total GULP energy -694123.850345 kJ/mol
# GULP energy per Si atom -12395.068756 kJ/mol
# Density = 1.788360 g / cm^3
# Si number density = 17.924401 Si / 1000 Ang^3
#
#
#
# Elastic Constant Matrix: (Units=GPa)
#
#
# Indices 1 2 3 4 5 6 
#
# 1 31.4106 26.8918 24.5966 0.0000 0.0000 0.0000
# 2 26.8918 96.7413 66.7239 0.0000 0.0000 0.0000
# 3 24.5966 66.7239 92.0784 0.0000 0.0000 0.0000
# 4 0.0000 0.0000 0.0000 24.8065 0.0000 0.0000
# 5 0.0000 0.0000 0.0000 0.0000 22.7881 0.0000
# 6 0.0000 0.0000 0.0000 0.0000 0.0000 18.6494
#
#
#
# Elastic Compliance Matrix: (Units=1/GPa)
#
#
# Indices 1 2 3 4 5 6 
#
# 1 0.043214 -0.008098 -0.005675 0.000000 0.000000 0.000000
# 2 -0.008098 0.022183 -0.013911 0.000000 0.000000 0.000000
# 3 -0.005675 -0.013911 0.022457 0.000000 0.000000 0.000000
# 4 0.000000 0.000000 0.000000 0.040312 0.000000 0.000000
# 5 0.000000 0.000000 0.000000 0.000000 0.043883 0.000000
# 6 0.000000 0.000000 0.000000 0.000000 0.000000 0.053621
#
#
# Mechanical properties :
#
#
# Convention : Reuss Voigt Hill
#
# Bulk Modulus (GPa) = 30.78435 50.73944 40.76189
# Shear Modulus (GPa) = 17.13112 20.05001 18.59056
#
# Velocity S-wave (km/s) = 3.09486 3.34816 3.22400
# Velocity P-wave (km/s) = 5.47565 6.58147 6.05386
#
# Compressibility (1/GPa) = 0.03248404
#
# Stress axis : x y z
#
# Youngs Moduli (GPa) = 23.14084 45.08004 44.52930
#
# Poissons Ratio (x) = 0.36506 0.25272
# Poissons Ratio (y) = 0.18739 0.61946
# Poissons Ratio (z) = 0.13133 0.62713
#
# Static dielectric constant tensor:
#      x y z
#    x 3.002100 0.000000 0.000000 
#    y 0.000000 3.712340 0.000000 
#    z 0.000000 0.000000 3.284970 
# 
# 
# High freq. dielectric constant tensor:
#      x y z
#    x 1.663670 0.000000 0.000000 
#    y 0.000000 1.698530 0.000000 
#    z 0.000000 0.000000 1.680870 
# 
# From -- ./inp_files/31989.got.cif
#   From: 2010.03.12/outbox.cif.g09.slc.cpg/sg51_16_cif.got.tgz:31989.got - 2010.04.16 13:43:02.
