data_PCOD8206473
_publ_section_title
;
Structure prediction by ZEFSAII (Michael W. Deem and Ramdas Pophale) SiO2 
 PCOD8206473
Probable space group: P M M A
;
_chemical_formula_sum "Si O2"
_cell_formula_units_Z 56
_cell_length_a 10.832207
_cell_length_b 9.849877
_cell_length_c 30.175937
_cell_angle_alpha 90.000000
_cell_angle_beta 90.000000
_cell_angle_gamma 90.000000
_cell_volume 3219.648955
_symmetry_space_group_name_H-M "P M M A"
_symmetry_group_IT_number 51
_symmetry_cell_setting 'orthorhombic'
loop_
_space_group_symop_operation_xyz
x,y,z
1/2-x,-y,z
1/2+x,-y,-z
-x,y,-z
-x,-y,-z
1/2+x,y,-z
1/2-x,y,z
x,-y,z
loop_
_atom_site_type_symbol
_atom_site_label
_atom_site_fract_x
_atom_site_fract_y
_atom_site_fract_z
Si Si1 0.002497 0.844615 0.718728
Si Si2 0.613971 0.838974 0.370036
Si Si3 0.888609 0.338029 0.969283
Si Si4 0.250000 0.150263 0.772778
Si Si5 0.891702 0.349059 0.785997
Si Si6 0.109500 0.161325 0.531038
Si Si7 0.985702 0.657684 0.877769
Si Si8 0.250000 0.345370 0.855357
O O1 0.016874 0.792731 0.667781
O O2 0.133509 0.828514 0.741793
O O3 0.907189 0.746718 0.743426
O O4 0.954419 0.000000 0.720739
O O5 0.750000 0.778313 0.360167
O O6 0.572605 0.792497 0.419129
O O7 0.623307 0.000000 0.367934
O O8 0.750000 0.292031 0.984531
O O9 0.896716 0.500000 0.969184
O O10 0.911920 0.280249 0.919501
O O11 0.000000 0.280169 0.000000
O O12 0.250000 0.257396 0.811577
O O13 0.250000 0.000000 0.793986
O O14 0.750000 0.363787 0.796870
O O15 0.948140 0.500000 0.776789
O O16 0.951398 0.278580 0.829886
O O17 0.250000 0.212745 0.519038
O O18 0.000000 0.222265 0.500000
O O19 0.110265 0.000000 0.527249
O O20 0.951767 0.500000 0.874471
O O21 0.131241 0.683183 0.886073
O O22 0.250000 0.500000 0.838426
#
# Coordination Sequence:
#
# PCOD8206473 Si02
#       8
#     8   8   8   4   8   8   8   4
#     4  10  18  29  46  67  91 118 151 189 227 270
#     4   8  13  23  39  58  82 114 147 178 220 272
#     4   9  17  27  40  59  86 120 152 181 221 274
#     4  10  18  28  44  68  94 116 146 188 232 267
#     4  10  20  33  47  62  87 125 160 188 223 268
#     4   8  13  21  34  53  78 110 147 183 220 266
#     4   9  17  28  43  62  87 117 150 185 223 268
#     4  10  18  28  46  70  92 118 152 188 226 269
#
# _framework density 17.393201000000001
#
# number of rings (size 3 to 8) (size 9 to 14) (size 15 to 20)
#    0.000    2.857    2.143    1.286    1.000    2.000 
#    0.000    0.714    0.000    2.571    0.000    0.000 
#    0.000    2.857    0.000    0.571    0.000    1.714 
#
# Total GULP energy -693755.855699 kJ/mol
# GULP energy per Si atom -12388.497423 kJ/mol
# Density = 1.735361 g / cm^3
# Si number density = 17.393201 Si / 1000 Ang^3
#
#
#
# Elastic Constant Matrix: (Units=GPa)
#
#
# Indices 1 2 3 4 5 6 
#
# 1 100.4243 15.9280 53.6591 0.0000 0.0000 0.0000
# 2 15.9280 27.2037 21.1695 0.0000 0.0000 0.0000
# 3 53.6591 21.1695 124.6650 0.0000 0.0000 0.0000
# 4 0.0000 0.0000 0.0000 11.8890 0.0000 0.0000
# 5 0.0000 0.0000 0.0000 0.0000 62.0812 0.0000
# 6 0.0000 0.0000 0.0000 0.0000 0.0000 14.3678
#
#
#
# Elastic Compliance Matrix: (Units=1/GPa)
#
#
# Indices 1 2 3 4 5 6 
#
# 1 0.013270 -0.003831 -0.005061 0.000000 0.000000 0.000000
# 2 -0.003831 0.043463 -0.005732 0.000000 0.000000 0.000000
# 3 -0.005061 -0.005732 0.011173 0.000000 0.000000 0.000000
# 4 0.000000 0.000000 0.000000 0.084111 0.000000 0.000000
# 5 0.000000 0.000000 0.000000 0.000000 0.016108 0.000000
# 6 0.000000 0.000000 0.000000 0.000000 0.000000 0.069600
#
#
# Mechanical properties :
#
#
# Convention : Reuss Voigt Hill
#
# Bulk Modulus (GPa) = 25.86749 48.20069 37.03409
# Shear Modulus (GPa) = 17.86617 28.43669 23.15143
#
# Velocity S-wave (km/s) = 3.20846 4.04782 3.65233
# Velocity P-wave (km/s) = 5.35071 7.04407 6.25496
#
# Compressibility (1/GPa) = 0.03865857
#
# Stress axis : x y z
#
# Youngs Moduli (GPa) = 75.36020 23.00808 89.50007
#
# Poissons Ratio (x) = 0.08815 0.45296
# Poissons Ratio (y) = 0.28871 0.51297
# Poissons Ratio (z) = 0.38140 0.13187
#
# Static dielectric constant tensor:
#      x y z
#    x 3.370270 0.000000 0.000000 
#    y 0.000000 2.694530 0.000000 
#    z 0.000000 0.000000 3.531730 
# 
# 
# High freq. dielectric constant tensor:
#      x y z
#    x 1.674370 0.000000 0.000000 
#    y 0.000000 1.594210 0.000000 
#    z 0.000000 0.000000 1.676060 
# 
# From -- ./inp_files/35408.got.cif
#   From: 2010.03.12/outbox.cif.g09.slc.cpg/sg51_18_cif.got.tgz:35408.got - 2010.04.16 13:43:02.
