data_PCOD8206669
_publ_section_title
;
Structure prediction by ZEFSAII (Michael W. Deem and Ramdas Pophale) SiO2 
 PCOD8206669
Probable space group: P M M A
;
_chemical_formula_sum "Si O2"
_cell_formula_units_Z 60
_cell_length_a 9.000776
_cell_length_b 20.804192
_cell_length_c 18.814791
_cell_angle_alpha 90.000000
_cell_angle_beta 90.000000
_cell_angle_gamma 90.000000
_cell_volume 3523.142467
_symmetry_space_group_name_H-M "P M M A"
_symmetry_group_IT_number 51
_symmetry_cell_setting 'orthorhombic'
loop_
_space_group_symop_operation_xyz
x,y,z
1/2-x,-y,z
1/2+x,-y,-z
-x,y,-z
-x,-y,-z
1/2+x,y,-z
1/2-x,y,z
x,-y,z
loop_
_atom_site_type_symbol
_atom_site_label
_atom_site_fract_x
_atom_site_fract_y
_atom_site_fract_z
Si Si1 0.425171 0.500000 0.923468
Si Si2 0.423669 0.817651 0.200371
Si Si3 0.422593 0.132293 0.569810
Si Si4 0.923101 0.245981 0.074741
Si Si5 0.921947 0.074348 0.283385
Si Si6 0.574285 0.719670 0.427527
Si Si7 0.424513 0.690637 0.285879
Si Si8 0.077089 0.373339 0.840633
O O1 0.250000 0.500000 0.936155
O O2 0.476541 0.561624 0.878354
O O3 0.500000 0.500000 0.000000
O O4 0.250000 0.819506 0.184436
O O5 0.509528 0.807006 0.127088
O O6 0.476600 0.885756 0.230007
O O7 0.464089 0.761209 0.255761
O O8 0.500000 0.103809 0.500000
O O9 0.250000 0.126886 0.555707
O O10 0.473163 0.089600 0.636416
O O11 0.469903 0.205916 0.582991
O O12 0.750000 0.232895 0.066346
O O13 0.957273 0.316815 0.103998
O O14 0.000000 0.237740 0.000000
O O15 0.750000 0.094306 0.273456
O O16 0.948159 0.000000 0.266780
O O17 0.500000 0.693384 0.500000
O O18 0.750000 0.708729 0.430871
O O19 0.506665 0.680926 0.361017
O O20 0.250000 0.681230 0.296723
O O21 0.483920 0.636699 0.231435
O O22 0.250000 0.375515 0.819915
#
# Coordination Sequence:
#
# PCOD8206669 Si02
#       8
#     4   8   8   8   8   8   8   8
#     4  10  20  34  52  76 109 146 179 206 240 286
#     4  10  20  33  50  71  96 124 160 204 249 294
#     4   9  18  30  45  66  93 126 162 200 243 292
#     4  10  19  32  52  76 102 129 161 199 243 289
#     4  10  20  34  50  68  93 127 165 202 246 300
#     4  10  18  29  47  70  99 131 164 206 256 303
#     4  10  19  31  49  73  99 129 169 213 252 293
#     4   9  19  33  50  74 105 141 173 204 241 285
#
# _framework density 17.030249999999999
#
# number of rings (size 3 to 8) (size 9 to 14) (size 15 to 20)
#    0.000    2.267    1.333    2.000    0.000    3.733 
#    0.000    0.000    0.000    0.400    0.000    0.467 
#    0.000    0.000    0.000    0.000    0.000    0.000 
#
# Total GULP energy -744193.466605 kJ/mol
# GULP energy per Si atom -12403.224443 kJ/mol
# Density = 1.699149 g / cm^3
# Si number density = 17.030250 Si / 1000 Ang^3
#
#
#
# Elastic Constant Matrix: (Units=GPa)
#
#
# Indices 1 2 3 4 5 6 
#
# 1 78.9260 34.6402 69.2849 0.0000 0.0000 0.0000
# 2 34.6402 76.2140 52.1150 0.0000 0.0000 0.0000
# 3 69.2849 52.1150 144.7328 0.0000 0.0000 0.0000
# 4 0.0000 0.0000 0.0000 3.8686 0.0000 0.0000
# 5 0.0000 0.0000 0.0000 0.0000 38.0559 0.0000
# 6 0.0000 0.0000 0.0000 0.0000 0.0000 20.0180
#
#
#
# Elastic Compliance Matrix: (Units=1/GPa)
#
#
# Indices 1 2 3 4 5 6 
#
# 1 0.022664 -0.003824 -0.009473 0.000000 0.000000 0.000000
# 2 -0.003824 0.018052 -0.004670 0.000000 0.000000 0.000000
# 3 -0.009473 -0.004670 0.013125 0.000000 0.000000 0.000000
# 4 0.000000 0.000000 0.000000 0.258493 0.000000 0.000000
# 5 0.000000 0.000000 0.000000 0.000000 0.026277 0.000000
# 6 0.000000 0.000000 0.000000 0.000000 0.000000 0.049955
#
#
# Mechanical properties :
#
#
# Convention : Reuss Voigt Hill
#
# Bulk Modulus (GPa) = 55.83697 67.99479 61.91588
# Shear Modulus (GPa) = 11.61527 21.97733 16.79630
#
# Velocity S-wave (km/s) = 2.61442 3.59623 3.14389
# Velocity P-wave (km/s) = 6.47856 7.56680 7.04372
#
# Compressibility (1/GPa) = 0.01790928
#
# Stress axis : x y z
#
# Youngs Moduli (GPa) = 44.12341 55.39562 76.18865
#
# Poissons Ratio (x) = 0.21181 0.72170
# Poissons Ratio (y) = 0.16871 0.35578
# Poissons Ratio (z) = 0.41796 0.25868
#
# Static dielectric constant tensor:
#      x y z
#    x 3.185580 0.000000 0.000000 
#    y 0.000000 2.970550 0.000000 
#    z 0.000000 0.000000 3.300970 
# 
# 
# High freq. dielectric constant tensor:
#      x y z
#    x 1.664360 0.000000 0.000000 
#    y 0.000000 1.622230 0.000000 
#    z 0.000000 0.000000 1.661700 
# 
# From -- ./inp_files/28343.got.cif
#   From: 2010.03.12/outbox.cif.g09.slc.cpg/sg51_15_cif.got.tgz:28343.got - 2010.04.16 13:43:02.
