data_PCOD8206051
_publ_section_title
;
Structure prediction by ZEFSAII (Michael W. Deem and Ramdas Pophale) SiO2 
 PCOD8206051
Probable space group: P M M A
;
_chemical_formula_sum "Si O2"
_cell_formula_units_Z 64
_cell_length_a 14.530683
_cell_length_b 9.094765
_cell_length_c 27.916857
_cell_angle_alpha 90.000000
_cell_angle_beta 90.000000
_cell_angle_gamma 90.000000
_cell_volume 3689.300512
_symmetry_space_group_name_H-M "P M M A"
_symmetry_group_IT_number 51
_symmetry_cell_setting 'orthorhombic'
loop_
_space_group_symop_operation_xyz
x,y,z
1/2-x,-y,z
1/2+x,-y,-z
-x,y,-z
-x,-y,-z
1/2+x,y,-z
1/2-x,y,z
x,-y,z
loop_
_atom_site_type_symbol
_atom_site_label
_atom_site_fract_x
_atom_site_fract_y
_atom_site_fract_z
Si Si1 0.355762 0.669486 0.469079
Si Si2 0.644713 0.331182 0.975417
Si Si3 0.850782 0.325447 0.425422
Si Si4 0.855609 0.172810 0.073159
Si Si5 0.644713 0.830264 0.809915
Si Si6 0.522077 0.673233 0.885378
Si Si7 0.466180 0.674053 0.379935
Si Si8 0.646492 0.829608 0.698962
O O1 0.250000 0.692019 0.455609
O O2 0.384054 0.500000 0.470638
O O3 0.376784 0.738316 0.521631
O O4 0.414317 0.742506 0.426310
O O5 0.750000 0.307917 0.959382
O O6 0.625963 0.500000 0.989949
O O7 0.581207 0.281256 0.931707
O O8 0.619254 0.231304 0.020494
O O9 0.750000 0.265870 0.409412
O O10 0.845961 0.500000 0.430911
O O11 0.926507 0.280537 0.386034
O O12 0.750000 0.212240 0.086131
O O13 0.922030 0.250524 0.111658
O O14 0.872722 0.000000 0.074279
O O15 0.750000 0.787160 0.822087
O O16 0.574906 0.728351 0.838660
O O17 0.624376 0.801654 0.754342
O O18 0.627478 0.000000 0.823198
O O19 0.508459 0.500000 0.881390
O O20 0.452906 0.500000 0.376535
O O21 0.428237 0.741772 0.331336
O O22 0.750000 0.774505 0.687092
O O23 0.637933 0.000000 0.686333
#
# Coordination Sequence:
#
# PCOD8206051 Si02
#       8
#     8   8   8   8   8   8   8   8
#     4   8  13  21  35  60  93 122 149 186 231 276
#     4   9  18  32  48  70 103 136 162 193 239 292
#     4   8  14  24  38  60  93 128 156 186 228 274
#     4  10  21  35  50  70  98 134 174 209 237 272
#     4   9  19  36  55  73  95 124 156 190 232 288
#     4  11  21  32  51  77 102 129 161 199 246 293
#     4  10  17  25  44  71  92 115 155 200 233 268
#     4   9  19  35  51  68  94 125 151 181 232 291
#
# _framework density 17.347462
#
# number of rings (size 3 to 8) (size 9 to 14) (size 15 to 20)
#    0.000    2.750    0.000    3.750    0.000    6.750 
#    0.000    2.500    0.000    2.625    0.000    5.250 
#    0.000    0.000    0.000    0.000    0.000    0.000 
#
# Total GULP energy -793395.211868 kJ/mol
# GULP energy per Si atom -12396.800185 kJ/mol
# Density = 1.730798 g / cm^3
# Si number density = 17.347462 Si / 1000 Ang^3
#
#
#
# Elastic Constant Matrix: (Units=GPa)
#
#
# Indices 1 2 3 4 5 6 
#
# 1 109.8236 46.0507 68.6012 0.0000 0.0000 0.0000
# 2 46.0507 53.3096 41.0134 0.0000 0.0000 0.0000
# 3 68.6012 41.0134 82.9556 0.0000 0.0000 0.0000
# 4 0.0000 0.0000 0.0000 1.9088 0.0000 0.0000
# 5 0.0000 0.0000 0.0000 0.0000 32.6622 0.0000
# 6 0.0000 0.0000 0.0000 0.0000 0.0000 22.3741
#
#
#
# Elastic Compliance Matrix: (Units=1/GPa)
#
#
# Indices 1 2 3 4 5 6 
#
# 1 0.020561 -0.007553 -0.013269 0.000000 0.000000 0.000000
# 2 -0.007553 0.033048 -0.010093 0.000000 0.000000 0.000000
# 3 -0.013269 -0.010093 0.028018 0.000000 0.000000 0.000000
# 4 0.000000 0.000000 0.000000 0.523901 0.000000 0.000000
# 5 0.000000 0.000000 0.000000 0.000000 0.030616 0.000000
# 6 0.000000 0.000000 0.000000 0.000000 0.000000 0.044694
#
#
# Mechanical properties :
#
#
# Convention : Reuss Voigt Hill
#
# Bulk Modulus (GPa) = 50.51351 61.93548 56.22450
# Shear Modulus (GPa) = 6.67319 17.41725 12.04522
#
# Velocity S-wave (km/s) = 1.96345 3.17207 2.63791
# Velocity P-wave (km/s) = 5.85850 7.01402 6.46214
#
# Compressibility (1/GPa) = 0.01979668
#
# Stress axis : x y z
#
# Youngs Moduli (GPa) = 48.63555 30.25932 35.69189
#
# Poissons Ratio (x) = 0.22855 0.47360
# Poissons Ratio (y) = 0.36734 0.36023
# Poissons Ratio (z) = 0.64535 0.30540
#
# Static dielectric constant tensor:
#      x y z
#    x 3.427250 0.000000 0.000000 
#    y 0.000000 2.934220 0.000000 
#    z 0.000000 0.000000 3.100000 
# 
# 
# High freq. dielectric constant tensor:
#      x y z
#    x 1.677330 0.000000 0.000000 
#    y 0.000000 1.640660 0.000000 
#    z 0.000000 0.000000 1.651330 
# 
# From -- ./inp_files/37795.got.cif
#   From: 2010.03.12/outbox.cif.g09.slc.cpg/sg51_19_cif.got.tgz:37795.got - 2010.04.16 13:43:02.
