data_PCOD8206707
_publ_section_title
;
Structure prediction by ZEFSAII (Michael W. Deem and Ramdas Pophale) SiO2 
 PCOD8206707
Probable space group: P M M A
;
_chemical_formula_sum "Si O2"
_cell_formula_units_Z 64
_cell_length_a 27.760051
_cell_length_b 9.145743
_cell_length_c 14.622673
_cell_angle_alpha 90.000000
_cell_angle_beta 90.000000
_cell_angle_gamma 90.000000
_cell_volume 3712.496229
_symmetry_space_group_name_H-M "P M M A"
_symmetry_group_IT_number 51
_symmetry_cell_setting 'orthorhombic'
loop_
_space_group_symop_operation_xyz
x,y,z
1/2-x,-y,z
1/2+x,-y,-z
-x,y,-z
-x,-y,-z
1/2+x,y,-z
1/2-x,y,z
x,-y,z
loop_
_atom_site_type_symbol
_atom_site_label
_atom_site_fract_x
_atom_site_fract_y
_atom_site_fract_z
Si Si1 0.885236 0.168203 0.518681
Si Si2 0.881933 0.671276 0.972707
Si Si3 0.963520 0.671669 0.828658
Si Si4 0.573257 0.327630 0.357504
Si Si5 0.526416 0.831144 0.649987
Si Si6 0.805981 0.833395 0.858630
Si Si7 0.071119 0.671011 0.847453
Si Si8 0.303691 0.825866 0.345294
O O1 0.886787 0.261478 0.425478
O O2 0.936501 0.184024 0.567292
O O3 0.842579 0.233718 0.582133
O O4 0.874349 0.000000 0.494365
O O5 0.872019 0.500000 0.975684
O O6 0.926901 0.710086 0.908525
O O7 0.833850 0.744317 0.935622
O O8 0.894399 0.736970 0.073545
O O9 0.964282 0.500000 0.804301
O O10 0.948103 0.761001 0.738639
O O11 0.016417 0.728018 0.858500
O O12 0.568071 0.500000 0.373064
O O13 0.521734 0.254745 0.376936
O O14 0.590630 0.291740 0.253978
O O15 0.513631 0.000000 0.668618
O O16 0.750000 0.820460 0.882094
O O17 0.816131 0.768345 0.756903
O O18 0.823555 0.000000 0.863074
O O19 0.069719 0.500000 0.865316
O O20 0.250000 0.773200 0.374099
O O21 0.305260 0.000000 0.341242
#
# Coordination Sequence:
#
# PCOD8206707 Si02
#       8
#     8   8   8   8   8   8   8   8
#     4  10  19  30  47  70  93 119 154 192 229 273
#     4  10  18  29  49  72  93 121 158 195 229 271
#     4   9  17  29  46  69  96 125 156 190 228 273
#     4  10  20  33  48  65  90 125 161 195 231 272
#     4  10  19  30  45  67  97 128 156 190 230 274
#     4   9  18  33  51  71  97 125 151 184 229 279
#     4   8  16  31  47  64  90 125 160 189 222 268
#     4   8  15  30  51  71  92 121 152 180 220 278
#
# _framework density 17.239073999999999
#
# number of rings (size 3 to 8) (size 9 to 14) (size 15 to 20)
#    0.000    2.750    0.000    3.750    0.000    5.750 
#    0.000    3.750    0.000    5.625    0.000    3.500 
#    0.000    0.000    0.000    0.000    0.000    0.000 
#
# Total GULP energy -793403.741118 kJ/mol
# GULP energy per Si atom -12396.933455 kJ/mol
# Density = 1.719984 g / cm^3
# Si number density = 17.239074 Si / 1000 Ang^3
#
#
#
# Elastic Constant Matrix: (Units=GPa)
#
#
# Indices 1 2 3 4 5 6 
#
# 1 68.7366 29.5343 53.4655 0.0000 0.0000 0.0000
# 2 29.5343 50.4293 45.3411 0.0000 0.0000 0.0000
# 3 53.4655 45.3411 116.9711 0.0000 0.0000 0.0000
# 4 0.0000 0.0000 0.0000 22.8027 0.0000 0.0000
# 5 0.0000 0.0000 0.0000 0.0000 29.6146 0.0000
# 6 0.0000 0.0000 0.0000 0.0000 0.0000 22.0192
#
#
#
# Elastic Compliance Matrix: (Units=1/GPa)
#
#
# Indices 1 2 3 4 5 6 
#
# 1 0.023846 -0.006394 -0.008421 0.000000 0.000000 0.000000
# 2 -0.006394 0.032152 -0.009540 0.000000 0.000000 0.000000
# 3 -0.008421 -0.009540 0.016096 0.000000 0.000000 0.000000
# 4 0.000000 0.000000 0.000000 0.043854 0.000000 0.000000
# 5 0.000000 0.000000 0.000000 0.000000 0.033767 0.000000
# 6 0.000000 0.000000 0.000000 0.000000 0.000000 0.045415
#
#
# Mechanical properties :
#
#
# Convention : Reuss Voigt Hill
#
# Bulk Modulus (GPa) = 42.76546 54.75764 48.76155
# Shear Modulus (GPa) = 19.86993 22.07370 20.97182
#
# Velocity S-wave (km/s) = 3.39869 3.58221 3.49166
# Velocity P-wave (km/s) = 6.34528 6.99588 6.67851
#
# Compressibility (1/GPa) = 0.02338335
#
# Stress axis : x y z
#
# Youngs Moduli (GPa) = 41.93617 31.10191 62.12590
#
# Poissons Ratio (x) = 0.19887 0.52316
# Poissons Ratio (y) = 0.26815 0.59271
# Poissons Ratio (z) = 0.35314 0.29673
#
# Static dielectric constant tensor:
#      x y z
#    x 3.131040 0.000000 0.000000 
#    y 0.000000 3.032370 0.000000 
#    z 0.000000 0.000000 3.431950 
# 
# 
# High freq. dielectric constant tensor:
#      x y z
#    x 1.646390 0.000000 0.000000 
#    y 0.000000 1.642490 0.000000 
#    z 0.000000 0.000000 1.668710 
# 
# From -- ./inp_files/26619.got.cif
#   From: 2010.03.12/outbox.cif.g09.slc.cpg/sg51_14_cif.got.tgz:26619.got - 2010.04.16 13:43:02.
