data_PCOD8206453
_publ_section_title
;
Structure prediction by ZEFSAII (Michael W. Deem and Ramdas Pophale) SiO2 
 PCOD8206453
Probable space group: P M M A
;
_chemical_formula_sum "Si O2"
_cell_formula_units_Z 56
_cell_length_a 9.050936
_cell_length_b 21.526177
_cell_length_c 18.256945
_cell_angle_alpha 90.000000
_cell_angle_beta 90.000000
_cell_angle_gamma 90.000000
_cell_volume 3557.038028
_symmetry_space_group_name_H-M "P M M A"
_symmetry_group_IT_number 51
_symmetry_cell_setting 'orthorhombic'
loop_
_space_group_symop_operation_xyz
x,y,z
1/2-x,-y,z
1/2+x,-y,-z
-x,y,-z
-x,-y,-z
1/2+x,y,-z
1/2-x,y,z
x,-y,z
loop_
_atom_site_type_symbol
_atom_site_label
_atom_site_fract_x
_atom_site_fract_y
_atom_site_fract_z
Si Si1 0.077596 0.929957 0.679915
Si Si2 0.078526 0.794353 0.922921
Si Si3 0.584052 0.332538 0.164849
Si Si4 0.081652 0.754213 0.714766
Si Si5 0.917794 0.179062 0.425368
Si Si6 0.424130 0.858908 0.201538
Si Si7 0.922319 0.571037 0.925805
O O1 0.250000 0.918303 0.695858
O O2 0.022328 0.882428 0.616753
O O3 0.989280 0.918612 0.755683
O O4 0.046689 0.000000 0.653000
O O5 0.250000 0.809973 0.933739
O O6 0.054626 0.729158 0.881992
O O7 0.002226 0.850142 0.877261
O O8 0.000000 0.788865 0.000000
O O9 0.750000 0.357167 0.152530
O O10 0.557220 0.314749 0.251099
O O11 0.473520 0.387171 0.142260
O O12 0.250000 0.775807 0.736620
O O13 0.064255 0.759672 0.626811
O O14 0.960610 0.799168 0.749391
O O15 0.750000 0.167544 0.447203
O O16 0.000000 0.192427 0.500000
O O17 0.250000 0.866390 0.190428
O O18 0.750000 0.579604 0.937613
O O19 0.965178 0.500000 0.908491
O O20 0.000000 0.594313 0.000000
#
# Coordination Sequence:
#
# PCOD8206453 Si02
#       7
#     8   8   8   8   8   8   8
#     4   9  18  33  49  62  82 116 150 176 208 252
#     4  10  19  30  44  64  88 112 141 178 221 264
#     4   9  17  29  46  64  83 112 149 185 216 251
#     4   8  16  31  46  61  85 116 146 176 214 259
#     4   9  17  29  45  66  92 118 142 171 210 256
#     4  10  18  28  44  65  86 108 138 178 220 259
#     4  10  20  31  42  59  87 122 155 186 220 257
#
# _framework density 15.743436000000001
#
# number of rings (size 3 to 8) (size 9 to 14) (size 15 to 20)
#    0.000    2.714    0.000    4.286    0.000    7.714 
#    0.000    0.000    0.000    0.429    0.000    0.000 
#    0.000    0.571    0.000    1.286    0.000    2.286 
#
# Total GULP energy -694026.082218 kJ/mol
# GULP energy per Si atom -12393.322897 kJ/mol
# Density = 1.570760 g / cm^3
# Si number density = 15.743436 Si / 1000 Ang^3
#
#
#
# Elastic Constant Matrix: (Units=GPa)
#
#
# Indices 1 2 3 4 5 6 
#
# 1 79.2731 28.2856 45.2872 0.0000 0.0000 0.0000
# 2 28.2856 63.7133 46.1931 0.0000 0.0000 0.0000
# 3 45.2872 46.1931 96.3227 0.0000 0.0000 0.0000
# 4 0.0000 0.0000 0.0000 19.9046 0.0000 0.0000
# 5 0.0000 0.0000 0.0000 0.0000 27.9156 0.0000
# 6 0.0000 0.0000 0.0000 0.0000 0.0000 21.4458
#
#
#
# Elastic Compliance Matrix: (Units=1/GPa)
#
#
# Indices 1 2 3 4 5 6 
#
# 1 0.017561 -0.002775 -0.006926 0.000000 0.000000 0.000000
# 2 -0.002775 0.024500 -0.010445 0.000000 0.000000 0.000000
# 3 -0.006926 -0.010445 0.018647 0.000000 0.000000 0.000000
# 4 0.000000 0.000000 0.000000 0.050240 0.000000 0.000000
# 5 0.000000 0.000000 0.000000 0.000000 0.035822 0.000000
# 6 0.000000 0.000000 0.000000 0.000000 0.000000 0.046629
#
#
# Mechanical properties :
#
#
# Convention : Reuss Voigt Hill
#
# Bulk Modulus (GPa) = 48.97844 53.20453 51.09148
# Shear Modulus (GPa) = 20.79038 21.82273 21.30656
#
# Velocity S-wave (km/s) = 3.63791 3.72714 3.68280
# Velocity P-wave (km/s) = 6.98740 7.23811 7.11386
#
# Compressibility (1/GPa) = 0.02041715
#
# Stress axis : x y z
#
# Youngs Moduli (GPa) = 56.94307 40.81674 53.62819
#
# Poissons Ratio (x) = 0.11327 0.37142
# Poissons Ratio (y) = 0.15802 0.56012
# Poissons Ratio (z) = 0.39438 0.42631
#
# Static dielectric constant tensor:
#      x y z
#    x 2.981210 0.000000 0.000000 
#    y 0.000000 2.867650 0.000000 
#    z 0.000000 0.000000 3.052390 
# 
# 
# High freq. dielectric constant tensor:
#      x y z
#    x 1.609790 0.000000 0.000000 
#    y 0.000000 1.570110 0.000000 
#    z 0.000000 0.000000 1.591840 
# 
# From -- ./inp_files/28238.got.cif
#   From: 2010.03.12/outbox.cif.g09.slc.cpg/sg51_15_cif.got.tgz:28238.got - 2010.04.16 13:43:02.
