data_PCOD8206314
_publ_section_title
;
Structure prediction by ZEFSAII (Michael W. Deem and Ramdas Pophale) SiO2 
 PCOD8206314
Probable space group: P M M A
;
_chemical_formula_sum "Si O2"
_cell_formula_units_Z 64
_cell_length_a 25.985492
_cell_length_b 9.226920
_cell_length_c 18.364748
_cell_angle_alpha 90.000000
_cell_angle_beta 90.000000
_cell_angle_gamma 90.000000
_cell_volume 4403.243195
_symmetry_space_group_name_H-M "P M M A"
_symmetry_group_IT_number 51
_symmetry_cell_setting 'orthorhombic'
loop_
_space_group_symop_operation_xyz
x,y,z
1/2-x,-y,z
1/2+x,-y,-z
-x,y,-z
-x,-y,-z
1/2+x,y,-z
1/2-x,y,z
x,-y,z
loop_
_atom_site_type_symbol
_atom_site_label
_atom_site_fract_x
_atom_site_fract_y
_atom_site_fract_z
Si Si1 0.307959 0.834052 0.175404
Si Si2 0.946208 0.659623 0.041485
Si Si3 0.011164 0.671260 0.171982
Si Si4 0.952003 0.829182 0.459197
Si Si5 0.389540 0.832991 0.410755
Si Si6 0.096692 0.167943 0.081608
Si Si7 0.505978 0.166948 0.679556
Si Si8 0.809441 0.330902 0.680631
O O1 0.250000 0.792590 0.151519
O O2 0.344557 0.806958 0.106310
O O3 0.326818 0.738024 0.242940
O O4 0.311445 0.000000 0.201478
O O5 0.920567 0.500000 0.039975
O O6 0.959811 0.706787 0.124217
O O7 0.908384 0.771405 0.000797
O O8 0.000000 0.655099 0.000000
O O9 0.022075 0.500000 0.172253
O O10 0.060633 0.749747 0.138539
O O11 0.001304 0.727040 0.252654
O O12 0.900674 0.784927 0.504495
O O13 0.000000 0.754272 0.500000
O O14 0.957309 0.790897 0.373380
O O15 0.957837 0.000000 0.467846
O O16 0.440301 0.807855 0.361973
O O17 0.342838 0.734447 0.384404
O O18 0.372306 0.000000 0.406294
O O19 0.081181 0.000000 0.081553
O O20 0.501929 0.000000 0.705244
O O21 0.750000 0.295527 0.664394
O O22 0.820226 0.500000 0.685800
#
# Coordination Sequence:
#
# PCOD8206314 Si02
#       8
#     8   8   8   8   8   8   8   8
#     4   9  18  31  43  56  77 103 130 161 196 232
#     4   8  16  29  40  52  75 105 130 155 191 230
#     4  10  19  28  38  55  81 109 132 156 190 230
#     4   7  12  24  40  57  77 100 126 157 191 227
#     4   9  16  27  43  59  76 103 135 161 192 232
#     4  10  18  27  42  60  75  98 133 166 194 226
#     4   9  16  26  41  60  80 102 130 162 191 224
#     4  10  20  30  39  55  79 105 134 167 197 223
#
# _framework density 14.534741
#
# number of rings (size 3 to 8) (size 9 to 14) (size 15 to 20)
#    0.000    3.000    0.000    4.125    0.000    8.000 
#    0.000    0.625    0.000    2.250    0.000    0.000 
#    0.000    1.000    0.000    4.500    0.000    3.750 
#
# Total GULP energy -792997.319085 kJ/mol
# GULP energy per Si atom -12390.583111 kJ/mol
# Density = 1.450166 g / cm^3
# Si number density = 14.534741 Si / 1000 Ang^3
#
#
#
# Elastic Constant Matrix: (Units=GPa)
#
#
# Indices 1 2 3 4 5 6 
#
# 1 57.0859 37.5963 40.5399 0.0000 0.0000 0.0000
# 2 37.5963 72.1390 43.2136 0.0000 0.0000 0.0000
# 3 40.5399 43.2136 79.3873 0.0000 0.0000 0.0000
# 4 0.0000 0.0000 0.0000 14.1069 0.0000 0.0000
# 5 0.0000 0.0000 0.0000 0.0000 23.0755 0.0000
# 6 0.0000 0.0000 0.0000 0.0000 0.0000 14.4190
#
#
#
# Elastic Compliance Matrix: (Units=1/GPa)
#
#
# Indices 1 2 3 4 5 6 
#
# 1 0.031823 -0.010165 -0.010718 0.000000 0.000000 0.000000
# 2 -0.010165 0.023816 -0.007773 0.000000 0.000000 0.000000
# 3 -0.010718 -0.007773 0.022301 0.000000 0.000000 0.000000
# 4 0.000000 0.000000 0.000000 0.070887 0.000000 0.000000
# 5 0.000000 0.000000 0.000000 0.000000 0.043336 0.000000
# 6 0.000000 0.000000 0.000000 0.000000 0.000000 0.069353
#
#
# Mechanical properties :
#
#
# Convention : Reuss Voigt Hill
#
# Bulk Modulus (GPa) = 48.47653 50.14575 49.31114
# Shear Modulus (GPa) = 15.35134 16.13777 15.74455
#
# Velocity S-wave (km/s) = 3.25342 3.33572 3.29483
# Velocity P-wave (km/s) = 6.89475 7.02933 6.96237
#
# Compressibility (1/GPa) = 0.02062854
#
# Stress axis : x y z
#
# Youngs Moduli (GPa) = 31.42361 41.98840 44.84138
#
# Poissons Ratio (x) = 0.42681 0.48060
# Poissons Ratio (y) = 0.31942 0.34856
# Poissons Ratio (z) = 0.33679 0.32639
#
# Static dielectric constant tensor:
#      x y z
#    x 2.696800 0.000000 0.000000 
#    y 0.000000 2.808310 0.000000 
#    z 0.000000 0.000000 3.039470 
# 
# 
# High freq. dielectric constant tensor:
#      x y z
#    x 1.520200 0.000000 0.000000 
#    y 0.000000 1.554460 0.000000 
#    z 0.000000 0.000000 1.547220 
# 
# From -- ./inp_files/31016.got.cif
#   From: 2010.03.12/outbox.cif.g09.slc.cpg/sg51_16_cif.got.tgz:31016.got - 2010.04.16 13:43:02.
