data_PCOD8206494
_publ_section_title
;
Structure prediction by ZEFSAII (Michael W. Deem and Ramdas Pophale) SiO2 
 PCOD8206494
Probable space group: P M M A
;
_chemical_formula_sum "Si O2"
_cell_formula_units_Z 52
_cell_length_a 8.998301
_cell_length_b 18.566694
_cell_length_c 18.307708
_cell_angle_alpha 90.000000
_cell_angle_beta 90.000000
_cell_angle_gamma 90.000000
_cell_volume 3058.644997
_symmetry_space_group_name_H-M "P M M A"
_symmetry_group_IT_number 51
_symmetry_cell_setting 'orthorhombic'
loop_
_space_group_symop_operation_xyz
x,y,z
1/2-x,-y,z
1/2+x,-y,-z
-x,y,-z
-x,-y,-z
1/2+x,y,-z
1/2-x,y,z
x,-y,z
loop_
_atom_site_type_symbol
_atom_site_label
_atom_site_fract_x
_atom_site_fract_y
_atom_site_fract_z
Si Si1 0.080971 0.285394 0.926314
Si Si2 0.076889 0.580299 0.832981
Si Si3 0.924423 0.347419 0.707558
Si Si4 0.577814 0.717050 0.422862
Si Si5 0.924103 0.000000 0.578359
Si Si6 0.080948 0.219545 0.780474
Si Si7 0.582677 0.870900 0.348419
O O1 0.250000 0.297112 0.948248
O O2 0.019339 0.360335 0.891458
O O3 0.061987 0.218920 0.868462
O O4 0.000000 0.263606 0.000000
O O5 0.250000 0.594096 0.817015
O O6 0.048205 0.500000 0.864179
O O7 0.989979 0.587551 0.756193
O O8 0.750000 0.357901 0.696733
O O9 0.003006 0.343460 0.628588
O O10 0.958898 0.273903 0.750141
O O11 0.500000 0.713542 0.500000
O O12 0.750000 0.698689 0.431775
O O13 0.553136 0.796411 0.389997
O O14 0.000000 0.000000 0.500000
O O15 0.967269 0.929689 0.624138
O O16 0.750000 0.000000 0.565462
O O17 0.250000 0.246940 0.761601
O O18 0.058348 0.142909 0.739240
O O19 0.750000 0.898824 0.363414
#
# Coordination Sequence:
#
# PCOD8206494 Si02
#       7
#     8   8   8   8   4   8   8
#     4   9  17  29  46  71  99 124 152 188 233 279
#     4   9  18  33  49  63  87 126 163 191 225 275
#     4  10  18  28  45  68  91 115 149 194 237 278
#     4  10  19  31  48  69  92 119 153 193 235 277
#     4  12  24  34  46  68 101 134 161 192 231 276
#     4   8  16  32  50  66  89 123 160 194 229 274
#     4   9  18  33  51  68  90 124 162 195 227 270
#
# _framework density 17.000992
#
# number of rings (size 3 to 8) (size 9 to 14) (size 15 to 20)
#    0.000    2.615    0.000    4.846    0.000    7.385 
#    0.000    0.000    0.000    0.462    0.000    0.538 
#    0.000    0.000    0.000    0.000    0.000    0.000 
#
# Total GULP energy -644408.912644 kJ/mol
# GULP energy per Si atom -12392.479089 kJ/mol
# Density = 1.696230 g / cm^3
# Si number density = 17.000992 Si / 1000 Ang^3
#
#
#
# Elastic Constant Matrix: (Units=GPa)
#
#
# Indices 1 2 3 4 5 6 
#
# 1 92.1142 21.1172 51.4362 0.0000 0.0000 0.0000
# 2 21.1172 45.6765 37.5159 0.0000 0.0000 0.0000
# 3 51.4362 37.5159 136.7071 0.0000 0.0000 0.0000
# 4 0.0000 0.0000 0.0000 20.4170 0.0000 0.0000
# 5 0.0000 0.0000 0.0000 0.0000 31.7557 0.0000
# 6 0.0000 0.0000 0.0000 0.0000 0.0000 20.1926
#
#
#
# Elastic Compliance Matrix: (Units=1/GPa)
#
#
# Indices 1 2 3 4 5 6 
#
# 1 0.014010 -0.002773 -0.004511 0.000000 0.000000 0.000000
# 2 -0.002773 0.028812 -0.006864 0.000000 0.000000 0.000000
# 3 -0.004511 -0.006864 0.010896 0.000000 0.000000 0.000000
# 4 0.000000 0.000000 0.000000 0.048979 0.000000 0.000000
# 5 0.000000 0.000000 0.000000 0.000000 0.031490 0.000000
# 6 0.000000 0.000000 0.000000 0.000000 0.000000 0.049523
#
#
# Mechanical properties :
#
#
# Convention : Reuss Voigt Hill
#
# Bulk Modulus (GPa) = 39.33186 54.95958 47.14572
# Shear Modulus (GPa) = 22.67788 25.43494 24.05641
#
# Velocity S-wave (km/s) = 3.65624 3.87212 3.76573
# Velocity P-wave (km/s) = 6.40386 7.23799 6.83367
#
# Compressibility (1/GPa) = 0.02542468
#
# Stress axis : x y z
#
# Youngs Moduli (GPa) = 71.37563 34.70741 91.78042
#
# Poissons Ratio (x) = 0.09623 0.41398
# Poissons Ratio (y) = 0.19790 0.62995
# Poissons Ratio (z) = 0.32194 0.23822
#
# Static dielectric constant tensor:
#      x y z
#    x 3.132180 0.000000 0.000000 
#    y 0.000000 2.984160 0.000000 
#    z 0.000000 0.000000 3.336200 
# 
# 
# High freq. dielectric constant tensor:
#      x y z
#    x 1.656840 0.000000 0.000000 
#    y 0.000000 1.615310 0.000000 
#    z 0.000000 0.000000 1.655280 
# 
# From -- ./inp_files/27893.got.cif
#   From: 2010.03.12/outbox.cif.g09.slc.cpg/sg51_14_cif.got.tgz:27893.got - 2010.04.16 13:43:02.
