data_PCOD8206185
_publ_section_title
;
Structure prediction by ZEFSAII (Michael W. Deem and Ramdas Pophale) SiO2 
 PCOD8206185
Probable space group: P M M A
;
_chemical_formula_sum "Si O2"
_cell_formula_units_Z 56
_cell_length_a 19.644213
_cell_length_b 8.435061
_cell_length_c 17.716556
_cell_angle_alpha 90.000000
_cell_angle_beta 90.000000
_cell_angle_gamma 90.000000
_cell_volume 2935.635720
_symmetry_space_group_name_H-M "P M M A"
_symmetry_group_IT_number 51
_symmetry_cell_setting 'orthorhombic'
loop_
_space_group_symop_operation_xyz
x,y,z
1/2-x,-y,z
1/2+x,-y,-z
-x,y,-z
-x,-y,-z
1/2+x,y,-z
1/2-x,y,z
x,-y,z
loop_
_atom_site_type_symbol
_atom_site_label
_atom_site_fract_x
_atom_site_fract_y
_atom_site_fract_z
Si Si1 0.589773 0.184389 0.450414
Si Si2 0.673209 0.188710 0.890374
Si Si3 0.325514 0.188710 0.689009
Si Si4 0.570679 0.188458 0.188228
Si Si5 0.050222 0.683332 0.399714
Si Si6 0.925373 0.188700 0.020202
Si Si7 0.423720 0.187887 0.242656
O O1 0.648896 0.240417 0.393700
O O2 0.517998 0.213602 0.408711
O O3 0.597972 0.282813 0.527763
O O4 0.595600 0.000000 0.469966
O O5 0.750000 0.257505 0.891964
O O6 0.636113 0.244011 0.813518
O O7 0.674710 0.000000 0.893925
O O8 0.631244 0.255910 0.962335
O O9 0.250000 0.257351 0.701312
O O10 0.374731 0.260565 0.753284
O O11 0.326048 0.000000 0.695019
O O12 0.592209 0.246114 0.104776
O O13 0.495448 0.249793 0.209290
O O14 0.570377 0.000000 0.191531
O O15 0.030439 0.500000 0.397504
O O16 0.089642 0.733316 0.323949
O O17 0.926648 0.000000 0.014489
O O18 0.000000 0.255465 0.000000
O O19 0.423916 0.000000 0.252003
#
# Coordination Sequence:
#
# PCOD8206185 Si02
#       7
#     8   8   8   8   8   8   8
#     4  10  18  32  53  75 101 132 164 198 250 305
#     4   9  17  27  42  68 101 133 168 211 256 303
#     4   9  17  28  44  70 102 131 162 200 242 293
#     4   9  15  24  42  68  96 131 168 201 240 294
#     4  11  21  32  50  76 101 124 165 216 252 287
#     4   9  14  22  38  64  99 134 163 196 247 302
#     4  10  17  30  50  71  98 134 171 204 249 301
#
# _framework density 19.075938000000001
#
# number of rings (size 3 to 8) (size 9 to 14) (size 15 to 20)
#    0.000    2.429    2.857    2.571    0.000    0.571 
#    0.000    3.571    0.000    6.429    0.000    2.000 
#    0.000    0.000    0.000    0.000    0.000    0.000 
#
# Total GULP energy -694257.695588 kJ/mol
# GULP energy per Si atom -12397.458850 kJ/mol
# Density = 1.903252 g / cm^3
# Si number density = 19.075938 Si / 1000 Ang^3
#
#
#
# Elastic Constant Matrix: (Units=GPa)
#
#
# Indices 1 2 3 4 5 6 
#
# 1 151.4141 6.4845 87.0580 0.0000 0.0000 0.0000
# 2 6.4845 21.6999 17.4925 0.0000 0.0000 0.0000
# 3 87.0580 17.4925 176.1180 0.0000 0.0000 0.0000
# 4 0.0000 0.0000 0.0000 1.4572 0.0000 0.0000
# 5 0.0000 0.0000 0.0000 0.0000 32.4810 0.0000
# 6 0.0000 0.0000 0.0000 0.0000 0.0000 1.7646
#
#
#
# Elastic Compliance Matrix: (Units=1/GPa)
#
#
# Indices 1 2 3 4 5 6 
#
# 1 0.009247 0.001002 -0.004670 0.000000 0.000000 0.000000
# 2 0.001002 0.050202 -0.005481 0.000000 0.000000 0.000000
# 3 -0.004670 -0.005481 0.008531 0.000000 0.000000 0.000000
# 4 0.000000 0.000000 0.000000 0.686242 0.000000 0.000000
# 5 0.000000 0.000000 0.000000 0.000000 0.030787 0.000000
# 6 0.000000 0.000000 0.000000 0.000000 0.000000 0.566688
#
#
# Mechanical properties :
#
#
# Convention : Reuss Voigt Hill
#
# Bulk Modulus (GPa) = 20.12880 63.47800 41.80340
# Shear Modulus (GPa) = 3.60605 23.02037 13.31321
#
# Velocity S-wave (km/s) = 1.37640 3.47764 2.64466
# Velocity P-wave (km/s) = 3.61950 7.03377 5.59351
#
# Compressibility (1/GPa) = 0.04968005
#
# Stress axis : x y z
#
# Youngs Moduli (GPa) = 108.14568 19.91940 117.21900
#
# Poissons Ratio (x) = -0.01995 0.54745
# Poissons Ratio (y) = -0.10832 0.64251
# Poissons Ratio (z) = 0.50507 0.10918
#
# Static dielectric constant tensor:
#      x y z
#    x 3.551290 0.000000 0.000000 
#    y 0.000000 2.837410 0.000000 
#    z 0.000000 0.000000 3.803260 
# 
# 
# High freq. dielectric constant tensor:
#      x y z
#    x 1.722170 0.000000 0.000000 
#    y 0.000000 1.681990 0.000000 
#    z 0.000000 0.000000 1.760740 
# 
# From -- ./inp_files/30395.got.cif
#   From: 2010.03.12/outbox.cif.g09.slc.cpg/sg51_16_cif.got.tgz:30395.got - 2010.04.16 13:43:02.
