data_PCOD8206298
_publ_section_title
;
Structure prediction by ZEFSAII (Michael W. Deem and Ramdas Pophale) SiO2 
 PCOD8206298
Probable space group: P M M A
;
_chemical_formula_sum "Si O2"
_cell_formula_units_Z 56
_cell_length_a 9.121459
_cell_length_b 21.636595
_cell_length_c 17.911300
_cell_angle_alpha 90.000000
_cell_angle_beta 90.000000
_cell_angle_gamma 90.000000
_cell_volume 3534.926062
_symmetry_space_group_name_H-M "P M M A"
_symmetry_group_IT_number 51
_symmetry_cell_setting 'orthorhombic'
loop_
_space_group_symop_operation_xyz
x,y,z
1/2-x,-y,z
1/2+x,-y,-z
-x,y,-z
-x,-y,-z
1/2+x,y,-z
1/2-x,y,z
x,-y,z
loop_
_atom_site_type_symbol
_atom_site_label
_atom_site_fract_x
_atom_site_fract_y
_atom_site_fract_z
Si Si1 0.423043 0.318470 0.920947
Si Si2 0.578397 0.929734 0.424378
Si Si3 0.585155 0.635871 0.695327
Si Si4 0.581864 0.569666 0.183774
Si Si5 0.584741 0.754072 0.800701
Si Si6 0.917950 0.176875 0.317347
Si Si7 0.918911 0.293852 0.422818
O O1 0.250000 0.309340 0.930123
O O2 0.463215 0.383751 0.882248
O O3 0.487182 0.261556 0.873006
O O4 0.500000 0.318438 0.000000
O O5 0.500000 0.908376 0.500000
O O6 0.750000 0.921585 0.438734
O O7 0.527411 0.886415 0.356085
O O8 0.536303 0.000000 0.403575
O O9 0.750000 0.617259 0.672765
O O10 0.513221 0.580167 0.741829
O O11 0.583568 0.696122 0.746238
O O12 0.492140 0.648733 0.620806
O O13 0.750000 0.581364 0.206247
O O14 0.555314 0.500000 0.154862
O O15 0.750000 0.770839 0.825500
O O16 0.514877 0.811987 0.756573
O O17 0.750000 0.171904 0.291302
O O18 0.937554 0.231367 0.376588
O O19 0.750000 0.310041 0.437244
O O20 0.000000 0.283385 0.500000
#
# Coordination Sequence:
#
# PCOD8206298 Si02
#       7
#     8   8   8   8   8   8   8
#     4  10  19  31  47  67  93 120 143 171 209 252
#     4   9  17  28  41  59  87 123 159 192 225 260
#     4   9  17  29  44  62  83 107 138 176 216 257
#     4   9  18  32  48  65  86 114 145 173 204 246
#     4   9  17  29  45  64  85 111 144 180 217 257
#     4   9  17  28  42  61  86 116 149 184 221 259
#     4  10  18  27  41  61  84 109 139 178 222 264
#
# _framework density 15.841915
#
# number of rings (size 3 to 8) (size 9 to 14) (size 15 to 20)
#    0.000    2.714    0.000    2.143    0.000    5.714 
#    0.000    0.000    0.000    0.429    0.000    0.000 
#    0.000    0.571    0.000    1.571    0.000    2.286 
#
# Total GULP energy -694375.673491 kJ/mol
# GULP energy per Si atom -12399.565598 kJ/mol
# Density = 1.580586 g / cm^3
# Si number density = 15.841915 Si / 1000 Ang^3
#
#
#
# Elastic Constant Matrix: (Units=GPa)
#
#
# Indices 1 2 3 4 5 6 
#
# 1 104.0480 37.0324 54.5809 0.0000 0.0000 0.0000
# 2 37.0324 69.8209 47.2769 0.0000 0.0000 0.0000
# 3 54.5809 47.2769 69.0916 0.0000 0.0000 0.0000
# 4 0.0000 0.0000 0.0000 20.1694 0.0000 0.0000
# 5 0.0000 0.0000 0.0000 0.0000 32.7778 0.0000
# 6 0.0000 0.0000 0.0000 0.0000 0.0000 17.7066
#
#
#
# Elastic Compliance Matrix: (Units=1/GPa)
#
#
# Indices 1 2 3 4 5 6 
#
# 1 0.016413 0.000138 -0.013060 0.000000 0.000000 0.000000
# 2 0.000138 0.026688 -0.018371 0.000000 0.000000 0.000000
# 3 -0.013060 -0.018371 0.037362 0.000000 0.000000 0.000000
# 4 0.000000 0.000000 0.000000 0.049580 0.000000 0.000000
# 5 0.000000 0.000000 0.000000 0.000000 0.030508 0.000000
# 6 0.000000 0.000000 0.000000 0.000000 0.000000 0.056476
#
#
# Mechanical properties :
#
#
# Convention : Reuss Voigt Hill
#
# Bulk Modulus (GPa) = 55.93977 57.86009 56.89993
# Shear Modulus (GPa) = 17.50866 21.06878 19.28872
#
# Velocity S-wave (km/s) = 3.32808 3.65079 3.49316
# Velocity P-wave (km/s) = 7.08209 7.37385 7.22945
#
# Compressibility (1/GPa) = 0.01787637
#
# Stress axis : x y z
#
# Youngs Moduli (GPa) = 60.92753 37.46945 26.76546
#
# Poissons Ratio (x) = -0.00518 0.34957
# Poissons Ratio (y) = -0.00842 0.49171
# Poissons Ratio (z) = 0.79574 0.68835
#
# Static dielectric constant tensor:
#      x y z
#    x 3.193430 0.000000 0.000000 
#    y 0.000000 2.900700 0.000000 
#    z 0.000000 0.000000 2.913010 
# 
# 
# High freq. dielectric constant tensor:
#      x y z
#    x 1.621780 0.000000 0.000000 
#    y 0.000000 1.577260 0.000000 
#    z 0.000000 0.000000 1.591680 
# 
# From -- ./inp_files/28192.got.cif
#   From: 2010.03.12/outbox.cif.g09.slc.cpg/sg51_15_cif.got.tgz:28192.got - 2010.04.16 13:43:02.
