data_PCOD8206376
_publ_section_title
;
Structure prediction by ZEFSAII (Michael W. Deem and Ramdas Pophale) SiO2 
 PCOD8206376
Probable space group: P M M A
;
_chemical_formula_sum "Si O2"
_cell_formula_units_Z 64
_cell_length_a 8.796348
_cell_length_b 26.468293
_cell_length_c 18.527919
_cell_angle_alpha 90.000000
_cell_angle_beta 90.000000
_cell_angle_gamma 90.000000
_cell_volume 4313.750072
_symmetry_space_group_name_H-M "P M M A"
_symmetry_group_IT_number 51
_symmetry_cell_setting 'orthorhombic'
loop_
_space_group_symop_operation_xyz
x,y,z
1/2-x,-y,z
1/2+x,-y,-z
-x,y,-z
-x,-y,-z
1/2+x,y,-z
1/2-x,y,z
x,-y,z
loop_
_atom_site_type_symbol
_atom_site_label
_atom_site_fract_x
_atom_site_fract_y
_atom_site_fract_z
Si Si1 0.073010 0.058779 0.924760
Si Si2 0.926341 0.651258 0.658276
Si Si3 0.575059 0.285300 0.784743
Si Si4 0.569670 0.141025 0.830675
Si Si5 0.572110 0.804310 0.294191
Si Si6 0.423487 0.235991 0.075269
Si Si7 0.430662 0.751988 0.421665
Si Si8 0.069493 0.443904 0.423185
O O1 0.250000 0.071972 0.927415
O O2 0.993163 0.088213 0.859807
O O3 0.042654 0.000000 0.910746
O O4 0.000000 0.076397 0.000000
O O5 0.750000 0.647225 0.641787
O O6 0.955928 0.661051 0.744481
O O7 0.989044 0.698595 0.611827
O O8 0.997190 0.597598 0.633467
O O9 0.750000 0.267840 0.767316
O O10 0.457722 0.245995 0.751603
O O11 0.552441 0.284837 0.871478
O O12 0.750000 0.139563 0.824527
O O13 0.500312 0.149216 0.750769
O O14 0.514357 0.185774 0.884836
O O15 0.750000 0.813607 0.304815
O O16 0.492589 0.797982 0.372209
O O17 0.250000 0.227121 0.056635
O O18 0.500000 0.248031 0.000000
O O19 0.500000 0.758622 0.500000
O O20 0.250000 0.754785 0.425185
O O21 0.250000 0.441975 0.429766
O O22 0.016861 0.500000 0.398235
O O23 0.000000 0.429925 0.500000
#
# Coordination Sequence:
#
# PCOD8206376 Si02
#       8
#     8   8   8   8   8   8   8   8
#     4  10  20  32  45  63  87 114 145 180 214 246
#     4   8  14  25  40  54  73 103 134 164 198 237
#     4   8  15  28  40  52  74 103 132 161 197 238
#     4  10  19  31  45  60  81 111 143 171 204 244
#     4  10  18  28  42  60  81 105 134 168 205 242
#     4   9  17  26  38  56  77 101 128 160 196 236
#     4  10  18  28  41  58  81 108 138 168 201 241
#     4   9  16  25  37  54  75  99 128 162 198 234
#
# _framework density 14.83628
#
# number of rings (size 3 to 8) (size 9 to 14) (size 15 to 20)
#    0.000    2.750    0.000    4.500    0.000    4.250 
#    0.000    2.500    0.000    0.000    0.000    0.000 
#    0.000    1.000    0.000    2.250    0.000    3.750 
#
# Total GULP energy -793013.177932 kJ/mol
# GULP energy per Si atom -12390.830905 kJ/mol
# Density = 1.480251 g / cm^3
# Si number density = 14.836280 Si / 1000 Ang^3
#
#
#
# Elastic Constant Matrix: (Units=GPa)
#
#
# Indices 1 2 3 4 5 6 
#
# 1 59.7384 26.6708 36.2565 0.0000 0.0000 0.0000
# 2 26.6708 70.4658 50.2202 0.0000 0.0000 0.0000
# 3 36.2565 50.2202 112.0410 0.0000 0.0000 0.0000
# 4 0.0000 0.0000 0.0000 28.5042 0.0000 0.0000
# 5 0.0000 0.0000 0.0000 0.0000 25.5197 0.0000
# 6 0.0000 0.0000 0.0000 0.0000 0.0000 13.7105
#
#
#
# Elastic Compliance Matrix: (Units=1/GPa)
#
#
# Indices 1 2 3 4 5 6 
#
# 1 0.021862 -0.004750 -0.004945 0.000000 0.000000 0.000000
# 2 -0.004750 0.021885 -0.008272 0.000000 0.000000 0.000000
# 3 -0.004945 -0.008272 0.014234 0.000000 0.000000 0.000000
# 4 0.000000 0.000000 0.000000 0.035083 0.000000 0.000000
# 5 0.000000 0.000000 0.000000 0.000000 0.039185 0.000000
# 6 0.000000 0.000000 0.000000 0.000000 0.000000 0.072937
#
#
# Mechanical properties :
#
#
# Convention : Reuss Voigt Hill
#
# Bulk Modulus (GPa) = 45.36247 52.06000 48.71124
# Shear Modulus (GPa) = 20.12331 22.15341 21.13836
#
# Velocity S-wave (km/s) = 3.68687 3.86838 3.77871
# Velocity P-wave (km/s) = 6.98325 7.42417 7.20708
#
# Compressibility (1/GPa) = 0.02204466
#
# Stress axis : x y z
#
# Youngs Moduli (GPa) = 45.74193 45.69403 70.25677
#
# Poissons Ratio (x) = 0.21705 0.34745
# Poissons Ratio (y) = 0.21728 0.58118
# Poissons Ratio (z) = 0.22621 0.37799
#
# Static dielectric constant tensor:
#      x y z
#    x 2.803960 0.000000 0.000000 
#    y 0.000000 2.887170 0.000000 
#    z 0.000000 0.000000 3.001460 
# 
# 
# High freq. dielectric constant tensor:
#      x y z
#    x 1.567700 0.000000 0.000000 
#    y 0.000000 1.533430 0.000000 
#    z 0.000000 0.000000 1.559880 
# 
# From -- ./inp_files/28695.got.cif
#   From: 2010.03.12/outbox.cif.g09.slc.cpg/sg51_15_cif.got.tgz:28695.got - 2010.04.16 13:43:02.
