data_PCOD8206198
_publ_section_title
;
Structure prediction by ZEFSAII (Michael W. Deem and Ramdas Pophale) SiO2 
 PCOD8206198
Probable space group: P M M A
;
_chemical_formula_sum "Si O2"
_cell_formula_units_Z 64
_cell_length_a 9.134079
_cell_length_b 20.608480
_cell_length_c 19.754711
_cell_angle_alpha 90.000000
_cell_angle_beta 90.000000
_cell_angle_gamma 90.000000
_cell_volume 3718.616613
_symmetry_space_group_name_H-M "P M M A"
_symmetry_group_IT_number 51
_symmetry_cell_setting 'orthorhombic'
loop_
_space_group_symop_operation_xyz
x,y,z
1/2-x,-y,z
1/2+x,-y,-z
-x,y,-z
-x,-y,-z
1/2+x,y,-z
1/2-x,y,z
x,-y,z
loop_
_atom_site_type_symbol
_atom_site_label
_atom_site_fract_x
_atom_site_fract_y
_atom_site_fract_z
Si Si1 0.081611 0.623498 0.065878
Si Si2 0.420269 0.879593 0.567915
Si Si3 0.924361 0.310896 0.700623
Si Si4 0.918132 0.073076 0.696197
Si Si5 0.576353 0.427786 0.793174
Si Si6 0.418353 0.776270 0.066102
Si Si7 0.921361 0.271645 0.431468
Si Si8 0.576744 0.810773 0.788709
O O1 0.250000 0.605165 0.056931
O O2 0.013849 0.589853 0.132612
O O3 0.058400 0.699891 0.073928
O O4 0.000000 0.596201 0.000000
O O5 0.500000 0.903066 0.500000
O O6 0.250000 0.895149 0.560242
O O7 0.484528 0.920263 0.629676
O O8 0.450611 0.804128 0.581506
O O9 0.750000 0.308425 0.689442
O O10 0.977982 0.376439 0.737591
O O11 0.980798 0.249713 0.744513
O O12 0.005215 0.311458 0.628968
O O13 0.750000 0.089444 0.677355
O O14 0.974285 0.122032 0.754344
O O15 0.933672 0.000000 0.724284
O O16 0.750000 0.422993 0.797546
O O17 0.524025 0.500000 0.772416
O O18 0.250000 0.794729 0.056755
O O19 0.485033 0.808431 0.134519
O O20 0.500000 0.803814 0.000000
O O21 0.750000 0.287535 0.436395
O O22 0.000000 0.294425 0.500000
O O23 0.750000 0.804622 0.793548
#
# Coordination Sequence:
#
# PCOD8206198 Si02
#       8
#     8   8   8   8   8   8   8   8
#     4   9  16  27  43  65  94 128 163 197 235 281
#     4  10  20  33  50  72 100 133 164 196 235 283
#     4  10  17  30  53  74  95 128 163 201 244 284
#     4  10  20  33  50  72  97 127 163 203 244 286
#     4   9  17  29  47  72  99 129 166 201 238 290
#     4   9  16  28  46  69  94 123 159 200 243 286
#     4  10  20  33  51  77 103 127 159 200 243 287
#     4   9  16  29  50  71  93 124 163 200 239 288
#
# _framework density 17.210699999999999
#
# number of rings (size 3 to 8) (size 9 to 14) (size 15 to 20)
#    0.000    2.500    2.500    0.750    0.000    1.750 
#    0.000    1.875    0.000    1.875    0.000    0.000 
#    0.000    0.000    0.000    0.000    0.000    0.000 
#
# Total GULP energy -793553.937224 kJ/mol
# GULP energy per Si atom -12399.280269 kJ/mol
# Density = 1.717153 g / cm^3
# Si number density = 17.210700 Si / 1000 Ang^3
#
#
#
# Elastic Constant Matrix: (Units=GPa)
#
#
# Indices 1 2 3 4 5 6 
#
# 1 52.5423 31.4532 46.4236 0.0000 0.0000 0.0000
# 2 31.4532 92.4326 68.0339 0.0000 0.0000 0.0000
# 3 46.4236 68.0339 158.2872 0.0000 0.0000 0.0000
# 4 0.0000 0.0000 0.0000 23.8129 0.0000 0.0000
# 5 0.0000 0.0000 0.0000 0.0000 30.1654 0.0000
# 6 0.0000 0.0000 0.0000 0.0000 0.0000 11.0496
#
#
#
# Elastic Compliance Matrix: (Units=1/GPa)
#
#
# Indices 1 2 3 4 5 6 
#
# 1 0.027149 -0.004941 -0.005839 0.000000 0.000000 0.000000
# 2 -0.004941 0.016724 -0.005739 0.000000 0.000000 0.000000
# 3 -0.005839 -0.005739 0.010497 0.000000 0.000000 0.000000
# 4 0.000000 0.000000 0.000000 0.041994 0.000000 0.000000
# 5 0.000000 0.000000 0.000000 0.000000 0.033151 0.000000
# 6 0.000000 0.000000 0.000000 0.000000 0.000000 0.090501
#
#
# Mechanical properties :
#
#
# Convention : Reuss Voigt Hill
#
# Bulk Modulus (GPa) = 46.87702 66.12037 56.49869
# Shear Modulus (GPa) = 19.21864 23.49566 21.35715
#
# Velocity S-wave (km/s) = 3.34528 3.69884 3.52650
# Velocity P-wave (km/s) = 6.49750 7.53283 7.03424
#
# Compressibility (1/GPa) = 0.02133242
#
# Stress axis : x y z
#
# Youngs Moduli (GPa) = 36.83408 59.79347 95.26626
#
# Poissons Ratio (x) = 0.29542 0.55624
# Poissons Ratio (y) = 0.18198 0.54676
# Poissons Ratio (z) = 0.21507 0.34317
#
# Static dielectric constant tensor:
#      x y z
#    x 3.002190 0.000000 0.000000 
#    y 0.000000 3.101180 0.000000 
#    z 0.000000 0.000000 3.373340 
# 
# 
# High freq. dielectric constant tensor:
#      x y z
#    x 1.637570 0.000000 0.000000 
#    y 0.000000 1.641190 0.000000 
#    z 0.000000 0.000000 1.671790 
# 
# From -- ./inp_files/28445.got.cif
#   From: 2010.03.12/outbox.cif.g09.slc.cpg/sg51_15_cif.got.tgz:28445.got - 2010.04.16 13:43:02.
