data_PCOD8206003
_publ_section_title
;
Structure prediction by ZEFSAII (Michael W. Deem and Ramdas Pophale) SiO2 
 PCOD8206003
Probable space group: P M M A
;
_chemical_formula_sum "Si O2"
_cell_formula_units_Z 64
_cell_length_a 23.299362
_cell_length_b 9.042710
_cell_length_c 20.180874
_cell_angle_alpha 90.000000
_cell_angle_beta 90.000000
_cell_angle_gamma 90.000000
_cell_volume 4251.895705
_symmetry_space_group_name_H-M "P M M A"
_symmetry_group_IT_number 51
_symmetry_cell_setting 'orthorhombic'
loop_
_space_group_symop_operation_xyz
x,y,z
1/2-x,-y,z
1/2+x,-y,-z
-x,y,-z
-x,-y,-z
1/2+x,y,-z
1/2-x,y,z
x,-y,z
loop_
_atom_site_type_symbol
_atom_site_label
_atom_site_fract_x
_atom_site_fract_y
_atom_site_fract_z
Si Si1 0.021323 0.829740 0.294023
Si Si2 0.936164 0.335860 0.971187
Si Si3 0.685585 0.325155 0.216856
Si Si4 0.928714 0.172555 0.459146
Si Si5 0.891382 0.830648 0.319226
Si Si6 0.952609 0.323853 0.581585
Si Si7 0.520422 0.829950 0.854273
Si Si8 0.904362 0.674829 0.109965
O O1 0.954768 0.779318 0.296513
O O2 0.060595 0.730220 0.343339
O O3 0.045277 0.807546 0.219715
O O4 0.025614 0.000000 0.317028
O O5 0.918011 0.500000 0.948509
O O6 0.932776 0.231424 0.906789
O O7 0.895962 0.279986 0.032236
O O8 0.000000 0.335794 0.000000
O O9 0.750000 0.261757 0.211314
O O10 0.686190 0.500000 0.221592
O O11 0.656378 0.266626 0.283546
O O12 0.651011 0.273031 0.151419
O O13 0.883500 0.190372 0.398892
O O14 0.907990 0.254154 0.527234
O O15 0.986107 0.254826 0.435924
O O16 0.940914 0.000000 0.472797
O O17 0.881728 0.000000 0.298491
O O18 0.952113 0.500000 0.577234
O O19 0.459915 0.748816 0.858404
O O20 0.509448 0.000000 0.870543
O O21 0.914440 0.500000 0.114480
#
# Coordination Sequence:
#
# PCOD8206003 Si02
#       8
#     8   8   8   8   8   8   8   8
#     4   9  17  27  37  52  78 106 129 156 194 233
#     4   8  15  26  38  53  74  99 126 155 194 239
#     4  10  20  31  43  59  77 100 133 172 209 239
#     4   9  16  27  39  50  72 100 126 158 195 230
#     4   9  17  29  42  55  71  99 133 163 198 238
#     4  10  17  23  35  56  75  96 130 161 185 220
#     4  10  17  25  39  58  77  99 131 164 193 231
#     4   9  17  29  41  53  74 102 128 160 202 243
#
# _framework density 15.052109
#
# number of rings (size 3 to 8) (size 9 to 14) (size 15 to 20)
#    0.000    2.750    1.250    4.125    0.000    6.000 
#    0.000    0.000    0.000    0.000    0.000    0.000 
#    0.000    0.000    0.000    1.125    0.000   16.750 
#
# Total GULP energy -793007.678325 kJ/mol
# GULP energy per Si atom -12390.744974 kJ/mol
# Density = 1.501785 g / cm^3
# Si number density = 15.052109 Si / 1000 Ang^3
#
#
#
# Elastic Constant Matrix: (Units=GPa)
#
#
# Indices 1 2 3 4 5 6 
#
# 1 37.4536 16.7293 37.9654 0.0000 0.0000 0.0000
# 2 16.7293 68.3017 52.1736 0.0000 0.0000 0.0000
# 3 37.9654 52.1736 132.4425 0.0000 0.0000 0.0000
# 4 0.0000 0.0000 0.0000 29.3367 0.0000 0.0000
# 5 0.0000 0.0000 0.0000 0.0000 13.1291 0.0000
# 6 0.0000 0.0000 0.0000 0.0000 0.0000 9.8828
#
#
#
# Elastic Compliance Matrix: (Units=1/GPa)
#
#
# Indices 1 2 3 4 5 6 
#
# 1 0.037729 -0.001401 -0.010263 0.000000 0.000000 0.000000
# 2 -0.001401 0.020995 -0.007869 0.000000 0.000000 0.000000
# 3 -0.010263 -0.007869 0.013592 0.000000 0.000000 0.000000
# 4 0.000000 0.000000 0.000000 0.034087 0.000000 0.000000
# 5 0.000000 0.000000 0.000000 0.000000 0.076167 0.000000
# 6 0.000000 0.000000 0.000000 0.000000 0.000000 0.101186
#
#
# Mechanical properties :
#
#
# Convention : Reuss Voigt Hill
#
# Bulk Modulus (GPa) = 30.07572 50.21495 40.14534
# Shear Modulus (GPa) = 14.97426 19.22501 17.09964
#
# Velocity S-wave (km/s) = 3.15751 3.57771 3.37416
# Velocity P-wave (km/s) = 5.77214 7.10633 6.47370
#
# Compressibility (1/GPa) = 0.03324941
#
# Stress axis : x y z
#
# Youngs Moduli (GPa) = 26.50473 47.63033 73.57099
#
# Poissons Ratio (x) = 0.06675 0.75508
# Poissons Ratio (y) = 0.03714 0.57893
# Poissons Ratio (z) = 0.27202 0.37480
#
# Static dielectric constant tensor:
#      x y z
#    x 2.476490 0.000000 0.000000 
#    y 0.000000 2.913060 0.000000 
#    z 0.000000 0.000000 3.664930 
# 
# 
# High freq. dielectric constant tensor:
#      x y z
#    x 1.490230 0.000000 0.000000 
#    y 0.000000 1.582220 0.000000 
#    z 0.000000 0.000000 1.598050 
# 
# From -- ./inp_files/34224.got.cif
#   From: 2010.03.12/outbox.cif.g09.slc.cpg/sg51_18_cif.got.tgz:34224.got - 2010.04.16 13:43:02.
