data_PCOD8206628
_publ_section_title
;
Structure prediction by ZEFSAII (Michael W. Deem and Ramdas Pophale) SiO2 
 PCOD8206628
Probable space group: P M M A
;
_chemical_formula_sum "Si O2"
_cell_formula_units_Z 64
_cell_length_a 23.222137
_cell_length_b 9.147781
_cell_length_c 17.136313
_cell_angle_alpha 90.000000
_cell_angle_beta 90.000000
_cell_angle_gamma 90.000000
_cell_volume 3640.284512
_symmetry_space_group_name_H-M "P M M A"
_symmetry_group_IT_number 51
_symmetry_cell_setting 'orthorhombic'
loop_
_space_group_symop_operation_xyz
x,y,z
1/2-x,-y,z
1/2+x,-y,-z
-x,y,-z
-x,-y,-z
1/2+x,y,-z
1/2-x,y,z
x,-y,z
loop_
_atom_site_type_symbol
_atom_site_label
_atom_site_fract_x
_atom_site_fract_y
_atom_site_fract_z
Si Si1 0.989344 0.672183 0.587194
Si Si2 0.814811 0.667158 0.772386
Si Si3 0.184579 0.828569 0.952931
Si Si4 0.391663 0.329965 0.077526
Si Si5 0.481551 0.834862 0.170177
Si Si6 0.599997 0.163178 0.680923
Si Si7 0.313672 0.333293 0.793655
Si Si8 0.932674 0.669001 0.271261
O O1 0.980356 0.500000 0.588728
O O2 0.929985 0.745340 0.613042
O O3 0.000000 0.729502 0.500000
O O4 0.041730 0.719946 0.644949
O O5 0.750000 0.716824 0.787687
O O6 0.819723 0.500000 0.745957
O O7 0.848023 0.694695 0.852071
O O8 0.839249 0.763558 0.701636
O O9 0.250000 0.794030 0.981406
O O10 0.177195 0.777304 0.864396
O O11 0.171631 0.000000 0.958354
O O12 0.137198 0.743345 0.002726
O O13 0.403378 0.500000 0.060687
O O14 0.452517 0.252479 0.098124
O O15 0.438536 0.834464 0.242332
O O16 0.539965 0.756562 0.198453
O O17 0.495584 0.000000 0.143093
O O18 0.610790 0.000000 0.650484
O O19 0.250000 0.308122 0.755958
O O20 0.318639 0.500000 0.824782
O O21 0.363627 0.304027 0.729352
O O22 0.948468 0.500000 0.257953
#
# Coordination Sequence:
#
# PCOD8206628 Si02
#       8
#     8   8   8   8   8   8   8   8
#     4   9  17  30  50  74  98 123 150 184 228 278
#     4   9  17  28  43  64  90 123 161 195 228 270
#     4  10  20  32  46  66  93 124 159 201 246 288
#     4  10  18  29  46  67  93 125 162 203 243 282
#     4   9  17  29  45  67  95 125 156 192 237 283
#     4   9  17  28  43  65  93 123 154 189 227 269
#     4   9  18  33  52  71  91 118 154 196 239 282
#     4   9  17  31  51  73  95 121 155 192 232 282
#
# _framework density 17.581042
#
# number of rings (size 3 to 8) (size 9 to 14) (size 15 to 20)
#    0.000    2.750    0.000    1.875    0.000    5.750 
#    0.000    0.625    0.000    4.500    0.000    3.500 
#    0.000    0.000    0.000    0.000    0.000    0.000 
#
# Total GULP energy -793409.031512 kJ/mol
# GULP energy per Si atom -12397.016117 kJ/mol
# Density = 1.754103 g / cm^3
# Si number density = 17.581042 Si / 1000 Ang^3
#
#
#
# Elastic Constant Matrix: (Units=GPa)
#
#
# Indices 1 2 3 4 5 6 
#
# 1 95.6224 32.0194 32.4100 0.0000 0.0000 0.0000
# 2 32.0194 68.6258 27.2868 0.0000 0.0000 0.0000
# 3 32.4100 27.2868 58.4628 0.0000 0.0000 0.0000
# 4 0.0000 0.0000 0.0000 16.7205 0.0000 0.0000
# 5 0.0000 0.0000 0.0000 0.0000 22.2275 0.0000
# 6 0.0000 0.0000 0.0000 0.0000 0.0000 17.4838
#
#
#
# Elastic Compliance Matrix: (Units=1/GPa)
#
#
# Indices 1 2 3 4 5 6 
#
# 1 0.013784 -0.004166 -0.005697 0.000000 0.000000 0.000000
# 2 -0.004166 0.019151 -0.006629 0.000000 0.000000 0.000000
# 3 -0.005697 -0.006629 0.023357 0.000000 0.000000 0.000000
# 4 0.000000 0.000000 0.000000 0.059807 0.000000 0.000000
# 5 0.000000 0.000000 0.000000 0.000000 0.044989 0.000000
# 6 0.000000 0.000000 0.000000 0.000000 0.000000 0.057196
#
#
# Mechanical properties :
#
#
# Convention : Reuss Voigt Hill
#
# Bulk Modulus (GPa) = 42.90333 45.12701 44.01517
# Shear Modulus (GPa) = 19.30223 20.01935 19.66079
#
# Velocity S-wave (km/s) = 3.31705 3.37811 3.34772
# Velocity P-wave (km/s) = 6.25513 6.39838 6.32716
#
# Compressibility (1/GPa) = 0.02330821
#
# Stress axis : x y z
#
# Youngs Moduli (GPa) = 72.54971 52.21541 42.81353
#
# Poissons Ratio (x) = 0.21753 0.24390
# Poissons Ratio (y) = 0.30224 0.28382
# Poissons Ratio (z) = 0.41330 0.34614
#
# Static dielectric constant tensor:
#      x y z
#    x 3.390270 0.000000 0.000000 
#    y 0.000000 3.375430 0.000000 
#    z 0.000000 0.000000 3.007340 
# 
# 
# High freq. dielectric constant tensor:
#      x y z
#    x 1.677350 0.000000 0.000000 
#    y 0.000000 1.686160 0.000000 
#    z 0.000000 0.000000 1.641010 
# 
# From -- ./inp_files/30793.got.cif
#   From: 2010.03.12/outbox.cif.g09.slc.cpg/sg51_16_cif.got.tgz:30793.got - 2010.04.16 13:43:02.
