data_PCOD8206752
_publ_section_title
;
Structure prediction by ZEFSAII (Michael W. Deem and Ramdas Pophale) SiO2 
 PCOD8206752
Probable space group: P M M A
;
_chemical_formula_sum "Si O2"
_cell_formula_units_Z 60
_cell_length_a 8.863485
_cell_length_b 17.833545
_cell_length_c 23.150520
_cell_angle_alpha 90.000000
_cell_angle_beta 90.000000
_cell_angle_gamma 90.000000
_cell_volume 3659.341547
_symmetry_space_group_name_H-M "P M M A"
_symmetry_group_IT_number 51
_symmetry_cell_setting 'orthorhombic'
loop_
_space_group_symop_operation_xyz
x,y,z
1/2-x,-y,z
1/2+x,-y,-z
-x,y,-z
-x,-y,-z
1/2+x,y,-z
1/2-x,y,z
x,-y,z
loop_
_atom_site_type_symbol
_atom_site_label
_atom_site_fract_x
_atom_site_fract_y
_atom_site_fract_z
Si Si1 0.431133 0.000000 0.936689
Si Si2 0.427712 0.583396 0.350124
Si Si3 0.429875 0.084154 0.743156
Si Si4 0.083832 0.321499 0.737102
Si Si5 0.572380 0.290708 0.562117
Si Si6 0.929024 0.790139 0.168572
Si Si7 0.070531 0.150593 0.062572
Si Si8 0.917553 0.188491 0.354022
O O1 0.496919 0.924519 0.908516
O O2 0.250000 0.000000 0.935409
O O3 0.500000 0.000000 0.000000
O O4 0.250000 0.581167 0.351441
O O5 0.494420 0.500000 0.360192
O O6 0.475255 0.613612 0.286908
O O7 0.487814 0.638325 0.400570
O O8 0.250000 0.084341 0.744250
O O9 0.487632 0.138239 0.794321
O O10 0.481575 0.115333 0.679888
O O11 0.494157 0.000000 0.752066
O O12 0.250000 0.356851 0.743956
O O13 0.028968 0.287209 0.798245
O O14 0.090483 0.253142 0.693122
O O15 0.500000 0.297026 0.500000
O O16 0.750000 0.291905 0.555617
O O17 0.524784 0.212945 0.593132
O O18 0.750000 0.795174 0.157418
O O19 0.020508 0.785811 0.108106
O O20 0.250000 0.143639 0.056408
O O21 0.000000 0.168363 0.000000
O O22 0.750000 0.173278 0.379180
#
# Coordination Sequence:
#
# PCOD8206752 Si02
#       8
#     4   8   8   8   8   8   8   8
#     4  10  18  30  44  56  76 110 148 186 227 268
#     4   9  18  31  46  66  93 121 147 177 215 259
#     4   8  14  25  44  68  87 108 141 179 223 270
#     4   8  15  28  45  65  89 116 148 181 215 259
#     4  10  19  30  45  64  87 116 149 180 214 255
#     4   9  17  29  45  66  90 117 149 185 222 265
#     4  11  21  32  44  61  86 117 155 192 230 272
#     4   8  14  27  45  63  85 111 142 178 215 260
#
# _framework density 16.396393
#
# number of rings (size 3 to 8) (size 9 to 14) (size 15 to 20)
#    0.000    2.933    0.000    4.600    0.933    1.600 
#    0.000    2.000    0.000    1.600    0.000    0.000 
#    0.000    0.533    0.000    1.733    0.000    2.533 
#
# Total GULP energy -743459.123444 kJ/mol
# GULP energy per Si atom -12390.985391 kJ/mol
# Density = 1.635907 g / cm^3
# Si number density = 16.396393 Si / 1000 Ang^3
#
#
#
# Elastic Constant Matrix: (Units=GPa)
#
#
# Indices 1 2 3 4 5 6 
#
# 1 62.5364 13.6915 37.4322 0.0000 0.0000 0.0000
# 2 13.6915 44.8903 40.2781 0.0000 0.0000 0.0000
# 3 37.4322 40.2781 106.7962 0.0000 0.0000 0.0000
# 4 0.0000 0.0000 0.0000 18.4334 0.0000 0.0000
# 5 0.0000 0.0000 0.0000 0.0000 25.1004 0.0000
# 6 0.0000 0.0000 0.0000 0.0000 0.0000 17.5373
#
#
#
# Elastic Compliance Matrix: (Units=1/GPa)
#
#
# Indices 1 2 3 4 5 6 
#
# 1 0.020239 0.000290 -0.007203 0.000000 0.000000 0.000000
# 2 0.000290 0.033675 -0.012802 0.000000 0.000000 0.000000
# 3 -0.007203 -0.012802 0.016717 0.000000 0.000000 0.000000
# 4 0.000000 0.000000 0.000000 0.054249 0.000000 0.000000
# 5 0.000000 0.000000 0.000000 0.000000 0.039840 0.000000
# 6 0.000000 0.000000 0.000000 0.000000 0.000000 0.057021
#
#
# Mechanical properties :
#
#
# Convention : Reuss Voigt Hill
#
# Bulk Modulus (GPa) = 32.05118 44.11403 38.08261
# Shear Modulus (GPa) = 18.41141 20.40231 19.40686
#
# Velocity S-wave (km/s) = 3.35460 3.53131 3.44409
# Velocity P-wave (km/s) = 5.88171 6.60227 6.25238
#
# Compressibility (1/GPa) = 0.03120010
#
# Stress axis : x y z
#
# Youngs Moduli (GPa) = 49.41032 29.69580 59.82056
#
# Poissons Ratio (x) = -0.00862 0.43090
# Poissons Ratio (y) = -0.01434 0.76583
# Poissons Ratio (z) = 0.35591 0.38017
#
# Static dielectric constant tensor:
#      x y z
#    x 2.988570 0.000000 0.000000 
#    y 0.000000 3.353700 0.000000 
#    z 0.000000 0.000000 3.119110 
# 
# 
# High freq. dielectric constant tensor:
#      x y z
#    x 1.618710 0.000000 0.000000 
#    y 0.000000 1.599080 0.000000 
#    z 0.000000 0.000000 1.621400 
# 
# From -- ./inp_files/35152.got.cif
#   From: 2010.03.12/outbox.cif.g09.slc.cpg/sg51_18_cif.got.tgz:35152.got - 2010.04.16 13:43:02.
