data_PCOD8206280
_publ_section_title
;
Structure prediction by ZEFSAII (Michael W. Deem and Ramdas Pophale) SiO2 
 PCOD8206280
Probable space group: P M M A
;
_chemical_formula_sum "Si O2"
_cell_formula_units_Z 64
_cell_length_a 9.107697
_cell_length_b 27.348289
_cell_length_c 17.948837
_cell_angle_alpha 90.000000
_cell_angle_beta 90.000000
_cell_angle_gamma 90.000000
_cell_volume 4470.695058
_symmetry_space_group_name_H-M "P M M A"
_symmetry_group_IT_number 51
_symmetry_cell_setting 'orthorhombic'
loop_
_space_group_symop_operation_xyz
x,y,z
1/2-x,-y,z
1/2+x,-y,-z
-x,y,-z
-x,-y,-z
1/2+x,y,-z
1/2-x,y,z
x,-y,z
loop_
_atom_site_type_symbol
_atom_site_label
_atom_site_fract_x
_atom_site_fract_y
_atom_site_fract_z
Si Si1 0.077052 0.657591 0.920616
Si Si2 0.423463 0.855096 0.578964
Si Si3 0.080973 0.840787 0.922726
Si Si4 0.920387 0.551606 0.077599
Si Si5 0.081282 0.253778 0.821639
Si Si6 0.581613 0.054971 0.319992
Si Si7 0.085107 0.894609 0.197146
Si Si8 0.415589 0.200595 0.298635
O O1 0.250000 0.664818 0.933856
O O2 0.039050 0.603769 0.884357
O O3 0.019918 0.697562 0.861790
O O4 0.000000 0.665117 0.000000
O O5 0.500000 0.852960 0.500000
O O6 0.250000 0.848096 0.570388
O O7 0.464721 0.907471 0.615202
O O8 0.487288 0.810925 0.628682
O O9 0.250000 0.853831 0.936690
O O10 0.062378 0.790602 0.878512
O O11 0.007918 0.885547 0.877595
O O12 0.000000 0.833827 0.000000
O O13 0.750000 0.552626 0.059296
O O14 0.958527 0.500000 0.121693
O O15 0.000000 0.549824 0.000000
O O16 0.250000 0.259753 0.797423
O O17 0.987302 0.245513 0.746680
O O18 0.750000 0.064406 0.297755
O O19 0.487115 0.062185 0.245270
O O20 0.556010 0.000000 0.349977
O O21 0.250000 0.909885 0.175123
O O22 0.084122 0.846097 0.245992
O O23 0.250000 0.214552 0.322531
#
# Coordination Sequence:
#
# PCOD8206280 Si02
#       8
#     8   8   8   8   8   8   8   8
#     4   9  16  24  34  50  73 100 132 171 211 246
#     4  10  19  31  47  66  88 110 131 155 181 212
#     4  10  18  27  40  57  77 100 126 158 196 236
#     4   8  13  21  32  45  63  91 128 168 207 244
#     4   9  17  27  38  54  77 103 129 160 200 240
#     4   9  18  32  48  65  85 108 130 152 182 218
#     4   9  17  29  44  61  79 100 128 158 187 224
#     4   9  17  29  44  60  78 102 131 159 187 224
#
# _framework density 14.315447000000001
#
# number of rings (size 3 to 8) (size 9 to 14) (size 15 to 20)
#    0.000    2.875    0.000    1.875    0.000    5.000 
#    0.000    0.000    0.000    0.375    0.000    0.000 
#    0.000    0.000    0.000    0.000    0.000    0.625 
#
# Total GULP energy -793083.309711 kJ/mol
# GULP energy per Si atom -12391.926714 kJ/mol
# Density = 1.428286 g / cm^3
# Si number density = 14.315447 Si / 1000 Ang^3
#
#
#
# Elastic Constant Matrix: (Units=GPa)
#
#
# Indices 1 2 3 4 5 6 
#
# 1 80.8325 32.2830 44.7485 0.0000 0.0000 0.0000
# 2 32.2830 82.3267 47.0153 0.0000 0.0000 0.0000
# 3 44.7485 47.0153 59.8385 0.0000 0.0000 0.0000
# 4 0.0000 0.0000 0.0000 13.2899 0.0000 0.0000
# 5 0.0000 0.0000 0.0000 0.0000 25.6367 0.0000
# 6 0.0000 0.0000 0.0000 0.0000 0.0000 13.6664
#
#
#
# Elastic Compliance Matrix: (Units=1/GPa)
#
#
# Indices 1 2 3 4 5 6 
#
# 1 0.021193 0.001343 -0.016903 0.000000 0.000000 0.000000
# 2 0.001343 0.022118 -0.018383 0.000000 0.000000 0.000000
# 3 -0.016903 -0.018383 0.043796 0.000000 0.000000 0.000000
# 4 0.000000 0.000000 0.000000 0.075245 0.000000 0.000000
# 5 0.000000 0.000000 0.000000 0.000000 0.039007 0.000000
# 6 0.000000 0.000000 0.000000 0.000000 0.000000 0.073172
#
#
# Mechanical properties :
#
#
# Convention : Reuss Voigt Hill
#
# Bulk Modulus (GPa) = 52.02847 52.34349 52.18598
# Shear Modulus (GPa) = 14.33394 17.11532 15.72463
#
# Velocity S-wave (km/s) = 3.16775 3.46147 3.31786
# Velocity P-wave (km/s) = 7.05710 7.25393 7.15619
#
# Compressibility (1/GPa) = 0.01922025
#
# Stress axis : x y z
#
# Youngs Moduli (GPa) = 47.18638 45.21194 22.83336
#
# Poissons Ratio (x) = -0.06072 0.38596
# Poissons Ratio (y) = -0.06337 0.41973
# Poissons Ratio (z) = 0.79761 0.83111
#
# Static dielectric constant tensor:
#      x y z
#    x 2.938220 0.000000 0.000000 
#    y 0.000000 3.049610 0.000000 
#    z 0.000000 0.000000 2.579500 
# 
# 
# High freq. dielectric constant tensor:
#      x y z
#    x 1.560330 0.000000 0.000000 
#    y 0.000000 1.529210 0.000000 
#    z 0.000000 0.000000 1.510760 
# 
# From -- ./inp_files/28699.got.cif
#   From: 2010.03.12/outbox.cif.g09.slc.cpg/sg51_15_cif.got.tgz:28699.got - 2010.04.16 13:43:02.
