data_PCOD8206133
_publ_section_title
;
Structure prediction by ZEFSAII (Michael W. Deem and Ramdas Pophale) SiO2 
 PCOD8206133
Probable space group: P M M A
;
_chemical_formula_sum "Si O2"
_cell_formula_units_Z 52
_cell_length_a 9.174888
_cell_length_b 11.995390
_cell_length_c 25.300480
_cell_angle_alpha 90.000000
_cell_angle_beta 90.000000
_cell_angle_gamma 90.000000
_cell_volume 2784.478729
_symmetry_space_group_name_H-M "P M M A"
_symmetry_group_IT_number 51
_symmetry_cell_setting 'orthorhombic'
loop_
_space_group_symop_operation_xyz
x,y,z
1/2-x,-y,z
1/2+x,-y,-z
-x,y,-z
-x,-y,-z
1/2+x,y,-z
1/2-x,y,z
x,-y,z
loop_
_atom_site_type_symbol
_atom_site_label
_atom_site_fract_x
_atom_site_fract_y
_atom_site_fract_z
Si Si1 0.422200 0.774662 0.950899
Si Si2 0.922093 0.374681 0.743904
Si Si3 0.500362 0.000000 0.176261
Si Si4 0.078985 0.871460 0.554628
Si Si5 0.587248 0.000000 0.707706
Si Si6 0.089078 0.245815 0.833039
Si Si7 0.576845 0.783571 0.651937
Si Si8 0.912138 0.000000 0.935446
O O1 0.250000 0.781340 0.960491
O O2 0.456126 0.720941 0.893344
O O3 0.493305 0.896037 0.953566
O O4 0.500000 0.707575 0.000000
O O5 0.750000 0.372495 0.749663
O O6 0.984323 0.500000 0.746683
O O7 0.966366 0.324123 0.686805
O O8 0.979073 0.301976 0.792524
O O9 0.408696 0.000000 0.229552
O O10 0.597419 0.111840 0.173382
O O11 0.388435 0.000000 0.127794
O O12 0.250000 0.847746 0.548726
O O13 0.000000 0.844902 0.500000
O O14 0.009421 0.785824 0.596784
O O15 0.049322 0.000000 0.571419
O O16 0.513912 0.111496 0.685202
O O17 0.750000 0.000000 0.685846
O O18 0.250000 0.292468 0.821123
O O19 0.750000 0.787435 0.641354
O O20 0.750000 0.000000 0.960767
#
# Coordination Sequence:
#
# PCOD8206133 Si02
#       8
#     8   8   4   8   4   8   8   4
#     4  10  20  33  48  69 100 135 174 217 265 319
#     4  10  22  39  58  80 107 142 183 224 267 319
#     4  10  18  31  48  77 110 143 176 212 262 322
#     4  10  20  33  51  79 114 150 183 217 259 312
#     4  10  17  27  47  76 107 142 178 215 262 316
#     4  10  21  35  53  78 108 140 173 218 271 322
#     4  10  19  33  53  78 110 144 178 220 264 311
#     4  10  19  28  45  69 100 141 180 213 253 313
#
# _framework density 18.674949000000002
#
# number of rings (size 3 to 8) (size 9 to 14) (size 15 to 20)
#    0.000    2.000    2.308    1.846    0.000    6.462 
#    0.000    0.000    0.000    0.923    0.000    0.000 
#    0.000    0.000    0.000    0.000    0.000    0.000 
#
# Total GULP energy -644421.072138 kJ/mol
# GULP energy per Si atom -12392.712926 kJ/mol
# Density = 1.863244 g / cm^3
# Si number density = 18.674949 Si / 1000 Ang^3
#
#
#
# Elastic Constant Matrix: (Units=GPa)
#
#
# Indices 1 2 3 4 5 6 
#
# 1 85.6636 26.5349 56.5106 0.0000 0.0000 0.0000
# 2 26.5349 74.1858 47.5305 0.0000 0.0000 0.0000
# 3 56.5106 47.5305 151.2847 0.0000 0.0000 0.0000
# 4 0.0000 0.0000 0.0000 11.0241 0.0000 0.0000
# 5 0.0000 0.0000 0.0000 0.0000 33.2706 0.0000
# 6 0.0000 0.0000 0.0000 0.0000 0.0000 9.3376
#
#
#
# Elastic Compliance Matrix: (Units=1/GPa)
#
#
# Indices 1 2 3 4 5 6 
#
# 1 0.015809 -0.002343 -0.005169 0.000000 0.000000 0.000000
# 2 -0.002343 0.017224 -0.004536 0.000000 0.000000 0.000000
# 3 -0.005169 -0.004536 0.009966 0.000000 0.000000 0.000000
# 4 0.000000 0.000000 0.000000 0.090710 0.000000 0.000000
# 5 0.000000 0.000000 0.000000 0.000000 0.030057 0.000000
# 6 0.000000 0.000000 0.000000 0.000000 0.000000 0.107094
#
#
# Mechanical properties :
#
#
# Convention : Reuss Voigt Hill
#
# Bulk Modulus (GPa) = 52.90227 63.58734 58.24481
# Shear Modulus (GPa) = 16.59705 22.76366 19.68036
#
# Velocity S-wave (km/s) = 2.98440 3.49512 3.24981
# Velocity P-wave (km/s) = 6.34547 7.10009 6.73336
#
# Compressibility (1/GPa) = 0.01890278
#
# Stress axis : x y z
#
# Youngs Moduli (GPa) = 63.25352 58.05840 100.33880
#
# Poissons Ratio (x) = 0.13602 0.51869
# Poissons Ratio (y) = 0.14819 0.45517
# Poissons Ratio (z) = 0.32698 0.26337
#
# Static dielectric constant tensor:
#      x y z
#    x 3.291650 0.000000 0.000000 
#    y 0.000000 3.205650 0.000000 
#    z 0.000000 0.000000 3.647130 
# 
# 
# High freq. dielectric constant tensor:
#      x y z
#    x 1.719060 0.000000 0.000000 
#    y 0.000000 1.676150 0.000000 
#    z 0.000000 0.000000 1.743240 
# 
# From -- ./inp_files/36306.got.cif
#   From: 2010.03.12/outbox.cif.g09.slc.cpg/sg51_19_cif.got.tgz:36306.got - 2010.04.16 13:43:02.
