data_PCOD8206674
_publ_section_title
;
Structure prediction by ZEFSAII (Michael W. Deem and Ramdas Pophale) SiO2 
 PCOD8206674
Probable space group: P M M A
;
_chemical_formula_sum "Si O2"
_cell_formula_units_Z 52
_cell_length_a 9.254183
_cell_length_b 13.505345
_cell_length_c 24.571554
_cell_angle_alpha 90.000000
_cell_angle_beta 90.000000
_cell_angle_gamma 90.000000
_cell_volume 3070.975771
_symmetry_space_group_name_H-M "P M M A"
_symmetry_group_IT_number 51
_symmetry_cell_setting 'orthorhombic'
loop_
_space_group_symop_operation_xyz
x,y,z
1/2-x,-y,z
1/2+x,-y,-z
-x,y,-z
-x,-y,-z
1/2+x,y,-z
1/2-x,y,z
x,-y,z
loop_
_atom_site_type_symbol
_atom_site_label
_atom_site_fract_x
_atom_site_fract_y
_atom_site_fract_z
Si Si1 0.421360 0.608430 0.658630
Si Si2 0.420605 0.783101 0.163617
Si Si3 0.589514 0.885305 0.254565
Si Si4 0.578717 0.817458 0.369910
Si Si5 0.081285 0.886822 0.053418
Si Si6 0.076844 0.000000 0.557351
Si Si7 0.416432 0.612235 0.783026
O O1 0.250000 0.601345 0.657893
O O2 0.483139 0.500000 0.639055
O O3 0.470850 0.701665 0.619991
O O4 0.469447 0.629011 0.720885
O O5 0.250000 0.779063 0.170431
O O6 0.482937 0.863059 0.205436
O O7 0.465545 0.817363 0.103361
O O8 0.487997 0.676364 0.175859
O O9 0.750000 0.840130 0.243299
O O10 0.521822 0.841598 0.309733
O O11 0.604006 0.000000 0.263531
O O12 0.750000 0.826008 0.370818
O O13 0.520363 0.899407 0.412502
O O14 0.250000 0.878896 0.041799
O O15 0.036785 0.000000 0.066819
O O16 0.000000 0.847727 0.000000
O O17 0.000000 0.000000 0.500000
O O18 0.250000 0.000000 0.551137
O O19 0.250000 0.643019 0.788936
O O20 0.440733 0.500000 0.800847
#
# Coordination Sequence:
#
# PCOD8206674 Si02
#       7
#     8   8   8   8   8   4   8
#     4   8  13  23  44  72  96 119 154 202 245 281
#     4  11  21  31  46  71 104 134 156 192 251 312
#     4  10  18  29  47  71  97 127 163 201 240 287
#     4   9  15  27  48  70  94 124 162 203 241 283
#     4   9  19  35  51  67  91 125 165 204 242 288
#     4  10  20  34  52  72  96 132 169 208 245 284
#     4   9  17  30  49  72  98 128 165 204 237 284
#
# _framework density 16.932729999999999
#
# number of rings (size 3 to 8) (size 9 to 14) (size 15 to 20)
#    0.000    2.615    2.308    1.846    0.000    2.462 
#    0.000    2.308    0.000    0.923    0.000    0.000 
#    0.000    0.000    0.000    0.000    0.000    0.000 
#
# Total GULP energy -644281.890281 kJ/mol
# GULP energy per Si atom -12390.036352 kJ/mol
# Density = 1.689419 g / cm^3
# Si number density = 16.932730 Si / 1000 Ang^3
#
#
#
# Elastic Constant Matrix: (Units=GPa)
#
#
# Indices 1 2 3 4 5 6 
#
# 1 31.7013 27.4162 22.9984 0.0000 0.0000 0.0000
# 2 27.4162 149.5335 64.2612 0.0000 0.0000 0.0000
# 3 22.9984 64.2612 78.5421 0.0000 0.0000 0.0000
# 4 0.0000 0.0000 0.0000 19.4202 0.0000 0.0000
# 5 0.0000 0.0000 0.0000 0.0000 24.1618 0.0000
# 6 0.0000 0.0000 0.0000 0.0000 0.0000 19.9693
#
#
#
# Elastic Compliance Matrix: (Units=1/GPa)
#
#
# Indices 1 2 3 4 5 6 
#
# 1 0.041315 -0.003664 -0.009100 0.000000 0.000000 0.000000
# 2 -0.003664 0.010639 -0.007631 0.000000 0.000000 0.000000
# 3 -0.009100 -0.007631 0.021640 0.000000 0.000000 0.000000
# 4 0.000000 0.000000 0.000000 0.051493 0.000000 0.000000
# 5 0.000000 0.000000 0.000000 0.000000 0.041388 0.000000
# 6 0.000000 0.000000 0.000000 0.000000 0.000000 0.050077
#
#
# Mechanical properties :
#
#
# Convention : Reuss Voigt Hill
#
# Bulk Modulus (GPa) = 30.48467 54.34762 42.41615
# Shear Modulus (GPa) = 18.63745 22.38366 20.51055
#
# Velocity S-wave (km/s) = 3.32124 3.63976 3.48414
# Velocity P-wave (km/s) = 5.72276 7.05902 6.42572
#
# Compressibility (1/GPa) = 0.03280337
#
# Stress axis : x y z
#
# Youngs Moduli (GPa) = 24.20429 93.99462 46.20982
#
# Poissons Ratio (x) = 0.34443 0.42049
# Poissons Ratio (y) = 0.08869 0.35265
# Poissons Ratio (z) = 0.22025 0.71732
#
# Static dielectric constant tensor:
#      x y z
#    x 2.833740 0.000000 0.000000 
#    y 0.000000 3.581830 0.000000 
#    z 0.000000 0.000000 2.985990 
# 
# 
# High freq. dielectric constant tensor:
#      x y z
#    x 1.616570 0.000000 0.000000 
#    y 0.000000 1.671230 0.000000 
#    z 0.000000 0.000000 1.623800 
# 
# From -- ./inp_files/34734.got.cif
#   From: 2010.03.12/outbox.cif.g09.slc.cpg/sg51_18_cif.got.tgz:34734.got - 2010.04.16 13:43:02.
