data_PCOD8206851
_publ_section_title
;
Structure prediction by ZEFSAII (Michael W. Deem and Ramdas Pophale) SiO2 
 PCOD8206851
Probable space group: P M M A
;
_chemical_formula_sum "Si O2"
_cell_formula_units_Z 64
_cell_length_a 28.442814
_cell_length_b 8.680017
_cell_length_c 15.648102
_cell_angle_alpha 90.000000
_cell_angle_beta 90.000000
_cell_angle_gamma 90.000000
_cell_volume 3863.267721
_symmetry_space_group_name_H-M "P M M A"
_symmetry_group_IT_number 51
_symmetry_cell_setting 'orthorhombic'
loop_
_space_group_symop_operation_xyz
x,y,z
1/2-x,-y,z
1/2+x,-y,-z
-x,y,-z
-x,-y,-z
1/2+x,y,-z
1/2-x,y,z
x,-y,z
loop_
_atom_site_type_symbol
_atom_site_label
_atom_site_fract_x
_atom_site_fract_y
_atom_site_fract_z
Si Si1 0.638701 0.180704 0.663309
Si Si2 0.197530 0.183793 0.176747
Si Si3 0.949887 0.319034 0.588626
Si Si4 0.302591 0.681163 0.819879
Si Si5 0.139339 0.681255 0.658991
Si Si6 0.952502 0.818642 0.404978
Si Si7 0.805969 0.171257 0.009042
Si Si8 0.304867 0.177866 0.506465
O O1 0.663195 0.243873 0.749225
O O2 0.590140 0.273824 0.655885
O O3 0.673115 0.218253 0.584943
O O4 0.627565 0.000000 0.668856
O O5 0.250000 0.250012 0.193007
O O6 0.177715 0.237672 0.083557
O O7 0.200088 0.000000 0.178017
O O8 0.949948 0.500000 0.570015
O O9 0.939044 0.228850 0.501177
O O10 0.000324 0.267749 0.625622
O O11 0.250000 0.751342 0.809614
O O12 0.299966 0.500000 0.813477
O O13 0.334803 0.745062 0.743608
O O14 0.324444 0.726383 0.911967
O O15 0.129743 0.500000 0.663140
O O16 0.089874 0.769653 0.656343
O O17 0.171501 0.715662 0.577371
O O18 0.960834 0.000000 0.400748
O O19 0.750000 0.168546 0.006854
O O20 0.826114 0.000000 0.022977
O O21 0.250000 0.216422 0.501936
O O22 0.314040 0.000000 0.530314
#
# Coordination Sequence:
#
# PCOD8206851 Si02
#       8
#     8   8   8   8   8   8   8   8
#     4  10  18  30  48  70  97 129 163 197 234 280
#     4   8  14  26  46  71  98 128 162 199 237 276
#     4  11  21  34  51  71  95 123 156 197 242 286
#     4   9  18  31  46  66  95 130 162 193 235 284
#     4  11  21  33  48  68  95 128 161 197 241 287
#     4  11  21  35  53  71  91 119 158 202 243 285
#     4   8  14  26  45  68  92 121 160 203 239 271
#     4  10  20  31  44  65  95 131 167 197 227 271
#
# _framework density 16.566286000000002
#
# number of rings (size 3 to 8) (size 9 to 14) (size 15 to 20)
#    0.000    2.250    1.250    4.875    0.000    3.250 
#    0.000    1.875    0.000    1.875    0.000    0.875 
#    0.000    7.000    0.000    0.000    0.000    0.000 
#
# Total GULP energy -793512.215790 kJ/mol
# GULP energy per Si atom -12398.628372 kJ/mol
# Density = 1.652858 g / cm^3
# Si number density = 16.566286 Si / 1000 Ang^3
#
#
#
# Elastic Constant Matrix: (Units=GPa)
#
#
# Indices 1 2 3 4 5 6 
#
# 1 97.4454 19.7121 52.3966 0.0000 0.0000 0.0000
# 2 19.7121 44.5955 20.2475 0.0000 0.0000 0.0000
# 3 52.3966 20.2475 118.0636 0.0000 0.0000 0.0000
# 4 0.0000 0.0000 0.0000 11.5818 0.0000 0.0000
# 5 0.0000 0.0000 0.0000 0.0000 13.2201 0.0000
# 6 0.0000 0.0000 0.0000 0.0000 0.0000 20.1283
#
#
#
# Elastic Compliance Matrix: (Units=1/GPa)
#
#
# Indices 1 2 3 4 5 6 
#
# 1 0.014007 -0.003653 -0.005590 0.000000 0.000000 0.000000
# 2 -0.003653 0.025270 -0.002712 0.000000 0.000000 0.000000
# 3 -0.005590 -0.002712 0.011416 0.000000 0.000000 0.000000
# 4 0.000000 0.000000 0.000000 0.086342 0.000000 0.000000
# 5 0.000000 0.000000 0.000000 0.000000 0.075642 0.000000
# 6 0.000000 0.000000 0.000000 0.000000 0.000000 0.049681
#
#
# Mechanical properties :
#
#
# Convention : Reuss Voigt Hill
#
# Bulk Modulus (GPa) = 37.33863 49.42409 43.38136
# Shear Modulus (GPa) = 16.93785 20.16927 18.55356
#
# Velocity S-wave (km/s) = 3.20101 3.49304 3.35021
# Velocity P-wave (km/s) = 6.02078 6.79465 6.41939
#
# Compressibility (1/GPa) = 0.02678191
#
# Stress axis : x y z
#
# Youngs Moduli (GPa) = 71.39406 39.57240 87.59743
#
# Poissons Ratio (x) = 0.14457 0.48964
# Poissons Ratio (y) = 0.26083 0.23760
# Poissons Ratio (z) = 0.39907 0.10733
#
# Static dielectric constant tensor:
#      x y z
#    x 3.144870 0.000000 0.000000 
#    y 0.000000 2.983210 0.000000 
#    z 0.000000 0.000000 3.283690 
# 
# 
# High freq. dielectric constant tensor:
#      x y z
#    x 1.621150 0.000000 0.000000 
#    y 0.000000 1.628510 0.000000 
#    z 0.000000 0.000000 1.627170 
# 
# From -- ./inp_files/26611.got.cif
#   From: 2010.03.12/outbox.cif.g09.slc.cpg/sg51_14_cif.got.tgz:26611.got - 2010.04.16 13:43:02.
