data_PCOD8206571
_publ_section_title
;
Structure prediction by ZEFSAII (Michael W. Deem and Ramdas Pophale) SiO2 
 PCOD8206571
Probable space group: P M M A
;
_chemical_formula_sum "Si O2"
_cell_formula_units_Z 64
_cell_length_a 21.564622
_cell_length_b 9.384448
_cell_length_c 18.987660
_cell_angle_alpha 90.000000
_cell_angle_beta 90.000000
_cell_angle_gamma 90.000000
_cell_volume 3842.572131
_symmetry_space_group_name_H-M "P M M A"
_symmetry_group_IT_number 51
_symmetry_cell_setting 'orthorhombic'
loop_
_space_group_symop_operation_xyz
x,y,z
1/2-x,-y,z
1/2+x,-y,-z
-x,y,-z
-x,-y,-z
1/2+x,y,-z
1/2-x,y,z
x,-y,z
loop_
_atom_site_type_symbol
_atom_site_label
_atom_site_fract_x
_atom_site_fract_y
_atom_site_fract_z
Si Si1 0.491042 0.330738 0.162737
Si Si2 0.485903 0.337674 0.324704
Si Si3 0.102303 0.837448 0.904008
Si Si4 0.627592 0.337213 0.338707
Si Si5 0.179738 0.164897 0.536038
Si Si6 0.942261 0.832844 0.548996
Si Si7 0.180529 0.161705 0.778803
Si Si8 0.937432 0.159420 0.953963
O O1 0.493319 0.500000 0.155140
O O2 0.479858 0.285619 0.243867
O O3 0.554922 0.265794 0.135708
O O4 0.436599 0.266732 0.112544
O O5 0.462998 0.500000 0.330154
O O6 0.555182 0.323706 0.355541
O O7 0.443452 0.241644 0.374889
O O8 0.166775 0.826311 0.862203
O O9 0.075606 0.000000 0.900690
O O10 0.114023 0.797556 0.986606
O O11 0.649325 0.500000 0.336926
O O12 0.670618 0.255274 0.393702
O O13 0.635921 0.268045 0.262398
O O14 0.250000 0.193699 0.506556
O O15 0.125316 0.209029 0.482002
O O16 0.172101 0.000000 0.556367
O O17 0.000000 0.780867 0.500000
O O18 0.948133 0.000000 0.561387
O O19 0.250000 0.211074 0.765276
O O20 0.169404 0.000000 0.752567
O O21 0.926579 0.000000 0.924638
O O22 0.000000 0.170836 0.000000
#
# Coordination Sequence:
#
# PCOD8206571 Si02
#       8
#     8   8   8   8   8   8   8   8
#     4  10  18  29  44  66  93 120 152 187 231 282
#     4  10  21  33  47  70 100 131 159 196 243 286
#     4   9  17  29  44  62  89 122 155 193 234 276
#     4  11  21  33  48  69  98 131 166 200 236 283
#     4  10  21  37  54  73  98 126 159 203 248 289
#     4  10  20  34  53  75  95 123 164 200 237 293
#     4  10  20  32  46  65  91 128 169 203 237 279
#     4   8  15  27  42  63  88 116 149 185 226 271
#
# _framework density 16.65551
#
# number of rings (size 3 to 8) (size 9 to 14) (size 15 to 20)
#    0.000    2.250    2.500    1.875    0.000    6.500 
#    0.000    0.000    0.000    0.000    0.000    0.875 
#    0.000    5.000    0.000    0.000    0.000    0.000 
#
# Total GULP energy -793122.636173 kJ/mol
# GULP energy per Si atom -12392.541190 kJ/mol
# Density = 1.661760 g / cm^3
# Si number density = 16.655510 Si / 1000 Ang^3
#
#
#
# Elastic Constant Matrix: (Units=GPa)
#
#
# Indices 1 2 3 4 5 6 
#
# 1 64.8613 30.3546 40.1027 0.0000 0.0000 0.0000
# 2 30.3546 68.5755 52.6146 0.0000 0.0000 0.0000
# 3 40.1027 52.6146 113.1969 0.0000 0.0000 0.0000
# 4 0.0000 0.0000 0.0000 27.8931 0.0000 0.0000
# 5 0.0000 0.0000 0.0000 0.0000 22.0781 0.0000
# 6 0.0000 0.0000 0.0000 0.0000 0.0000 14.3880
#
#
#
# Elastic Compliance Matrix: (Units=1/GPa)
#
#
# Indices 1 2 3 4 5 6 
#
# 1 0.021033 -0.005585 -0.004856 0.000000 0.000000 0.000000
# 2 -0.005585 0.024148 -0.009246 0.000000 0.000000 0.000000
# 3 -0.004856 -0.009246 0.014852 0.000000 0.000000 0.000000
# 4 0.000000 0.000000 0.000000 0.035851 0.000000 0.000000
# 5 0.000000 0.000000 0.000000 0.000000 0.045294 0.000000
# 6 0.000000 0.000000 0.000000 0.000000 0.000000 0.069503
#
#
# Mechanical properties :
#
#
# Convention : Reuss Voigt Hill
#
# Bulk Modulus (GPa) = 48.40011 54.75306 51.57659
# Shear Modulus (GPa) = 19.45976 21.10930 20.28453
#
# Velocity S-wave (km/s) = 3.42185 3.56393 3.49361
# Velocity P-wave (km/s) = 6.68840 7.06262 6.87806
#
# Compressibility (1/GPa) = 0.02066111
#
# Stress axis : x y z
#
# Youngs Moduli (GPa) = 47.54354 41.41073 67.33129
#
# Poissons Ratio (x) = 0.23127 0.32695
# Poissons Ratio (y) = 0.26552 0.62253
# Poissons Ratio (z) = 0.23086 0.38287
#
# Static dielectric constant tensor:
#      x y z
#    x 2.991720 0.000000 0.000000 
#    y 0.000000 3.122750 0.000000 
#    z 0.000000 0.000000 3.333120 
# 
# 
# High freq. dielectric constant tensor:
#      x y z
#    x 1.603080 0.000000 0.000000 
#    y 0.000000 1.643340 0.000000 
#    z 0.000000 0.000000 1.641400 
# 
# From -- ./inp_files/30865.got.cif
#   From: 2010.03.12/outbox.cif.g09.slc.cpg/sg51_16_cif.got.tgz:30865.got - 2010.04.16 13:43:02.
