data_PCOD8206346
_publ_section_title
;
Structure prediction by ZEFSAII (Michael W. Deem and Ramdas Pophale) SiO2 
 PCOD8206346
Probable space group: P M M A
;
_chemical_formula_sum "Si O2"
_cell_formula_units_Z 52
_cell_length_a 15.949717
_cell_length_b 12.276700
_cell_length_c 15.879998
_cell_angle_alpha 90.000000
_cell_angle_beta 90.000000
_cell_angle_gamma 90.000000
_cell_volume 3109.460673
_symmetry_space_group_name_H-M "P M M A"
_symmetry_group_IT_number 51
_symmetry_cell_setting 'orthorhombic'
loop_
_space_group_symop_operation_xyz
x,y,z
1/2-x,-y,z
1/2+x,-y,-z
-x,y,-z
-x,-y,-z
1/2+x,y,-z
1/2-x,y,z
x,-y,z
loop_
_atom_site_type_symbol
_atom_site_label
_atom_site_fract_x
_atom_site_fract_y
_atom_site_fract_z
Si Si1 0.917142 0.375330 0.219534
Si Si2 0.750000 0.125087 0.605100
Si Si3 0.750000 0.692933 0.742658
Si Si4 0.153784 0.374770 0.609495
Si Si5 0.422456 0.380120 0.317451
Si Si6 0.585076 0.777124 0.531642
Si Si7 0.911632 0.370528 0.035099
Si Si8 0.750000 0.629549 0.927044
O O1 0.889230 0.500000 0.212273
O O2 0.864604 0.324319 0.297583
O O3 0.897748 0.320248 0.129164
O O4 0.015995 0.361950 0.238358
O O5 0.750000 0.192137 0.692557
O O6 0.833792 0.147478 0.549260
O O7 0.750000 0.000000 0.631644
O O8 0.828976 0.622130 0.716465
O O9 0.750000 0.704504 0.843543
O O10 0.250000 0.363874 0.586546
O O11 0.123357 0.500000 0.607222
O O12 0.103737 0.310500 0.539647
O O13 0.438200 0.500000 0.357113
O O14 0.440049 0.286991 0.384577
O O15 0.500000 0.841105 0.500000
O O16 0.918090 0.500000 0.040897
O O17 0.832933 0.335931 0.978323
O O18 0.000000 0.324002 0.000000
O O19 0.750000 0.500000 0.906535
#
# Coordination Sequence:
#
# PCOD8206346 Si02
#       8
#     8   4   4   8   8   8   8   4
#     4   9  17  27  40  61  95 138 172 193 219 257
#     4  10  24  42  55  71  93 116 153 211 259 301
#     4  10  20  32  48  68  90 120 160 196 242 294
#     4  10  19  29  44  68 103 140 170 197 225 265
#     4  10  18  27  43  68 102 135 161 192 224 266
#     4  11  20  33  52  74  96 128 166 199 239 287
#     4   9  17  27  39  58  90 131 167 192 219 259
#     4  10  18  28  45  67  95 126 157 193 227 273
#
# _framework density 16.723157
#
# number of rings (size 3 to 8) (size 9 to 14) (size 15 to 20)
#    0.000    2.154    2.308    2.077    1.077    3.385 
#    0.000    0.000    0.000    0.000    0.000    0.000 
#    0.000   17.846    0.000    0.000    0.000    0.000 
#
# Total GULP energy -644334.421436 kJ/mol
# GULP energy per Si atom -12391.046566 kJ/mol
# Density = 1.668509 g / cm^3
# Si number density = 16.723157 Si / 1000 Ang^3
#
#
#
# Elastic Constant Matrix: (Units=GPa)
#
#
# Indices 1 2 3 4 5 6 
#
# 1 113.4561 20.3687 33.5748 0.0000 0.0000 0.0000
# 2 20.3687 36.5005 13.9292 0.0000 0.0000 0.0000
# 3 33.5748 13.9292 108.9878 0.0000 0.0000 0.0000
# 4 0.0000 0.0000 0.0000 6.6922 0.0000 0.0000
# 5 0.0000 0.0000 0.0000 0.0000 24.9789 0.0000
# 6 0.0000 0.0000 0.0000 0.0000 0.0000 6.6040
#
#
#
# Elastic Compliance Matrix: (Units=1/GPa)
#
#
# Indices 1 2 3 4 5 6 
#
# 1 0.010453 -0.004840 -0.002601 0.000000 0.000000 0.000000
# 2 -0.004840 0.031043 -0.002476 0.000000 0.000000 0.000000
# 3 -0.002601 -0.002476 0.010293 0.000000 0.000000 0.000000
# 4 0.000000 0.000000 0.000000 0.149428 0.000000 0.000000
# 5 0.000000 0.000000 0.000000 0.000000 0.040034 0.000000
# 6 0.000000 0.000000 0.000000 0.000000 0.000000 0.151425
#
#
# Mechanical properties :
#
#
# Convention : Reuss Voigt Hill
#
# Bulk Modulus (GPa) = 31.29621 43.85443 37.57532
# Shear Modulus (GPa) = 11.81580 20.39312 16.10446
#
# Velocity S-wave (km/s) = 2.66099 3.49586 3.10660
# Velocity P-wave (km/s) = 5.31000 6.52498 5.94859
#
# Compressibility (1/GPa) = 0.03195275
#
# Stress axis : x y z
#
# Youngs Moduli (GPa) = 95.66813 32.21342 97.15111
#
# Poissons Ratio (x) = 0.15592 0.25274
# Poissons Ratio (y) = 0.46306 0.24058
# Poissons Ratio (z) = 0.24888 0.07977
#
# Static dielectric constant tensor:
#      x y z
#    x 3.517680 0.000000 0.000000 
#    y 0.000000 2.458900 0.000000 
#    z 0.000000 0.000000 3.415490 
# 
# 
# High freq. dielectric constant tensor:
#      x y z
#    x 1.672090 0.000000 0.000000 
#    y 0.000000 1.553220 0.000000 
#    z 0.000000 0.000000 1.656490 
# 
# From -- ./inp_files/25140.got.cif
#   From: 2010.03.12/outbox.cif.g09.slc.cpg/sg51_13_cif.got.tgz:25140.got - 2010.04.16 13:43:02.
