data_PCOD8206217
_publ_section_title
;
Structure prediction by ZEFSAII (Michael W. Deem and Ramdas Pophale) SiO2 
 PCOD8206217
Probable space group: P M M A
;
_chemical_formula_sum "Si O2"
_cell_formula_units_Z 64
_cell_length_a 15.700618
_cell_length_b 18.338006
_cell_length_c 12.078539
_cell_angle_alpha 90.000000
_cell_angle_beta 90.000000
_cell_angle_gamma 90.000000
_cell_volume 3477.629119
_symmetry_space_group_name_H-M "P M M A"
_symmetry_group_IT_number 51
_symmetry_cell_setting 'orthorhombic'
loop_
_space_group_symop_operation_xyz
x,y,z
1/2-x,-y,z
1/2+x,-y,-z
-x,y,-z
-x,-y,-z
1/2+x,y,-z
1/2-x,y,z
x,-y,z
loop_
_atom_site_type_symbol
_atom_site_label
_atom_site_fract_x
_atom_site_fract_y
_atom_site_fract_z
Si Si1 0.538138 0.346284 0.381380
Si Si2 0.651949 0.417294 0.213390
Si Si3 0.074777 0.282517 0.204976
Si Si4 0.909722 0.200285 0.450596
Si Si5 0.156398 0.841577 0.324121
Si Si6 0.555695 0.821613 0.102680
Si Si7 0.847941 0.692110 0.022853
Si Si8 0.523452 0.915360 0.290978
O O1 0.500000 0.371828 0.500000
O O2 0.596500 0.408143 0.325018
O O3 0.454832 0.336090 0.302638
O O4 0.604412 0.276017 0.384319
O O5 0.750000 0.398761 0.240148
O O6 0.642167 0.500000 0.171151
O O7 0.617605 0.363790 0.115828
O O8 0.150662 0.230348 0.247687
O O9 0.101628 0.323328 0.091736
O O10 0.993166 0.232259 0.184567
O O11 0.843115 0.183790 0.547517
O O12 0.000000 0.222261 0.500000
O O13 0.919189 0.127117 0.379643
O O14 0.250000 0.877440 0.301392
O O15 0.077799 0.896190 0.298078
O O16 0.568551 0.895457 0.173435
O O17 0.500000 0.846693 0.000000
O O18 0.638524 0.776817 0.061110
O O19 0.750000 0.678140 0.999291
O O20 0.534309 0.000000 0.314802
#
# Coordination Sequence:
#
# PCOD8206217 Si02
#       8
#     8   8   8   8   8   8   8   8
#     4  11  18  35  58  79 109 144 183 224 262 317
#     4  10  22  38  55  80 114 148 181 219 268 323
#     4  10  17  32  54  82 107 130 175 228 271 312
#     4   9  16  31  49  73  98 137 179 215 258 314
#     4  10  19  31  49  76 108 135 173 228 274 315
#     4   9  17  31  54  73  97 132 175 225 261 322
#     4  10  19  33  57  82 105 138 180 229 280 318
#     4  10  19  32  49  70 103 142 180 222 269 323
#
# _framework density 18.403341999999999
#
# number of rings (size 3 to 8) (size 9 to 14) (size 15 to 20)
#    0.000    2.125    6.250    0.375    0.000    3.500 
#    0.000    1.875    0.000    1.125    0.000    1.750 
#    0.000    0.000    0.000    0.000    0.000    0.000 
#
# Total GULP energy -792845.242622 kJ/mol
# GULP energy per Si atom -12388.206916 kJ/mol
# Density = 1.836146 g / cm^3
# Si number density = 18.403342 Si / 1000 Ang^3
#
#
#
# Elastic Constant Matrix: (Units=GPa)
#
#
# Indices 1 2 3 4 5 6 
#
# 1 38.4496 13.8653 27.8445 0.0000 0.0000 0.0000
# 2 13.8653 73.8892 33.3228 0.0000 0.0000 0.0000
# 3 27.8445 33.3228 119.3467 0.0000 0.0000 0.0000
# 4 0.0000 0.0000 0.0000 12.8777 0.0000 0.0000
# 5 0.0000 0.0000 0.0000 0.0000 19.8610 0.0000
# 6 0.0000 0.0000 0.0000 0.0000 0.0000 13.0274
#
#
#
# Elastic Compliance Matrix: (Units=1/GPa)
#
#
# Indices 1 2 3 4 5 6 
#
# 1 0.031869 -0.003005 -0.006596 0.000000 0.000000 0.000000
# 2 -0.003005 0.015767 -0.003701 0.000000 0.000000 0.000000
# 3 -0.006596 -0.003701 0.010951 0.000000 0.000000 0.000000
# 4 0.000000 0.000000 0.000000 0.077653 0.000000 0.000000
# 5 0.000000 0.000000 0.000000 0.000000 0.050350 0.000000
# 6 0.000000 0.000000 0.000000 0.000000 0.000000 0.076761
#
#
# Mechanical properties :
#
#
# Convention : Reuss Voigt Hill
#
# Bulk Modulus (GPa) = 31.26797 42.41673 36.84235
# Shear Modulus (GPa) = 16.63247 19.59676 18.11461
#
# Velocity S-wave (km/s) = 3.00955 3.26674 3.14078
# Velocity P-wave (km/s) = 5.39479 6.10960 5.76329
#
# Compressibility (1/GPa) = 0.03198161
#
# Stress axis : x y z
#
# Youngs Moduli (GPa) = 31.37884 63.42415 91.31390
#
# Poissons Ratio (x) = 0.19062 0.60231
# Poissons Ratio (y) = 0.09431 0.33796
# Poissons Ratio (z) = 0.20698 0.23474
#
# Static dielectric constant tensor:
#      x y z
#    x 3.455910 0.000000 0.000000 
#    y 0.000000 3.164670 0.000000 
#    z 0.000000 0.000000 4.014730 
# 
# 
# High freq. dielectric constant tensor:
#      x y z
#    x 1.686750 0.000000 0.000000 
#    y 0.000000 1.678040 0.000000 
#    z 0.000000 0.000000 1.730700 
# 
# From -- ./inp_files/17717.got.cif
#   From: 2010.03.12/outbox.cif.g09.slc.cpg/sg51_9_cif.got.tgz:17717.got - 2010.04.16 13:43:02.
