data_PCOD8206006
_publ_section_title
;
Structure prediction by ZEFSAII (Michael W. Deem and Ramdas Pophale) SiO2 
 PCOD8206006
Probable space group: P M M A
;
_chemical_formula_sum "Si O2"
_cell_formula_units_Z 56
_cell_length_a 8.825877
_cell_length_b 29.466677
_cell_length_c 13.695558
_cell_angle_alpha 90.000000
_cell_angle_beta 90.000000
_cell_angle_gamma 90.000000
_cell_volume 3561.793727
_symmetry_space_group_name_H-M "P M M A"
_symmetry_group_IT_number 51
_symmetry_cell_setting 'orthorhombic'
loop_
_space_group_symop_operation_xyz
x,y,z
1/2-x,-y,z
1/2+x,-y,-z
-x,y,-z
-x,-y,-z
1/2+x,y,-z
1/2-x,y,z
x,-y,z
loop_
_atom_site_type_symbol
_atom_site_label
_atom_site_fract_x
_atom_site_fract_y
_atom_site_fract_z
Si Si1 0.074269 0.050675 0.719856
Si Si2 0.073272 0.549273 0.105742
Si Si3 0.072139 0.862616 0.603392
Si Si4 0.926731 0.817648 0.780281
Si Si5 0.572810 0.094488 0.896577
Si Si6 0.429064 0.272331 0.105730
Si Si7 0.569718 0.362937 0.108046
O O1 0.250000 0.058393 0.743854
O O2 0.019870 0.087219 0.639296
O O3 0.983256 0.056974 0.819987
O O4 0.043025 0.000000 0.679286
O O5 0.250000 0.560765 0.095184
O O6 0.050336 0.500000 0.158743
O O7 0.990053 0.591052 0.162619
O O8 0.000000 0.545424 0.000000
O O9 0.250000 0.859372 0.592050
O O10 0.000000 0.851735 0.500000
O O11 0.017696 0.824748 0.680205
O O12 0.750000 0.821616 0.756204
O O13 0.975223 0.855579 0.859118
O O14 0.970267 0.768963 0.823404
O O15 0.750000 0.089926 0.908834
O O16 0.500000 0.084449 0.000000
O O17 0.250000 0.278823 0.093339
O O18 0.502952 0.317099 0.156297
O O19 0.500000 0.262671 0.000000
O O20 0.750000 0.361579 0.107356
O O21 0.500000 0.364125 0.000000
#
# Coordination Sequence:
#
# PCOD8206006 Si02
#       7
#     8   8   8   8   8   8   8
#     4   9  19  35  51  68  90 115 143 172 203 242
#     4   9  15  22  32  45  63  91 130 175 218 255
#     4  10  20  34  53  72  90 111 135 168 207 249
#     4   9  19  33  48  66  87 111 141 175 209 249
#     4  10  19  31  47  67  90 116 145 175 208 245
#     4  10  18  28  42  60  84 112 141 175 213 252
#     4  10  17  24  34  49  72 101 135 174 213 253
#
# _framework density 15.722416000000001
#
# number of rings (size 3 to 8) (size 9 to 14) (size 15 to 20)
#    0.000    2.429    0.000    5.143    0.000    4.000 
#    0.000    0.000    0.000    0.000    0.000    0.000 
#    0.000    0.000    0.000    0.000    0.000    0.714 
#
# Total GULP energy -694133.724868 kJ/mol
# GULP energy per Si atom -12395.245087 kJ/mol
# Density = 1.568663 g / cm^3
# Si number density = 15.722416 Si / 1000 Ang^3
#
#
#
# Elastic Constant Matrix: (Units=GPa)
#
#
# Indices 1 2 3 4 5 6 
#
# 1 85.9797 47.8094 32.1985 0.0000 0.0000 0.0000
# 2 47.8094 126.6301 30.7773 0.0000 0.0000 0.0000
# 3 32.1985 30.7773 69.5869 0.0000 0.0000 0.0000
# 4 0.0000 0.0000 0.0000 7.2178 0.0000 0.0000
# 5 0.0000 0.0000 0.0000 0.0000 18.3630 0.0000
# 6 0.0000 0.0000 0.0000 0.0000 0.0000 26.1467
#
#
#
# Elastic Compliance Matrix: (Units=1/GPa)
#
#
# Indices 1 2 3 4 5 6 
#
# 1 0.016364 -0.004860 -0.005422 0.000000 0.000000 0.000000
# 2 -0.004860 0.010292 -0.002303 0.000000 0.000000 0.000000
# 3 -0.005422 -0.002303 0.017898 0.000000 0.000000 0.000000
# 4 0.000000 0.000000 0.000000 0.138546 0.000000 0.000000
# 5 0.000000 0.000000 0.000000 0.000000 0.054457 0.000000
# 6 0.000000 0.000000 0.000000 0.000000 0.000000 0.038246
#
#
# Mechanical properties :
#
#
# Convention : Reuss Voigt Hill
#
# Bulk Modulus (GPa) = 51.59215 55.97411 53.78313
# Shear Modulus (GPa) = 16.26366 21.77294 19.01830
#
# Velocity S-wave (km/s) = 3.21974 3.72537 3.48175
# Velocity P-wave (km/s) = 6.83432 7.36093 7.10251
#
# Compressibility (1/GPa) = 0.01938279
#
# Stress axis : x y z
#
# Youngs Moduli (GPa) = 61.11068 97.16490 55.87243
#
# Poissons Ratio (x) = 0.47225 0.30294
# Poissons Ratio (y) = 0.29702 0.12867
# Poissons Ratio (z) = 0.33134 0.22377
#
# Static dielectric constant tensor:
#      x y z
#    x 3.159940 0.000000 0.000000 
#    y 0.000000 3.779170 0.000000 
#    z 0.000000 0.000000 2.577320 
# 
# 
# High freq. dielectric constant tensor:
#      x y z
#    x 1.620430 0.000000 0.000000 
#    y 0.000000 1.615960 0.000000 
#    z 0.000000 0.000000 1.541030 
# 
# From -- ./inp_files/22533.got.cif
#   From: 2010.03.12/outbox.cif.g09.slc.cpg/sg51_12_cif.got.tgz:22533.got - 2010.04.16 13:43:02.
