data_PCOD8206382
_publ_section_title
;
Structure prediction by ZEFSAII (Michael W. Deem and Ramdas Pophale) SiO2 
 PCOD8206382
Probable space group: P M M A
;
_chemical_formula_sum "Si O2"
_cell_formula_units_Z 64
_cell_length_a 8.891049
_cell_length_b 18.605131
_cell_length_c 26.991926
_cell_angle_alpha 90.000000
_cell_angle_beta 90.000000
_cell_angle_gamma 90.000000
_cell_volume 4464.980953
_symmetry_space_group_name_H-M "P M M A"
_symmetry_group_IT_number 51
_symmetry_cell_setting 'orthorhombic'
loop_
_space_group_symop_operation_xyz
x,y,z
1/2-x,-y,z
1/2+x,-y,-z
-x,y,-z
-x,-y,-z
1/2+x,y,-z
1/2-x,y,z
x,-y,z
loop_
_atom_site_type_symbol
_atom_site_label
_atom_site_fract_x
_atom_site_fract_y
_atom_site_fract_z
Si Si1 0.424118 0.783097 0.806653
Si Si2 0.580841 0.585592 0.548712
Si Si3 0.926646 0.292829 0.895982
Si Si4 0.572181 0.417700 0.153267
Si Si5 0.928507 0.830793 0.050449
Si Si6 0.574366 0.078550 0.145011
Si Si7 0.573275 0.416814 0.351777
Si Si8 0.076063 0.654568 0.746004
O O1 0.250000 0.771029 0.824283
O O2 0.536889 0.747295 0.844998
O O3 0.459106 0.868981 0.807349
O O4 0.448573 0.741236 0.754382
O O5 0.500000 0.617262 0.500000
O O6 0.750000 0.614363 0.548540
O O7 0.573690 0.500000 0.547592
O O8 0.501015 0.613946 0.598344
O O9 0.750000 0.295266 0.906148
O O10 0.992015 0.373664 0.891073
O O11 0.007447 0.249519 0.940313
O O12 0.750000 0.406327 0.148928
O O13 0.524644 0.500000 0.147372
O O14 0.512962 0.389299 0.206742
O O15 0.750000 0.827734 0.046106
O O16 0.983173 0.883536 0.094683
O O17 0.000000 0.861418 0.000000
O O18 0.750000 0.066373 0.139845
O O19 0.496736 0.000000 0.152501
O O20 0.750000 0.405780 0.357906
O O21 0.532411 0.500000 0.342894
O O22 0.502815 0.371810 0.305536
O O23 0.250000 0.634968 0.741242
#
# Coordination Sequence:
#
# PCOD8206382 Si02
#       8
#     8   8   8   8   8   8   8   8
#     4   8  14  26  42  57  76 103 132 157 182 219
#     4   9  16  25  35  46  62  87 121 159 197 234
#     4  10  18  28  42  59  79 101 126 154 184 221
#     4   9  16  27  43  60  78 101 128 157 189 225
#     4  10  19  31  46  62  80 101 125 151 182 221
#     4   8  14  25  42  63  84 104 126 153 182 212
#     4   9  15  22  33  49  69  93 123 160 197 228
#     4   8  13  22  37  56  75  98 128 157 186 222
#
# _framework density 14.333767999999999
#
# number of rings (size 3 to 8) (size 9 to 14) (size 15 to 20)
#    0.000    3.125    0.000    3.750    0.000    3.500 
#    0.000    2.500    0.000   12.375    0.000    0.000 
#    0.000    0.000    0.000    0.000    0.000    0.625 
#
# Total GULP energy -792857.889695 kJ/mol
# GULP energy per Si atom -12388.404526 kJ/mol
# Density = 1.430114 g / cm^3
# Si number density = 14.333768 Si / 1000 Ang^3
#
#
#
# Elastic Constant Matrix: (Units=GPa)
#
#
# Indices 1 2 3 4 5 6 
#
# 1 47.5773 22.8026 20.5420 0.0000 0.0000 0.0000
# 2 22.8026 105.1272 42.6840 0.0000 0.0000 0.0000
# 3 20.5420 42.6840 66.8252 0.0000 0.0000 0.0000
# 4 0.0000 0.0000 0.0000 12.4486 0.0000 0.0000
# 5 0.0000 0.0000 0.0000 0.0000 17.0659 0.0000
# 6 0.0000 0.0000 0.0000 0.0000 0.0000 8.1885
#
#
#
# Elastic Compliance Matrix: (Units=1/GPa)
#
#
# Indices 1 2 3 4 5 6 
#
# 1 0.024963 -0.003104 -0.005691 0.000000 0.000000 0.000000
# 2 -0.003104 0.013229 -0.007496 0.000000 0.000000 0.000000
# 3 -0.005691 -0.007496 0.021502 0.000000 0.000000 0.000000
# 4 0.000000 0.000000 0.000000 0.080331 0.000000 0.000000
# 5 0.000000 0.000000 0.000000 0.000000 0.058596 0.000000
# 6 0.000000 0.000000 0.000000 0.000000 0.000000 0.122123
#
#
# Mechanical properties :
#
#
# Convention : Reuss Voigt Hill
#
# Bulk Modulus (GPa) = 36.88345 43.50964 40.19654
# Shear Modulus (GPa) = 13.79833 16.44066 15.11950
#
# Velocity S-wave (km/s) = 3.10602 3.39040 3.25132
# Velocity P-wave (km/s) = 6.21698 6.76365 6.49607
#
# Compressibility (1/GPa) = 0.02711243
#
# Stress axis : x y z
#
# Youngs Moduli (GPa) = 40.05890 75.59148 46.50792
#
# Poissons Ratio (x) = 0.23463 0.26468
# Poissons Ratio (y) = 0.12434 0.34861
# Poissons Ratio (z) = 0.22798 0.56662
#
# Static dielectric constant tensor:
#      x y z
#    x 2.621180 0.000000 0.000000 
#    y 0.000000 2.963740 0.000000 
#    z 0.000000 0.000000 2.815830 
# 
# 
# High freq. dielectric constant tensor:
#      x y z
#    x 1.532460 0.000000 0.000000 
#    y 0.000000 1.522470 0.000000 
#    z 0.000000 0.000000 1.522260 
# 
# From -- ./inp_files/36473.got.cif
#   From: 2010.03.12/outbox.cif.g09.slc.cpg/sg51_19_cif.got.tgz:36473.got - 2010.04.16 13:43:02.
