data_PCOD8206985
_publ_section_title
;
Structure prediction by ZEFSAII (Michael W. Deem and Ramdas Pophale) SiO2 
 PCOD8206985
Probable space group: P M M A
;
_chemical_formula_sum "Si O2"
_cell_formula_units_Z 64
_cell_length_a 33.040364
_cell_length_b 9.143523
_cell_length_c 11.259283
_cell_angle_alpha 90.000000
_cell_angle_beta 90.000000
_cell_angle_gamma 90.000000
_cell_volume 3401.489386
_symmetry_space_group_name_H-M "P M M A"
_symmetry_group_IT_number 51
_symmetry_cell_setting 'orthorhombic'
loop_
_space_group_symop_operation_xyz
x,y,z
1/2-x,-y,z
1/2+x,-y,-z
-x,y,-z
-x,-y,-z
1/2+x,y,-z
1/2-x,y,z
x,-y,z
loop_
_atom_site_type_symbol
_atom_site_label
_atom_site_fract_x
_atom_site_fract_y
_atom_site_fract_z
Si Si1 0.920913 0.167005 0.577959
Si Si2 0.057607 0.830028 0.818907
Si Si3 0.796408 0.334188 0.693438
Si Si4 0.485385 0.330975 0.284601
Si Si5 0.628182 0.168452 0.352086
Si Si6 0.795187 0.327581 0.422176
Si Si7 0.070684 0.331006 0.057444
Si Si8 0.135007 0.166240 0.194415
O O1 0.959813 0.267134 0.605215
O O2 0.898838 0.229209 0.461089
O O3 0.889518 0.179322 0.684561
O O4 0.935376 0.000000 0.559276
O O5 0.103101 0.809853 0.769134
O O6 0.026744 0.759977 0.724198
O O7 0.046846 0.000000 0.835701
O O8 0.052480 0.747600 0.942812
O O9 0.750000 0.325532 0.732523
O O10 0.812627 0.500000 0.703872
O O11 0.801667 0.278670 0.558425
O O12 0.820702 0.231713 0.783553
O O13 0.494893 0.500000 0.309772
O O14 0.461237 0.309801 0.162302
O O15 0.670765 0.252629 0.340604
O O16 0.638356 0.000000 0.376368
O O17 0.750000 0.279794 0.380487
O O18 0.799707 0.500000 0.410378
O O19 0.078143 0.500000 0.027917
O O20 0.113270 0.257288 0.090879
O O21 0.138979 0.000000 0.150687
#
# Coordination Sequence:
#
# PCOD8206985 Si02
#       8
#     8   8   8   8   8   8   8   8
#     4   9  18  33  51  74 105 139 172 208 258 311
#     4  11  23  37  54  76 104 138 178 221 264 309
#     4   9  17  29  47  75 110 141 168 204 255 311
#     4  10  21  36  55  78 103 133 173 220 267 314
#     4  10  21  36  53  77 109 143 177 215 258 311
#     4   9  18  32  52  79 109 141 176 213 254 303
#     4  10  21  37  56  76 101 133 174 222 267 312
#     4  10  18  30  52  78 104 135 172 212 257 310
#
# _framework density 18.815286
#
# number of rings (size 3 to 8) (size 9 to 14) (size 15 to 20)
#    0.000    2.250    1.250    2.625    0.000    6.000 
#    0.000    3.750    0.000    0.750    0.000    3.500 
#    0.000    0.000    0.000    0.000    0.000    0.000 
#
# Total GULP energy -793757.343818 kJ/mol
# GULP energy per Si atom -12402.458497 kJ/mol
# Density = 1.877246 g / cm^3
# Si number density = 18.815286 Si / 1000 Ang^3
#
#
#
# Elastic Constant Matrix: (Units=GPa)
#
#
# Indices 1 2 3 4 5 6 
#
# 1 93.3373 48.1248 5.5427 0.0000 0.0000 0.0000
# 2 48.1248 103.1438 15.6702 0.0000 0.0000 0.0000
# 3 5.5427 15.6702 24.8054 0.0000 0.0000 0.0000
# 4 0.0000 0.0000 0.0000 24.2078 0.0000 0.0000
# 5 0.0000 0.0000 0.0000 0.0000 21.1072 0.0000
# 6 0.0000 0.0000 0.0000 0.0000 0.0000 37.5946
#
#
#
# Elastic Compliance Matrix: (Units=1/GPa)
#
#
# Indices 1 2 3 4 5 6 
#
# 1 0.014136 -0.006765 0.001115 0.000000 0.000000 0.000000
# 2 -0.006765 0.013962 -0.007308 0.000000 0.000000 0.000000
# 3 0.001115 -0.007308 0.044682 0.000000 0.000000 0.000000
# 4 0.000000 0.000000 0.000000 0.041309 0.000000 0.000000
# 5 0.000000 0.000000 0.000000 0.000000 0.047377 0.000000
# 6 0.000000 0.000000 0.000000 0.000000 0.000000 0.026600
#
#
# Mechanical properties :
#
#
# Convention : Reuss Voigt Hill
#
# Bulk Modulus (GPa) = 21.33911 39.99578 30.66744
# Shear Modulus (GPa) = 21.77683 26.71187 24.24435
#
# Velocity S-wave (km/s) = 3.40575 3.77196 3.59353
# Velocity P-wave (km/s) = 5.17991 6.34614 5.79245
#
# Compressibility (1/GPa) = 0.04686231
#
# Stress axis : x y z
#
# Youngs Moduli (GPa) = 70.74381 71.62389 22.38060
#
# Poissons Ratio (x) = 0.48452 -0.02495
# Poissons Ratio (y) = 0.47856 0.16357
# Poissons Ratio (z) = -0.07887 0.52346
#
# Static dielectric constant tensor:
#      x y z
#    x 3.418040 0.000000 0.000000 
#    y 0.000000 3.459140 0.000000 
#    z 0.000000 0.000000 3.169380 
# 
# 
# High freq. dielectric constant tensor:
#      x y z
#    x 1.729870 0.000000 0.000000 
#    y 0.000000 1.734530 0.000000 
#    z 0.000000 0.000000 1.701430 
# 
# From -- ./inp_files/19499.got.cif
#   From: 2010.03.12/outbox.cif.g09.slc.cpg/sg51_10_cif.got.tgz:19499.got - 2010.04.16 13:43:02.
