data_PCOD8206022
_publ_section_title
;
Structure prediction by ZEFSAII (Michael W. Deem and Ramdas Pophale) SiO2 
 PCOD8206022
Probable space group: P M M A
;
_chemical_formula_sum "Si O2"
_cell_formula_units_Z 44
_cell_length_a 8.733770
_cell_length_b 23.555308
_cell_length_c 14.228684
_cell_angle_alpha 90.000000
_cell_angle_beta 90.000000
_cell_angle_gamma 90.000000
_cell_volume 2927.219384
_symmetry_space_group_name_H-M "P M M A"
_symmetry_group_IT_number 51
_symmetry_cell_setting 'orthorhombic'
loop_
_space_group_symop_operation_xyz
x,y,z
1/2-x,-y,z
1/2+x,-y,-z
-x,y,-z
-x,-y,-z
1/2+x,y,-z
1/2-x,y,z
x,-y,z
loop_
_atom_site_type_symbol
_atom_site_label
_atom_site_fract_x
_atom_site_fract_y
_atom_site_fract_z
Si Si1 0.068830 0.172169 0.895789
Si Si2 0.571408 0.938441 0.897473
Si Si3 0.071917 0.398256 0.215142
Si Si4 0.428630 0.433779 0.598808
Si Si5 0.571415 0.285780 0.898689
Si Si6 0.429995 0.500000 0.897777
O O1 0.250000 0.173024 0.896128
O O2 0.009050 0.114620 0.843026
O O3 0.004907 0.230153 0.849885
O O4 0.000000 0.171164 0.000000
O O5 0.750000 0.925222 0.906632
O O6 0.544167 0.000000 0.846849
O O7 0.500000 0.942475 0.000000
O O8 0.250000 0.414180 0.211820
O O9 0.038761 0.337022 0.171648
O O10 0.013165 0.397223 0.321857
O O11 0.978864 0.444146 0.156853
O O12 0.500000 0.415293 0.500000
O O13 0.250000 0.419545 0.598697
O O14 0.459023 0.500000 0.618920
O O15 0.750000 0.274577 0.913654
O O16 0.500000 0.300118 0.000000
O O17 0.250000 0.500000 0.907598
O O18 0.500000 0.500000 0.000000
#
# Coordination Sequence:
#
# PCOD8206022 Si02
#       6
#     8   8   8   8   8   4
#     4  10  17  25  38  53  73 102 135 174 212 249
#     4   9  15  22  33  49  70  96 128 169 212 250
#     4  11  22  35  51  69  89 113 142 178 217 261
#     4  10  20  34  53  74  93 114 136 169 213 260
#     4  10  20  32  45  61  82 112 146 180 215 253
#     4  12  24  36  49  66  89 116 144 178 218 258
#
# _framework density 15.031330000000001
#
# number of rings (size 3 to 8) (size 9 to 14) (size 15 to 20)
#    0.000    1.818    0.909    7.364    0.000    6.182 
#    0.000    0.000    0.000    0.000    0.000    0.000 
#    0.000    0.000    0.000    0.000    0.000    0.909 
#
# Total GULP energy -545412.481632 kJ/mol
# GULP energy per Si atom -12395.738219 kJ/mol
# Density = 1.499712 g / cm^3
# Si number density = 15.031330 Si / 1000 Ang^3
#
#
#
# Elastic Constant Matrix: (Units=GPa)
#
#
# Indices 1 2 3 4 5 6 
#
# 1 131.4787 71.8117 38.1441 0.0000 0.0000 0.0000
# 2 71.8117 124.0965 41.4455 0.0000 0.0000 0.0000
# 3 38.1441 41.4455 70.0194 0.0000 0.0000 0.0000
# 4 0.0000 0.0000 0.0000 -5.5277 0.0000 0.0000
# 5 0.0000 0.0000 0.0000 0.0000 19.9361 0.0000
# 6 0.0000 0.0000 0.0000 0.0000 0.0000 24.3455
#
#
#
# Elastic Compliance Matrix: (Units=1/GPa)
#
#
# Indices 1 2 3 4 5 6 
#
# 1 0.011580 -0.005726 -0.002919 0.000000 0.000000 0.000000
# 2 -0.005726 0.012875 -0.004502 0.000000 0.000000 0.000000
# 3 -0.002919 -0.004502 0.018537 0.000000 0.000000 0.000000
# 4 0.000000 0.000000 0.000000 -0.180909 0.000000 0.000000
# 5 0.000000 0.000000 0.000000 0.000000 0.050160 0.000000
# 6 0.000000 0.000000 0.000000 0.000000 0.000000 0.041075
#
#
# Mechanical properties :
#
#
# Convention : Reuss Voigt Hill
#
# Bulk Modulus (GPa) = 59.88664 69.82190 64.85427
# Shear Modulus (GPa) = -337.36230 19.36369 -158.99931
#
# Velocity S-wave (km/s) = -14.99756 3.59307 -10.29603
# Velocity P-wave (km/s) = 16.12373 7.98532 9.90478
#
# Compressibility (1/GPa) = 0.01669822
#
# Stress axis : x y z
#
# Youngs Moduli (GPa) = 86.35350 77.66747 53.94760
#
# Poissons Ratio (x) = 0.44475 0.15747
# Poissons Ratio (y) = 0.49449 0.24285
# Poissons Ratio (z) = 0.25207 0.34963
#
# Static dielectric constant tensor:
#      x y z
#    x 3.087090 0.000000 0.000000 
#    y 0.000000 3.733180 0.000000 
#    z 0.000000 0.000000 2.540810 
# 
# 
# High freq. dielectric constant tensor:
#      x y z
#    x 1.601970 0.000000 0.000000 
#    y 0.000000 1.586050 0.000000 
#    z 0.000000 0.000000 1.511180 
# 
# From -- ./inp_files/21974.got.cif
#   From: 2010.03.12/outbox.cif.g09.slc.cpg/sg51_11_cif.got.tgz:21974.got - 2010.04.16 13:43:02.
