data_PCOD8206316
_publ_section_title
;
Structure prediction by ZEFSAII (Michael W. Deem and Ramdas Pophale) SiO2 
 PCOD8206316
Probable space group: P M M A
;
_chemical_formula_sum "Si O2"
_cell_formula_units_Z 64
_cell_length_a 25.907334
_cell_length_b 8.996846
_cell_length_c 18.304238
_cell_angle_alpha 90.000000
_cell_angle_beta 90.000000
_cell_angle_gamma 90.000000
_cell_volume 4266.430396
_symmetry_space_group_name_H-M "P M M A"
_symmetry_group_IT_number 51
_symmetry_cell_setting 'orthorhombic'
loop_
_space_group_symop_operation_xyz
x,y,z
1/2-x,-y,z
1/2+x,-y,-z
-x,y,-z
-x,-y,-z
1/2+x,y,-z
1/2-x,y,z
x,-y,z
loop_
_atom_site_type_symbol
_atom_site_label
_atom_site_fract_x
_atom_site_fract_y
_atom_site_fract_z
Si Si1 0.903888 0.171422 0.086788
Si Si2 0.507334 0.675885 0.175660
Si Si3 0.691896 0.830309 0.180639
Si Si4 0.054290 0.336288 0.040568
Si Si5 0.502449 0.174793 0.330691
Si Si6 0.104796 0.825547 0.580835
Si Si7 0.189957 0.672216 0.671588
Si Si8 0.052316 0.667390 0.454887
O O1 0.940119 0.264732 0.140285
O O2 0.845120 0.198301 0.111810
O O3 0.920205 0.000000 0.092012
O O4 0.908112 0.223605 0.002279
O O5 0.513151 0.500000 0.186401
O O6 0.458085 0.714156 0.123601
O O7 0.497273 0.754584 0.251645
O O8 0.750000 0.793980 0.154668
O O9 0.675119 0.726229 0.247471
O O10 0.687025 0.000000 0.208231
O O11 0.079872 0.500000 0.039745
O O12 0.000000 0.342277 0.000000
O O13 0.558558 0.213558 0.363444
O O14 0.456984 0.243661 0.380024
O O15 0.493768 0.000000 0.325836
O O16 0.158030 0.763532 0.612251
O O17 0.095904 0.749725 0.502259
O O18 0.109272 0.000000 0.568182
O O19 0.250000 0.701939 0.655740
O O20 0.175413 0.500000 0.665381
O O21 0.070565 0.500000 0.437068
O O22 0.000000 0.666412 0.500000
#
# Coordination Sequence:
#
# PCOD8206316 Si02
#       8
#     8   8   8   8   8   8   8   8
#     4  10  18  27  42  61  79 105 140 173 205 241
#     4  10  19  29  41  58  82 111 139 167 203 246
#     4   9  18  31  43  57  81 110 138 170 208 246
#     4   8  16  29  41  55  78 107 135 165 203 244
#     4  10  19  29  42  62  86 110 139 173 205 242
#     4  10  19  30  44  61  83 112 142 171 207 247
#     4  10  20  31  43  61  83 108 142 180 211 241
#     4   9  17  29  44  61  82 109 139 170 204 242
#
# _framework density 15.000830000000001
#
# number of rings (size 3 to 8) (size 9 to 14) (size 15 to 20)
#    0.000    2.500    0.000    3.750    0.000   10.500 
#    0.000    0.000    0.000    0.000    0.000    0.000 
#    0.000    1.000    0.000    6.500    0.000    4.250 
#
# Total GULP energy -793528.464055 kJ/mol
# GULP energy per Si atom -12398.882251 kJ/mol
# Density = 1.496669 g / cm^3
# Si number density = 15.000830 Si / 1000 Ang^3
#
#
#
# Elastic Constant Matrix: (Units=GPa)
#
#
# Indices 1 2 3 4 5 6 
#
# 1 57.8054 37.1917 40.5077 0.0000 0.0000 0.0000
# 2 37.1917 92.8774 53.9872 0.0000 0.0000 0.0000
# 3 40.5077 53.9872 103.4251 0.0000 0.0000 0.0000
# 4 0.0000 0.0000 0.0000 30.2099 0.0000 0.0000
# 5 0.0000 0.0000 0.0000 0.0000 24.8628 0.0000
# 6 0.0000 0.0000 0.0000 0.0000 0.0000 19.4277
#
#
#
# Elastic Compliance Matrix: (Units=1/GPa)
#
#
# Indices 1 2 3 4 5 6 
#
# 1 0.026344 -0.006534 -0.006907 0.000000 0.000000 0.000000
# 2 -0.006534 0.017077 -0.006355 0.000000 0.000000 0.000000
# 3 -0.006907 -0.006355 0.015691 0.000000 0.000000 0.000000
# 4 0.000000 0.000000 0.000000 0.033102 0.000000 0.000000
# 5 0.000000 0.000000 0.000000 0.000000 0.040221 0.000000
# 6 0.000000 0.000000 0.000000 0.000000 0.000000 0.051473
#
#
# Mechanical properties :
#
#
# Convention : Reuss Voigt Hill
#
# Bulk Modulus (GPa) = 51.22983 57.49790 54.36387
# Shear Modulus (GPa) = 21.73846 23.06150 22.39998
#
# Velocity S-wave (km/s) = 3.81090 3.92516 3.86845
# Velocity P-wave (km/s) = 7.32048 7.67825 7.50150
#
# Compressibility (1/GPa) = 0.01951988
#
# Stress axis : x y z
#
# Youngs Moduli (GPa) = 37.95987 58.55659 63.72913
#
# Poissons Ratio (x) = 0.38262 0.44018
# Poissons Ratio (y) = 0.24803 0.40501
# Poissons Ratio (z) = 0.26219 0.37214
#
# Static dielectric constant tensor:
#      x y z
#    x 2.707500 0.000000 0.000000 
#    y 0.000000 3.079320 0.000000 
#    z 0.000000 0.000000 3.003000 
# 
# 
# High freq. dielectric constant tensor:
#      x y z
#    x 1.536390 0.000000 0.000000 
#    y 0.000000 1.592990 0.000000 
#    z 0.000000 0.000000 1.564050 
# 
# From -- ./inp_files/30830.got.cif
#   From: 2010.03.12/outbox.cif.g09.slc.cpg/sg51_16_cif.got.tgz:30830.got - 2010.04.16 13:43:02.
