data_PCOD8206210
_publ_section_title
;
Structure prediction by ZEFSAII (Michael W. Deem and Ramdas Pophale) SiO2 
 PCOD8206210
Probable space group: P M M A
;
_chemical_formula_sum "Si O2"
_cell_formula_units_Z 40
_cell_length_a 15.526048
_cell_length_b 13.046998
_cell_length_c 10.325612
_cell_angle_alpha 90.000000
_cell_angle_beta 90.000000
_cell_angle_gamma 90.000000
_cell_volume 2091.641847
_symmetry_space_group_name_H-M "P M M A"
_symmetry_group_IT_number 51
_symmetry_cell_setting 'orthorhombic'
loop_
_space_group_symop_operation_xyz
x,y,z
1/2-x,-y,z
1/2+x,-y,-z
-x,y,-z
-x,-y,-z
1/2+x,y,-z
1/2-x,y,z
x,-y,z
loop_
_atom_site_type_symbol
_atom_site_label
_atom_site_fract_x
_atom_site_fract_y
_atom_site_fract_z
Si Si1 0.845044 0.298078 0.495505
Si Si2 0.094608 0.748221 0.014045
Si Si3 0.250000 0.118534 0.409997
Si Si4 0.849578 0.381162 0.756658
Si Si5 0.750000 0.118166 0.899116
Si Si6 0.147758 0.382140 0.769874
O O1 0.750000 0.349318 0.487459
O O2 0.834375 0.175433 0.527549
O O3 0.891069 0.353481 0.616763
O O4 0.889924 0.324102 0.358851
O O5 0.111344 0.677945 0.890837
O O6 0.092967 0.674432 0.137681
O O7 0.165397 0.835879 0.033059
O O8 0.000000 0.799142 0.000000
O O9 0.250000 0.134311 0.255587
O O10 0.250000 0.000000 0.450676
O O11 0.750000 0.342098 0.767323
O O12 0.855136 0.500000 0.784297
O O13 0.750000 0.000000 0.934565
O O14 0.250000 0.376299 0.777385
O O15 0.115808 0.500000 0.770383
#
# Coordination Sequence:
#
# PCOD8206210 Si02
#       6
#     8   8   4   8   4   8
#     4   8  15  30  51  82 112 146 198 237 291 340
#     4  12  23  38  58  87 119 153 195 239 286 339
#     4   9  16  31  60  87 107 141 197 249 298 343
#     4  10  17  31  55  80 112 154 201 238 279 343
#     4  11  22  43  66  85 111 149 197 243 294 341
#     4  10  19  33  55  84 123 161 189 231 290 346
#
# _framework density 19.123733000000001
#
# number of rings (size 3 to 8) (size 9 to 14) (size 15 to 20)
#    0.600    1.400    4.000    1.200    0.000    6.000 
#    0.000    3.000    0.000    2.400    0.000    2.800 
#    0.000    0.000    0.000    0.000    0.000    0.000 
#
# Total GULP energy -495631.599927 kJ/mol
# GULP energy per Si atom -12390.789998 kJ/mol
# Density = 1.908021 g / cm^3
# Si number density = 19.123733 Si / 1000 Ang^3
#
#
#
# Elastic Constant Matrix: (Units=GPa)
#
#
# Indices 1 2 3 4 5 6 
#
# 1 54.9931 44.5748 27.2745 0.0000 0.0000 0.0000
# 2 44.5748 129.6494 46.6462 0.0000 0.0000 0.0000
# 3 27.2745 46.6462 138.6498 0.0000 0.0000 0.0000
# 4 0.0000 0.0000 0.0000 28.7646 0.0000 0.0000
# 5 0.0000 0.0000 0.0000 0.0000 -15.3231 0.0000
# 6 0.0000 0.0000 0.0000 0.0000 0.0000 3.7431
#
#
#
# Elastic Compliance Matrix: (Units=1/GPa)
#
#
# Indices 1 2 3 4 5 6 
#
# 1 0.025886 -0.008041 -0.002387 0.000000 0.000000 0.000000
# 2 -0.008041 0.011273 -0.002211 0.000000 0.000000 0.000000
# 3 -0.002387 -0.002211 0.008426 0.000000 0.000000 0.000000
# 4 0.000000 0.000000 0.000000 0.034765 0.000000 0.000000
# 5 0.000000 0.000000 0.000000 0.000000 -0.065261 0.000000
# 6 0.000000 0.000000 0.000000 0.000000 0.000000 0.267159
#
#
# Mechanical properties :
#
#
# Convention : Reuss Voigt Hill
#
# Bulk Modulus (GPa) = 49.24394 62.25369 55.74881
# Shear Modulus (GPa) = 15.90869 17.09003 16.49936
#
# Velocity S-wave (km/s) = 2.88737 2.99265 2.94048
# Velocity P-wave (km/s) = 6.07634 6.67571 6.38306
#
# Compressibility (1/GPa) = 0.02030707
#
# Stress axis : x y z
#
# Youngs Moduli (GPa) = 38.63165 88.70669 118.68381
#
# Poissons Ratio (x) = 0.71329 0.28328
# Poissons Ratio (y) = 0.31064 0.26239
# Poissons Ratio (z) = 0.09221 0.19612
#
# Static dielectric constant tensor:
#      x y z
#    x 3.211030 0.000000 0.000000 
#    y 0.000000 3.420470 0.000000 
#    z 0.000000 0.000000 3.815030 
# 
# 
# High freq. dielectric constant tensor:
#      x y z
#    x 1.702050 0.000000 0.000000 
#    y 0.000000 1.729730 0.000000 
#    z 0.000000 0.000000 1.761550 
# 
# From -- ./inp_files/8002.got.cif
#   From: 2010.03.12/outbox.cif.g09.slc.cpg/sg51_5_cif.got.tgz:8002.got - 2010.04.16 13:43:02.
