data_PCOD8206146
_publ_section_title
;
Structure prediction by ZEFSAII (Michael W. Deem and Ramdas Pophale) SiO2 
 PCOD8206146
Probable space group: P M M A
;
_chemical_formula_sum "Si O2"
_cell_formula_units_Z 48
_cell_length_a 20.991861
_cell_length_b 8.425930
_cell_length_c 15.189180
_cell_angle_alpha 90.000000
_cell_angle_beta 90.000000
_cell_angle_gamma 90.000000
_cell_volume 2686.600663
_symmetry_space_group_name_H-M "P M M A"
_symmetry_group_IT_number 51
_symmetry_cell_setting 'orthorhombic'
loop_
_space_group_symop_operation_xyz
x,y,z
1/2-x,-y,z
1/2+x,-y,-z
-x,y,-z
-x,-y,-z
1/2+x,y,-z
1/2-x,y,z
x,-y,z
loop_
_atom_site_type_symbol
_atom_site_label
_atom_site_fract_x
_atom_site_fract_y
_atom_site_fract_z
Si Si1 0.479401 0.684351 0.726918
Si Si2 0.318543 0.314573 0.883103
Si Si3 0.543682 0.313127 0.076754
Si Si4 0.347636 0.816828 0.699817
Si Si5 0.947820 0.188131 0.572939
Si Si6 0.681297 0.812467 0.491566
O O1 0.461409 0.500000 0.716886
O O2 0.490508 0.724262 0.830136
O O3 0.423232 0.794631 0.690536
O O4 0.539929 0.729115 0.667316
O O5 0.250000 0.246121 0.919616
O O6 0.319619 0.500000 0.900982
O O7 0.383523 0.240724 0.925775
O O8 0.319809 0.287097 0.778655
O O9 0.549091 0.500000 0.061440
O O10 0.500000 0.235890 0.000000
O O11 0.317508 0.753667 0.609272
O O12 0.331155 0.000000 0.717794
O O13 0.878577 0.257489 0.544975
O O14 0.000000 0.239553 0.500000
O O15 0.947608 0.000000 0.585330
O O16 0.750000 0.764694 0.534263
O O17 0.672071 0.000000 0.489720
#
# Coordination Sequence:
#
# PCOD8206146 Si02
#       6
#     8   8   8   8   8   8
#     4  10  19  30  47  71  94 120 156 197 241 280
#     4   9  17  28  43  67  96 120 147 189 239 287
#     4   8  15  29  48  67  89 119 153 188 230 284
#     4  10  17  28  45  66  93 123 156 187 226 283
#     4  10  18  31  48  67  91 123 161 195 226 273
#     4   9  17  28  43  63  88 120 158 193 224 267
#
# _framework density 17.866444000000001
#
# number of rings (size 3 to 8) (size 9 to 14) (size 15 to 20)
#    0.000    2.667    1.667    2.500    0.000    1.333 
#    0.000    0.000    0.000   16.000    0.000    2.333 
#    0.000    0.000    0.000    0.000    0.000    0.000 
#
# Total GULP energy -594638.687328 kJ/mol
# GULP energy per Si atom -12388.305986 kJ/mol
# Density = 1.782578 g / cm^3
# Si number density = 17.866444 Si / 1000 Ang^3
#
#
#
# Elastic Constant Matrix: (Units=GPa)
#
#
# Indices 1 2 3 4 5 6 
#
# 1 165.1724 7.6826 77.8001 0.0000 0.0000 0.0000
# 2 7.6826 12.9838 10.5231 0.0000 0.0000 0.0000
# 3 77.8001 10.5231 93.7592 0.0000 0.0000 0.0000
# 4 0.0000 0.0000 0.0000 10.6587 0.0000 0.0000
# 5 0.0000 0.0000 0.0000 0.0000 20.8565 0.0000
# 6 0.0000 0.0000 0.0000 0.0000 0.0000 9.8833
#
#
#
# Elastic Compliance Matrix: (Units=1/GPa)
#
#
# Indices 1 2 3 4 5 6 
#
# 1 0.009948 0.000884 -0.008354 0.000000 0.000000 0.000000
# 2 0.000884 0.084805 -0.010252 0.000000 0.000000 0.000000
# 3 -0.008354 -0.010252 0.018748 0.000000 0.000000 0.000000
# 4 0.000000 0.000000 0.000000 0.093820 0.000000 0.000000
# 5 0.000000 0.000000 0.000000 0.000000 0.047947 0.000000
# 6 0.000000 0.000000 0.000000 0.000000 0.000000 0.101180
#
#
# Mechanical properties :
#
#
# Convention : Reuss Voigt Hill
#
# Bulk Modulus (GPa) = 12.81097 51.54745 32.17921
# Shear Modulus (GPa) = 11.96428 20.00703 15.98565
#
# Velocity S-wave (km/s) = 2.59057 3.34999 2.99445
# Velocity P-wave (km/s) = 4.01672 6.62400 5.47775
#
# Compressibility (1/GPa) = 0.07805811
#
# Stress axis : x y z
#
# Youngs Moduli (GPa) = 100.52166 11.79177 53.33808
#
# Poissons Ratio (x) = -0.01043 0.44559
# Poissons Ratio (y) = -0.08890 0.54682
# Poissons Ratio (z) = 0.83976 0.12089
#
# Static dielectric constant tensor:
#      x y z
#    x 3.865160 0.000000 0.000000 
#    y 0.000000 2.935040 0.000000 
#    z 0.000000 0.000000 3.229110 
# 
# 
# High freq. dielectric constant tensor:
#      x y z
#    x 1.699180 0.000000 0.000000 
#    y 0.000000 1.657570 0.000000 
#    z 0.000000 0.000000 1.657740 
# 
# From -- ./inp_files/26008.got.cif
#   From: 2010.03.12/outbox.cif.g09.slc.cpg/sg51_14_cif.got.tgz:26008.got - 2010.04.16 13:43:02.
