data_PCOD8206668
_publ_section_title
;
Structure prediction by ZEFSAII (Michael W. Deem and Ramdas Pophale) SiO2 
 PCOD8206668
Probable space group: P M M A
;
_chemical_formula_sum "Si O2"
_cell_formula_units_Z 56
_cell_length_a 9.012367
_cell_length_b 18.486870
_cell_length_c 18.910872
_cell_angle_alpha 90.000000
_cell_angle_beta 90.000000
_cell_angle_gamma 90.000000
_cell_volume 3150.749028
_symmetry_space_group_name_H-M "P M M A"
_symmetry_group_IT_number 51
_symmetry_cell_setting 'orthorhombic'
loop_
_space_group_symop_operation_xyz
x,y,z
1/2-x,-y,z
1/2+x,-y,-z
-x,y,-z
-x,-y,-z
1/2+x,y,-z
1/2-x,y,z
x,-y,z
loop_
_atom_site_type_symbol
_atom_site_label
_atom_site_fract_x
_atom_site_fract_y
_atom_site_fract_z
Si Si1 0.920289 0.918480 0.832084
Si Si2 0.075801 0.809660 0.429021
Si Si3 0.075652 0.215619 0.074943
Si Si4 0.922609 0.357767 0.569884
Si Si5 0.423299 0.295485 0.802120
Si Si6 0.922587 0.843237 0.289669
Si Si7 0.578358 0.416419 0.718490
O O1 0.750000 0.905847 0.809463
O O2 0.963457 0.864156 0.895276
O O3 0.021993 0.904688 0.763956
O O4 0.947692 0.000000 0.859264
O O5 0.250000 0.822992 0.433652
O O6 0.034169 0.725728 0.419339
O O7 0.000000 0.840134 0.500000
O O8 0.010312 0.852903 0.362663
O O9 0.250000 0.227753 0.067199
O O10 0.010523 0.276676 0.126473
O O11 0.000000 0.224601 0.000000
O O12 0.750000 0.368322 0.557769
O O13 0.977608 0.401392 0.638650
O O14 0.000000 0.389839 0.500000
O O15 0.250000 0.300323 0.819625
O O16 0.457294 0.235353 0.742941
O O17 0.481012 0.372123 0.774163
O O18 0.750000 0.854433 0.304382
O O19 0.750000 0.392552 0.725238
O O20 0.556028 0.500000 0.736766
#
# Coordination Sequence:
#
# PCOD8206668 Si02
#       7
#     8   8   8   8   8   8   8
#     4   9  19  35  54  78 109 144 175 203 243 297
#     4  10  18  29  47  70  98 131 171 220 268 311
#     4  10  20  35  57  83 111 140 171 205 246 295
#     4   9  18  30  45  67  97 133 172 214 262 311
#     4  10  20  34  53  76 103 133 173 217 256 302
#     4  10  19  31  50  75 101 133 174 218 260 302
#     4  10  20  34  51  72 101 138 177 217 265 316
#
# _framework density 17.773551000000001
#
# number of rings (size 3 to 8) (size 9 to 14) (size 15 to 20)
#    0.000    2.286    1.429    1.714    0.000    4.000 
#    0.000    0.000    0.000    0.857    0.000    0.000 
#    0.000    0.000    0.000    0.000    0.000    0.000 
#
# Total GULP energy -694581.935075 kJ/mol
# GULP energy per Si atom -12403.248841 kJ/mol
# Density = 1.773310 g / cm^3
# Si number density = 17.773551 Si / 1000 Ang^3
#
#
#
# Elastic Constant Matrix: (Units=GPa)
#
#
# Indices 1 2 3 4 5 6 
#
# 1 83.5961 28.7080 63.8236 0.0000 0.0000 0.0000
# 2 28.7080 65.2769 41.8781 0.0000 0.0000 0.0000
# 3 63.8236 41.8781 140.1272 0.0000 0.0000 0.0000
# 4 0.0000 0.0000 0.0000 17.6259 0.0000 0.0000
# 5 0.0000 0.0000 0.0000 0.0000 36.3807 0.0000
# 6 0.0000 0.0000 0.0000 0.0000 0.0000 22.1051
#
#
#
# Elastic Compliance Matrix: (Units=1/GPa)
#
#
# Indices 1 2 3 4 5 6 
#
# 1 0.018951 -0.003460 -0.007598 0.000000 0.000000 0.000000
# 2 -0.003460 0.019585 -0.004277 0.000000 0.000000 0.000000
# 3 -0.007598 -0.004277 0.011875 0.000000 0.000000 0.000000
# 4 0.000000 0.000000 0.000000 0.056735 0.000000 0.000000
# 5 0.000000 0.000000 0.000000 0.000000 0.027487 0.000000
# 6 0.000000 0.000000 0.000000 0.000000 0.000000 0.045239
#
#
# Mechanical properties :
#
#
# Convention : Reuss Voigt Hill
#
# Bulk Modulus (GPa) = 50.65487 61.97997 56.31742
# Shear Modulus (GPa) = 23.02852 25.52835 24.27844
#
# Velocity S-wave (km/s) = 3.60344 3.79398 3.69994
# Velocity P-wave (km/s) = 6.77311 7.35800 7.07160
#
# Compressibility (1/GPa) = 0.01974144
#
# Stress axis : x y z
#
# Youngs Moduli (GPa) = 52.76736 51.05917 84.21018
#
# Poissons Ratio (x) = 0.17668 0.63979
# Poissons Ratio (y) = 0.18259 0.36018
# Poissons Ratio (z) = 0.40090 0.21839
#
# Static dielectric constant tensor:
#      x y z
#    x 3.307970 0.000000 0.000000 
#    y 0.000000 3.053520 0.000000 
#    z 0.000000 0.000000 3.244110 
# 
# 
# High freq. dielectric constant tensor:
#      x y z
#    x 1.695040 0.000000 0.000000 
#    y 0.000000 1.659450 0.000000 
#    z 0.000000 0.000000 1.684470 
# 
# From -- ./inp_files/28198.got.cif
#   From: 2010.03.12/outbox.cif.g09.slc.cpg/sg51_15_cif.got.tgz:28198.got - 2010.04.16 13:43:02.
