data_PCOD8206938
_publ_section_title
;
Structure prediction by ZEFSAII (Michael W. Deem and Ramdas Pophale) SiO2 
 PCOD8206938
Probable space group: P M M A
;
_chemical_formula_sum "Si O2"
_cell_formula_units_Z 56
_cell_length_a 20.569815
_cell_length_b 9.382594
_cell_length_c 15.347157
_cell_angle_alpha 90.000000
_cell_angle_beta 90.000000
_cell_angle_gamma 90.000000
_cell_volume 2961.974026
_symmetry_space_group_name_H-M "P M M A"
_symmetry_group_IT_number 51
_symmetry_cell_setting 'orthorhombic'
loop_
_space_group_symop_operation_xyz
x,y,z
1/2-x,-y,z
1/2+x,-y,-z
-x,y,-z
-x,-y,-z
1/2+x,y,-z
1/2-x,y,z
x,-y,z
loop_
_atom_site_type_symbol
_atom_site_label
_atom_site_fract_x
_atom_site_fract_y
_atom_site_fract_z
Si Si1 0.250000 0.335186 0.759740
Si Si2 0.606301 0.337314 0.669530
Si Si3 0.614399 0.836536 0.497592
Si Si4 0.955539 0.663553 0.351314
Si Si5 0.115284 0.668004 0.817427
Si Si6 0.750000 0.844403 0.405586
Si Si7 0.825645 0.331057 0.849762
Si Si8 0.425805 0.670018 0.000907
O O1 0.250000 0.500000 0.741401
O O2 0.310267 0.287259 0.816419
O O3 0.250000 0.275901 0.664403
O O4 0.626821 0.500000 0.647654
O O5 0.623358 0.232823 0.591591
O O6 0.529157 0.327566 0.680828
O O7 0.644139 0.284953 0.756437
O O8 0.561202 0.754233 0.437810
O O9 0.686273 0.823973 0.461853
O O10 0.590973 0.000000 0.505689
O O11 0.935456 0.500000 0.371451
O O12 0.917258 0.731761 0.269520
O O13 0.101316 0.500000 0.817111
O O14 0.093862 0.735096 0.907951
O O15 0.750000 0.000000 0.361184
O O16 0.750000 0.275257 0.860112
O O17 0.824523 0.500000 0.856742
O O18 0.876039 0.271109 0.924168
O O19 0.422600 0.500000 0.005127
O O20 0.500000 0.723689 0.000000
#
# Coordination Sequence:
#
# PCOD8206938 Si02
#       8
#     4   8   8   8   8   4   8   8
#     4  10  18  30  50  77 104 132 170 213 254 303
#     4  10  21  35  53  76 104 138 177 218 261 308
#     4  11  23  37  54  76 103 136 176 219 264 314
#     4  10  19  34  53  77 108 138 170 213 261 314
#     4   9  17  27  46  74 104 136 168 202 250 307
#     4  10  22  38  52  71 102 136 172 215 262 313
#     4   9  18  31  47  71 105 141 178 220 263 310
#     4   9  16  27  45  71 106 143 172 206 259 315
#
# _framework density 18.906310000000001
#
# number of rings (size 3 to 8) (size 9 to 14) (size 15 to 20)
#    0.000    2.286    1.429    1.714    2.000    6.286 
#    0.000    0.000    0.000    0.000    0.000    2.000 
#    0.000    5.143    0.000    0.000    0.000    0.000 
#
# Total GULP energy -693770.235443 kJ/mol
# GULP energy per Si atom -12388.754204 kJ/mol
# Density = 1.886328 g / cm^3
# Si number density = 18.906310 Si / 1000 Ang^3
#
#
#
# Elastic Constant Matrix: (Units=GPa)
#
#
# Indices 1 2 3 4 5 6 
#
# 1 103.8258 86.3000 76.8939 0.0000 0.0000 0.0000
# 2 86.3000 -79.6242 2.0610 0.0000 0.0000 0.0000
# 3 76.8939 2.0610 137.5039 0.0000 0.0000 0.0000
# 4 0.0000 0.0000 0.0000 10.4289 0.0000 0.0000
# 5 0.0000 0.0000 0.0000 0.0000 23.9814 0.0000
# 6 0.0000 0.0000 0.0000 0.0000 0.0000 14.2890
#
#
#
# Elastic Compliance Matrix: (Units=1/GPa)
#
#
# Indices 1 2 3 4 5 6 
#
# 1 0.006586 0.007040 -0.003788 0.000000 0.000000 0.000000
# 2 0.007040 -0.005029 -0.003861 0.000000 0.000000 0.000000
# 3 -0.003788 -0.003861 0.009449 0.000000 0.000000 0.000000
# 4 0.000000 0.000000 0.000000 0.095888 0.000000 0.000000
# 5 0.000000 0.000000 0.000000 0.000000 0.041699 0.000000
# 6 0.000000 0.000000 0.000000 0.000000 0.000000 0.069984
#
#
# Mechanical properties :
#
#
# Convention : Reuss Voigt Hill
#
# Bulk Modulus (GPa) = 102.18834 54.69059 78.43946
# Shear Modulus (GPa) = 22.41570 9.50322 15.95946
#
# Velocity S-wave (km/s) = 3.44702 2.24441 2.90855
# Velocity P-wave (km/s) = 8.36718 5.97549 7.27036
#
# Compressibility (1/GPa) = 0.00978585
#
# Stress axis : x y z
#
# Youngs Moduli (GPa) = 151.84447 -198.84947 105.83279
#
# Poissons Ratio (x) = 1.39986 0.40093
# Poissons Ratio (y) = -1.06895 0.40866
# Poissons Ratio (z) = 0.57523 -0.76783
#
# Static dielectric constant tensor:
#      x y z
#    x 4.120930 0.000000 0.000000 
#    y 0.000000 3.061990 0.000000 
#    z 0.000000 0.000000 0.180470 
# 
# 
# High freq. dielectric constant tensor:
#      x y z
#    x 1.755880 0.000000 0.000000 
#    y 0.000000 1.673420 0.000000 
#    z 0.000000 0.000000 1.744660 
# 
# From -- ./inp_files/25909.got.cif
#   From: 2010.03.12/outbox.cif.g09.slc.cpg/sg51_13_cif.got.tgz:25909.got - 2010.04.16 13:43:02.
