data_PCOD8206751
_publ_section_title
;
Structure prediction by ZEFSAII (Michael W. Deem and Ramdas Pophale) SiO2 
 PCOD8206751
Probable space group: P M M A
;
_chemical_formula_sum "Si O2"
_cell_formula_units_Z 40
_cell_length_a 9.124960
_cell_length_b 11.670415
_cell_length_c 20.044014
_cell_angle_alpha 90.000000
_cell_angle_beta 90.000000
_cell_angle_gamma 90.000000
_cell_volume 2134.528543
_symmetry_space_group_name_H-M "P M M A"
_symmetry_group_IT_number 51
_symmetry_cell_setting 'orthorhombic'
loop_
_space_group_symop_operation_xyz
x,y,z
1/2-x,-y,z
1/2+x,-y,-z
-x,y,-z
-x,-y,-z
1/2+x,y,-z
1/2-x,y,z
x,-y,z
loop_
_atom_site_type_symbol
_atom_site_label
_atom_site_fract_x
_atom_site_fract_y
_atom_site_fract_z
Si Si1 0.417077 0.751489 0.064200
Si Si2 0.578005 0.632083 0.568910
Si Si3 0.421814 0.500000 0.766765
Si Si4 0.411170 0.500000 0.102254
Si Si5 0.078216 0.278794 0.691222
Si Si6 0.579280 0.868106 0.185294
O O1 0.250000 0.794349 0.062267
O O2 0.427778 0.613872 0.057981
O O3 0.488196 0.794000 0.132868
O O4 0.500000 0.804452 0.000000
O O5 0.500000 0.662338 0.500000
O O6 0.750000 0.652895 0.561081
O O7 0.543435 0.500000 0.589176
O O8 0.513286 0.721893 0.622769
O O9 0.250000 0.500000 0.763107
O O10 0.463858 0.500000 0.843247
O O11 0.483286 0.612283 0.731359
O O12 0.250000 0.500000 0.136599
O O13 0.250000 0.287551 0.673761
O O14 0.044616 0.169667 0.738406
O O15 0.750000 0.846638 0.170101
O O16 0.534960 0.000000 0.178071
#
# Coordination Sequence:
#
# PCOD8206751 Si02
#       6
#     8   8   4   4   8   8
#     4  11  23  38  57  81 110 143 179 223 275 330
#     4  10  20  32  50  79 115 150 180 214 260 317
#     4  10  18  29  52  81 107 141 179 217 270 329
#     4  10  21  35  53  81 113 141 174 219 270 329
#     4  10  19  33  54  80 110 142 177 220 268 321
#     4  10  22  40  60  81 106 141 186 231 274 321
#
# _framework density 18.7395
#
# number of rings (size 3 to 8) (size 9 to 14) (size 15 to 20)
#    0.000    1.800    3.000    1.500    0.000    4.000 
#    0.000    0.000    0.000    0.600    0.000    0.000 
#    0.000    0.000    0.000    0.000    0.000    0.000 
#
# Total GULP energy -495955.935795 kJ/mol
# GULP energy per Si atom -12398.898395 kJ/mol
# Density = 1.869685 g / cm^3
# Si number density = 18.739500 Si / 1000 Ang^3
#
#
#
# Elastic Constant Matrix: (Units=GPa)
#
#
# Indices 1 2 3 4 5 6 
#
# 1 90.6600 35.7438 65.8673 0.0000 0.0000 0.0000
# 2 35.7438 70.7721 25.6434 0.0000 0.0000 0.0000
# 3 65.8673 25.6434 123.4775 0.0000 0.0000 0.0000
# 4 0.0000 0.0000 0.0000 14.1756 0.0000 0.0000
# 5 0.0000 0.0000 0.0000 0.0000 37.7727 0.0000
# 6 0.0000 0.0000 0.0000 0.0000 0.0000 12.5966
#
#
#
# Elastic Compliance Matrix: (Units=1/GPa)
#
#
# Indices 1 2 3 4 5 6 
#
# 1 0.020796 -0.007011 -0.009637 0.000000 0.000000 0.000000
# 2 -0.007011 0.017643 0.000076 0.000000 0.000000 0.000000
# 3 -0.009637 0.000076 0.013224 0.000000 0.000000 0.000000
# 4 0.000000 0.000000 0.000000 0.070544 0.000000 0.000000
# 5 0.000000 0.000000 0.000000 0.000000 0.026474 0.000000
# 6 0.000000 0.000000 0.000000 0.000000 0.000000 0.079386
#
#
# Mechanical properties :
#
#
# Convention : Reuss Voigt Hill
#
# Bulk Modulus (GPa) = 54.00138 59.93539 56.96838
# Shear Modulus (GPa) = 18.69955 23.41934 21.05944
#
# Velocity S-wave (km/s) = 3.16233 3.53899 3.35595
# Velocity P-wave (km/s) = 6.49717 6.98227 6.74409
#
# Compressibility (1/GPa) = 0.01851805
#
# Stress axis : x y z
#
# Youngs Moduli (GPa) = 48.08514 56.67829 75.62102
#
# Poissons Ratio (x) = 0.39739 0.72880
# Poissons Ratio (y) = 0.33714 -0.00574
# Poissons Ratio (z) = 0.46342 -0.00430
#
# Static dielectric constant tensor:
#      x y z
#    x 3.502780 0.000000 0.000000 
#    y 0.000000 3.364740 0.000000 
#    z 0.000000 0.000000 3.332550 
# 
# 
# High freq. dielectric constant tensor:
#      x y z
#    x 1.729320 0.000000 0.000000 
#    y 0.000000 1.700160 0.000000 
#    z 0.000000 0.000000 1.728770 
# 
# From -- ./inp_files/31396.got.cif
#   From: 2010.03.12/outbox.cif.g09.slc.cpg/sg51_16_cif.got.tgz:31396.got - 2010.04.16 13:43:02.
