data_PCOD8206652
_publ_section_title
;
Structure prediction by ZEFSAII (Michael W. Deem and Ramdas Pophale) SiO2 
 PCOD8206652
Probable space group: P M M A
;
_chemical_formula_sum "Si O2"
_cell_formula_units_Z 64
_cell_length_a 28.239139
_cell_length_b 8.844501
_cell_length_c 14.841585
_cell_angle_alpha 90.000000
_cell_angle_beta 90.000000
_cell_angle_gamma 90.000000
_cell_volume 3706.850493
_symmetry_space_group_name_H-M "P M M A"
_symmetry_group_IT_number 51
_symmetry_cell_setting 'orthorhombic'
loop_
_space_group_symop_operation_xyz
x,y,z
1/2-x,-y,z
1/2+x,-y,-z
-x,y,-z
-x,-y,-z
1/2+x,y,-z
1/2-x,y,z
x,-y,z
loop_
_atom_site_type_symbol
_atom_site_label
_atom_site_fract_x
_atom_site_fract_y
_atom_site_fract_z
Si Si1 0.886638 0.179967 0.529385
Si Si2 0.890716 0.823816 0.963607
Si Si3 0.970512 0.678436 0.849385
Si Si4 0.574846 0.178138 0.347204
Si Si5 0.532130 0.178324 0.662845
Si Si6 0.802443 0.820427 0.851715
Si Si7 0.070415 0.824456 0.850247
Si Si8 0.302592 0.820097 0.350620
O O1 0.892039 0.245568 0.427207
O O2 0.932959 0.231585 0.584184
O O3 0.839892 0.248350 0.577515
O O4 0.883002 0.000000 0.528855
O O5 0.935101 0.732956 0.926333
O O6 0.841650 0.759314 0.922113
O O7 0.896924 0.000000 0.939419
O O8 0.890438 0.798690 0.072018
O O9 0.970978 0.500000 0.846117
O O10 0.951790 0.742790 0.754873
O O11 0.022920 0.734803 0.873733
O O12 0.520770 0.230603 0.363048
O O13 0.591578 0.229630 0.246945
O O14 0.577616 0.000000 0.356741
O O15 0.535011 0.000000 0.678890
O O16 0.750000 0.759382 0.878654
O O17 0.815404 0.764889 0.750595
O O18 0.801493 0.000000 0.854050
O O19 0.055832 0.000000 0.842636
O O20 0.250000 0.763547 0.377251
O O21 0.304458 0.000000 0.352307
#
# Coordination Sequence:
#
# PCOD8206652 Si02
#       8
#     8   8   8   8   8   8   8   8
#     4   9  14  21  39  62  81 106 141 176 206 242
#     4  10  18  29  47  66  84 112 149 182 212 251
#     4  11  21  30  42  63  91 118 142 174 217 260
#     4   8  14  24  38  58  81 104 137 178 211 240
#     4   9  16  27  43  62  83 109 142 176 209 249
#     4   8  14  25  42  65  89 109 135 175 217 255
#     4   9  18  31  45  61  84 115 149 182 213 249
#     4   8  13  20  31  53  85 112 131 159 205 255
#
# _framework density 17.265331
#
# number of rings (size 3 to 8) (size 9 to 14) (size 15 to 20)
#    0.000    3.000    0.000    4.125    0.000    5.500 
#    0.000    0.000    0.000    7.125    0.000    5.250 
#    0.000    0.000    0.000    0.375    0.000    2.500 
#
# Total GULP energy -793080.223998 kJ/mol
# GULP energy per Si atom -12391.878500 kJ/mol
# Density = 1.722603 g / cm^3
# Si number density = 17.265331 Si / 1000 Ang^3
#
#
#
# Elastic Constant Matrix: (Units=GPa)
#
#
# Indices 1 2 3 4 5 6 
#
# 1 99.8868 9.7507 88.5265 0.0000 0.0000 0.0000
# 2 9.7507 28.0014 17.1244 0.0000 0.0000 0.0000
# 3 88.5265 17.1244 156.6237 0.0000 0.0000 0.0000
# 4 0.0000 0.0000 0.0000 3.5971 0.0000 0.0000
# 5 0.0000 0.0000 0.0000 0.0000 30.3403 0.0000
# 6 0.0000 0.0000 0.0000 0.0000 0.0000 1.3442
#
#
#
# Elastic Compliance Matrix: (Units=1/GPa)
#
#
# Indices 1 2 3 4 5 6 
#
# 1 0.020060 -0.000055 -0.011332 0.000000 0.000000 0.000000
# 2 -0.000055 0.038272 -0.004153 0.000000 0.000000 0.000000
# 3 -0.011332 -0.004153 0.013244 0.000000 0.000000 0.000000
# 4 0.000000 0.000000 0.000000 0.278004 0.000000 0.000000
# 5 0.000000 0.000000 0.000000 0.000000 0.032959 0.000000
# 6 0.000000 0.000000 0.000000 0.000000 0.000000 0.743929
#
#
# Mechanical properties :
#
#
# Convention : Reuss Voigt Hill
#
# Bulk Modulus (GPa) = 24.69471 57.25723 40.97597
# Shear Modulus (GPa) = 4.26968 18.33034 11.30001
#
# Velocity S-wave (km/s) = 1.57428 3.26189 2.56108
# Velocity P-wave (km/s) = 4.19983 6.88634 5.70352
#
# Compressibility (1/GPa) = 0.04049451
#
# Stress axis : x y z
#
# Youngs Moduli (GPa) = 49.84986 26.12903 75.50528
#
# Poissons Ratio (x) = 0.00144 0.85566
# Poissons Ratio (y) = 0.00274 0.31360
# Poissons Ratio (z) = 0.56492 0.10852
#
# Static dielectric constant tensor:
#      x y z
#    x 3.359770 0.000000 0.000000 
#    y 0.000000 2.659560 0.000000 
#    z 0.000000 0.000000 3.612400 
# 
# 
# High freq. dielectric constant tensor:
#      x y z
#    x 1.647430 0.000000 0.000000 
#    y 0.000000 1.607590 0.000000 
#    z 0.000000 0.000000 1.674940 
# 
# From -- ./inp_files/26616.got.cif
#   From: 2010.03.12/outbox.cif.g09.slc.cpg/sg51_14_cif.got.tgz:26616.got - 2010.04.16 13:43:02.
