data_PCOD8206343
_publ_section_title
;
Structure prediction by ZEFSAII (Michael W. Deem and Ramdas Pophale) SiO2 
 PCOD8206343
Probable space group: P M M A
;
_chemical_formula_sum "Si O2"
_cell_formula_units_Z 64
_cell_length_a 9.108064
_cell_length_b 14.615446
_cell_length_c 28.798581
_cell_angle_alpha 90.000000
_cell_angle_beta 90.000000
_cell_angle_gamma 90.000000
_cell_volume 3833.621531
_symmetry_space_group_name_H-M "P M M A"
_symmetry_group_IT_number 51
_symmetry_cell_setting 'orthorhombic'
loop_
_space_group_symop_operation_xyz
x,y,z
1/2-x,-y,z
1/2+x,-y,-z
-x,y,-z
-x,-y,-z
1/2+x,y,-z
1/2-x,y,z
x,-y,z
loop_
_atom_site_type_symbol
_atom_site_label
_atom_site_fract_x
_atom_site_fract_y
_atom_site_fract_z
Si Si1 0.410887 0.891946 0.542777
Si Si2 0.075134 0.896534 0.645404
Si Si3 0.075579 0.601292 0.230326
Si Si4 0.922812 0.782413 0.723125
Si Si5 0.574738 0.263356 0.953246
Si Si6 0.075964 0.398055 0.126702
Si Si7 0.416574 0.893969 0.186876
Si Si8 0.579220 0.893781 0.093953
O O1 0.500000 0.847600 0.500000
O O2 0.250000 0.847502 0.540528
O O3 0.481352 0.871855 0.593381
O O4 0.399153 0.000000 0.536035
O O5 0.250000 0.890915 0.647244
O O6 0.006708 0.821509 0.679024
O O7 0.024751 0.000000 0.658766
O O8 0.250000 0.600001 0.228315
O O9 0.017406 0.500000 0.244897
O O10 0.024932 0.677656 0.267541
O O11 0.018452 0.627279 0.178489
O O12 0.750000 0.789345 0.713653
O O13 0.968914 0.840129 0.768004
O O14 0.750000 0.262398 0.958345
O O15 0.516194 0.327118 0.911303
O O16 0.514277 0.161413 0.943983
O O17 0.500000 0.301253 0.000000
O O18 0.250000 0.394627 0.126167
O O19 0.021399 0.500000 0.113573
O O20 0.250000 0.866539 0.172794
O O21 0.523189 0.866851 0.145094
O O22 0.427755 0.000000 0.199371
O O23 0.750000 0.868777 0.090002
O O24 0.549742 0.000000 0.083985
#
# Coordination Sequence:
#
# PCOD8206343 Si02
#       8
#     8   8   8   8   8   8   8   8
#     4   8  14  25  40  57  79 112 154 194 229 266
#     4   9  18  30  41  58  90 128 159 188 228 273
#     4   8  14  26  45  68  91 114 144 183 222 259
#     4  10  18  27  43  67  92 120 155 189 220 259
#     4  11  22  35  52  73  96 119 143 175 216 261
#     4   8  15  30  52  74  93 115 143 174 213 263
#     4   9  17  29  45  66  91 117 147 184 222 259
#     4  10  21  36  52  69  89 116 152 188 219 256
#
# _framework density 16.694396999999999
#
# number of rings (size 3 to 8) (size 9 to 14) (size 15 to 20)
#    0.000    2.875    0.000    3.375    0.000    5.000 
#    0.000    2.500    0.000    1.500    0.000    3.500 
#    0.000    0.500    0.000    1.125    0.000    1.750 
#
# Total GULP energy -793267.196456 kJ/mol
# GULP energy per Si atom -12394.799945 kJ/mol
# Density = 1.665640 g / cm^3
# Si number density = 16.694397 Si / 1000 Ang^3
#
#
#
# Elastic Constant Matrix: (Units=GPa)
#
#
# Indices 1 2 3 4 5 6 
#
# 1 44.8878 27.9051 34.8245 0.0000 0.0000 0.0000
# 2 27.9051 84.6316 65.6968 0.0000 0.0000 0.0000
# 3 34.8245 65.6968 112.0813 0.0000 0.0000 0.0000
# 4 0.0000 0.0000 0.0000 18.3502 0.0000 0.0000
# 5 0.0000 0.0000 0.0000 0.0000 28.0948 0.0000
# 6 0.0000 0.0000 0.0000 0.0000 0.0000 11.9096
#
#
#
# Elastic Compliance Matrix: (Units=1/GPa)
#
#
# Indices 1 2 3 4 5 6 
#
# 1 0.030441 -0.004945 -0.006560 0.000000 0.000000 0.000000
# 2 -0.004945 0.022484 -0.011643 0.000000 0.000000 0.000000
# 3 -0.006560 -0.011643 0.017785 0.000000 0.000000 0.000000
# 4 0.000000 0.000000 0.000000 0.054495 0.000000 0.000000
# 5 0.000000 0.000000 0.000000 0.000000 0.035594 0.000000
# 6 0.000000 0.000000 0.000000 0.000000 0.000000 0.083966
#
#
# Mechanical properties :
#
#
# Convention : Reuss Voigt Hill
#
# Bulk Modulus (GPa) = 40.95852 55.38373 48.17112
# Shear Modulus (GPa) = 16.71133 19.21588 17.96361
#
# Velocity S-wave (km/s) = 3.16731 3.39638 3.28384
# Velocity P-wave (km/s) = 6.16144 6.97335 6.57993
#
# Compressibility (1/GPa) = 0.02441494
#
# Stress axis : x y z
#
# Youngs Moduli (GPa) = 32.85044 44.47536 56.22818
#
# Poissons Ratio (x) = 0.21994 0.36884
# Poissons Ratio (y) = 0.16245 0.65465
# Poissons Ratio (z) = 0.21549 0.51782
#
# Static dielectric constant tensor:
#      x y z
#    x 2.964260 0.000000 0.000000 
#    y 0.000000 3.244640 0.000000 
#    z 0.000000 0.000000 3.200410 
# 
# 
# High freq. dielectric constant tensor:
#      x y z
#    x 1.618390 0.000000 0.000000 
#    y 0.000000 1.626590 0.000000 
#    z 0.000000 0.000000 1.635050 
# 
# From -- ./inp_files/37602.got.cif
#   From: 2010.03.12/outbox.cif.g09.slc.cpg/sg51_19_cif.got.tgz:37602.got - 2010.04.16 13:43:02.
