data_PCOD8206001
_publ_section_title
;
Structure prediction by ZEFSAII (Michael W. Deem and Ramdas Pophale) SiO2 
 PCOD8206001
Probable space group: P M M A
;
_chemical_formula_sum "Si O2"
_cell_formula_units_Z 64
_cell_length_a 22.865586
_cell_length_b 9.461355
_cell_length_c 20.185008
_cell_angle_alpha 90.000000
_cell_angle_beta 90.000000
_cell_angle_gamma 90.000000
_cell_volume 4366.813053
_symmetry_space_group_name_H-M "P M M A"
_symmetry_group_IT_number 51
_symmetry_cell_setting 'orthorhombic'
loop_
_space_group_symop_operation_xyz
x,y,z
1/2-x,-y,z
1/2+x,-y,-z
-x,y,-z
-x,-y,-z
1/2+x,y,-z
1/2-x,y,z
x,-y,z
loop_
_atom_site_type_symbol
_atom_site_label
_atom_site_fract_x
_atom_site_fract_y
_atom_site_fract_z
Si Si1 0.527546 0.836108 0.290642
Si Si2 0.393709 0.838318 0.329082
Si Si3 0.917532 0.341851 0.552575
Si Si4 0.052667 0.659609 0.589569
Si Si5 0.605424 0.332131 0.890141
Si Si6 0.065211 0.654248 0.974060
Si Si7 0.522137 0.668277 0.161076
Si Si8 0.318217 0.835788 0.206413
O O1 0.459074 0.814688 0.303228
O O2 0.565126 0.768033 0.350621
O O3 0.545095 0.753318 0.224273
O O4 0.544497 0.000000 0.283992
O O5 0.381072 0.756555 0.397618
O O6 0.349678 0.781284 0.273102
O O7 0.380902 0.000000 0.345255
O O8 0.893048 0.500000 0.560167
O O9 0.910928 0.292429 0.475832
O O10 0.984881 0.336889 0.572064
O O11 0.070365 0.500000 0.610455
O O12 0.616187 0.500000 0.890348
O O13 0.545891 0.296040 0.851074
O O14 0.659121 0.253181 0.855942
O O15 0.601830 0.271718 0.966433
O O16 0.093074 0.500000 0.963078
O O17 0.061250 0.726737 0.901402
O O18 0.000000 0.634493 0.000000
O O19 0.530222 0.500000 0.171001
O O20 0.250000 0.808071 0.214610
O O21 0.332907 0.000000 0.194059
#
# Coordination Sequence:
#
# PCOD8206001 Si02
#       8
#     8   8   8   8   8   8   8   8
#     4  10  17  23  34  53  77 101 128 159 186 216
#     4   9  17  27  37  50  69  96 128 160 193 227
#     4   8  14  24  38  52  67  90 122 157 188 221
#     4   8  14  24  35  50  71  95 123 151 183 223
#     4   9  16  27  43  58  72  93 126 167 198 227
#     4   7  12  23  38  56  74  93 121 154 191 233
#     4   9  15  24  39  56  75 101 127 153 191 235
#     4  10  20  32  42  53  75 105 133 163 200 237
#
# _framework density 14.655998
#
# number of rings (size 3 to 8) (size 9 to 14) (size 15 to 20)
#    0.000    3.250    1.250    2.625    0.000    1.750 
#    0.000    3.125    0.000    2.250    0.000    0.000 
#    0.000    0.000    0.000    1.125    0.000   20.250 
#
# Total GULP energy -792881.133246 kJ/mol
# GULP energy per Si atom -12388.767707 kJ/mol
# Density = 1.462264 g / cm^3
# Si number density = 14.655998 Si / 1000 Ang^3
#
#
#
# Elastic Constant Matrix: (Units=GPa)
#
#
# Indices 1 2 3 4 5 6 
#
# 1 28.0414 16.7491 28.9820 0.0000 0.0000 0.0000
# 2 16.7491 58.9438 61.3430 0.0000 0.0000 0.0000
# 3 28.9820 61.3430 144.1317 0.0000 0.0000 0.0000
# 4 0.0000 0.0000 0.0000 14.1737 0.0000 0.0000
# 5 0.0000 0.0000 0.0000 0.0000 12.0449 0.0000
# 6 0.0000 0.0000 0.0000 0.0000 0.0000 11.1575
#
#
#
# Elastic Compliance Matrix: (Units=1/GPa)
#
#
# Indices 1 2 3 4 5 6 
#
# 1 0.046253 -0.006218 -0.006654 0.000000 0.000000 0.000000
# 2 -0.006218 0.031290 -0.012067 0.000000 0.000000 0.000000
# 3 -0.006654 -0.012067 0.013412 0.000000 0.000000 0.000000
# 4 0.000000 0.000000 0.000000 0.070553 0.000000 0.000000
# 5 0.000000 0.000000 0.000000 0.000000 0.083023 0.000000
# 6 0.000000 0.000000 0.000000 0.000000 0.000000 0.089625
#
#
# Mechanical properties :
#
#
# Convention : Reuss Voigt Hill
#
# Bulk Modulus (GPa) = 24.34458 49.47389 36.90924
# Shear Modulus (GPa) = 12.57145 15.74476 14.15810
#
# Velocity S-wave (km/s) = 2.93195 3.28119 3.11147
# Velocity P-wave (km/s) = 5.30174 6.94154 6.17630
#
# Compressibility (1/GPa) = 0.04107691
#
# Stress axis : x y z
#
# Youngs Moduli (GPa) = 21.62035 31.95882 74.56088
#
# Poissons Ratio (x) = 0.19872 0.49614
# Poissons Ratio (y) = 0.13443 0.89972
# Poissons Ratio (z) = 0.14386 0.38565
#
# Static dielectric constant tensor:
#      x y z
#    x 2.326560 0.000000 0.000000 
#    y 0.000000 2.773620 0.000000 
#    z 0.000000 0.000000 3.228150 
# 
# 
# High freq. dielectric constant tensor:
#      x y z
#    x 1.485120 0.000000 0.000000 
#    y 0.000000 1.550200 0.000000 
#    z 0.000000 0.000000 1.577280 
# 
# From -- ./inp_files/34163.got.cif
#   From: 2010.03.12/outbox.cif.g09.slc.cpg/sg51_18_cif.got.tgz:34163.got - 2010.04.16 13:43:02.
