data_PCOD8206616
_publ_section_title
;
Structure prediction by ZEFSAII (Michael W. Deem and Ramdas Pophale) SiO2 
 PCOD8206616
Probable space group: P M M A
;
_chemical_formula_sum "Si O2"
_cell_formula_units_Z 64
_cell_length_a 9.057710
_cell_length_b 14.205969
_cell_length_c 30.958722
_cell_angle_alpha 90.000000
_cell_angle_beta 90.000000
_cell_angle_gamma 90.000000
_cell_volume 3983.568585
_symmetry_space_group_name_H-M "P M M A"
_symmetry_group_IT_number 51
_symmetry_cell_setting 'orthorhombic'
loop_
_space_group_symop_operation_xyz
x,y,z
1/2-x,-y,z
1/2+x,-y,-z
-x,y,-z
-x,-y,-z
1/2+x,y,-z
1/2-x,y,z
x,-y,z
loop_
_atom_site_type_symbol
_atom_site_label
_atom_site_fract_x
_atom_site_fract_y
_atom_site_fract_z
Si Si1 0.416426 0.612132 0.958111
Si Si2 0.077888 0.390443 0.455904
Si Si3 0.422817 0.608751 0.127375
Si Si4 0.074753 0.704296 0.214653
Si Si5 0.579095 0.106996 0.651789
Si Si6 0.920250 0.391383 0.293178
Si Si7 0.924214 0.281968 0.378979
Si Si8 0.925171 0.101953 0.750027
O O1 0.250000 0.650293 0.958830
O O2 0.421064 0.500000 0.959161
O O3 0.495019 0.648743 0.914753
O O4 0.500000 0.653123 0.000000
O O5 0.250000 0.366267 0.459255
O O6 0.050299 0.500000 0.446766
O O7 0.000000 0.358882 0.500000
O O8 0.005356 0.333140 0.417594
O O9 0.250000 0.622112 0.119455
O O10 0.462244 0.500000 0.135892
O O11 0.480469 0.668045 0.168260
O O12 0.250000 0.698870 0.217528
O O13 0.016434 0.811731 0.220725
O O14 0.013767 0.637131 0.251673
O O15 0.750000 0.136899 0.647878
O O16 0.479031 0.174150 0.622216
O O17 0.522587 0.117672 0.700971
O O18 0.556937 0.000000 0.635806
O O19 0.750000 0.371887 0.282564
O O20 0.949886 0.500000 0.303822
O O21 0.972034 0.332139 0.334532
O O22 0.750000 0.286646 0.386638
O O23 0.750000 0.099284 0.750611
O O24 0.985196 0.000000 0.766940
#
# Coordination Sequence:
#
# PCOD8206616 Si02
#       8
#     8   8   8   8   8   8   8   8
#     4   9  16  26  41  59  79 108 146 187 227 267
#     4  10  21  37  57  79 102 129 161 197 237 282
#     4   9  17  27  38  57  86 118 151 187 226 268
#     4  10  18  29  46  65  88 120 159 196 228 270
#     4   9  17  31  51  73  97 125 160 202 243 283
#     4  10  21  33  43  61  93 129 159 190 229 270
#     4  11  21  33  51  74 101 130 161 198 238 283
#     4   8  14  26  45  67  90 117 152 196 239 274
#
# _framework density 16.065996999999999
#
# number of rings (size 3 to 8) (size 9 to 14) (size 15 to 20)
#    0.000    2.500    1.250    2.625    0.000    4.750 
#    0.000    1.250    0.000    0.750    0.000    0.000 
#    0.000    0.500    0.000    0.875    0.000    1.250 
#
# Total GULP energy -793539.441154 kJ/mol
# GULP energy per Si atom -12399.053768 kJ/mol
# Density = 1.602943 g / cm^3
# Si number density = 16.065997 Si / 1000 Ang^3
#
#
#
# Elastic Constant Matrix: (Units=GPa)
#
#
# Indices 1 2 3 4 5 6 
#
# 1 63.8706 37.0478 55.0427 0.0000 0.0000 0.0000
# 2 37.0478 79.0930 51.3893 0.0000 0.0000 0.0000
# 3 55.0427 51.3893 125.9404 0.0000 0.0000 0.0000
# 4 0.0000 0.0000 0.0000 7.0708 0.0000 0.0000
# 5 0.0000 0.0000 0.0000 0.0000 27.1748 0.0000
# 6 0.0000 0.0000 0.0000 0.0000 0.0000 17.5876
#
#
#
# Elastic Compliance Matrix: (Units=1/GPa)
#
#
# Indices 1 2 3 4 5 6 
#
# 1 0.027660 -0.006942 -0.009256 0.000000 0.000000 0.000000
# 2 -0.006942 0.018947 -0.004697 0.000000 0.000000 0.000000
# 3 -0.009256 -0.004697 0.013902 0.000000 0.000000 0.000000
# 4 0.000000 0.000000 0.000000 0.141426 0.000000 0.000000
# 5 0.000000 0.000000 0.000000 0.000000 0.036799 0.000000
# 6 0.000000 0.000000 0.000000 0.000000 0.000000 0.056858
#
#
# Mechanical properties :
#
#
# Convention : Reuss Voigt Hill
#
# Bulk Modulus (GPa) = 53.42309 61.76264 57.59286
# Shear Modulus (GPa) = 14.55080 18.72826 16.63953
#
# Velocity S-wave (km/s) = 3.01273 3.41795 3.22172
# Velocity P-wave (km/s) = 6.73992 7.35548 7.05442
#
# Compressibility (1/GPa) = 0.01871850
#
# Stress axis : x y z
#
# Youngs Moduli (GPa) = 36.15273 52.77883 71.92994
#
# Poissons Ratio (x) = 0.36640 0.66581
# Poissons Ratio (y) = 0.25098 0.33786
# Poissons Ratio (z) = 0.33464 0.24791
#
# Static dielectric constant tensor:
#      x y z
#    x 2.970540 0.000000 0.000000 
#    y 0.000000 3.133920 0.000000 
#    z 0.000000 0.000000 3.050380 
# 
# 
# High freq. dielectric constant tensor:
#      x y z
#    x 1.612220 0.000000 0.000000 
#    y 0.000000 1.599320 0.000000 
#    z 0.000000 0.000000 1.607250 
# 
# From -- ./inp_files/37679.got.cif
#   From: 2010.03.12/outbox.cif.g09.slc.cpg/sg51_19_cif.got.tgz:37679.got - 2010.04.16 13:43:02.
