data_PCOD8206430
_publ_section_title
;
Structure prediction by ZEFSAII (Michael W. Deem and Ramdas Pophale) SiO2 
 PCOD8206430
Probable space group: P M M A
;
_chemical_formula_sum "Si O2"
_cell_formula_units_Z 64
_cell_length_a 26.445014
_cell_length_b 9.183050
_cell_length_c 17.081866
_cell_angle_alpha 90.000000
_cell_angle_beta 90.000000
_cell_angle_gamma 90.000000
_cell_volume 4148.260880
_symmetry_space_group_name_H-M "P M M A"
_symmetry_group_IT_number 51
_symmetry_cell_setting 'orthorhombic'
loop_
_space_group_symop_operation_xyz
x,y,z
1/2-x,-y,z
1/2+x,-y,-z
-x,y,-z
-x,-y,-z
1/2+x,y,-z
1/2-x,y,z
x,-y,z
loop_
_atom_site_type_symbol
_atom_site_label
_atom_site_fract_x
_atom_site_fract_y
_atom_site_fract_z
Si Si1 0.962030 0.330276 0.315694
Si Si2 0.054147 0.671686 0.516016
Si Si3 0.369961 0.833277 0.217950
Si Si4 0.955747 0.164734 0.906089
Si Si5 0.392327 0.329072 0.974420
Si Si6 0.307766 0.668721 0.095587
Si Si7 0.564599 0.830167 0.161803
Si Si8 0.420787 0.330324 0.351035
O O1 0.955645 0.500000 0.295151
O O2 0.930125 0.287443 0.394956
O O3 0.936487 0.235744 0.248251
O O4 0.021356 0.293098 0.327123
O O5 0.046830 0.500000 0.512249
O O6 0.089933 0.715563 0.442515
O O7 0.000000 0.745875 0.500000
O O8 0.421185 0.814523 0.169462
O O9 0.323868 0.757861 0.172341
O O10 0.379964 0.758944 0.301323
O O11 0.355156 0.000000 0.231721
O O12 0.011959 0.202931 0.880764
O O13 0.951487 0.000000 0.938939
O O14 0.939796 0.274462 0.974306
O O15 0.397438 0.500000 0.960461
O O16 0.392265 0.248108 0.890492
O O17 0.340759 0.286847 0.019783
O O18 0.250000 0.705031 0.075144
O O19 0.316176 0.500000 0.115416
O O20 0.576718 0.000000 0.168324
O O21 0.410305 0.500000 0.336918
#
# Coordination Sequence:
#
# PCOD8206430 Si02
#       8
#     8   8   8   8   8   8   8   8
#     4   9  16  26  41  59  82 115 154 188 213 241
#     4   7  12  23  38  57  80 110 147 184 215 240
#     4  10  18  28  43  65  90 115 145 177 212 257
#     4   9  18  30  40  54  83 118 144 171 210 249
#     4  10  20  31  45  64  80 102 141 180 214 258
#     4   9  19  36  53  66  83 107 137 178 225 266
#     4  11  20  29  40  57  87 120 146 175 214 254
#     4   9  15  25  42  61  84 114 149 183 214 249
#
# _framework density 15.428153
#
# number of rings (size 3 to 8) (size 9 to 14) (size 15 to 20)
#    0.000    2.750    1.250    3.000    0.000    3.750 
#    0.000    0.625    0.000    2.250    0.000    0.000 
#    0.000    1.000    0.000    8.000    0.000    3.625 
#
# Total GULP energy -793126.831567 kJ/mol
# GULP energy per Si atom -12392.606743 kJ/mol
# Density = 1.539304 g / cm^3
# Si number density = 15.428153 Si / 1000 Ang^3
#
#
#
# Elastic Constant Matrix: (Units=GPa)
#
#
# Indices 1 2 3 4 5 6 
#
# 1 46.1908 24.8833 43.0022 0.0000 0.0000 0.0000
# 2 24.8833 68.0660 63.4029 0.0000 0.0000 0.0000
# 3 43.0022 63.4029 136.0793 0.0000 0.0000 0.0000
# 4 0.0000 0.0000 0.0000 12.8231 0.0000 0.0000
# 5 0.0000 0.0000 0.0000 0.0000 11.4428 0.0000
# 6 0.0000 0.0000 0.0000 0.0000 0.0000 13.8321
#
#
#
# Elastic Compliance Matrix: (Units=1/GPa)
#
#
# Indices 1 2 3 4 5 6 
#
# 1 0.031258 -0.003933 -0.008045 0.000000 0.000000 0.000000
# 2 -0.003933 0.026452 -0.011082 0.000000 0.000000 0.000000
# 3 -0.008045 -0.011082 0.015054 0.000000 0.000000 0.000000
# 4 0.000000 0.000000 0.000000 0.077984 0.000000 0.000000
# 5 0.000000 0.000000 0.000000 0.000000 0.087391 0.000000
# 6 0.000000 0.000000 0.000000 0.000000 0.000000 0.072295
#
#
# Mechanical properties :
#
#
# Convention : Reuss Voigt Hill
#
# Bulk Modulus (GPa) = 37.53180 56.99034 47.26107
# Shear Modulus (GPa) = 13.68225 15.55612 14.61919
#
# Velocity S-wave (km/s) = 2.98121 3.17881 3.08159
# Velocity P-wave (km/s) = 6.01912 7.10581 6.58492
#
# Compressibility (1/GPa) = 0.02664407
#
# Stress axis : x y z
#
# Youngs Moduli (GPa) = 31.99178 37.80420 66.42598
#
# Poissons Ratio (x) = 0.14869 0.53442
# Poissons Ratio (y) = 0.12583 0.73612
# Poissons Ratio (z) = 0.25738 0.41894
#
# Static dielectric constant tensor:
#      x y z
#    x 2.572750 0.000000 0.000000 
#    y 0.000000 2.888120 0.000000 
#    z 0.000000 0.000000 3.212090 
# 
# 
# High freq. dielectric constant tensor:
#      x y z
#    x 1.532910 0.000000 0.000000 
#    y 0.000000 1.588060 0.000000 
#    z 0.000000 0.000000 1.600380 
# 
# From -- ./inp_files/30997.got.cif
#   From: 2010.03.12/outbox.cif.g09.slc.cpg/sg51_16_cif.got.tgz:30997.got - 2010.04.16 13:43:02.
