data_PCOD8206777
_publ_section_title
;
Structure prediction by ZEFSAII (Michael W. Deem and Ramdas Pophale) SiO2 
 PCOD8206777
Probable space group: P M M A
;
_chemical_formula_sum "Si O2"
_cell_formula_units_Z 44
_cell_length_a 8.756006
_cell_length_b 14.204949
_cell_length_c 19.100468
_cell_angle_alpha 90.000000
_cell_angle_beta 90.000000
_cell_angle_gamma 90.000000
_cell_volume 2375.689826
_symmetry_space_group_name_H-M "P M M A"
_symmetry_group_IT_number 51
_symmetry_cell_setting 'orthorhombic'
loop_
_space_group_symop_operation_xyz
x,y,z
1/2-x,-y,z
1/2+x,-y,-z
-x,y,-z
-x,-y,-z
1/2+x,y,-z
1/2-x,y,z
x,-y,z
loop_
_atom_site_type_symbol
_atom_site_label
_atom_site_fract_x
_atom_site_fract_y
_atom_site_fract_z
Si Si1 0.572468 0.892218 0.814888
Si Si2 0.926067 0.737381 0.703539
Si Si3 0.070780 0.392585 0.171257
Si Si4 0.432187 0.000000 0.423023
Si Si5 0.929513 0.190176 0.424469
Si Si6 0.570592 0.760955 0.075791
O O1 0.750000 0.881957 0.834332
O O2 0.535266 0.832964 0.745501
O O3 0.476992 0.852257 0.879718
O O4 0.526064 0.000000 0.800578
O O5 0.750000 0.734544 0.680740
O O6 0.968731 0.648505 0.752082
O O7 0.028227 0.730496 0.632916
O O8 0.250000 0.382086 0.156798
O O9 0.015603 0.500000 0.168630
O O10 0.984660 0.335627 0.111237
O O11 0.500000 0.000000 0.500000
O O12 0.496847 0.904254 0.389662
O O13 0.250000 0.000000 0.420612
O O14 0.750000 0.178700 0.434141
O O15 0.000000 0.215466 0.500000
O O16 0.750000 0.757538 0.068750
O O17 0.500000 0.770882 0.000000
#
# Coordination Sequence:
#
# PCOD8206777 Si02
#       6
#     8   8   8   4   8   8
#     4   9  19  36  56  78 106 144 184 220 263 315
#     4   9  18  33  54  80 107 138 174 216 265 319
#     4   9  19  38  62  84 107 137 173 214 266 326
#     4  10  18  30  46  66  96 132 171 212 257 306
#     4  11  21  33  49  73 104 140 179 221 265 312
#     4  11  22  36  55  80 111 144 178 221 265 312
#
# _framework density 18.520935000000001
#
# number of rings (size 3 to 8) (size 9 to 14) (size 15 to 20)
#    0.000    2.182    0.000    6.273    1.273    4.364 
#    0.000    0.000    0.000    0.545    0.000    0.000 
#    0.000    0.000    0.000    0.000    0.000    0.000 
#
# Total GULP energy -545539.999744 kJ/mol
# GULP energy per Si atom -12398.636358 kJ/mol
# Density = 1.847878 g / cm^3
# Si number density = 18.520935 Si / 1000 Ang^3
#
#
#
# Elastic Constant Matrix: (Units=GPa)
#
#
# Indices 1 2 3 4 5 6 
#
# 1 103.6735 16.7488 36.4962 0.0000 0.0000 0.0000
# 2 16.7488 84.9834 15.6785 0.0000 0.0000 0.0000
# 3 36.4962 15.6785 93.9243 0.0000 0.0000 0.0000
# 4 0.0000 0.0000 0.0000 12.5677 0.0000 0.0000
# 5 0.0000 0.0000 0.0000 0.0000 33.8588 0.0000
# 6 0.0000 0.0000 0.0000 0.0000 0.0000 23.4502
#
#
#
# Elastic Compliance Matrix: (Units=1/GPa)
#
#
# Indices 1 2 3 4 5 6 
#
# 1 0.011349 -0.001468 -0.004165 0.000000 0.000000 0.000000
# 2 -0.001468 0.012331 -0.001488 0.000000 0.000000 0.000000
# 3 -0.004165 -0.001488 0.012514 0.000000 0.000000 0.000000
# 4 0.000000 0.000000 0.000000 0.079569 0.000000 0.000000
# 5 0.000000 0.000000 0.000000 0.000000 0.029534 0.000000
# 6 0.000000 0.000000 0.000000 0.000000 0.000000 0.042644
#
#
# Mechanical properties :
#
#
# Convention : Reuss Voigt Hill
#
# Bulk Modulus (GPa) = 45.55483 46.71425 46.13454
# Shear Modulus (GPa) = 23.86644 28.21921 26.04283
#
# Velocity S-wave (km/s) = 3.59363 3.90762 3.75391
# Velocity P-wave (km/s) = 6.47060 6.75547 6.61457
#
# Compressibility (1/GPa) = 0.02195157
#
# Stress axis : x y z
#
# Youngs Moduli (GPa) = 88.11341 81.09728 79.91345
#
# Poissons Ratio (x) = 0.11908 0.33282
# Poissons Ratio (y) = 0.12938 0.11890
# Poissons Ratio (z) = 0.36697 0.12066
#
# Static dielectric constant tensor:
#      x y z
#    x 3.333060 0.000000 0.000000 
#    y 0.000000 4.550140 0.000000 
#    z 0.000000 0.000000 3.160230 
# 
# 
# High freq. dielectric constant tensor:
#      x y z
#    x 1.717890 0.000000 0.000000 
#    y 0.000000 1.699660 0.000000 
#    z 0.000000 0.000000 1.721470 
# 
# From -- ./inp_files/27399.got.cif
#   From: 2010.03.12/outbox.cif.g09.slc.cpg/sg51_14_cif.got.tgz:27399.got - 2010.04.16 13:43:02.
