data_PCOD8206400
_publ_section_title
;
Structure prediction by ZEFSAII (Michael W. Deem and Ramdas Pophale) SiO2 
 PCOD8206400
Probable space group: P M M A
;
_chemical_formula_sum "Si O2"
_cell_formula_units_Z 64
_cell_length_a 25.549890
_cell_length_b 9.417946
_cell_length_c 16.911820
_cell_angle_alpha 90.000000
_cell_angle_beta 90.000000
_cell_angle_gamma 90.000000
_cell_volume 4069.448702
_symmetry_space_group_name_H-M "P M M A"
_symmetry_group_IT_number 51
_symmetry_cell_setting 'orthorhombic'
loop_
_space_group_symop_operation_xyz
x,y,z
1/2-x,-y,z
1/2+x,-y,-z
-x,y,-z
-x,-y,-z
1/2+x,y,-z
1/2-x,y,z
x,-y,z
loop_
_atom_site_type_symbol
_atom_site_label
_atom_site_fract_x
_atom_site_fract_y
_atom_site_fract_z
Si Si1 0.500716 0.164549 0.907229
Si Si2 0.052476 0.335458 0.337328
Si Si3 0.189731 0.335552 0.899516
Si Si4 0.102685 0.837149 0.818284
Si Si5 0.937732 0.342901 0.492279
Si Si6 0.447515 0.164044 0.653039
Si Si7 0.807390 0.331325 0.922583
Si Si8 0.406278 0.334579 0.171223
O O1 0.446448 0.218809 0.869510
O O2 0.547269 0.253397 0.870712
O O3 0.509700 0.000000 0.885933
O O4 0.500000 0.191947 0.000000
O O5 0.034010 0.500000 0.339759
O O6 0.082482 0.298038 0.419848
O O7 0.092457 0.307954 0.265462
O O8 0.001523 0.239812 0.324287
O O9 0.250000 0.308872 0.876877
O O10 0.175225 0.500000 0.892023
O O11 0.154163 0.250686 0.838432
O O12 0.178674 0.280591 0.988677
O O13 0.092196 0.817398 0.725335
O O14 0.113520 0.000000 0.839666
O O15 0.917146 0.500000 0.469332
O O16 0.920250 0.232742 0.424656
O O17 0.000000 0.342654 0.500000
O O18 0.459558 0.000000 0.635381
O O19 0.750000 0.271661 0.897795
O O20 0.804889 0.500000 0.922251
O O21 0.851035 0.274940 0.861507
O O22 0.412662 0.500000 0.150652
#
# Coordination Sequence:
#
# PCOD8206400 Si02
#       8
#     8   8   8   8   8   8   8   8
#     4  10  20  32  43  59  90 125 149 176 221 268
#     4   9  17  28  41  62  90 117 146 181 219 263
#     4   9  18  32  49  67  86 112 149 190 227 260
#     4  10  20  31  43  64  91 118 147 181 221 266
#     4   8  15  27  41  58  85 117 146 177 219 261
#     4  10  18  28  42  62  88 116 149 181 213 261
#     4   8  15  29  47  67  90 113 144 190 230 256
#     4  10  18  28  46  68  88 116 153 184 216 264
#
# _framework density 15.726945000000001
#
# number of rings (size 3 to 8) (size 9 to 14) (size 15 to 20)
#    0.000    2.750    1.250    2.625    0.000    4.250 
#    0.000    0.000    0.000    1.125    0.000    0.875 
#    0.000    3.000    0.000    0.000    0.000    0.000 
#
# Total GULP energy -793357.946087 kJ/mol
# GULP energy per Si atom -12396.217908 kJ/mol
# Density = 1.569115 g / cm^3
# Si number density = 15.726945 Si / 1000 Ang^3
#
#
#
# Elastic Constant Matrix: (Units=GPa)
#
#
# Indices 1 2 3 4 5 6 
#
# 1 84.6099 42.1593 56.2126 0.0000 0.0000 0.0000
# 2 42.1593 61.0488 48.6931 0.0000 0.0000 0.0000
# 3 56.2126 48.6931 113.0688 0.0000 0.0000 0.0000
# 4 0.0000 0.0000 0.0000 22.4367 0.0000 0.0000
# 5 0.0000 0.0000 0.0000 0.0000 15.9311 0.0000
# 6 0.0000 0.0000 0.0000 0.0000 0.0000 7.9639
#
#
#
# Elastic Compliance Matrix: (Units=1/GPa)
#
#
# Indices 1 2 3 4 5 6 
#
# 1 0.020566 -0.009212 -0.006258 0.000000 0.000000 0.000000
# 2 -0.009212 0.029077 -0.007942 0.000000 0.000000 0.000000
# 3 -0.006258 -0.007942 0.015376 0.000000 0.000000 0.000000
# 4 0.000000 0.000000 0.000000 0.044570 0.000000 0.000000
# 5 0.000000 0.000000 0.000000 0.000000 0.062770 0.000000
# 6 0.000000 0.000000 0.000000 0.000000 0.000000 0.125567
#
#
# Mechanical properties :
#
#
# Convention : Reuss Voigt Hill
#
# Bulk Modulus (GPa) = 54.95898 61.42861 58.19379
# Shear Modulus (GPa) = 14.25257 16.71048 15.48152
#
# Velocity S-wave (km/s) = 3.01367 3.26320 3.14091
# Velocity P-wave (km/s) = 6.86522 7.30357 7.08778
#
# Compressibility (1/GPa) = 0.01819539
#
# Stress axis : x y z
#
# Youngs Moduli (GPa) = 48.62321 34.39199 65.03850
#
# Poissons Ratio (x) = 0.31681 0.40699
# Poissons Ratio (y) = 0.44790 0.51655
# Poissons Ratio (z) = 0.30427 0.27315
#
# Static dielectric constant tensor:
#      x y z
#    x 2.870590 0.000000 0.000000 
#    y 0.000000 2.924290 0.000000 
#    z 0.000000 0.000000 3.409630 
# 
# 
# High freq. dielectric constant tensor:
#      x y z
#    x 1.566500 0.000000 0.000000 
#    y 0.000000 1.594820 0.000000 
#    z 0.000000 0.000000 1.613670 
# 
# From -- ./inp_files/30822.got.cif
#   From: 2010.03.12/outbox.cif.g09.slc.cpg/sg51_16_cif.got.tgz:30822.got - 2010.04.16 13:43:02.
