data_PCOD8206768
_publ_section_title
;
Structure prediction by ZEFSAII (Michael W. Deem and Ramdas Pophale) SiO2 
 PCOD8206768
Probable space group: P M M A
;
_chemical_formula_sum "Si O2"
_cell_formula_units_Z 40
_cell_length_a 9.130284
_cell_length_b 10.353919
_cell_length_c 24.648024
_cell_angle_alpha 90.000000
_cell_angle_beta 90.000000
_cell_angle_gamma 90.000000
_cell_volume 2330.081748
_symmetry_space_group_name_H-M "P M M A"
_symmetry_group_IT_number 51
_symmetry_cell_setting 'orthorhombic'
loop_
_space_group_symop_operation_xyz
x,y,z
1/2-x,-y,z
1/2+x,-y,-z
-x,y,-z
-x,-y,-z
1/2+x,y,-z
1/2-x,y,z
x,-y,z
loop_
_atom_site_type_symbol
_atom_site_label
_atom_site_fract_x
_atom_site_fract_y
_atom_site_fract_z
Si Si1 0.424919 0.000000 0.441503
Si Si2 0.084869 0.346259 0.842244
Si Si3 0.076566 0.252688 0.378598
Si Si4 0.424457 0.500000 0.442971
Si Si5 0.584467 0.345959 0.947187
Si Si6 0.579449 0.650693 0.735439
O O1 0.500000 0.000000 0.500000
O O2 0.481026 0.877193 0.407064
O O3 0.250000 0.000000 0.449315
O O4 0.250000 0.292996 0.844768
O O5 0.082876 0.500000 0.843678
O O6 0.996127 0.291546 0.893747
O O7 0.009681 0.297421 0.787070
O O8 0.250000 0.255570 0.379190
O O9 0.016677 0.374563 0.411719
O O10 0.024703 0.265428 0.316124
O O11 0.250000 0.500000 0.449130
O O12 0.500000 0.500000 0.500000
O O13 0.750000 0.293013 0.948134
O O14 0.584084 0.500000 0.946862
O O15 0.500000 0.293414 0.000000
O O16 0.750000 0.672455 0.747659
O O17 0.548918 0.500000 0.723307
#
# Coordination Sequence:
#
# PCOD8206768 Si02
#       6
#     4   8   8   4   8   8
#     4  10  20  34  50  68  90 116 145 178 219 268
#     4   9  16  24  34  52  78 105 135 177 223 263
#     4   9  17  30  48  66  86 113 145 179 217 263
#     4  10  18  30  46  66  88 112 141 176 215 258
#     4   9  15  22  32  47  70 105 147 185 219 259
#     4   9  15  26  43  59  76 104 141 177 213 258
#
# _framework density 17.166778999999998
#
# number of rings (size 3 to 8) (size 9 to 14) (size 15 to 20)
#    0.000    2.800    1.000    1.800    0.000    4.800 
#    0.000    2.000    0.000    0.000    0.000    0.000 
#    0.000    0.000    0.000    0.900    0.000    9.400 
#
# Total GULP energy -495886.990349 kJ/mol
# GULP energy per Si atom -12397.174759 kJ/mol
# Density = 1.712771 g / cm^3
# Si number density = 17.166779 Si / 1000 Ang^3
#
#
#
# Elastic Constant Matrix: (Units=GPa)
#
#
# Indices 1 2 3 4 5 6 
#
# 1 92.7403 22.9150 74.6965 0.0000 0.0000 0.0000
# 2 22.9150 71.0693 51.9593 0.0000 0.0000 0.0000
# 3 74.6965 51.9593 196.0078 0.0000 0.0000 0.0000
# 4 0.0000 0.0000 0.0000 14.4169 0.0000 0.0000
# 5 0.0000 0.0000 0.0000 0.0000 36.0181 0.0000
# 6 0.0000 0.0000 0.0000 0.0000 0.0000 4.8589
#
#
#
# Elastic Compliance Matrix: (Units=1/GPa)
#
#
# Indices 1 2 3 4 5 6 
#
# 1 0.015599 -0.000848 -0.005720 0.000000 0.000000 0.000000
# 2 -0.000848 0.017499 -0.004316 0.000000 0.000000 0.000000
# 3 -0.005720 -0.004316 0.008426 0.000000 0.000000 0.000000
# 4 0.000000 0.000000 0.000000 0.069363 0.000000 0.000000
# 5 0.000000 0.000000 0.000000 0.000000 0.027764 0.000000
# 6 0.000000 0.000000 0.000000 0.000000 0.000000 0.205808
#
#
# Mechanical properties :
#
#
# Convention : Reuss Voigt Hill
#
# Bulk Modulus (GPa) = 50.61411 73.21766 61.91588
# Shear Modulus (GPa) = 13.41156 25.07522 19.24339
#
# Velocity S-wave (km/s) = 2.79812 3.82603 3.35172
# Velocity P-wave (km/s) = 6.32353 7.89059 7.15012
#
# Compressibility (1/GPa) = 0.01975734
#
# Stress axis : x y z
#
# Youngs Moduli (GPa) = 64.10510 57.14467 118.68393
#
# Poissons Ratio (x) = 0.04845 0.67887
# Poissons Ratio (y) = 0.05435 0.51222
# Poissons Ratio (z) = 0.36668 0.24663
#
# Static dielectric constant tensor:
#      x y z
#    x 3.136390 0.000000 0.000000 
#    y 0.000000 3.418560 0.000000 
#    z 0.000000 0.000000 3.442760 
# 
# 
# High freq. dielectric constant tensor:
#      x y z
#    x 1.648640 0.000000 0.000000 
#    y 0.000000 1.596930 0.000000 
#    z 0.000000 0.000000 1.684100 
# 
# From -- ./inp_files/36000.got.cif
#   From: 2010.03.12/outbox.cif.g09.slc.cpg/sg51_18_cif.got.tgz:36000.got - 2010.04.16 13:43:02.
