data_PCOD8206059
_publ_section_title
;
Structure prediction by ZEFSAII (Michael W. Deem and Ramdas Pophale) SiO2 
 PCOD8206059
Probable space group: P M M A
;
_chemical_formula_sum "Si O2"
_cell_formula_units_Z 32
_cell_length_a 8.658773
_cell_length_b 20.617056
_cell_length_c 9.888214
_cell_angle_alpha 90.000000
_cell_angle_beta 90.000000
_cell_angle_gamma 90.000000
_cell_volume 1765.228220
_symmetry_space_group_name_H-M "P M M A"
_symmetry_group_IT_number 51
_symmetry_cell_setting 'orthorhombic'
loop_
_space_group_symop_operation_xyz
x,y,z
1/2-x,-y,z
1/2+x,-y,-z
-x,y,-z
-x,-y,-z
1/2+x,y,-z
1/2-x,y,z
x,-y,z
loop_
_atom_site_type_symbol
_atom_site_label
_atom_site_fract_x
_atom_site_fract_y
_atom_site_fract_z
Si Si1 0.430145 0.570286 0.851809
Si Si2 0.071382 0.923926 0.358048
Si Si3 0.067794 0.171339 0.851368
Si Si4 0.432510 0.302492 0.150401
O O1 0.250000 0.585565 0.863239
O O2 0.458442 0.500000 0.778913
O O3 0.511835 0.630978 0.773986
O O4 0.500000 0.565245 0.000000
O O5 0.250000 0.903869 0.354366
O O6 0.000000 0.901480 0.500000
O O7 0.979503 0.889421 0.238691
O O8 0.048183 0.000000 0.335896
O O9 0.250000 0.176592 0.862300
O O10 0.001236 0.237339 0.782017
O O11 0.000000 0.160718 0.000000
O O12 0.250000 0.298242 0.150188
O O13 0.500000 0.305342 0.000000
#
# Coordination Sequence:
#
# PCOD8206059 Si02
#       4
#     8   8   8   8
#     4   9  15  22  33  51  78 114 155 195 236 285
#     4  10  21  38  58  79 103 131 164 202 246 296
#     4  11  21  34  52  74 102 134 169 208 251 298
#     4  10  17  26  40  59  87 121 158 199 244 292
#
# _framework density 18.127967000000002
#
# number of rings (size 3 to 8) (size 9 to 14) (size 15 to 20)
#    0.000    2.000    0.000    9.000    0.000    3.500 
#    0.000    0.000    0.000    0.000    0.000    0.000 
#    0.000    1.000    0.000    3.750    0.000   14.500 
#
# Total GULP energy -396569.135353 kJ/mol
# GULP energy per Si atom -12392.785480 kJ/mol
# Density = 1.808671 g / cm^3
# Si number density = 18.127967 Si / 1000 Ang^3
#
#
#
# Elastic Constant Matrix: (Units=GPa)
#
#
# Indices 1 2 3 4 5 6 
#
# 1 177.3116 62.6668 35.2329 0.0000 0.0000 0.0000
# 2 62.6668 106.3574 43.6579 0.0000 0.0000 0.0000
# 3 35.2329 43.6579 49.3964 0.0000 0.0000 0.0000
# 4 0.0000 0.0000 0.0000 4.1024 0.0000 0.0000
# 5 0.0000 0.0000 0.0000 0.0000 20.2443 0.0000
# 6 0.0000 0.0000 0.0000 0.0000 0.0000 32.8988
#
#
#
# Elastic Compliance Matrix: (Units=1/GPa)
#
#
# Indices 1 2 3 4 5 6 
#
# 1 0.007272 -0.003383 -0.002197 0.000000 0.000000 0.000000
# 2 -0.003383 0.016329 -0.012019 0.000000 0.000000 0.000000
# 3 -0.002197 -0.012019 0.032434 0.000000 0.000000 0.000000
# 4 0.000000 0.000000 0.000000 0.243757 0.000000 0.000000
# 5 0.000000 0.000000 0.000000 0.000000 0.049397 0.000000
# 6 0.000000 0.000000 0.000000 0.000000 0.000000 0.030396
#
#
# Mechanical properties :
#
#
# Convention : Reuss Voigt Hill
#
# Bulk Modulus (GPa) = 47.99092 68.46451 58.22771
# Shear Modulus (GPa) = 11.85592 24.21627 18.03610
#
# Velocity S-wave (km/s) = 2.56014 3.65890 3.15768
# Velocity P-wave (km/s) = 5.93885 7.46320 6.74423
#
# Compressibility (1/GPa) = 0.02083728
#
# Stress axis : x y z
#
# Youngs Moduli (GPa) = 137.51476 61.23992 30.83142
#
# Poissons Ratio (x) = 0.20717 0.06774
# Poissons Ratio (y) = 0.46520 0.37057
# Poissons Ratio (z) = 0.30211 0.73606
#
# Static dielectric constant tensor:
#      x y z
#    x 3.527370 0.000000 0.000000 
#    y 0.000000 4.602220 0.000000 
#    z 0.000000 0.000000 2.753270 
# 
# 
# High freq. dielectric constant tensor:
#      x y z
#    x 1.727620 0.000000 0.000000 
#    y 0.000000 1.734200 0.000000 
#    z 0.000000 0.000000 1.619320 
# 
# From -- ./inp_files/4850.got.cif
#   From: 2010.03.12/outbox.cif.g09.slc.cpg/sg51_3_cif.got.tgz:4850.got - 2010.04.16 13:43:02.
