data_PCOD8206250
_publ_section_title
;
Structure prediction by ZEFSAII (Michael W. Deem and Ramdas Pophale) SiO2 
 PCOD8206250
Probable space group: P M M A
;
_chemical_formula_sum "Si O2"
_cell_formula_units_Z 56
_cell_length_a 29.245457
_cell_length_b 9.261268
_cell_length_c 13.636354
_cell_angle_alpha 90.000000
_cell_angle_beta 90.000000
_cell_angle_gamma 90.000000
_cell_volume 3693.406686
_symmetry_space_group_name_H-M "P M M A"
_symmetry_group_IT_number 51
_symmetry_cell_setting 'orthorhombic'
loop_
_space_group_symop_operation_xyz
x,y,z
1/2-x,-y,z
1/2+x,-y,-z
-x,y,-z
-x,-y,-z
1/2+x,y,-z
1/2-x,y,z
x,-y,z
loop_
_atom_site_type_symbol
_atom_site_label
_atom_site_fract_x
_atom_site_fract_y
_atom_site_fract_z
Si Si1 0.569800 0.330595 0.956566
Si Si2 0.848892 0.162528 0.868274
Si Si3 0.750000 0.328161 0.649873
Si Si4 0.521282 0.170622 0.348792
Si Si5 0.750000 0.164043 0.846883
Si Si6 0.068394 0.170528 0.456029
Si Si7 0.660565 0.830319 0.639574
Si Si8 0.479770 0.669999 0.848274
O O1 0.575125 0.500000 0.948657
O O2 0.618273 0.263123 0.930371
O O3 0.530437 0.279040 0.881218
O O4 0.556036 0.286768 0.066877
O O5 0.796700 0.182253 0.909382
O O6 0.849311 0.202355 0.753519
O O7 0.866242 0.000000 0.883443
O O8 0.750000 0.500000 0.636738
O O9 0.750000 0.284822 0.763523
O O10 0.795489 0.259016 0.601290
O O11 0.558479 0.214431 0.431536
O O12 0.471699 0.228181 0.384487
O O13 0.535553 0.248310 0.249142
O O14 0.520925 0.000000 0.331059
O O15 0.750000 0.000000 0.800090
O O16 0.117458 0.230228 0.422049
O O17 0.067673 0.000000 0.446005
O O18 0.669125 0.000000 0.621988
O O19 0.479019 0.500000 0.829181
#
# Coordination Sequence:
#
# PCOD8206250 Si02
#       8
#     8   8   4   8   4   8   8   8
#     4   9  18  30  42  57  82 114 143 167 200 244
#     4   9  16  26  43  64  83 105 137 171 203 240
#     4  10  18  26  38  60  85 108 139 176 203 232
#     4   9  16  28  45  64  84 107 137 173 203 235
#     4   8  16  30  42  56  83 114 135 160 207 258
#     4   8  15  27  44  64  85 109 137 166 203 246
#     4   9  16  28  43  59  84 116 139 161 202 252
#     4   9  18  31  42  56  83 116 141 166 203 244
#
# _framework density 15.162153999999999
#
# number of rings (size 3 to 8) (size 9 to 14) (size 15 to 20)
#    0.000    3.143    0.000    4.071    0.000    4.571 
#    0.000    4.286    0.000    0.000    0.000    1.000 
#    0.000    2.286    0.000    0.000    0.000    0.000 
#
# Total GULP energy -694028.312168 kJ/mol
# GULP energy per Si atom -12393.362717 kJ/mol
# Density = 1.512764 g / cm^3
# Si number density = 15.162154 Si / 1000 Ang^3
#
#
#
# Elastic Constant Matrix: (Units=GPa)
#
#
# Indices 1 2 3 4 5 6 
#
# 1 135.1303 41.0325 52.2841 0.0000 0.0000 0.0000
# 2 41.0325 44.3926 33.2360 0.0000 0.0000 0.0000
# 3 52.2841 33.2360 86.2893 0.0000 0.0000 0.0000
# 4 0.0000 0.0000 0.0000 19.8548 0.0000 0.0000
# 5 0.0000 0.0000 0.0000 0.0000 22.9760 0.0000
# 6 0.0000 0.0000 0.0000 0.0000 0.0000 21.3614
#
#
#
# Elastic Compliance Matrix: (Units=1/GPa)
#
#
# Indices 1 2 3 4 5 6 
#
# 1 0.011157 -0.007379 -0.003918 0.000000 0.000000 0.000000
# 2 -0.007379 0.036535 -0.009601 0.000000 0.000000 0.000000
# 3 -0.003918 -0.009601 0.017661 0.000000 0.000000 0.000000
# 4 0.000000 0.000000 0.000000 0.050366 0.000000 0.000000
# 5 0.000000 0.000000 0.000000 0.000000 0.043524 0.000000
# 6 0.000000 0.000000 0.000000 0.000000 0.000000 0.046813
#
#
# Mechanical properties :
#
#
# Convention : Reuss Voigt Hill
#
# Bulk Modulus (GPa) = 42.45098 57.65750 50.05424
# Shear Modulus (GPa) = 19.55387 22.12239 20.83813
#
# Velocity S-wave (km/s) = 3.59507 3.82390 3.71125
# Velocity P-wave (km/s) = 6.72989 7.58987 7.17278
#
# Compressibility (1/GPa) = 0.02355658
#
# Stress axis : x y z
#
# Youngs Moduli (GPa) = 89.63110 27.37105 56.62228
#
# Poissons Ratio (x) = 0.20197 0.22184
# Poissons Ratio (y) = 0.66140 0.54363
# Poissons Ratio (z) = 0.35117 0.26279
#
# Static dielectric constant tensor:
#      x y z
#    x 3.237600 0.000000 0.000000 
#    y 0.000000 2.685370 0.000000 
#    z 0.000000 0.000000 2.710300 
# 
# 
# High freq. dielectric constant tensor:
#      x y z
#    x 1.583890 0.000000 0.000000 
#    y 0.000000 1.565830 0.000000 
#    z 0.000000 0.000000 1.548300 
# 
# From -- ./inp_files/26560.got.cif
#   From: 2010.03.12/outbox.cif.g09.slc.cpg/sg51_14_cif.got.tgz:26560.got - 2010.04.16 13:43:02.
