data_PCOD8206753
_publ_section_title
;
Structure prediction by ZEFSAII (Michael W. Deem and Ramdas Pophale) SiO2 
 PCOD8206753
Probable space group: P M M A
;
_chemical_formula_sum "Si O2"
_cell_formula_units_Z 60
_cell_length_a 8.823848
_cell_length_b 17.462551
_cell_length_c 23.029944
_cell_angle_alpha 90.000000
_cell_angle_beta 90.000000
_cell_angle_gamma 90.000000
_cell_volume 3548.612579
_symmetry_space_group_name_H-M "P M M A"
_symmetry_group_IT_number 51
_symmetry_cell_setting 'orthorhombic'
loop_
_space_group_symop_operation_xyz
x,y,z
1/2-x,-y,z
1/2+x,-y,-z
-x,y,-z
-x,-y,-z
1/2+x,y,-z
1/2-x,y,z
x,-y,z
loop_
_atom_site_type_symbol
_atom_site_label
_atom_site_fract_x
_atom_site_fract_y
_atom_site_fract_z
Si Si1 0.930160 0.654158 0.936926
Si Si2 0.420607 0.181518 0.258111
Si Si3 0.926321 0.913190 0.349090
Si Si4 0.926656 0.413010 0.257300
Si Si5 0.928113 0.718704 0.169092
Si Si6 0.571752 0.783059 0.437433
Si Si7 0.579692 0.681498 0.651103
Si Si8 0.931752 0.500000 0.063814
O O1 0.750000 0.647145 0.942670
O O2 0.980200 0.719698 0.891800
O O3 0.002859 0.577226 0.907871
O O4 0.000000 0.671888 0.000000
O O5 0.250000 0.165031 0.237138
O O6 0.487177 0.106362 0.289265
O O7 0.522928 0.204428 0.202880
O O8 0.426710 0.249713 0.303759
O O9 0.750000 0.900952 0.336491
O O10 0.979162 0.858346 0.401489
O O11 0.964667 0.000000 0.367118
O O12 0.750000 0.402484 0.268950
O O13 0.967028 0.500000 0.239061
O O14 0.977988 0.356294 0.205857
O O15 0.008915 0.392953 0.317933
O O16 0.750000 0.720315 0.156572
O O17 0.500000 0.790635 0.500000
O O18 0.750000 0.777526 0.443815
O O19 0.513745 0.705881 0.405932
O O20 0.750000 0.662114 0.631864
O O21 0.750000 0.500000 0.065459
O O22 0.000000 0.500000 0.000000
#
# Coordination Sequence:
#
# PCOD8206753 Si02
#       8
#     8   8   8   8   8   8   8   4
#     4  11  21  33  46  64  89 122 160 200 242 286
#     4   9  17  30  47  68  93 121 155 194 233 275
#     4   9  18  32  49  70  98 130 159 188 226 273
#     4   9  18  31  47  68  91 117 149 190 239 286
#     4  10  19  31  48  68  92 124 158 196 237 282
#     4  10  19  31  48  69  94 125 159 192 225 269
#     4   9  17  30  47  66  89 118 152 191 232 276
#     4  10  18  30  44  58  80 114 154 192 233 280
#
# _framework density 16.908016
#
# number of rings (size 3 to 8) (size 9 to 14) (size 15 to 20)
#    0.000    2.400    0.000    4.200    0.933    5.067 
#    0.000    0.000    0.000    0.400    0.000    0.000 
#    0.000    0.533    0.000    2.000    0.000    3.067 
#
# Total GULP energy -743871.737247 kJ/mol
# GULP energy per Si atom -12397.862287 kJ/mol
# Density = 1.686953 g / cm^3
# Si number density = 16.908016 Si / 1000 Ang^3
#
#
#
# Elastic Constant Matrix: (Units=GPa)
#
#
# Indices 1 2 3 4 5 6 
#
# 1 101.0849 19.8648 49.0264 0.0000 0.0000 0.0000
# 2 19.8648 30.4625 32.1148 0.0000 0.0000 0.0000
# 3 49.0264 32.1148 101.8750 0.0000 0.0000 0.0000
# 4 0.0000 0.0000 0.0000 19.5716 0.0000 0.0000
# 5 0.0000 0.0000 0.0000 0.0000 31.3152 0.0000
# 6 0.0000 0.0000 0.0000 0.0000 0.0000 20.6151
#
#
#
# Elastic Compliance Matrix: (Units=1/GPa)
#
#
# Indices 1 2 3 4 5 6 
#
# 1 0.013066 -0.002833 -0.005395 0.000000 0.000000 0.000000
# 2 -0.002833 0.049782 -0.014330 0.000000 0.000000 0.000000
# 3 -0.005395 -0.014330 0.016929 0.000000 0.000000 0.000000
# 4 0.000000 0.000000 0.000000 0.051095 0.000000 0.000000
# 5 0.000000 0.000000 0.000000 0.000000 0.031933 0.000000
# 6 0.000000 0.000000 0.000000 0.000000 0.000000 0.048508
#
#
# Mechanical properties :
#
#
# Convention : Reuss Voigt Hill
#
# Bulk Modulus (GPa) = 28.85002 48.38160 38.61581
# Shear Modulus (GPa) = 18.65800 23.12814 20.89307
#
# Velocity S-wave (km/s) = 3.32550 3.70250 3.51905
# Velocity P-wave (km/s) = 5.64316 6.85235 6.27694
#
# Compressibility (1/GPa) = 0.03466202
#
# Stress axis : x y z
#
# Youngs Moduli (GPa) = 76.53530 20.08775 59.06898
#
# Poissons Ratio (x) = 0.05691 0.31866
# Poissons Ratio (y) = 0.21682 0.84644
# Poissons Ratio (z) = 0.41289 0.28785
#
# Static dielectric constant tensor:
#      x y z
#    x 3.256870 0.000000 0.000000 
#    y 0.000000 3.099090 0.000000 
#    z 0.000000 0.000000 3.116030 
# 
# 
# High freq. dielectric constant tensor:
#      x y z
#    x 1.665370 0.000000 0.000000 
#    y 0.000000 1.613680 0.000000 
#    z 0.000000 0.000000 1.639560 
# 
# From -- ./inp_files/32426.got.cif
#   From: 2010.03.12/outbox.cif.g09.slc.cpg/sg51_17_cif.got.tgz:32426.got - 2010.04.16 13:43:02.
