data_PCOD8206403
_publ_section_title
;
Structure prediction by ZEFSAII (Michael W. Deem and Ramdas Pophale) SiO2 
 PCOD8206403
Probable space group: P M M A
;
_chemical_formula_sum "Si O2"
_cell_formula_units_Z 56
_cell_length_a 8.800638
_cell_length_b 19.292112
_cell_length_c 18.792458
_cell_angle_alpha 90.000000
_cell_angle_beta 90.000000
_cell_angle_gamma 90.000000
_cell_volume 3190.637904
_symmetry_space_group_name_H-M "P M M A"
_symmetry_group_IT_number 51
_symmetry_cell_setting 'orthorhombic'
loop_
_space_group_symop_operation_xyz
x,y,z
1/2-x,-y,z
1/2+x,-y,-z
-x,y,-z
-x,-y,-z
1/2+x,y,-z
1/2-x,y,z
x,-y,z
loop_
_atom_site_type_symbol
_atom_site_label
_atom_site_fract_x
_atom_site_fract_y
_atom_site_fract_z
Si Si1 0.571746 0.921382 0.797001
Si Si2 0.572179 0.794865 0.709356
Si Si3 0.429723 0.280609 0.148723
Si Si4 0.930218 0.575968 0.644156
Si Si5 0.929253 0.157679 0.073802
Si Si6 0.430366 0.424752 0.196008
Si Si7 0.930835 0.715229 0.574499
O O1 0.750000 0.913454 0.813890
O O2 0.527866 0.874515 0.728088
O O3 0.481946 0.895658 0.865811
O O4 0.526010 0.000000 0.779147
O O5 0.750000 0.785776 0.701848
O O6 0.517254 0.746644 0.774082
O O7 0.503657 0.768511 0.634436
O O8 0.250000 0.270933 0.137370
O O9 0.515263 0.236276 0.088900
O O10 0.482130 0.361420 0.144819
O O11 0.750000 0.580227 0.647366
O O12 0.981754 0.500000 0.614846
O O13 0.994568 0.585943 0.724159
O O14 0.990649 0.637692 0.593873
O O15 0.750000 0.156461 0.068094
O O16 0.000000 0.131739 0.000000
O O17 0.250000 0.423313 0.200722
O O18 0.485449 0.500000 0.165990
O O19 0.750000 0.717569 0.569240
O O20 0.000000 0.738933 0.500000
#
# Coordination Sequence:
#
# PCOD8206403 Si02
#       7
#     8   8   8   8   8   8   8
#     4   9  18  34  57  81 100 121 152 191 234 280
#     4   8  14  27  47  68  91 120 156 195 234 280
#     4   9  15  28  50  72  94 123 162 206 244 283
#     4   8  13  22  38  61  88 120 158 198 240 286
#     4  11  22  35  51  74 104 135 161 187 223 273
#     4   8  12  20  41  71  94 116 155 206 252 290
#     4  10  18  28  42  62  90 126 163 202 241 281
#
# _framework density 17.551349999999999
#
# number of rings (size 3 to 8) (size 9 to 14) (size 15 to 20)
#    0.000    3.000    1.429    3.000    0.000    0.857 
#    0.000    2.857    0.000    1.286    0.000    2.000 
#    0.000    0.000    0.000    0.000    0.000    0.000 
#
# Total GULP energy -693844.579652 kJ/mol
# GULP energy per Si atom -12390.081779 kJ/mol
# Density = 1.751140 g / cm^3
# Si number density = 17.551350 Si / 1000 Ang^3
#
#
#
# Elastic Constant Matrix: (Units=GPa)
#
#
# Indices 1 2 3 4 5 6 
#
# 1 44.1827 30.3594 25.1938 0.0000 0.0000 0.0000
# 2 30.3594 139.1546 45.9707 0.0000 0.0000 0.0000
# 3 25.1938 45.9707 79.7181 0.0000 0.0000 0.0000
# 4 0.0000 0.0000 0.0000 15.9304 0.0000 0.0000
# 5 0.0000 0.0000 0.0000 0.0000 20.8799 0.0000
# 6 0.0000 0.0000 0.0000 0.0000 0.0000 13.5598
#
#
#
# Elastic Compliance Matrix: (Units=1/GPa)
#
#
# Indices 1 2 3 4 5 6 
#
# 1 0.029415 -0.004134 -0.006912 0.000000 0.000000 0.000000
# 2 -0.004134 0.009458 -0.004148 0.000000 0.000000 0.000000
# 3 -0.006912 -0.004148 0.017121 0.000000 0.000000 0.000000
# 4 0.000000 0.000000 0.000000 0.062773 0.000000 0.000000
# 5 0.000000 0.000000 0.000000 0.000000 0.047893 0.000000
# 6 0.000000 0.000000 0.000000 0.000000 0.000000 0.073747
#
#
# Mechanical properties :
#
#
# Convention : Reuss Voigt Hill
#
# Bulk Modulus (GPa) = 39.05327 51.78924 45.42126
# Shear Modulus (GPa) = 17.89986 20.84279 19.37133
#
# Velocity S-wave (km/s) = 3.19698 3.44980 3.32579
# Velocity P-wave (km/s) = 5.99390 6.74088 6.37833
#
# Compressibility (1/GPa) = 0.02560605
#
# Stress axis : x y z
#
# Youngs Moduli (GPa) = 33.99569 105.72557 58.40879
#
# Poissons Ratio (x) = 0.43707 0.40375
# Poissons Ratio (y) = 0.14054 0.24227
# Poissons Ratio (z) = 0.23499 0.43854
#
# Static dielectric constant tensor:
#      x y z
#    x 2.767660 0.000000 0.000000 
#    y 0.000000 3.657040 0.000000 
#    z 0.000000 0.000000 3.184870 
# 
# 
# High freq. dielectric constant tensor:
#      x y z
#    x 1.630820 0.000000 0.000000 
#    y 0.000000 1.685320 0.000000 
#    z 0.000000 0.000000 1.652810 
# 
# From -- ./inp_files/28164.got.cif
#   From: 2010.03.12/outbox.cif.g09.slc.cpg/sg51_15_cif.got.tgz:28164.got - 2010.04.16 13:43:02.
