data_PCOD8206101
_publ_section_title
;
Structure prediction by ZEFSAII (Michael W. Deem and Ramdas Pophale) SiO2 
 PCOD8206101
Probable space group: P M M A
;
_chemical_formula_sum "Si O2"
_cell_formula_units_Z 64
_cell_length_a 26.512366
_cell_length_b 9.079963
_cell_length_c 17.078292
_cell_angle_alpha 90.000000
_cell_angle_beta 90.000000
_cell_angle_gamma 90.000000
_cell_volume 4111.279475
_symmetry_space_group_name_H-M "P M M A"
_symmetry_group_IT_number 51
_symmetry_cell_setting 'orthorhombic'
loop_
_space_group_symop_operation_xyz
x,y,z
1/2-x,-y,z
1/2+x,-y,-z
-x,y,-z
-x,-y,-z
1/2+x,y,-z
1/2-x,y,z
x,-y,z
loop_
_atom_site_type_symbol
_atom_site_label
_atom_site_fract_x
_atom_site_fract_y
_atom_site_fract_z
Si Si1 0.537110 0.174459 0.177372
Si Si2 0.369456 0.335997 0.284112
Si Si3 0.067707 0.673106 0.141926
Si Si4 0.562310 0.326797 0.329481
Si Si5 0.191683 0.827668 0.409694
Si Si6 0.559577 0.837922 0.009079
Si Si7 0.960791 0.663892 0.601967
Si Si8 0.616965 0.327064 0.480866
O O1 0.481549 0.244858 0.174896
O O2 0.570158 0.239906 0.248656
O O3 0.569152 0.213095 0.098741
O O4 0.530493 0.000000 0.186447
O O5 0.345811 0.500000 0.286679
O O6 0.383066 0.289000 0.195115
O O7 0.330821 0.226942 0.326823
O O8 0.423404 0.334783 0.325329
O O9 0.056193 0.500000 0.142368
O O10 0.082186 0.724261 0.053953
O O11 0.555968 0.500000 0.311081
O O12 0.512560 0.257885 0.371823
O O13 0.609724 0.299184 0.388028
O O14 0.250000 0.785338 0.412062
O O15 0.166206 0.753528 0.485798
O O16 0.182377 0.000000 0.415123
O O17 0.583078 0.000000 0.993817
O O18 0.500000 0.847071 0.000000
O O19 0.976795 0.500000 0.577468
O O20 0.932613 0.735605 0.526891
O O21 0.623022 0.500000 0.500405
#
# Coordination Sequence:
#
# PCOD8206101 Si02
#       8
#     8   8   8   8   8   8   8   8
#     4  10  19  28  38  56  87 123 152 180 216 251
#     4   9  17  29  46  66  86 112 145 180 220 260
#     4  10  17  27  43  62  83 110 149 188 217 250
#     4  10  17  27  43  62  86 115 149 184 215 251
#     4  10  21  35  49  65  87 113 141 178 221 263
#     4   8  16  28  38  53  81 117 151 180 212 248
#     4   8  13  25  41  58  83 111 139 173 212 250
#     4   9  18  30  46  65  84 111 144 180 221 260
#
# _framework density 15.566929
#
# number of rings (size 3 to 8) (size 9 to 14) (size 15 to 20)
#    0.000    2.750    1.250    3.000    0.000    6.750 
#    0.000    0.000    0.000    2.250    0.000    0.000 
#    0.000    1.000    0.000   11.000    0.000    8.000 
#
# Total GULP energy -793036.414691 kJ/mol
# GULP energy per Si atom -12391.193980 kJ/mol
# Density = 1.553150 g / cm^3
# Si number density = 15.566929 Si / 1000 Ang^3
#
#
#
# Elastic Constant Matrix: (Units=GPa)
#
#
# Indices 1 2 3 4 5 6 
#
# 1 54.1871 36.2333 44.3697 0.0000 0.0000 0.0000
# 2 36.2333 71.7130 55.5028 0.0000 0.0000 0.0000
# 3 44.3697 55.5028 134.1041 0.0000 0.0000 0.0000
# 4 0.0000 0.0000 0.0000 23.8393 0.0000 0.0000
# 5 0.0000 0.0000 0.0000 0.0000 11.6583 0.0000
# 6 0.0000 0.0000 0.0000 0.0000 0.0000 16.4381
#
#
#
# Elastic Compliance Matrix: (Units=1/GPa)
#
#
# Indices 1 2 3 4 5 6 
#
# 1 0.030344 -0.011125 -0.005435 0.000000 0.000000 0.000000
# 2 -0.011125 0.024595 -0.006499 0.000000 0.000000 0.000000
# 3 -0.005435 -0.006499 0.011945 0.000000 0.000000 0.000000
# 4 0.000000 0.000000 0.000000 0.041948 0.000000 0.000000
# 5 0.000000 0.000000 0.000000 0.000000 0.085776 0.000000
# 6 0.000000 0.000000 0.000000 0.000000 0.000000 0.060834
#
#
# Mechanical properties :
#
#
# Convention : Reuss Voigt Hill
#
# Bulk Modulus (GPa) = 48.15456 59.13510 53.64483
# Shear Modulus (GPa) = 16.20847 18.64703 17.42775
#
# Velocity S-wave (km/s) = 3.23028 3.46477 3.34958
# Velocity P-wave (km/s) = 6.70179 7.35366 7.03528
#
# Compressibility (1/GPa) = 0.02076647
#
# Stress axis : x y z
#
# Youngs Moduli (GPa) = 32.95561 40.65891 83.71805
#
# Poissons Ratio (x) = 0.45232 0.45504
# Poissons Ratio (y) = 0.36662 0.54405
# Poissons Ratio (z) = 0.17912 0.26423
#
# Static dielectric constant tensor:
#      x y z
#    x 2.546520 0.000000 0.000000 
#    y 0.000000 2.898010 0.000000 
#    z 0.000000 0.000000 3.348480 
# 
# 
# High freq. dielectric constant tensor:
#      x y z
#    x 1.536300 0.000000 0.000000 
#    y 0.000000 1.588670 0.000000 
#    z 0.000000 0.000000 1.607210 
# 
# From -- ./inp_files/31005.got.cif
#   From: 2010.03.12/outbox.cif.g09.slc.cpg/sg51_16_cif.got.tgz:31005.got - 2010.04.16 13:43:02.
