data_PCOD8206947
_publ_section_title
;
Structure prediction by ZEFSAII (Michael W. Deem and Ramdas Pophale) SiO2 
 PCOD8206947
Probable space group: P M M A
;
_chemical_formula_sum "Si O2"
_cell_formula_units_Z 64
_cell_length_a 9.259827
_cell_length_b 16.033283
_cell_length_c 23.087158
_cell_angle_alpha 90.000000
_cell_angle_beta 90.000000
_cell_angle_gamma 90.000000
_cell_volume 3427.644767
_symmetry_space_group_name_H-M "P M M A"
_symmetry_group_IT_number 51
_symmetry_cell_setting 'orthorhombic'
loop_
_space_group_symop_operation_xyz
x,y,z
1/2-x,-y,z
1/2+x,-y,-z
-x,y,-z
-x,-y,-z
1/2+x,y,-z
1/2-x,y,z
x,-y,z
loop_
_atom_site_type_symbol
_atom_site_label
_atom_site_fract_x
_atom_site_fract_y
_atom_site_fract_z
Si Si1 0.085075 0.090731 0.883885
Si Si2 0.077562 0.765831 0.441255
Si Si3 0.084499 0.253803 0.944721
Si Si4 0.421915 0.146889 0.223028
Si Si5 0.579092 0.906502 0.649456
Si Si6 0.406288 0.404223 0.259854
Si Si7 0.078581 0.406450 0.387295
Si Si8 0.082556 0.693551 0.819296
O O1 0.250000 0.114053 0.865871
O O2 0.031081 0.159831 0.929580
O O3 0.987665 0.087718 0.826546
O O4 0.077103 0.000000 0.913721
O O5 0.250000 0.769053 0.448095
O O6 0.023518 0.833890 0.393797
O O7 0.025201 0.670591 0.427087
O O8 0.000000 0.792952 0.500000
O O9 0.250000 0.255198 0.962838
O O10 0.054130 0.310262 0.888231
O O11 0.000000 0.289203 0.000000
O O12 0.250000 0.148168 0.217029
O O13 0.472858 0.113800 0.285439
O O14 0.487508 0.237927 0.213599
O O15 0.750000 0.906533 0.648097
O O16 0.522511 0.000000 0.632264
O O17 0.250000 0.358823 0.248681
O O18 0.372244 0.500000 0.261596
O O19 0.470870 0.379636 0.322653
O O20 0.524084 0.390514 0.209383
O O21 0.250000 0.411466 0.388590
O O22 0.018004 0.500000 0.405109
O O23 0.250000 0.708544 0.806405
#
# Coordination Sequence:
#
# PCOD8206947 Si02
#       8
#     8   8   8   8   8   8   8   8
#     4   9  18  32  47  67 100 132 153 188 251 312
#     4  10  20  34  51  70  95 129 167 205 245 289
#     4   9  19  33  47  65  90 126 169 206 240 282
#     4  10  18  30  51  75  95 120 163 209 245 291
#     4   9  18  32  50  71  95 125 163 209 257 300
#     4   9  17  31  54  82 105 126 159 198 234 284
#     4   8  15  30  52  76 102 131 160 193 239 294
#     4  10  20  33  49  72 104 135 159 192 248 305
#
# _framework density 18.671713
#
# number of rings (size 3 to 8) (size 9 to 14) (size 15 to 20)
#    0.000    2.750    0.000    3.375    0.000    6.250 
#    0.000    3.125    0.000    2.625    0.000    0.000 
#    0.000    0.000    0.000    0.000    0.000    0.000 
#
# Total GULP energy -792939.370728 kJ/mol
# GULP energy per Si atom -12389.677668 kJ/mol
# Density = 1.862922 g / cm^3
# Si number density = 18.671713 Si / 1000 Ang^3
#
#
#
# Elastic Constant Matrix: (Units=GPa)
#
#
# Indices 1 2 3 4 5 6 
#
# 1 49.6675 16.3935 34.6792 0.0000 0.0000 0.0000
# 2 16.3935 52.8227 38.2573 0.0000 0.0000 0.0000
# 3 34.6792 38.2573 101.2397 0.0000 0.0000 0.0000
# 4 0.0000 0.0000 0.0000 18.5422 0.0000 0.0000
# 5 0.0000 0.0000 0.0000 0.0000 27.0106 0.0000
# 6 0.0000 0.0000 0.0000 0.0000 0.0000 17.0365
#
#
#
# Elastic Compliance Matrix: (Units=1/GPa)
#
#
# Indices 1 2 3 4 5 6 
#
# 1 0.026662 -0.002285 -0.008269 0.000000 0.000000 0.000000
# 2 -0.002285 0.026261 -0.009141 0.000000 0.000000 0.000000
# 3 -0.008269 -0.009141 0.016164 0.000000 0.000000 0.000000
# 4 0.000000 0.000000 0.000000 0.053931 0.000000 0.000000
# 5 0.000000 0.000000 0.000000 0.000000 0.037023 0.000000
# 6 0.000000 0.000000 0.000000 0.000000 0.000000 0.058698
#
#
# Mechanical properties :
#
#
# Convention : Reuss Voigt Hill
#
# Bulk Modulus (GPa) = 33.67439 42.48779 38.08109
# Shear Modulus (GPa) = 18.65474 20.14451 19.39962
#
# Velocity S-wave (km/s) = 3.16427 3.28819 3.22683
# Velocity P-wave (km/s) = 5.60573 6.10089 5.85854
#
# Compressibility (1/GPa) = 0.02969616
#
# Stress axis : x y z
#
# Youngs Moduli (GPa) = 37.50642 38.07946 61.86442
#
# Poissons Ratio (x) = 0.08703 0.51158
# Poissons Ratio (y) = 0.08572 0.56549
# Poissons Ratio (z) = 0.31015 0.34808
#
# Static dielectric constant tensor:
#      x y z
#    x 3.175230 0.000000 0.000000 
#    y 0.000000 3.613750 0.000000 
#    z 0.000000 0.000000 3.441920 
# 
# 
# High freq. dielectric constant tensor:
#      x y z
#    x 1.697170 0.000000 0.000000 
#    y 0.000000 1.723320 0.000000 
#    z 0.000000 0.000000 1.716290 
# 
# From -- ./inp_files/32425.got.cif
#   From: 2010.03.12/outbox.cif.g09.slc.cpg/sg51_17_cif.got.tgz:32425.got - 2010.04.16 13:43:02.
