data_PCOD8206982
_publ_section_title
;
Structure prediction by ZEFSAII (Michael W. Deem and Ramdas Pophale) SiO2 
 PCOD8206982
Probable space group: P M M A
;
_chemical_formula_sum "Si O2"
_cell_formula_units_Z 56
_cell_length_a 18.396239
_cell_length_b 14.184200
_cell_length_c 12.820800
_cell_angle_alpha 90.000000
_cell_angle_beta 90.000000
_cell_angle_gamma 90.000000
_cell_volume 3345.407413
_symmetry_space_group_name_H-M "P M M A"
_symmetry_group_IT_number 51
_symmetry_cell_setting 'orthorhombic'
loop_
_space_group_symop_operation_xyz
x,y,z
1/2-x,-y,z
1/2+x,-y,-z
-x,y,-z
-x,-y,-z
1/2+x,y,-z
1/2-x,y,z
x,-y,z
loop_
_atom_site_type_symbol
_atom_site_label
_atom_site_fract_x
_atom_site_fract_y
_atom_site_fract_z
Si Si1 0.664130 0.225184 0.589249
Si Si2 0.667190 0.394782 0.291629
Si Si3 0.336304 0.894605 0.606796
Si Si4 0.666242 0.891588 0.791161
Si Si5 0.834270 0.208032 0.183996
Si Si6 0.085412 0.108139 0.999359
Si Si7 0.415788 0.392147 0.496973
O O1 0.750000 0.240592 0.582787
O O2 0.634672 0.163898 0.491956
O O3 0.641609 0.172579 0.694860
O O4 0.624715 0.326428 0.587115
O O5 0.750000 0.382943 0.331922
O O6 0.653495 0.500000 0.247015
O O7 0.652259 0.319889 0.199880
O O8 0.615998 0.373125 0.388752
O O9 0.250000 0.897790 0.602336
O O10 0.362500 0.846089 0.713365
O O11 0.368805 0.000000 0.602093
O O12 0.750000 0.873817 0.821086
O O13 0.616965 0.862715 0.888749
O O14 0.653899 0.000000 0.758675
O O15 0.750000 0.185166 0.162557
O O16 0.880509 0.176098 0.086033
O O17 0.105920 0.000000 0.973213
O O18 0.000000 0.123989 0.000000
O O19 0.500000 0.365955 0.500000
O O20 0.403283 0.500000 0.461962
#
# Coordination Sequence:
#
# PCOD8206982 Si02
#       7
#     8   8   8   8   8   8   8
#     4  10  18  31  51  73  98 130 165 202 243 292
#     4   9  17  31  51  75 101 126 159 205 253 301
#     4   9  16  26  44  74 104 125 151 195 249 295
#     4   9  18  33  52  71  94 130 172 206 240 292
#     4  10  18  30  52  77  98 126 164 208 255 295
#     4  10  21  35  50  70  99 134 171 208 245 290
#     4  10  20  32  47  70 101 135 168 201 241 293
#
# _framework density 16.739367000000001
#
# number of rings (size 3 to 8) (size 9 to 14) (size 15 to 20)
#    0.000    2.429    1.429    1.714    0.000    5.143 
#    0.000    0.000    0.000    2.143    0.000    2.000 
#    0.000    0.000    0.000    0.000    0.000    0.000 
#
# Total GULP energy -694461.570828 kJ/mol
# GULP energy per Si atom -12401.099479 kJ/mol
# Density = 1.670127 g / cm^3
# Si number density = 16.739367 Si / 1000 Ang^3
#
#
#
# Elastic Constant Matrix: (Units=GPa)
#
#
# Indices 1 2 3 4 5 6 
#
# 1 65.5638 51.0035 54.7384 0.0000 0.0000 0.0000
# 2 51.0035 120.6448 72.1423 0.0000 0.0000 0.0000
# 3 54.7384 72.1423 121.0218 0.0000 0.0000 0.0000
# 4 0.0000 0.0000 0.0000 24.7776 0.0000 0.0000
# 5 0.0000 0.0000 0.0000 0.0000 13.0700 0.0000
# 6 0.0000 0.0000 0.0000 0.0000 0.0000 143.8997
#
#
#
# Elastic Compliance Matrix: (Units=1/GPa)
#
#
# Indices 1 2 3 4 5 6 
#
# 1 0.027429 -0.006491 -0.008537 0.000000 0.000000 0.000000
# 2 -0.006491 0.014416 -0.005658 0.000000 0.000000 0.000000
# 3 -0.008537 -0.005658 0.015497 0.000000 0.000000 0.000000
# 4 0.000000 0.000000 0.000000 0.040359 0.000000 0.000000
# 5 0.000000 0.000000 0.000000 0.000000 0.076511 0.000000
# 6 0.000000 0.000000 0.000000 0.000000 0.000000 0.006949
#
#
# Mechanical properties :
#
#
# Convention : Reuss Voigt Hill
#
# Bulk Modulus (GPa) = 62.61396 73.66653 68.14025
# Shear Modulus (GPa) = 21.94368 44.97254 33.45811
#
# Velocity S-wave (km/s) = 3.62457 5.18890 4.47561
# Velocity P-wave (km/s) = 7.41641 8.94444 8.21602
#
# Compressibility (1/GPa) = 0.01597088
#
# Stress axis : x y z
#
# Youngs Moduli (GPa) = 36.45746 69.36713 64.52951
#
# Poissons Ratio (x) = 0.45027 0.55088
# Poissons Ratio (y) = 0.23665 0.36508
# Poissons Ratio (z) = 0.31123 0.39245
#
# Static dielectric constant tensor:
#      x y z
#    x 2.973440 0.000000 0.000000 
#    y 0.000000 3.336010 0.000000 
#    z 0.000000 0.000000 2.987340 
# 
# 
# High freq. dielectric constant tensor:
#      x y z
#    x 1.628990 0.000000 0.000000 
#    y 0.000000 1.650180 0.000000 
#    z 0.000000 0.000000 1.629070 
# 
# From -- ./inp_files/16585.got.cif
#   From: 2010.03.12/outbox.cif.g09.slc.cpg/sg51_9_cif.got.tgz:16585.got - 2010.04.16 13:43:02.
