data_PCOD8206502
_publ_section_title
;
Structure prediction by ZEFSAII (Michael W. Deem and Ramdas Pophale) SiO2 
 PCOD8206502
Probable space group: P M M A
;
_chemical_formula_sum "Si O2"
_cell_formula_units_Z 52
_cell_length_a 25.243218
_cell_length_b 8.942677
_cell_length_c 12.760883
_cell_angle_alpha 90.000000
_cell_angle_beta 90.000000
_cell_angle_gamma 90.000000
_cell_volume 2880.666549
_symmetry_space_group_name_H-M "P M M A"
_symmetry_group_IT_number 51
_symmetry_cell_setting 'orthorhombic'
loop_
_space_group_symop_operation_xyz
x,y,z
1/2-x,-y,z
1/2+x,-y,-z
-x,y,-z
-x,-y,-z
1/2+x,y,-z
1/2-x,y,z
x,-y,z
loop_
_atom_site_type_symbol
_atom_site_label
_atom_site_fract_x
_atom_site_fract_y
_atom_site_fract_z
Si Si1 0.385541 0.833493 0.003033
Si Si2 0.883431 0.321185 0.212204
Si Si3 0.188989 0.326851 0.404288
Si Si4 0.187843 0.828024 0.617610
Si Si5 0.001722 0.661291 0.774606
Si Si6 0.000000 0.743572 0.000000
Si Si7 0.613072 0.678422 0.782460
O O1 0.448879 0.849818 0.002118
O O2 0.366913 0.748670 0.108409
O O3 0.360810 0.000000 0.001365
O O4 0.366033 0.743913 0.900398
O O5 0.885623 0.500000 0.203676
O O6 0.840640 0.271450 0.296032
O O7 0.941869 0.257920 0.250434
O O8 0.250000 0.297507 0.375505
O O9 0.178792 0.500000 0.431098
O O10 0.170944 0.229410 0.503274
O O11 0.154582 0.273470 0.305756
O O12 0.250000 0.805675 0.634420
O O13 0.170783 0.000000 0.629092
O O14 0.002096 0.500000 0.718334
O O15 0.000968 0.635992 0.899882
O O16 0.945626 0.741963 0.746494
O O17 0.609735 0.500000 0.796773
#
# Coordination Sequence:
#
# PCOD8206502 Si02
#       7
#     8   8   8   8   8   4   8
#     4  10  18  28  45  71 103 135 166 202 245 292
#     4  10  19  32  51  74 100 131 167 203 241 290
#     4   9  18  34  56  77  95 122 164 208 245 286
#     4  10  21  37  56  75  95 122 159 204 251 296
#     4   8  14  25  44  70  98 129 163 199 240 286
#     4   8  14  24  40  64  95 132 169 202 237 282
#     4   9  17  31  50  73 102 133 166 204 245 291
#
# _framework density 18.051376999999999
#
# number of rings (size 3 to 8) (size 9 to 14) (size 15 to 20)
#    0.000    2.769    0.000    1.846    0.000    5.231 
#    0.000    2.308    0.000    7.385    0.000    0.000 
#    0.000    0.000    0.000    0.000    0.000    0.000 
#
# Total GULP energy -644252.930034 kJ/mol
# GULP energy per Si atom -12389.479424 kJ/mol
# Density = 1.801029 g / cm^3
# Si number density = 18.051377 Si / 1000 Ang^3
#
#
#
# Elastic Constant Matrix: (Units=GPa)
#
#
# Indices 1 2 3 4 5 6 
#
# 1 66.3803 29.0563 60.9051 0.0000 0.0000 0.0000
# 2 29.0563 77.0735 43.8312 0.0000 0.0000 0.0000
# 3 60.9051 43.8312 118.3706 0.0000 0.0000 0.0000
# 4 0.0000 0.0000 0.0000 20.4591 0.0000 0.0000
# 5 0.0000 0.0000 0.0000 0.0000 64.2345 0.0000
# 6 0.0000 0.0000 0.0000 0.0000 0.0000 16.0312
#
#
#
# Elastic Compliance Matrix: (Units=1/GPa)
#
#
# Indices 1 2 3 4 5 6 
#
# 1 0.029114 -0.003112 -0.013828 0.000000 0.000000 0.000000
# 2 -0.003112 0.016768 -0.004608 0.000000 0.000000 0.000000
# 3 -0.013828 -0.004608 0.017269 0.000000 0.000000 0.000000
# 4 0.000000 0.000000 0.000000 0.048878 0.000000 0.000000
# 5 0.000000 0.000000 0.000000 0.000000 0.015568 0.000000
# 6 0.000000 0.000000 0.000000 0.000000 0.000000 0.062379
#
#
# Mechanical properties :
#
#
# Convention : Reuss Voigt Hill
#
# Bulk Modulus (GPa) = 49.85998 58.82329 54.34164
# Shear Modulus (GPa) = 20.85448 28.68040 24.76744
#
# Velocity S-wave (km/s) = 3.40264 3.99033 3.70814
# Velocity P-wave (km/s) = 6.56646 7.34082 6.96441
#
# Compressibility (1/GPa) = 0.02005616
#
# Stress axis : x y z
#
# Youngs Moduli (GPa) = 34.34755 59.63619 57.90718
#
# Poissons Ratio (x) = 0.18560 0.80072
# Poissons Ratio (y) = 0.10690 0.26683
# Poissons Ratio (z) = 0.47495 0.27479
#
# Static dielectric constant tensor:
#      x y z
#    x 3.392990 0.000000 0.000000 
#    y 0.000000 3.120040 0.000000 
#    z 0.000000 0.000000 3.194710 
# 
# 
# High freq. dielectric constant tensor:
#      x y z
#    x 1.689510 0.000000 0.000000 
#    y 0.000000 1.684500 0.000000 
#    z 0.000000 0.000000 1.684050 
# 
# From -- ./inp_files/19043.got.cif
#   From: 2010.03.12/outbox.cif.g09.slc.cpg/sg51_10_cif.got.tgz:19043.got - 2010.04.16 13:43:02.
