data_PCOD8206496
_publ_section_title
;
Structure prediction by ZEFSAII (Michael W. Deem and Ramdas Pophale) SiO2 
 PCOD8206496
Probable space group: P M M A
;
_chemical_formula_sum "Si O2"
_cell_formula_units_Z 56
_cell_length_a 16.008432
_cell_length_b 14.592252
_cell_length_c 12.857783
_cell_angle_alpha 90.000000
_cell_angle_beta 90.000000
_cell_angle_gamma 90.000000
_cell_volume 3003.566201
_symmetry_space_group_name_H-M "P M M A"
_symmetry_group_IT_number 51
_symmetry_cell_setting 'orthorhombic'
loop_
_space_group_symop_operation_xyz
x,y,z
1/2-x,-y,z
1/2+x,-y,-z
-x,y,-z
-x,-y,-z
1/2+x,y,-z
1/2-x,y,z
x,-y,z
loop_
_atom_site_type_symbol
_atom_site_label
_atom_site_fract_x
_atom_site_fract_y
_atom_site_fract_z
Si Si1 0.151989 0.602115 0.766265
Si Si2 0.405746 0.598520 0.537612
Si Si3 0.156829 0.777725 0.878192
Si Si4 0.599342 0.791676 0.515523
Si Si5 0.150442 0.104212 0.064739
Si Si6 0.113062 0.104787 0.688167
Si Si7 0.416762 0.895604 0.283952
O O1 0.250000 0.619479 0.741079
O O2 0.138976 0.500000 0.813318
O O3 0.098212 0.613450 0.661676
O O4 0.116900 0.678806 0.847277
O O5 0.500000 0.592398 0.500000
O O6 0.361614 0.500000 0.510067
O O7 0.363534 0.687691 0.484648
O O8 0.250000 0.757139 0.916178
O O9 0.161523 0.843523 0.778683
O O10 0.111864 0.830286 0.974172
O O11 0.500000 0.788985 0.500000
O O12 0.638330 0.850606 0.421894
O O13 0.625376 0.836708 0.624442
O O14 0.250000 0.106280 0.065665
O O15 0.115472 0.142174 0.173759
O O16 0.118993 0.000000 0.044948
O O17 0.015519 0.113595 0.711364
O O18 0.142488 0.000000 0.685946
O O19 0.387612 0.000000 0.299543
#
# Coordination Sequence:
#
# PCOD8206496 Si02
#       7
#     8   8   8   8   8   8   8
#     4   9  17  30  48  71  97 121 151 193 237 284
#     4   9  16  27  46  70  94 122 155 188 229 283
#     4  10  19  31  47  68  93 120 151 190 238 280
#     4   9  16  28  45  67  95 121 151 186 232 275
#     4   9  18  33  50  67  91 124 160 196 231 271
#     4  10  18  28  45  69  95 122 152 191 235 276
#     4   9  18  31  47  66  91 126 163 192 222 273
#
# _framework density 18.644503
#
# number of rings (size 3 to 8) (size 9 to 14) (size 15 to 20)
#    0.000    2.714    1.429    0.857    0.000    3.143 
#    0.000    3.571    0.000    2.571    0.000    1.000 
#    0.000    0.000    0.000    0.000    0.000    0.000 
#
# Total GULP energy -693937.164796 kJ/mol
# GULP energy per Si atom -12391.735086 kJ/mol
# Density = 1.860207 g / cm^3
# Si number density = 18.644503 Si / 1000 Ang^3
#
#
#
# Elastic Constant Matrix: (Units=GPa)
#
#
# Indices 1 2 3 4 5 6 
#
# 1 13.0834 11.0401 16.0621 0.0000 0.0000 0.0000
# 2 11.0401 169.1579 87.8792 0.0000 0.0000 0.0000
# 3 16.0621 87.8792 154.0651 0.0000 0.0000 0.0000
# 4 0.0000 0.0000 0.0000 29.4354 0.0000 0.0000
# 5 0.0000 0.0000 0.0000 0.0000 15.3528 0.0000
# 6 0.0000 0.0000 0.0000 0.0000 0.0000 12.0693
#
#
#
# Elastic Compliance Matrix: (Units=1/GPa)
#
#
# Indices 1 2 3 4 5 6 
#
# 1 0.087880 -0.001387 -0.008371 0.000000 0.000000 0.000000
# 2 -0.001387 0.008423 -0.004660 0.000000 0.000000 0.000000
# 3 -0.008371 -0.004660 0.010022 0.000000 0.000000 0.000000
# 4 0.000000 0.000000 0.000000 0.033973 0.000000 0.000000
# 5 0.000000 0.000000 0.000000 0.000000 0.065135 0.000000
# 6 0.000000 0.000000 0.000000 0.000000 0.000000 0.082855
#
#
# Mechanical properties :
#
#
# Convention : Reuss Voigt Hill
#
# Bulk Modulus (GPa) = 12.90505 62.91880 37.91192
# Shear Modulus (GPa) = 14.57932 26.12650 20.35291
#
# Velocity S-wave (km/s) = 2.79940 3.74745 3.30757
# Velocity P-wave (km/s) = 4.16959 7.24875 5.91311
#
# Compressibility (1/GPa) = 0.07748905
#
# Stress axis : x y z
#
# Youngs Moduli (GPa) = 11.37920 118.72211 99.78520
#
# Poissons Ratio (x) = 0.16463 0.83529
# Poissons Ratio (y) = 0.01578 0.46499
# Poissons Ratio (z) = 0.09525 0.55324
#
# Static dielectric constant tensor:
#      x y z
#    x 3.014420 0.000000 0.000000 
#    y 0.000000 4.007330 0.000000 
#    z 0.000000 0.000000 3.469320 
# 
# 
# High freq. dielectric constant tensor:
#      x y z
#    x 1.683660 0.000000 0.000000 
#    y 0.000000 1.736100 0.000000 
#    z 0.000000 0.000000 1.711630 
# 
# From -- ./inp_files/16590.got.cif
#   From: 2010.03.12/outbox.cif.g09.slc.cpg/sg51_9_cif.got.tgz:16590.got - 2010.04.16 13:43:02.
