data_PCOD8206911
_publ_section_title
;
Structure prediction by ZEFSAII (Michael W. Deem and Ramdas Pophale) SiO2 
 PCOD8206911
Probable space group: P M M A
;
_chemical_formula_sum "Si O2"
_cell_formula_units_Z 56
_cell_length_a 17.241791
_cell_length_b 19.880906
_cell_length_c 8.063059
_cell_angle_alpha 90.000000
_cell_angle_beta 90.000000
_cell_angle_gamma 90.000000
_cell_volume 2763.874926
_symmetry_space_group_name_H-M "P M M A"
_symmetry_group_IT_number 51
_symmetry_cell_setting 'orthorhombic'
loop_
_space_group_symop_operation_xyz
x,y,z
1/2-x,-y,z
1/2+x,-y,-z
-x,y,-z
-x,-y,-z
1/2+x,y,-z
1/2-x,y,z
x,-y,z
loop_
_atom_site_type_symbol
_atom_site_label
_atom_site_fract_x
_atom_site_fract_y
_atom_site_fract_z
Si Si1 0.586150 0.574852 0.937455
Si Si2 0.342607 0.154793 0.715199
Si Si3 0.161342 0.707649 0.583805
Si Si4 0.340415 0.427617 0.718880
Si Si5 0.838262 0.301374 0.793582
Si Si6 0.842042 0.839532 0.917799
Si Si7 0.342511 0.923804 0.394313
O O1 0.592585 0.500000 0.856816
O O2 0.608248 0.632663 0.807406
O O3 0.500000 0.588048 0.000000
O O4 0.646813 0.582123 0.086379
O O5 0.250000 0.156232 0.704896
O O6 0.376158 0.230005 0.683169
O O7 0.374248 0.105915 0.569708
O O8 0.369401 0.132412 0.901044
O O9 0.250000 0.700307 0.642157
O O10 0.120162 0.635879 0.624584
O O11 0.155357 0.725793 0.392227
O O12 0.250000 0.430598 0.679162
O O13 0.377632 0.500000 0.663266
O O14 0.750000 0.321272 0.837443
O O15 0.867738 0.238848 0.905220
O O16 0.750000 0.842803 0.904207
O O17 0.876657 0.883788 0.766098
O O18 0.250000 0.920391 0.392904
O O19 0.372394 0.000000 0.381008
#
# Coordination Sequence:
#
# PCOD8206911 Si02
#       7
#     8   8   8   8   8   8   8
#     4  10  21  35  48  66  96 130 162 201 249 297
#     4   9  15  24  38  57  86 123 158 194 240 286
#     4   9  16  27  45  69  94 118 154 207 252 286
#     4   9  17  30  48  69  92 121 159 199 240 290
#     4  10  18  30  50  72  93 122 165 210 248 291
#     4   9  16  26  42  64  90 124 164 203 243 286
#     4   9  16  25  36  56  91 129 162 195 235 290
#
# _framework density 20.261409
#
# number of rings (size 3 to 8) (size 9 to 14) (size 15 to 20)
#    0.000    2.714    1.429    1.286    0.000    4.286 
#    0.000    5.000    0.000    2.571    0.000    0.000 
#    0.000    0.571    0.000    4.000    0.000    6.143 
#
# Total GULP energy -693831.844572 kJ/mol
# GULP energy per Si atom -12389.854367 kJ/mol
# Density = 2.021529 g / cm^3
# Si number density = 20.261409 Si / 1000 Ang^3
#
#
#
# Elastic Constant Matrix: (Units=GPa)
#
#
# Indices 1 2 3 4 5 6 
#
# 1 9.0081 12.6714 5.4179 0.0000 0.0000 0.0000
# 2 12.6714 149.6975 73.4166 0.0000 0.0000 0.0000
# 3 5.4179 73.4166 126.5095 0.0000 0.0000 0.0000
# 4 0.0000 0.0000 0.0000 41.7240 0.0000 0.0000
# 5 0.0000 0.0000 0.0000 0.0000 2.6953 0.0000
# 6 0.0000 0.0000 0.0000 0.0000 0.0000 5.9891
#
#
#
# Elastic Compliance Matrix: (Units=1/GPa)
#
#
# Indices 1 2 3 4 5 6 
#
# 1 0.126127 -0.011221 0.001110 0.000000 0.000000 0.000000
# 2 -0.011221 0.010336 -0.005518 0.000000 0.000000 0.000000
# 3 0.001110 -0.005518 0.011059 0.000000 0.000000 0.000000
# 4 0.000000 0.000000 0.000000 0.023967 0.000000 0.000000
# 5 0.000000 0.000000 0.000000 0.000000 0.371018 0.000000
# 6 0.000000 0.000000 0.000000 0.000000 0.000000 0.166970
#
#
# Mechanical properties :
#
#
# Convention : Reuss Voigt Hill
#
# Bulk Modulus (GPa) = 8.60101 52.02520 30.31311
# Shear Modulus (GPa) = 6.41446 22.99564 14.70505
#
# Velocity S-wave (km/s) = 1.78121 3.37255 2.69693
# Velocity P-wave (km/s) = 2.91282 6.39517 4.96904
#
# Compressibility (1/GPa) = 0.11626536
#
# Stress axis : x y z
#
# Youngs Moduli (GPa) = 7.92854 96.74947 90.42367
#
# Poissons Ratio (x) = 1.08559 -0.10038
# Poissons Ratio (y) = 0.08896 0.49893
# Poissons Ratio (z) = -0.00880 0.53383
#
# Static dielectric constant tensor:
#      x y z
#    x 2.917240 0.000000 0.000000 
#    y 0.000000 4.000960 0.000000 
#    z 0.000000 0.000000 3.740900 
# 
# 
# High freq. dielectric constant tensor:
#      x y z
#    x 1.706120 0.000000 0.000000 
#    y 0.000000 1.804380 0.000000 
#    z 0.000000 0.000000 1.790810 
# 
# From -- ./inp_files/11105.got.cif
#   From: 2010.03.12/outbox.cif.g09.slc.cpg/sg51_6_cif.got.tgz:11105.got - 2010.04.16 13:43:02.
