data_PCOD8206509
_publ_section_title
;
Structure prediction by ZEFSAII (Michael W. Deem and Ramdas Pophale) SiO2 
 PCOD8206509
Probable space group: P M M A
;
_chemical_formula_sum "Si O2"
_cell_formula_units_Z 56
_cell_length_a 15.691678
_cell_length_b 13.906144
_cell_length_c 14.682112
_cell_angle_alpha 90.000000
_cell_angle_beta 90.000000
_cell_angle_gamma 90.000000
_cell_volume 3203.794434
_symmetry_space_group_name_H-M "P M M A"
_symmetry_group_IT_number 51
_symmetry_cell_setting 'orthorhombic'
loop_
_space_group_symop_operation_xyz
x,y,z
1/2-x,-y,z
1/2+x,-y,-z
-x,y,-z
-x,-y,-z
1/2+x,y,-z
1/2-x,y,z
x,-y,z
loop_
_atom_site_type_symbol
_atom_site_label
_atom_site_fract_x
_atom_site_fract_y
_atom_site_fract_z
Si Si1 0.655264 0.282249 0.602459
Si Si2 0.408874 0.395567 0.547229
Si Si3 0.652940 0.112240 0.090879
Si Si4 0.485490 0.390012 0.286311
Si Si5 0.507644 0.804530 0.214889
Si Si6 0.154720 0.886301 0.116165
Si Si7 0.537667 0.112359 0.600631
O O1 0.750000 0.286456 0.641299
O O2 0.652530 0.314960 0.495994
O O3 0.598922 0.357836 0.659136
O O4 0.625143 0.171810 0.608543
O O5 0.500000 0.389115 0.500000
O O6 0.366904 0.500000 0.530419
O O7 0.428139 0.381192 0.653773
O O8 0.750000 0.135417 0.120381
O O9 0.587761 0.167016 0.155096
O O10 0.633992 0.000000 0.100450
O O11 0.637079 0.146285 0.987557
O O12 0.473500 0.500000 0.250703
O O13 0.500710 0.311652 0.207346
O O14 0.416874 0.843629 0.181132
O O15 0.522523 0.844710 0.318497
O O16 0.250000 0.851780 0.145637
O O17 0.149818 0.000000 0.122153
O O18 0.500000 0.131017 0.500000
O O19 0.555496 0.000000 0.616958
#
# Coordination Sequence:
#
# PCOD8206509 Si02
#       7
#     8   8   8   8   8   8   8
#     4  10  18  28  46  69  90 118 160 211 262 301
#     4   8  14  28  47  61  79 112 155 203 247 280
#     4   9  18  33  54  81 107 126 155 208 264 307
#     4   9  19  33  46  65  94 126 163 207 251 295
#     4  11  19  31  55  76  96 136 177 206 246 302
#     4   9  18  32  52  81 110 129 155 204 260 309
#     4  10  21  35  47  64  98 141 176 200 229 283
#
# _framework density 17.479274
#
# number of rings (size 3 to 8) (size 9 to 14) (size 15 to 20)
#    0.000    2.571    0.000    6.000    0.000    4.857 
#    0.000    2.857    0.000    3.857    0.000    2.000 
#    0.000    0.000    0.000    0.000    0.000    0.000 
#
# Total GULP energy -693798.261397 kJ/mol
# GULP energy per Si atom -12389.254668 kJ/mol
# Density = 1.743949 g / cm^3
# Si number density = 17.479274 Si / 1000 Ang^3
#
#
#
# Elastic Constant Matrix: (Units=GPa)
#
#
# Indices 1 2 3 4 5 6 
#
# 1 75.5854 37.1219 35.3296 0.0000 0.0000 0.0000
# 2 37.1219 110.1932 32.2964 0.0000 0.0000 0.0000
# 3 35.3296 32.2964 73.3569 0.0000 0.0000 0.0000
# 4 0.0000 0.0000 0.0000 20.2334 0.0000 0.0000
# 5 0.0000 0.0000 0.0000 0.0000 12.7494 0.0000
# 6 0.0000 0.0000 0.0000 0.0000 0.0000 9.7116
#
#
#
# Elastic Compliance Matrix: (Units=1/GPa)
#
#
# Indices 1 2 3 4 5 6 
#
# 1 0.018614 -0.004183 -0.007123 0.000000 0.000000 0.000000
# 2 -0.004183 0.011359 -0.002987 0.000000 0.000000 0.000000
# 3 -0.007123 -0.002987 0.018377 0.000000 0.000000 0.000000
# 4 0.000000 0.000000 0.000000 0.049423 0.000000 0.000000
# 5 0.000000 0.000000 0.000000 0.000000 0.078435 0.000000
# 6 0.000000 0.000000 0.000000 0.000000 0.000000 0.102969
#
#
# Mechanical properties :
#
#
# Convention : Reuss Voigt Hill
#
# Bulk Modulus (GPa) = 50.59317 52.07015 51.33166
# Shear Modulus (GPa) = 15.90575 18.83140 17.36857
#
# Velocity S-wave (km/s) = 3.01986 3.28587 3.15567
# Velocity P-wave (km/s) = 6.41614 6.65209 6.53518
#
# Compressibility (1/GPa) = 0.01976552
#
# Stress axis : x y z
#
# Youngs Moduli (GPa) = 53.72356 88.03235 54.41455
#
# Poissons Ratio (x) = 0.36823 0.38760
# Poissons Ratio (y) = 0.22472 0.16252
# Poissons Ratio (z) = 0.38268 0.26292
#
# Static dielectric constant tensor:
#      x y z
#    x 3.179210 0.000000 0.000000 
#    y 0.000000 3.332120 0.000000 
#    z 0.000000 0.000000 3.329310 
# 
# 
# High freq. dielectric constant tensor:
#      x y z
#    x 1.657800 0.000000 0.000000 
#    y 0.000000 1.672170 0.000000 
#    z 0.000000 0.000000 1.657950 
# 
# From -- ./inp_files/24329.got.cif
#   From: 2010.03.12/outbox.cif.g09.slc.cpg/sg51_13_cif.got.tgz:24329.got - 2010.04.16 13:43:02.
