data_PCOD8206390
_publ_section_title
;
Structure prediction by ZEFSAII (Michael W. Deem and Ramdas Pophale) SiO2 
 PCOD8206390
Probable space group: P M M A
;
_chemical_formula_sum "Si O2"
_cell_formula_units_Z 52
_cell_length_a 8.820226
_cell_length_b 18.857333
_cell_length_c 19.080673
_cell_angle_alpha 90.000000
_cell_angle_beta 90.000000
_cell_angle_gamma 90.000000
_cell_volume 3173.610850
_symmetry_space_group_name_H-M "P M M A"
_symmetry_group_IT_number 51
_symmetry_cell_setting 'orthorhombic'
loop_
_space_group_symop_operation_xyz
x,y,z
1/2-x,-y,z
1/2+x,-y,-z
-x,y,-z
-x,-y,-z
1/2+x,y,-z
1/2-x,y,z
x,-y,z
loop_
_atom_site_type_symbol
_atom_site_label
_atom_site_fract_x
_atom_site_fract_y
_atom_site_fract_z
Si Si1 0.574003 0.357459 0.926368
Si Si2 0.424789 0.419736 0.696343
Si Si3 0.925592 0.301386 0.783372
Si Si4 0.068804 0.500000 0.923108
Si Si5 0.928444 0.344425 0.575005
Si Si6 0.070177 0.079580 0.425865
Si Si7 0.071538 0.208807 0.339044
O O1 0.750000 0.373477 0.940824
O O2 0.552715 0.295132 0.867854
O O3 0.495827 0.426977 0.891032
O O4 0.500000 0.333552 0.000000
O O5 0.250000 0.404219 0.680534
O O6 0.449834 0.500000 0.722687
O O7 0.480308 0.368560 0.757667
O O8 0.517480 0.408070 0.624788
O O9 0.750000 0.316214 0.764890
O O10 0.977920 0.230008 0.741047
O O11 0.250000 0.500000 0.920042
O O12 0.000000 0.500000 0.000000
O O13 0.750000 0.346631 0.567480
O O14 0.985266 0.270442 0.608843
O O15 0.000000 0.354880 0.500000
O O16 0.250000 0.084515 0.433420
O O17 0.005998 0.133198 0.365774
O O18 0.000000 0.102150 0.500000
O O19 0.019219 0.000000 0.404909
O O20 0.250000 0.202444 0.342728
#
# Coordination Sequence:
#
# PCOD8206390 Si02
#       7
#     8   8   8   4   8   8   8
#     4  10  19  31  46  65  86 111 142 178 221 266
#     4  10  21  34  46  62  82 105 138 181 225 264
#     4   9  19  33  48  63  83 114 146 177 216 262
#     4  10  18  28  42  60  84 110 137 172 215 260
#     4  10  19  31  47  63  81 109 143 181 220 259
#     4   9  16  26  43  67  94 121 146 174 209 249
#     4   8  15  29  45  63  87 114 145 176 210 253
#
# _framework density 16.385121000000002
#
# number of rings (size 3 to 8) (size 9 to 14) (size 15 to 20)
#    0.000    2.615    0.000    4.385    1.077    2.769 
#    0.000    3.077    0.000    0.000    0.000    0.000 
#    0.000    0.615    0.000    0.462    0.000    0.923 
#
# Total GULP energy -644307.302316 kJ/mol
# GULP energy per Si atom -12390.525045 kJ/mol
# Density = 1.634783 g / cm^3
# Si number density = 16.385121 Si / 1000 Ang^3
#
#
#
# Elastic Constant Matrix: (Units=GPa)
#
#
# Indices 1 2 3 4 5 6 
#
# 1 60.9227 21.2897 26.3572 0.0000 0.0000 0.0000
# 2 21.2897 88.6190 48.9786 0.0000 0.0000 0.0000
# 3 26.3572 48.9786 110.8943 0.0000 0.0000 0.0000
# 4 0.0000 0.0000 0.0000 24.3210 0.0000 0.0000
# 5 0.0000 0.0000 0.0000 0.0000 22.0533 0.0000
# 6 0.0000 0.0000 0.0000 0.0000 0.0000 12.7615
#
#
#
# Elastic Compliance Matrix: (Units=1/GPa)
#
#
# Indices 1 2 3 4 5 6 
#
# 1 0.018773 -0.002704 -0.003268 0.000000 0.000000 0.000000
# 2 -0.002704 0.015318 -0.006123 0.000000 0.000000 0.000000
# 3 -0.003268 -0.006123 0.012498 0.000000 0.000000 0.000000
# 4 0.000000 0.000000 0.000000 0.041117 0.000000 0.000000
# 5 0.000000 0.000000 0.000000 0.000000 0.045345 0.000000
# 6 0.000000 0.000000 0.000000 0.000000 0.000000 0.078360
#
#
# Mechanical properties :
#
#
# Convention : Reuss Voigt Hill
#
# Bulk Modulus (GPa) = 44.64200 50.40968 47.52584
# Shear Modulus (GPa) = 20.57051 22.74787 21.65919
#
# Velocity S-wave (km/s) = 3.54706 3.73007 3.63971
# Velocity P-wave (km/s) = 6.63929 7.02734 6.83607
#
# Compressibility (1/GPa) = 0.02240043
#
# Stress axis : x y z
#
# Youngs Moduli (GPa) = 53.26838 65.28350 80.00989
#
# Poissons Ratio (x) = 0.17653 0.26144
# Poissons Ratio (y) = 0.14404 0.48988
# Poissons Ratio (z) = 0.17406 0.39971
#
# Static dielectric constant tensor:
#      x y z
#    x 3.066990 0.000000 0.000000 
#    y 0.000000 3.397140 0.000000 
#    z 0.000000 0.000000 3.162190 
# 
# 
# High freq. dielectric constant tensor:
#      x y z
#    x 1.628990 0.000000 0.000000 
#    y 0.000000 1.596100 0.000000 
#    z 0.000000 0.000000 1.626880 
# 
# From -- ./inp_files/32264.got.cif
#   From: 2010.03.12/outbox.cif.g09.slc.cpg/sg51_17_cif.got.tgz:32264.got - 2010.04.16 13:43:02.
