data_PCOD8206305
_publ_section_title
;
Structure prediction by ZEFSAII (Michael W. Deem and Ramdas Pophale) SiO2 
 PCOD8206305
Probable space group: P M M A
;
_chemical_formula_sum "Si O2"
_cell_formula_units_Z 56
_cell_length_a 8.934373
_cell_length_b 18.522155
_cell_length_c 21.500624
_cell_angle_alpha 90.000000
_cell_angle_beta 90.000000
_cell_angle_gamma 90.000000
_cell_volume 3558.005855
_symmetry_space_group_name_H-M "P M M A"
_symmetry_group_IT_number 51
_symmetry_cell_setting 'orthorhombic'
loop_
_space_group_symop_operation_xyz
x,y,z
1/2-x,-y,z
1/2+x,-y,-z
-x,y,-z
-x,-y,-z
1/2+x,y,-z
1/2-x,y,z
x,-y,z
loop_
_atom_site_type_symbol
_atom_site_label
_atom_site_fract_x
_atom_site_fract_y
_atom_site_fract_z
Si Si1 0.573981 0.668446 0.563222
Si Si2 0.078462 0.846393 0.177685
Si Si3 0.424127 0.578875 0.317703
Si Si4 0.921220 0.212937 0.369330
Si Si5 0.423044 0.917982 0.706446
Si Si6 0.078880 0.718083 0.257460
Si Si7 0.925483 0.082474 0.064160
O O1 0.500000 0.639855 0.500000
O O2 0.750000 0.666374 0.555340
O O3 0.515593 0.617546 0.619500
O O4 0.523187 0.751331 0.577064
O O5 0.250000 0.866316 0.163658
O O6 0.061225 0.759766 0.191692
O O7 0.026670 0.892308 0.237025
O O8 0.980440 0.864634 0.118012
O O9 0.250000 0.566289 0.326975
O O10 0.501355 0.500000 0.307931
O O11 0.452776 0.631267 0.257473
O O12 0.750000 0.227522 0.387623
O O13 0.952687 0.127715 0.357157
O O14 0.957403 0.248653 0.303220
O O15 0.250000 0.909302 0.727352
O O16 0.463255 0.000000 0.690193
O O17 0.250000 0.730292 0.282649
O O18 0.750000 0.091078 0.056539
O O19 0.970006 0.000000 0.080682
O O20 0.000000 0.107071 0.000000
#
# Coordination Sequence:
#
# PCOD8206305 Si02
#       7
#     8   8   8   8   8   8   8
#     4  10  19  30  44  61  81 106 137 169 200 241
#     4  10  18  27  41  62  87 114 144 175 206 243
#     4   8  14  26  44  64  86 111 136 164 200 240
#     4   9  16  27  43  60  79 104 133 167 207 247
#     4   9  17  28  42  61  83 106 134 170 211 251
#     4   8  15  27  42  61  85 111 138 169 203 241
#     4  10  20  32  44  59  83 116 151 184 216 248
#
# _framework density 15.739153
#
# number of rings (size 3 to 8) (size 9 to 14) (size 15 to 20)
#    0.000    2.857    0.000    3.000    0.000    4.286 
#    0.000    0.000    0.000   10.714    0.000    0.000 
#    0.000    0.571    0.000    1.000    0.000    1.429 
#
# Total GULP energy -693797.080841 kJ/mol
# GULP energy per Si atom -12389.233586 kJ/mol
# Density = 1.570333 g / cm^3
# Si number density = 15.739153 Si / 1000 Ang^3
#
#
#
# Elastic Constant Matrix: (Units=GPa)
#
#
# Indices 1 2 3 4 5 6 
#
# 1 49.2581 26.6370 19.7745 0.0000 0.0000 0.0000
# 2 26.6370 124.0043 46.6113 0.0000 0.0000 0.0000
# 3 19.7745 46.6113 57.1437 0.0000 0.0000 0.0000
# 4 0.0000 0.0000 0.0000 17.5292 0.0000 0.0000
# 5 0.0000 0.0000 0.0000 0.0000 25.3993 0.0000
# 6 0.0000 0.0000 0.0000 0.0000 0.0000 11.8418
#
#
#
# Elastic Compliance Matrix: (Units=1/GPa)
#
#
# Indices 1 2 3 4 5 6 
#
# 1 0.024312 -0.002971 -0.005990 0.000000 0.000000 0.000000
# 2 -0.002971 0.011993 -0.008754 0.000000 0.000000 0.000000
# 3 -0.005990 -0.008754 0.026713 0.000000 0.000000 0.000000
# 4 0.000000 0.000000 0.000000 0.057048 0.000000 0.000000
# 5 0.000000 0.000000 0.000000 0.000000 0.039371 0.000000
# 6 0.000000 0.000000 0.000000 0.000000 0.000000 0.084447
#
#
# Mechanical properties :
#
#
# Convention : Reuss Voigt Hill
#
# Bulk Modulus (GPa) = 36.24730 46.27239 41.25985
# Shear Modulus (GPa) = 17.33036 20.11297 18.72166
#
# Velocity S-wave (km/s) = 3.32188 3.57864 3.45265
# Velocity P-wave (km/s) = 6.14762 6.82195 6.49354
#
# Compressibility (1/GPa) = 0.02758826
#
# Stress axis : x y z
#
# Youngs Moduli (GPa) = 41.13121 83.38136 37.43430
#
# Poissons Ratio (x) = 0.24772 0.22423
# Poissons Ratio (y) = 0.12220 0.32772
# Poissons Ratio (z) = 0.24637 0.72996
#
# Static dielectric constant tensor:
#      x y z
#    x 2.979730 0.000000 0.000000 
#    y 0.000000 3.375660 0.000000 
#    z 0.000000 0.000000 2.811270 
# 
# 
# High freq. dielectric constant tensor:
#      x y z
#    x 1.605720 0.000000 0.000000 
#    y 0.000000 1.597030 0.000000 
#    z 0.000000 0.000000 1.566630 
# 
# From -- ./inp_files/32233.got.cif
#   From: 2010.03.12/outbox.cif.g09.slc.cpg/sg51_17_cif.got.tgz:32233.got - 2010.04.16 13:43:02.
