data_PCOD8206961
_publ_section_title
;
Structure prediction by ZEFSAII (Michael W. Deem and Ramdas Pophale) SiO2 
 PCOD8206961
Probable space group: P M M A
;
_chemical_formula_sum "Si O2"
_cell_formula_units_Z 48
_cell_length_a 8.585232
_cell_length_b 30.644846
_cell_length_c 9.325629
_cell_angle_alpha 90.000000
_cell_angle_beta 90.000000
_cell_angle_gamma 90.000000
_cell_volume 2453.508760
_symmetry_space_group_name_H-M "P M M A"
_symmetry_group_IT_number 51
_symmetry_cell_setting 'orthorhombic'
loop_
_space_group_symop_operation_xyz
x,y,z
1/2-x,-y,z
1/2+x,-y,-z
-x,y,-z
-x,-y,-z
1/2+x,y,-z
1/2-x,y,z
x,-y,z
loop_
_atom_site_type_symbol
_atom_site_label
_atom_site_fract_x
_atom_site_fract_y
_atom_site_fract_z
Si Si1 0.566654 0.252164 0.150558
Si Si2 0.934957 0.000000 0.159277
Si Si3 0.065479 0.588573 0.841548
Si Si4 0.565103 0.846981 0.154075
Si Si5 0.934691 0.078975 0.658494
Si Si6 0.565904 0.329731 0.343379
Si Si7 0.065435 0.500000 0.159733
O O1 0.750000 0.254899 0.138631
O O2 0.514133 0.202818 0.185187
O O3 0.503248 0.284836 0.272411
O O4 0.500000 0.268289 0.000000
O O5 0.994214 0.042590 0.239477
O O6 0.750000 0.000000 0.154946
O O7 0.000000 0.000000 0.000000
O O8 0.250000 0.585534 0.849012
O O9 0.006397 0.629102 0.747668
O O10 0.998799 0.544305 0.767043
O O11 0.000000 0.595140 0.000000
O O12 0.750000 0.853632 0.156210
O O13 0.485801 0.874275 0.280439
O O14 0.500000 0.862362 0.000000
O O15 0.750000 0.074818 0.655031
O O16 0.000000 0.072593 0.500000
O O17 0.500000 0.333766 0.500000
O O18 0.750000 0.329324 0.350100
O O19 0.250000 0.500000 0.161281
O O20 0.000000 0.500000 0.000000
#
# Coordination Sequence:
#
# PCOD8206961 Si02
#       7
#     8   4   8   8   8   8   4
#     4   9  19  36  58  84 112 144 186 231 276 326
#     4  12  25  44  67  92 120 154 196 240 287 338
#     4  10  19  33  54  79 106 136 175 220 268 320
#     4  10  20  37  60  87 118 152 191 235 281 334
#     4  12  25  42  62  88 121 157 195 237 287 340
#     4  10  22  37  53  77 109 144 181 224 272 326
#     4  10  18  30  51  78 105 134 172 216 266 318
#
# _framework density 19.56382
#
# number of rings (size 3 to 8) (size 9 to 14) (size 15 to 20)
#    0.000    1.667    0.000    6.250    0.000    3.333 
#    0.000    2.083    0.000    0.000    0.000    0.000 
#    0.000    0.000    0.000    0.000    0.000    0.000 
#
# Total GULP energy -595286.711660 kJ/mol
# GULP energy per Si atom -12401.806493 kJ/mol
# Density = 1.951929 g / cm^3
# Si number density = 19.563820 Si / 1000 Ang^3
#
#
#
# Elastic Constant Matrix: (Units=GPa)
#
#
# Indices 1 2 3 4 5 6 
#
# 1 105.3333 48.2977 47.4486 0.0000 0.0000 0.0000
# 2 48.2977 148.0730 85.4331 0.0000 0.0000 0.0000
# 3 47.4486 85.4331 144.6994 0.0000 0.0000 0.0000
# 4 0.0000 0.0000 0.0000 15.8988 0.0000 0.0000
# 5 0.0000 0.0000 0.0000 0.0000 35.5239 0.0000
# 6 0.0000 0.0000 0.0000 0.0000 0.0000 22.2958
#
#
#
# Elastic Compliance Matrix: (Units=1/GPa)
#
#
# Indices 1 2 3 4 5 6 
#
# 1 0.011688 -0.002428 -0.002399 0.000000 0.000000 0.000000
# 2 -0.002428 0.010747 -0.005549 0.000000 0.000000 0.000000
# 3 -0.002399 -0.005549 0.010974 0.000000 0.000000 0.000000
# 4 0.000000 0.000000 0.000000 0.062898 0.000000 0.000000
# 5 0.000000 0.000000 0.000000 0.000000 0.028150 0.000000
# 6 0.000000 0.000000 0.000000 0.000000 0.000000 0.044851
#
#
# Mechanical properties :
#
#
# Convention : Reuss Voigt Hill
#
# Bulk Modulus (GPa) = 79.01201 84.49605 81.75403
# Shear Modulus (GPa) = 25.73624 29.20547 27.47085
#
# Velocity S-wave (km/s) = 3.63092 3.86791 3.75129
# Velocity P-wave (km/s) = 7.61922 7.95181 7.78729
#
# Compressibility (1/GPa) = 0.01265630
#
# Stress axis : x y z
#
# Youngs Moduli (GPa) = 85.56056 93.04909 91.12658
#
# Poissons Ratio (x) = 0.22593 0.21860
# Poissons Ratio (y) = 0.20775 0.50566
# Poissons Ratio (z) = 0.20525 0.51633
#
# Static dielectric constant tensor:
#      x y z
#    x 3.611740 0.000000 0.000000 
#    y 0.000000 4.231560 0.000000 
#    z 0.000000 0.000000 3.468770 
# 
# 
# High freq. dielectric constant tensor:
#      x y z
#    x 1.770360 0.000000 0.000000 
#    y 0.000000 1.784510 0.000000 
#    z 0.000000 0.000000 1.748950 
# 
# From -- ./inp_files/6116.got.cif
#   From: 2010.03.12/outbox.cif.g09.slc.cpg/sg51_4_cif.got.tgz:6116.got - 2010.04.16 13:43:02.
