data_PCOD8206071
_publ_section_title
;
Structure prediction by ZEFSAII (Michael W. Deem and Ramdas Pophale) SiO2 
 PCOD8206071
Probable space group: P M M A
;
_chemical_formula_sum "Si O2"
_cell_formula_units_Z 48
_cell_length_a 8.761126
_cell_length_b 19.525134
_cell_length_c 15.745209
_cell_angle_alpha 90.000000
_cell_angle_beta 90.000000
_cell_angle_gamma 90.000000
_cell_volume 2693.409448
_symmetry_space_group_name_H-M "P M M A"
_symmetry_group_IT_number 51
_symmetry_cell_setting 'orthorhombic'
loop_
_space_group_symop_operation_xyz
x,y,z
1/2-x,-y,z
1/2+x,-y,-z
-x,y,-z
-x,-y,-z
1/2+x,y,-z
1/2-x,y,z
x,-y,z
loop_
_atom_site_type_symbol
_atom_site_label
_atom_site_fract_x
_atom_site_fract_y
_atom_site_fract_z
Si Si1 0.931246 0.577753 0.411843
Si Si2 0.569922 0.077806 0.412555
Si Si3 0.071303 0.679466 0.919260
Si Si4 0.931554 0.829768 0.257414
Si Si5 0.927929 0.675000 0.266404
Si Si6 0.930232 0.828729 0.915369
O O1 0.750000 0.582356 0.416465
O O2 0.984789 0.500000 0.394435
O O3 0.001331 0.624919 0.336635
O O4 0.000000 0.605009 0.500000
O O5 0.500000 0.106321 0.500000
O O6 0.750000 0.082542 0.420083
O O7 0.510246 0.124264 0.335394
O O8 0.515398 0.000000 0.396221
O O9 0.250000 0.693414 0.933508
O O10 0.043095 0.643031 0.828152
O O11 0.980537 0.750104 0.916140
O O12 0.000000 0.637283 0.000000
O O13 0.750000 0.830874 0.247280
O O14 0.992916 0.752280 0.273020
O O15 0.003340 0.861543 0.171306
O O16 0.750000 0.678922 0.285193
O O17 0.750000 0.836604 0.916860
O O18 0.000000 0.865037 0.000000
#
# Coordination Sequence:
#
# PCOD8206071 Si02
#       6
#     8   8   8   8   8   8
#     4   9  17  30  46  62  82 111 146 179 213 257
#     4   9  18  32  49  67  88 117 149 180 218 264
#     4   9  15  25  41  61  87 116 145 176 213 257
#     4   9  17  30  46  65  91 118 146 182 220 258
#     4   8  15  27  43  63  86 113 142 174 214 255
#     4  10  17  26  42  65  92 119 148 180 217 261
#
# _framework density 17.821278
#
# number of rings (size 3 to 8) (size 9 to 14) (size 15 to 20)
#    0.000    3.000    0.000    4.000    0.000    1.333 
#    0.000    4.167    0.000    1.000    0.000    0.000 
#    0.000    0.000    0.000    0.000    0.000    6.000 
#
# Total GULP energy -594768.321529 kJ/mol
# GULP energy per Si atom -12391.006699 kJ/mol
# Density = 1.778072 g / cm^3
# Si number density = 17.821278 Si / 1000 Ang^3
#
#
#
# Elastic Constant Matrix: (Units=GPa)
#
#
# Indices 1 2 3 4 5 6 
#
# 1 51.7710 17.1492 44.8319 0.0000 0.0000 0.0000
# 2 17.1492 53.2337 69.5594 0.0000 0.0000 0.0000
# 3 44.8319 69.5594 212.0034 0.0000 0.0000 0.0000
# 4 0.0000 0.0000 0.0000 8.7930 0.0000 0.0000
# 5 0.0000 0.0000 0.0000 0.0000 33.5768 0.0000
# 6 0.0000 0.0000 0.0000 0.0000 0.0000 10.6315
#
#
#
# Elastic Compliance Matrix: (Units=1/GPa)
#
#
# Indices 1 2 3 4 5 6 
#
# 1 0.023756 -0.001906 -0.004398 0.000000 0.000000 0.000000
# 2 -0.001906 0.033036 -0.010436 0.000000 0.000000 0.000000
# 3 -0.004398 -0.010436 0.009071 0.000000 0.000000 0.000000
# 4 0.000000 0.000000 0.000000 0.113726 0.000000 0.000000
# 5 0.000000 0.000000 0.000000 0.000000 0.029782 0.000000
# 6 0.000000 0.000000 0.000000 0.000000 0.000000 0.094060
#
#
# Mechanical properties :
#
#
# Convention : Reuss Voigt Hill
#
# Bulk Modulus (GPa) = 30.88103 64.45436 47.66769
# Shear Modulus (GPa) = 14.37996 22.96479 18.67237
#
# Velocity S-wave (km/s) = 2.84368 3.59362 3.24042
# Velocity P-wave (km/s) = 5.30545 7.31194 6.38797
#
# Compressibility (1/GPa) = 0.03238234
#
# Stress axis : x y z
#
# Youngs Moduli (GPa) = 42.09480 30.27020 110.23917
#
# Poissons Ratio (x) = 0.05769 0.48487
# Poissons Ratio (y) = 0.08022 1.15048
# Poissons Ratio (z) = 0.18515 0.31591
#
# Static dielectric constant tensor:
#      x y z
#    x 3.121880 0.000000 0.000000 
#    y 0.000000 3.085400 0.000000 
#    z 0.000000 0.000000 4.135420 
# 
# 
# High freq. dielectric constant tensor:
#      x y z
#    x 1.672160 0.000000 0.000000 
#    y 0.000000 1.634660 0.000000 
#    z 0.000000 0.000000 1.717030 
# 
# From -- ./inp_files/21430.got.cif
#   From: 2010.03.12/outbox.cif.g09.slc.cpg/sg51_11_cif.got.tgz:21430.got - 2010.04.16 13:43:02.
