data_PCOD8206063
_publ_section_title
;
Structure prediction by ZEFSAII (Michael W. Deem and Ramdas Pophale) SiO2 
 PCOD8206063
Probable space group: P M M A
;
_chemical_formula_sum "Si O2"
_cell_formula_units_Z 64
_cell_length_a 25.585386
_cell_length_b 9.307093
_cell_length_c 17.104714
_cell_angle_alpha 90.000000
_cell_angle_beta 90.000000
_cell_angle_gamma 90.000000
_cell_volume 4073.069719
_symmetry_space_group_name_H-M "P M M A"
_symmetry_group_IT_number 51
_symmetry_cell_setting 'orthorhombic'
loop_
_space_group_symop_operation_xyz
x,y,z
1/2-x,-y,z
1/2+x,-y,-z
-x,y,-z
-x,-y,-z
1/2+x,y,-z
1/2-x,y,z
x,-y,z
loop_
_atom_site_type_symbol
_atom_site_label
_atom_site_fract_x
_atom_site_fract_y
_atom_site_fract_z
Si Si1 0.503190 0.169991 0.910110
Si Si2 0.051984 0.332957 0.338347
Si Si3 0.191031 0.169584 0.919462
Si Si4 0.096780 0.830953 0.817336
Si Si5 0.937744 0.340856 0.493436
Si Si6 0.444809 0.169339 0.653654
Si Si7 0.808739 0.334312 0.924995
Si Si8 0.405979 0.334787 0.174126
O O1 0.452341 0.232856 0.865448
O O2 0.554647 0.237235 0.873633
O O3 0.507719 0.000000 0.900482
O O4 0.500000 0.216438 0.000000
O O5 0.034254 0.500000 0.341309
O O6 0.082234 0.294668 0.419783
O O7 0.090929 0.301559 0.266711
O O8 0.000881 0.236433 0.327494
O O9 0.250000 0.214125 0.895405
O O10 0.151577 0.226679 0.852333
O O11 0.186316 0.000000 0.931221
O O12 0.174269 0.241099 0.000660
O O13 0.093198 0.790322 0.725817
O O14 0.094697 0.000000 0.828127
O O15 0.917489 0.500000 0.471391
O O16 0.919079 0.232116 0.425786
O O17 0.000000 0.338513 0.500000
O O18 0.451759 0.000000 0.643669
O O19 0.750000 0.294810 0.897890
O O20 0.812674 0.500000 0.950045
O O21 0.847149 0.298874 0.853095
O O22 0.420426 0.500000 0.157376
#
# Coordination Sequence:
#
# PCOD8206063 Si02
#       8
#     8   8   8   8   8   8   8   8
#     4  10  19  30  43  59  86 120 144 168 212 260
#     4   9  17  29  42  59  85 114 142 174 208 249
#     4   9  17  31  50  66  81 109 150 186 213 249
#     4   9  17  28  41  63  90 112 138 176 216 250
#     4   8  15  27  41  57  82 113 142 171 207 248
#     4  10  17  26  41  61  87 114 140 171 209 254
#     4   9  18  32  47  64  87 111 139 182 227 254
#     4  10  19  30  45  64  86 113 146 178 210 254
#
# _framework density 15.712963
#
# number of rings (size 3 to 8) (size 9 to 14) (size 15 to 20)
#    0.000    2.750    1.250    1.875    0.000    4.000 
#    0.000    1.875    0.000    0.000    0.000    0.875 
#    0.000    1.000    0.000    0.000    0.000    0.000 
#
# Total GULP energy -793294.434208 kJ/mol
# GULP energy per Si atom -12395.225535 kJ/mol
# Density = 1.567720 g / cm^3
# Si number density = 15.712963 Si / 1000 Ang^3
#
#
#
# Elastic Constant Matrix: (Units=GPa)
#
#
# Indices 1 2 3 4 5 6 
#
# 1 78.8900 26.4200 65.6828 0.0000 0.0000 0.0000
# 2 26.4200 43.1305 46.9993 0.0000 0.0000 0.0000
# 3 65.6828 46.9993 154.5085 0.0000 0.0000 0.0000
# 4 0.0000 0.0000 0.0000 24.8533 0.0000 0.0000
# 5 0.0000 0.0000 0.0000 0.0000 18.5626 0.0000
# 6 0.0000 0.0000 0.0000 0.0000 0.0000 13.7139
#
#
#
# Elastic Compliance Matrix: (Units=1/GPa)
#
#
# Indices 1 2 3 4 5 6 
#
# 1 0.020190 -0.004510 -0.007211 0.000000 0.000000 0.000000
# 2 -0.004510 0.035689 -0.008939 0.000000 0.000000 0.000000
# 3 -0.007211 -0.008939 0.012257 0.000000 0.000000 0.000000
# 4 0.000000 0.000000 0.000000 0.040236 0.000000 0.000000
# 5 0.000000 0.000000 0.000000 0.000000 0.053872 0.000000
# 6 0.000000 0.000000 0.000000 0.000000 0.000000 0.072919
#
#
# Mechanical properties :
#
#
# Convention : Reuss Voigt Hill
#
# Bulk Modulus (GPa) = 37.29114 61.63705 49.46409
# Shear Modulus (GPa) = 17.51805 20.58776 19.05291
#
# Velocity S-wave (km/s) = 3.34260 3.62365 3.48596
# Velocity P-wave (km/s) = 6.21945 7.53789 6.91019
#
# Compressibility (1/GPa) = 0.02681602
#
# Stress axis : x y z
#
# Youngs Moduli (GPa) = 49.52928 28.02020 81.58759
#
# Poissons Ratio (x) = 0.12636 0.58835
# Poissons Ratio (y) = 0.22336 0.72930
# Poissons Ratio (z) = 0.35717 0.25047
#
# Static dielectric constant tensor:
#      x y z
#    x 2.898900 0.000000 0.000000 
#    y 0.000000 2.928540 0.000000 
#    z 0.000000 0.000000 3.414010 
# 
# 
# High freq. dielectric constant tensor:
#      x y z
#    x 1.566970 0.000000 0.000000 
#    y 0.000000 1.594840 0.000000 
#    z 0.000000 0.000000 1.612340 
# 
# From -- ./inp_files/30823.got.cif
#   From: 2010.03.12/outbox.cif.g09.slc.cpg/sg51_16_cif.got.tgz:30823.got - 2010.04.16 13:43:02.
