data_PCOD8206871
_publ_section_title
;
Structure prediction by ZEFSAII (Michael W. Deem and Ramdas Pophale) SiO2 
 PCOD8206871
Probable space group: P M M A
;
_chemical_formula_sum "Si O2"
_cell_formula_units_Z 56
_cell_length_a 15.913553
_cell_length_b 9.331049
_cell_length_c 19.879012
_cell_angle_alpha 90.000000
_cell_angle_beta 90.000000
_cell_angle_gamma 90.000000
_cell_volume 2951.837331
_symmetry_space_group_name_H-M "P M M A"
_symmetry_group_IT_number 51
_symmetry_cell_setting 'orthorhombic'
loop_
_space_group_symop_operation_xyz
x,y,z
1/2-x,-y,z
1/2+x,-y,-z
-x,y,-z
-x,-y,-z
1/2+x,y,-z
1/2-x,y,z
x,-y,z
loop_
_atom_site_type_symbol
_atom_site_label
_atom_site_fract_x
_atom_site_fract_y
_atom_site_fract_z
Si Si1 0.999954 0.828884 0.423966
Si Si2 0.096612 0.838291 0.800727
Si Si3 0.349585 0.662868 0.069091
Si Si4 0.902043 0.161967 0.802972
Si Si5 0.657284 0.170110 0.660259
Si Si6 0.343198 0.829387 0.661333
Si Si7 0.150480 0.162362 0.941952
O O1 0.915132 0.769264 0.388427
O O2 0.000000 0.770918 0.500000
O O3 0.083499 0.766772 0.387120
O O4 0.000787 0.000000 0.422579
O O5 0.143413 0.766329 0.736874
O O6 0.117665 0.764348 0.872401
O O7 0.999075 0.835108 0.783514
O O8 0.130394 0.000000 0.808675
O O9 0.250000 0.672728 0.071350
O O10 0.381131 0.500000 0.066066
O O11 0.385779 0.734740 0.135354
O O12 0.385366 0.744614 0.003682
O O13 0.853294 0.220588 0.737481
O O14 0.873364 0.000000 0.821687
O O15 0.750000 0.220241 0.634936
O O16 0.650208 0.000000 0.658607
O O17 0.250000 0.784423 0.635664
O O18 0.352128 0.000000 0.664644
O O19 0.250000 0.164980 0.941708
O O20 0.116227 0.000000 0.950574
#
# Coordination Sequence:
#
# PCOD8206871 Si02
#       7
#     8   8   8   8   8   8   8
#     4   9  16  25  36  56  90 126 159 194 234 285
#     4   9  16  27  44  66  89 113 151 205 246 275
#     4  10  21  35  48  65  93 125 156 197 247 292
#     4  10  18  30  49  69  91 122 163 204 239 280
#     4   9  16  26  41  61  86 120 162 200 232 273
#     4   9  15  24  39  59  86 122 160 197 242 289
#     4   9  17  30  48  68  89 118 159 201 241 288
#
# _framework density 18.971235
#
# number of rings (size 3 to 8) (size 9 to 14) (size 15 to 20)
#    0.000    2.714    1.429    1.286    0.000    4.286 
#    0.000    6.429    0.000    0.000    0.000    0.000 
#    0.000    0.571    0.000    0.000    0.000    1.857 
#
# Total GULP energy -694102.313100 kJ/mol
# GULP energy per Si atom -12394.684163 kJ/mol
# Density = 1.892806 g / cm^3
# Si number density = 18.971235 Si / 1000 Ang^3
#
#
#
# Elastic Constant Matrix: (Units=GPa)
#
#
# Indices 1 2 3 4 5 6 
#
# 1 110.6504 18.9896 74.7311 0.0000 0.0000 0.0000
# 2 18.9896 35.2426 24.8729 0.0000 0.0000 0.0000
# 3 74.7311 24.8729 157.4881 0.0000 0.0000 0.0000
# 4 0.0000 0.0000 0.0000 -0.3686 0.0000 0.0000
# 5 0.0000 0.0000 0.0000 0.0000 30.0922 0.0000
# 6 0.0000 0.0000 0.0000 0.0000 0.0000 7.5164
#
#
#
# Elastic Compliance Matrix: (Units=1/GPa)
#
#
# Indices 1 2 3 4 5 6 
#
# 1 0.013598 -0.003121 -0.005960 0.000000 0.000000 0.000000
# 2 -0.003121 0.032651 -0.003676 0.000000 0.000000 0.000000
# 3 -0.005960 -0.003676 0.009758 0.000000 0.000000 0.000000
# 4 0.000000 0.000000 0.000000 -2.712624 0.000000 0.000000
# 5 0.000000 0.000000 0.000000 0.000000 0.033231 0.000000
# 6 0.000000 0.000000 0.000000 0.000000 0.000000 0.133042
#
#
# Mechanical properties :
#
#
# Convention : Reuss Voigt Hill
#
# Bulk Modulus (GPa) = 32.79305 60.06314 46.42809
# Shear Modulus (GPa) = -2.03694 19.76717 8.86512
#
# Velocity S-wave (km/s) = -1.03732 3.23143 2.16404
# Velocity P-wave (km/s) = 3.98604 6.75661 5.54708
#
# Compressibility (1/GPa) = 0.03049427
#
# Stress axis : x y z
#
# Youngs Moduli (GPa) = 73.53963 30.62735 102.47802
#
# Poissons Ratio (x) = 0.09558 0.61073
# Poissons Ratio (y) = 0.22951 0.37668
# Poissons Ratio (z) = 0.43827 0.11258
#
# Static dielectric constant tensor:
#      x y z
#    x 3.553110 0.000000 0.000000 
#    y 0.000000 2.877080 0.000000 
#    z 0.000000 0.000000 3.673830 
# 
# 
# High freq. dielectric constant tensor:
#      x y z
#    x 1.745410 0.000000 0.000000 
#    y 0.000000 1.650340 0.000000 
#    z 0.000000 0.000000 1.748360 
# 
# From -- ./inp_files/33439.got.cif
#   From: 2010.03.12/outbox.cif.g09.slc.cpg/sg51_17_cif.got.tgz:33439.got - 2010.04.16 13:43:02.
