data_PCOD8206895
_publ_section_title
;
Structure prediction by ZEFSAII (Michael W. Deem and Ramdas Pophale) SiO2 
 PCOD8206895
Probable space group: P M M A
;
_chemical_formula_sum "Si O2"
_cell_formula_units_Z 64
_cell_length_a 24.116353
_cell_length_b 8.765023
_cell_length_c 15.170024
_cell_angle_alpha 90.000000
_cell_angle_beta 90.000000
_cell_angle_gamma 90.000000
_cell_volume 3206.645570
_symmetry_space_group_name_H-M "P M M A"
_symmetry_group_IT_number 51
_symmetry_cell_setting 'orthorhombic'
loop_
_space_group_symop_operation_xyz
x,y,z
1/2-x,-y,z
1/2+x,-y,-z
-x,y,-z
-x,-y,-z
1/2+x,y,-z
1/2-x,y,z
x,-y,z
loop_
_atom_site_type_symbol
_atom_site_label
_atom_site_fract_x
_atom_site_fract_y
_atom_site_fract_z
Si Si1 0.191324 0.825556 0.291847
Si Si2 0.995307 0.181128 0.224773
Si Si3 0.373293 0.818608 0.816593
Si Si4 0.365800 0.826219 0.464495
Si Si5 0.473946 0.678270 0.408718
Si Si6 0.687637 0.181943 0.356752
Si Si7 0.390576 0.181356 0.150247
Si Si8 0.313684 0.181858 0.991707
O O1 0.250000 0.745770 0.267779
O O2 0.185287 0.819138 0.397054
O O3 0.140999 0.753017 0.236611
O O4 0.194073 0.000000 0.259993
O O5 0.937385 0.236915 0.181572
O O6 0.998922 0.240149 0.324781
O O7 0.045844 0.241046 0.161880
O O8 0.997255 0.000000 0.231585
O O9 0.343648 0.754538 0.729092
O O10 0.371305 0.000000 0.816315
O O11 0.339010 0.755607 0.900042
O O12 0.409784 0.717445 0.417844
O O13 0.345958 0.759281 0.557956
O O14 0.388236 0.000000 0.473580
O O15 0.500000 0.739412 0.500000
O O16 0.483437 0.500000 0.396378
O O17 0.750000 0.247672 0.357709
O O18 0.689486 0.000000 0.358190
O O19 0.356279 0.244499 0.066207
O O20 0.393096 0.000000 0.144911
O O21 0.250000 0.241505 0.004476
O O22 0.312760 0.000000 0.992549
#
# Coordination Sequence:
#
# PCOD8206895 Si02
#       8
#     8   8   8   8   8   8   8   8
#     4   9  15  24  41  67  96 124 159 201 240 283
#     4  10  19  33  51  74 102 130 167 210 252 295
#     4   9  17  27  42  66  99 135 166 205 253 298
#     4  10  18  30  49  73  97 127 165 205 249 291
#     4  11  23  36  50  70  99 135 171 206 246 298
#     4   9  16  26  42  67  96 127 167 209 248 295
#     4   9  16  26  42  67  99 133 166 200 239 290
#     4   9  16  26  41  66 103 141 167 195 250 310
#
# _framework density 19.958552999999998
#
# number of rings (size 3 to 8) (size 9 to 14) (size 15 to 20)
#    0.000    2.500    1.250    2.250    0.000    7.000 
#    0.000    2.500    0.000    1.500    0.000    1.750 
#    0.000    2.500    0.000    0.000    0.000    0.000 
#
# Total GULP energy -793035.415276 kJ/mol
# GULP energy per Si atom -12391.178364 kJ/mol
# Density = 1.991313 g / cm^3
# Si number density = 19.958553 Si / 1000 Ang^3
#
#
#
# Elastic Constant Matrix: (Units=GPa)
#
#
# Indices 1 2 3 4 5 6 
#
# 1 141.3476 11.4680 59.7318 0.0000 0.0000 0.0000
# 2 11.4680 8.7207 7.3337 0.0000 0.0000 0.0000
# 3 59.7318 7.3337 143.9194 0.0000 0.0000 0.0000
# 4 0.0000 0.0000 0.0000 6.7446 0.0000 0.0000
# 5 0.0000 0.0000 0.0000 0.0000 38.0296 0.0000
# 6 0.0000 0.0000 0.0000 0.0000 0.0000 2.8544
#
#
#
# Elastic Compliance Matrix: (Units=1/GPa)
#
#
# Indices 1 2 3 4 5 6 
#
# 1 0.009255 -0.009340 -0.003365 0.000000 0.000000 0.000000
# 2 -0.009340 0.129230 -0.002709 0.000000 0.000000 0.000000
# 3 -0.003365 -0.002709 0.008483 0.000000 0.000000 0.000000
# 4 0.000000 0.000000 0.000000 0.148268 0.000000 0.000000
# 5 0.000000 0.000000 0.000000 0.000000 0.026295 0.000000
# 6 0.000000 0.000000 0.000000 0.000000 0.000000 0.350340
#
#
# Mechanical properties :
#
#
# Convention : Reuss Voigt Hill
#
# Bulk Modulus (GPa) = 8.61031 50.11720 29.36376
# Shear Modulus (GPa) = 6.74389 23.88932 15.31660
#
# Velocity S-wave (km/s) = 1.84019 3.46344 2.77324
# Velocity P-wave (km/s) = 2.97296 6.41553 4.99988
#
# Compressibility (1/GPa) = 0.11613983
#
# Stress axis : x y z
#
# Youngs Moduli (GPa) = 108.05464 7.73814 117.88320
#
# Poissons Ratio (x) = 0.07228 0.39668
# Poissons Ratio (y) = 1.00925 0.31931
# Poissons Ratio (z) = 0.36361 0.02096
#
# Static dielectric constant tensor:
#      x y z
#    x 3.978470 0.000000 0.000000 
#    y 0.000000 2.815750 0.000000 
#    z 0.000000 0.000000 3.842200 
# 
# 
# High freq. dielectric constant tensor:
#      x y z
#    x 1.797090 0.000000 0.000000 
#    y 0.000000 1.688780 0.000000 
#    z 0.000000 0.000000 1.787500 
# 
# From -- ./inp_files/26302.got.cif
#   From: 2010.03.12/outbox.cif.g09.slc.cpg/sg51_14_cif.got.tgz:26302.got - 2010.04.16 13:43:02.
