data_PCOD8206648
_publ_section_title
;
Structure prediction by ZEFSAII (Michael W. Deem and Ramdas Pophale) SiO2 
 PCOD8206648
Probable space group: P M M A
;
_chemical_formula_sum "Si O2"
_cell_formula_units_Z 64
_cell_length_a 8.971215
_cell_length_b 20.292174
_cell_length_c 19.725639
_cell_angle_alpha 90.000000
_cell_angle_beta 90.000000
_cell_angle_gamma 90.000000
_cell_volume 3590.962942
_symmetry_space_group_name_H-M "P M M A"
_symmetry_group_IT_number 51
_symmetry_cell_setting 'orthorhombic'
loop_
_space_group_symop_operation_xyz
x,y,z
1/2-x,-y,z
1/2+x,-y,-z
-x,y,-z
-x,-y,-z
1/2+x,y,-z
1/2-x,y,z
x,-y,z
loop_
_atom_site_type_symbol
_atom_site_label
_atom_site_fract_x
_atom_site_fract_y
_atom_site_fract_z
Si Si1 0.417001 0.621560 0.433741
Si Si2 0.920982 0.376697 0.299623
Si Si3 0.074571 0.807450 0.162386
Si Si4 0.423444 0.073806 0.068087
Si Si5 0.080954 0.778619 0.433209
Si Si6 0.573171 0.573090 0.157277
Si Si7 0.077989 0.779035 0.702176
Si Si8 0.572480 0.696267 0.072528
O O1 0.500000 0.593356 0.500000
O O2 0.250000 0.594266 0.435504
O O3 0.493011 0.595514 0.364994
O O4 0.420774 0.700084 0.434683
O O5 0.750000 0.396528 0.309911
O O6 0.989952 0.409534 0.231937
O O7 0.939565 0.298963 0.291350
O O8 0.250000 0.791120 0.160164
O O9 0.036890 0.877863 0.129418
O O10 0.017260 0.812962 0.238872
O O11 0.983546 0.751238 0.123995
O O12 0.250000 0.073868 0.052777
O O13 0.479754 0.000000 0.086471
O O14 0.500000 0.100488 0.000000
O O15 0.250000 0.805152 0.430545
O O16 0.000000 0.806768 0.500000
O O17 0.989855 0.804674 0.368469
O O18 0.750000 0.576974 0.162037
O O19 0.518366 0.500000 0.135994
O O20 0.518451 0.625252 0.101083
O O21 0.250000 0.800507 0.706916
O O22 0.750000 0.700861 0.066472
O O23 0.500000 0.708109 0.000000
#
# Coordination Sequence:
#
# PCOD8206648 Si02
#       8
#     8   8   8   8   8   8   8   8
#     4   9  16  25  40  64  91 121 153 193 238 287
#     4   9  16  29  47  67  90 121 157 197 243 292
#     4  11  21  33  52  77 104 135 167 205 248 295
#     4   9  19  35  53  74 101 134 171 207 245 291
#     4   9  16  26  40  63  95 132 168 205 248 297
#     4   9  18  34  54  72  92 123 162 202 249 303
#     4  10  18  29  46  70  99 132 166 206 251 296
#     4  11  22  37  54  76 100 127 160 202 250 300
#
# _framework density 17.822516
#
# number of rings (size 3 to 8) (size 9 to 14) (size 15 to 20)
#    0.000    2.375    1.250    2.250    0.000    5.750 
#    0.000    0.000    0.000    3.375    0.000    0.000 
#    0.000    0.500    0.000    1.375    0.000    2.000 
#
# Total GULP energy -793578.357230 kJ/mol
# GULP energy per Si atom -12399.661832 kJ/mol
# Density = 1.778195 g / cm^3
# Si number density = 17.822516 Si / 1000 Ang^3
#
#
#
# Elastic Constant Matrix: (Units=GPa)
#
#
# Indices 1 2 3 4 5 6 
#
# 1 87.0056 26.6718 46.0495 0.0000 0.0000 0.0000
# 2 26.6718 55.6011 35.2937 0.0000 0.0000 0.0000
# 3 46.0495 35.2937 132.4047 0.0000 0.0000 0.0000
# 4 0.0000 0.0000 0.0000 11.8256 0.0000 0.0000
# 5 0.0000 0.0000 0.0000 0.0000 34.7958 0.0000
# 6 0.0000 0.0000 0.0000 0.0000 0.0000 13.1163
#
#
#
# Elastic Compliance Matrix: (Units=1/GPa)
#
#
# Indices 1 2 3 4 5 6 
#
# 1 0.015037 -0.004687 -0.003981 0.000000 0.000000 0.000000
# 2 -0.004687 0.023109 -0.004530 0.000000 0.000000 0.000000
# 3 -0.003981 -0.004530 0.010144 0.000000 0.000000 0.000000
# 4 0.000000 0.000000 0.000000 0.084562 0.000000 0.000000
# 5 0.000000 0.000000 0.000000 0.000000 0.028739 0.000000
# 6 0.000000 0.000000 0.000000 0.000000 0.000000 0.076241
#
#
# Mechanical properties :
#
#
# Convention : Reuss Voigt Hill
#
# Bulk Modulus (GPa) = 45.66976 54.56015 50.11495
# Shear Modulus (GPa) = 18.41446 23.08063 20.74754
#
# Velocity S-wave (km/s) = 3.21785 3.60255 3.41562
# Velocity P-wave (km/s) = 6.28383 6.92705 6.61326
#
# Compressibility (1/GPa) = 0.02189633
#
# Stress axis : x y z
#
# Youngs Moduli (GPa) = 66.50284 43.27356 98.57572
#
# Poissons Ratio (x) = 0.20280 0.39238
# Poissons Ratio (y) = 0.31167 0.44654
# Poissons Ratio (z) = 0.26472 0.19603
#
# Static dielectric constant tensor:
#      x y z
#    x 3.318180 0.000000 0.000000 
#    y 0.000000 3.078410 0.000000 
#    z 0.000000 0.000000 3.480520 
# 
# 
# High freq. dielectric constant tensor:
#      x y z
#    x 1.688880 0.000000 0.000000 
#    y 0.000000 1.641750 0.000000 
#    z 0.000000 0.000000 1.701990 
# 
# From -- ./inp_files/28489.got.cif
#   From: 2010.03.12/outbox.cif.g09.slc.cpg/sg51_15_cif.got.tgz:28489.got - 2010.04.16 13:43:02.
