data_PCOD8206091
_publ_section_title
;
Structure prediction by ZEFSAII (Michael W. Deem and Ramdas Pophale) SiO2 
 PCOD8206091
Probable space group: P M M A
;
_chemical_formula_sum "Si O2"
_cell_formula_units_Z 48
_cell_length_a 15.282299
_cell_length_b 17.347076
_cell_length_c 9.293604
_cell_angle_alpha 90.000000
_cell_angle_beta 90.000000
_cell_angle_gamma 90.000000
_cell_volume 2463.764180
_symmetry_space_group_name_H-M "P M M A"
_symmetry_group_IT_number 51
_symmetry_cell_setting 'orthorhombic'
loop_
_space_group_symop_operation_xyz
x,y,z
1/2-x,-y,z
1/2+x,-y,-z
-x,y,-z
-x,-y,-z
1/2+x,y,-z
1/2-x,y,z
x,-y,z
loop_
_atom_site_type_symbol
_atom_site_label
_atom_site_fract_x
_atom_site_fract_y
_atom_site_fract_z
Si Si1 0.422398 0.355592 0.327409
Si Si2 0.750000 0.592139 0.836056
Si Si3 0.099809 0.413442 0.632747
Si Si4 0.250000 0.591149 0.839296
Si Si5 0.848356 0.086717 0.315220
Si Si6 0.345242 0.085722 0.343010
Si Si7 0.003993 0.808967 0.329262
O O1 0.337737 0.373713 0.233590
O O2 0.499983 0.418333 0.308120
O O3 0.392911 0.356220 0.495493
O O4 0.471461 0.277043 0.279713
O O5 0.750000 0.500000 0.820510
O O6 0.750000 0.623034 0.999115
O O7 0.128760 0.500000 0.587523
O O8 0.163917 0.379882 0.754832
O O9 0.250000 0.500000 0.849646
O O10 0.750000 0.107787 0.263114
O O11 0.853113 0.084846 0.486079
O O12 0.915083 0.154080 0.261090
O O13 0.873677 0.000000 0.259815
O O14 0.250000 0.117700 0.297991
O O15 0.417167 0.139021 0.269935
O O16 0.358666 0.000000 0.282592
O O17 0.000000 0.811684 0.500000
#
# Coordination Sequence:
#
# PCOD8206091 Si02
#       7
#     8   4   8   4   8   8   8
#     4  11  21  33  52  83 113 142 170 220 279 326
#     4  11  23  39  57  79 102 139 186 230 275 323
#     4  10  19  37  56  78 105 137 178 220 269 330
#     4   9  21  39  61  79  97 133 184 230 268 319
#     4   8  14  25  40  59  91 142 188 214 246 305
#     4   8  14  23  37  56  86 136 179 206 242 300
#     4  10  17  27  39  68 102 140 175 209 254 327
#
# _framework density 19.482384
#
# number of rings (size 3 to 8) (size 9 to 14) (size 15 to 20)
#    0.000    2.500    1.667    4.000    1.167    3.333 
#    1.500    2.500    0.000    0.000    0.000    0.000 
#    0.000    0.000    0.000   30.000    0.000    5.000 
#
# Total GULP energy -594660.015506 kJ/mol
# GULP energy per Si atom -12388.750323 kJ/mol
# Density = 1.943804 g / cm^3
# Si number density = 19.482384 Si / 1000 Ang^3
#
#
#
# Elastic Constant Matrix: (Units=GPa)
#
#
# Indices 1 2 3 4 5 6 
#
# 1 160.1815 56.1631 57.9040 0.0000 0.0000 0.0000
# 2 56.1631 104.6004 16.9395 0.0000 0.0000 0.0000
# 3 57.9040 16.9395 71.0905 0.0000 0.0000 0.0000
# 4 0.0000 0.0000 0.0000 3.8735 0.0000 0.0000
# 5 0.0000 0.0000 0.0000 0.0000 7.4462 0.0000
# 6 0.0000 0.0000 0.0000 0.0000 0.0000 34.5114
#
#
#
# Elastic Compliance Matrix: (Units=1/GPa)
#
#
# Indices 1 2 3 4 5 6 
#
# 1 0.010507 -0.004427 -0.007504 0.000000 0.000000 0.000000
# 2 -0.004427 0.011809 0.000792 0.000000 0.000000 0.000000
# 3 -0.007504 0.000792 0.019990 0.000000 0.000000 0.000000
# 4 0.000000 0.000000 0.000000 0.258161 0.000000 0.000000
# 5 0.000000 0.000000 0.000000 0.000000 0.134297 0.000000
# 6 0.000000 0.000000 0.000000 0.000000 0.000000 0.028976
#
#
# Mechanical properties :
#
#
# Convention : Reuss Voigt Hill
#
# Bulk Modulus (GPa) = 49.92797 66.43174 58.17985
# Shear Modulus (GPa) = 10.14829 22.82394 16.48611
#
# Velocity S-wave (km/s) = 2.28479 3.42646 2.91212
# Velocity P-wave (km/s) = 5.71342 7.05879 6.42144
#
# Compressibility (1/GPa) = 0.02002886
#
# Stress axis : x y z
#
# Youngs Moduli (GPa) = 95.17023 84.68299 50.02555
#
# Poissons Ratio (x) = 0.37486 0.37538
# Poissons Ratio (y) = 0.42128 -0.03961
# Poissons Ratio (z) = 0.71413 -0.06704
#
# Static dielectric constant tensor:
#      x y z
#    x 3.979200 0.000000 0.000000 
#    y 0.000000 3.681360 0.000000 
#    z 0.000000 0.000000 2.969700 
# 
# 
# High freq. dielectric constant tensor:
#      x y z
#    x 1.780580 0.000000 0.000000 
#    y 0.000000 1.752340 0.000000 
#    z 0.000000 0.000000 1.678810 
# 
# From -- ./inp_files/8364.got.cif
#   From: 2010.03.12/outbox.cif.g09.slc.cpg/sg51_5_cif.got.tgz:8364.got - 2010.04.16 13:43:02.
