data_PCOD8206657
_publ_section_title
;
Structure prediction by ZEFSAII (Michael W. Deem and Ramdas Pophale) SiO2 
 PCOD8206657
Probable space group: P M M A
;
_chemical_formula_sum "Si O2"
_cell_formula_units_Z 56
_cell_length_a 19.895994
_cell_length_b 9.070200
_cell_length_c 17.681290
_cell_angle_alpha 90.000000
_cell_angle_beta 90.000000
_cell_angle_gamma 90.000000
_cell_volume 3190.776994
_symmetry_space_group_name_H-M "P M M A"
_symmetry_group_IT_number 51
_symmetry_cell_setting 'orthorhombic'
loop_
_space_group_symop_operation_xyz
x,y,z
1/2-x,-y,z
1/2+x,-y,-z
-x,y,-z
-x,-y,-z
1/2+x,y,-z
1/2-x,y,z
x,-y,z
loop_
_atom_site_type_symbol
_atom_site_label
_atom_site_fract_x
_atom_site_fract_y
_atom_site_fract_z
Si Si1 0.569122 0.826400 0.960335
Si Si2 0.079510 0.666492 0.488146
Si Si3 0.403696 0.165763 0.633831
Si Si4 0.891135 0.330665 0.219732
Si Si5 0.455369 0.673107 0.192562
Si Si6 0.172306 0.668635 0.935964
Si Si7 0.437650 0.166952 0.341864
O O1 0.577826 0.743452 0.881231
O O2 0.570937 0.000000 0.945853
O O3 0.500000 0.777212 0.000000
O O4 0.630885 0.780382 0.012801
O O5 0.106155 0.500000 0.480965
O O6 0.116287 0.742954 0.559185
O O7 0.099132 0.754435 0.412198
O O8 0.000000 0.668428 0.500000
O O9 0.368939 0.235727 0.707753
O O10 0.483190 0.169591 0.644576
O O11 0.377139 0.000000 0.623967
O O12 0.888636 0.500000 0.245173
O O13 0.840070 0.294815 0.152132
O O14 0.965679 0.289316 0.191559
O O15 0.441197 0.500000 0.193510
O O16 0.419964 0.744730 0.265673
O O17 0.250000 0.692602 0.954519
O O18 0.149783 0.500000 0.952258
O O19 0.411051 0.000000 0.335079
#
# Coordination Sequence:
#
# PCOD8206657 Si02
#       7
#     8   8   8   8   8   8   8
#     4  11  22  34  51  74 100 129 165 208 255 305
#     4   9  15  23  35  53  81 118 157 192 231 281
#     4   9  16  24  37  57  83 118 156 193 233 280
#     4   9  17  29  45  66  91 121 158 200 242 289
#     4  10  18  29  47  68  92 124 163 204 246 294
#     4  10  21  37  55  74  98 130 167 208 255 305
#     4   9  16  25  37  57  88 120 153 194 240 287
#
# _framework density 17.550584000000001
#
# number of rings (size 3 to 8) (size 9 to 14) (size 15 to 20)
#    0.000    2.429    1.429    2.143    0.000    7.143 
#    0.000    0.000    0.000    0.000    0.000    0.000 
#    0.000    1.143    0.000    6.857    0.000    6.000 
#
# Total GULP energy -694473.811691 kJ/mol
# GULP energy per Si atom -12401.318066 kJ/mol
# Density = 1.751064 g / cm^3
# Si number density = 17.550584 Si / 1000 Ang^3
#
#
#
# Elastic Constant Matrix: (Units=GPa)
#
#
# Indices 1 2 3 4 5 6 
#
# 1 32.8354 21.2967 24.5275 0.0000 0.0000 0.0000
# 2 21.2967 124.6275 73.5512 0.0000 0.0000 0.0000
# 3 24.5275 73.5512 139.8437 0.0000 0.0000 0.0000
# 4 0.0000 0.0000 0.0000 38.3921 0.0000 0.0000
# 5 0.0000 0.0000 0.0000 0.0000 12.5875 0.0000
# 6 0.0000 0.0000 0.0000 0.0000 0.0000 10.3835
#
#
#
# Elastic Compliance Matrix: (Units=1/GPa)
#
#
# Indices 1 2 3 4 5 6 
#
# 1 0.036084 -0.003525 -0.004475 0.000000 0.000000 0.000000
# 2 -0.003525 0.011980 -0.005683 0.000000 0.000000 0.000000
# 3 -0.004475 -0.005683 0.010924 0.000000 0.000000 0.000000
# 4 0.000000 0.000000 0.000000 0.026047 0.000000 0.000000
# 5 0.000000 0.000000 0.000000 0.000000 0.079444 0.000000
# 6 0.000000 0.000000 0.000000 0.000000 0.000000 0.096306
#
#
# Mechanical properties :
#
#
# Convention : Reuss Voigt Hill
#
# Bulk Modulus (GPa) = 31.62237 59.56193 45.59215
# Shear Modulus (GPa) = 16.73965 24.13470 20.43718
#
# Velocity S-wave (km/s) = 3.09171 3.71233 3.41614
# Velocity P-wave (km/s) = 5.54994 7.23783 6.44934
#
# Compressibility (1/GPa) = 0.03162319
#
# Stress axis : x y z
#
# Youngs Moduli (GPa) = 27.71315 83.47224 91.53767
#
# Poissons Ratio (x) = 0.29427 0.40960
# Poissons Ratio (y) = 0.09770 0.52017
# Poissons Ratio (z) = 0.12401 0.47434
#
# Static dielectric constant tensor:
#      x y z
#    x 2.603260 0.000000 0.000000 
#    y 0.000000 3.392890 0.000000 
#    z 0.000000 0.000000 3.411430 
# 
# 
# High freq. dielectric constant tensor:
#      x y z
#    x 1.599470 0.000000 0.000000 
#    y 0.000000 1.691990 0.000000 
#    z 0.000000 0.000000 1.694370 
# 
# From -- ./inp_files/30371.got.cif
#   From: 2010.03.12/outbox.cif.g09.slc.cpg/sg51_16_cif.got.tgz:30371.got - 2010.04.16 13:43:02.
