data_PCOD8206232
_publ_section_title
;
Structure prediction by ZEFSAII (Michael W. Deem and Ramdas Pophale) SiO2 
 PCOD8206232
Probable space group: P M M A
;
_chemical_formula_sum "Si O2"
_cell_formula_units_Z 56
_cell_length_a 17.567928
_cell_length_b 9.108766
_cell_length_c 22.464776
_cell_angle_alpha 90.000000
_cell_angle_beta 90.000000
_cell_angle_gamma 90.000000
_cell_volume 3594.861648
_symmetry_space_group_name_H-M "P M M A"
_symmetry_group_IT_number 51
_symmetry_cell_setting 'orthorhombic'
loop_
_space_group_symop_operation_xyz
x,y,z
1/2-x,-y,z
1/2+x,-y,-z
-x,y,-z
-x,-y,-z
1/2+x,y,-z
1/2-x,y,z
x,-y,z
loop_
_atom_site_type_symbol
_atom_site_label
_atom_site_fract_x
_atom_site_fract_y
_atom_site_fract_z
Si Si1 0.250000 0.673499 0.190917
Si Si2 0.335926 0.168862 0.535988
Si Si3 0.335104 0.167389 0.978999
Si Si4 0.977568 0.665728 0.431404
Si Si5 0.466980 0.337229 0.933746
Si Si6 0.750000 0.675730 0.674396
Si Si7 0.377350 0.828048 0.400796
Si Si8 0.626718 0.326173 0.900904
O O1 0.250000 0.500000 0.192867
O O2 0.250000 0.733543 0.257744
O O3 0.174220 0.728292 0.156382
O O4 0.250000 0.207203 0.555486
O O5 0.392999 0.267218 0.575252
O O6 0.344205 0.201621 0.466144
O O7 0.355899 0.000000 0.548621
O O8 0.250000 0.181574 0.952609
O O9 0.393976 0.231321 0.929948
O O10 0.357583 0.000000 0.991198
O O11 0.338311 0.252080 0.041004
O O12 0.977890 0.500000 0.406400
O O13 0.000000 0.669297 0.500000
O O14 0.037253 0.764458 0.394754
O O15 0.440049 0.500000 0.915345
O O16 0.537258 0.284248 0.891744
O O17 0.500000 0.337079 0.000000
O O18 0.750000 0.500000 0.668642
O O19 0.674510 0.740284 0.645025
O O20 0.377469 0.000000 0.385204
O O21 0.634504 0.500000 0.910915
#
# Coordination Sequence:
#
# PCOD8206232 Si02
#       8
#     4   8   8   8   8   4   8   8
#     4   9  18  31  47  63  81 109 143 181 220 251
#     4   9  16  27  42  61  85 116 148 172 204 254
#     4  10  18  25  36  58  85 111 137 165 203 248
#     4   9  17  27  40  62  85 109 141 178 216 252
#     4   8  15  25  39  58  76 102 139 170 200 244
#     4  11  21  31  45  65  85 109 145 185 222 257
#     4  10  18  31  45  58  81 116 148 177 213 253
#     4   9  16  29  45  57  75 107 143 174 207 249
#
# _framework density 15.57779
#
# number of rings (size 3 to 8) (size 9 to 14) (size 15 to 20)
#    0.000    2.714    1.429    2.357    0.000    6.000 
#    0.000    1.429    0.000    0.000    0.000    0.000 
#    0.000    1.143    0.000   10.571    0.000    3.571 
#
# Total GULP energy -694128.484785 kJ/mol
# GULP energy per Si atom -12395.151514 kJ/mol
# Density = 1.554233 g / cm^3
# Si number density = 15.577790 Si / 1000 Ang^3
#
#
#
# Elastic Constant Matrix: (Units=GPa)
#
#
# Indices 1 2 3 4 5 6 
#
# 1 137.1350 60.1137 44.3172 0.0000 0.0000 0.0000
# 2 60.1137 82.4013 27.7062 0.0000 0.0000 0.0000
# 3 44.3172 27.7062 46.0985 0.0000 0.0000 0.0000
# 4 0.0000 0.0000 0.0000 8.9329 0.0000 0.0000
# 5 0.0000 0.0000 0.0000 0.0000 12.8731 0.0000
# 6 0.0000 0.0000 0.0000 0.0000 0.0000 28.5835
#
#
#
# Elastic Compliance Matrix: (Units=1/GPa)
#
#
# Indices 1 2 3 4 5 6 
#
# 1 0.012906 -0.006571 -0.008458 0.000000 0.000000 0.000000
# 2 -0.006571 0.018555 -0.004835 0.000000 0.000000 0.000000
# 3 -0.008458 -0.004835 0.032729 0.000000 0.000000 0.000000
# 4 0.000000 0.000000 0.000000 0.111945 0.000000 0.000000
# 5 0.000000 0.000000 0.000000 0.000000 0.077681 0.000000
# 6 0.000000 0.000000 0.000000 0.000000 0.000000 0.034985
#
#
# Mechanical properties :
#
#
# Convention : Reuss Voigt Hill
#
# Bulk Modulus (GPa) = 40.87804 58.87878 49.87841
# Shear Modulus (GPa) = 14.85073 18.97777 16.91425
#
# Velocity S-wave (km/s) = 3.09095 3.49414 3.29871
# Velocity P-wave (km/s) = 6.24795 7.35917 6.82621
#
# Compressibility (1/GPa) = 0.02446301
#
# Stress axis : x y z
#
# Youngs Moduli (GPa) = 77.48407 53.89297 30.55375
#
# Poissons Ratio (x) = 0.35415 0.25841
# Poissons Ratio (y) = 0.50918 0.14772
# Poissons Ratio (z) = 0.65533 0.26056
#
# Static dielectric constant tensor:
#      x y z
#    x 3.386660 0.000000 0.000000 
#    y 0.000000 3.023710 0.000000 
#    z 0.000000 0.000000 2.601160 
# 
# 
# High freq. dielectric constant tensor:
#      x y z
#    x 1.613790 0.000000 0.000000 
#    y 0.000000 1.601940 0.000000 
#    z 0.000000 0.000000 1.524360 
# 
# From -- ./inp_files/34037.got.cif
#   From: 2010.03.12/outbox.cif.g09.slc.cpg/sg51_18_cif.got.tgz:34037.got - 2010.04.16 13:43:02.
