data_PCOD8206512
_publ_section_title
;
Structure prediction by ZEFSAII (Michael W. Deem and Ramdas Pophale) SiO2 
 PCOD8206512
Probable space group: P M M A
;
_chemical_formula_sum "Si O2"
_cell_formula_units_Z 56
_cell_length_a 26.781086
_cell_length_b 8.953824
_cell_length_c 14.483351
_cell_angle_alpha 90.000000
_cell_angle_beta 90.000000
_cell_angle_gamma 90.000000
_cell_volume 3473.008077
_symmetry_space_group_name_H-M "P M M A"
_symmetry_group_IT_number 51
_symmetry_cell_setting 'orthorhombic'
loop_
_space_group_symop_operation_xyz
x,y,z
1/2-x,-y,z
1/2+x,-y,-z
-x,y,-z
-x,-y,-z
1/2+x,y,-z
1/2-x,y,z
x,-y,z
loop_
_atom_site_type_symbol
_atom_site_label
_atom_site_fract_x
_atom_site_fract_y
_atom_site_fract_z
Si Si1 0.115902 0.824705 0.765032
Si Si2 0.804912 0.175455 0.381574
Si Si3 0.959189 0.677088 0.371249
Si Si4 0.057819 0.827893 0.309736
Si Si5 0.608851 0.172382 0.510941
Si Si6 0.956726 0.325740 0.874341
Si Si7 0.569161 0.325827 0.077110
O O1 0.168517 0.784148 0.716056
O O2 0.072360 0.736089 0.714389
O O3 0.112731 0.767638 0.870888
O O4 0.105602 0.000000 0.759870
O O5 0.750000 0.252135 0.384988
O O6 0.838599 0.231824 0.468393
O O7 0.798042 0.000000 0.389384
O O8 0.959675 0.500000 0.371172
O O9 0.936662 0.735385 0.467133
O O10 0.014783 0.735734 0.359549
O O11 0.106236 0.810708 0.377636
O O12 0.069775 0.764298 0.208313
O O13 0.042057 0.000000 0.300689
O O14 0.601918 0.000000 0.480688
O O15 0.952669 0.500000 0.852172
O O16 0.014706 0.280228 0.883936
O O17 0.927771 0.286212 0.968708
O O18 0.578684 0.500000 0.092679
#
# Coordination Sequence:
#
# PCOD8206512 Si02
#       7
#     8   8   8   8   8   8   8
#     4  10  18  28  46  70  92 116 149 187 228 269
#     4   8  15  30  50  69  89 114 144 180 226 278
#     4  11  20  29  42  61  88 123 157 183 213 262
#     4  11  20  29  42  63  91 120 151 190 224 256
#     4   9  19  32  45  64  89 115 147 187 227 264
#     4   9  18  30  44  62  88 123 158 185 212 255
#     4   9  17  30  45  63  89 121 154 186 218 257
#
# _framework density 16.124351000000001
#
# number of rings (size 3 to 8) (size 9 to 14) (size 15 to 20)
#    0.000    2.429    1.429    4.286    0.000    3.429 
#    0.000    1.429    0.000   10.714    0.000    1.000 
#    0.000    5.714    0.000    0.000    0.000    0.000 
#
# Total GULP energy -694044.394360 kJ/mol
# GULP energy per Si atom -12393.649899 kJ/mol
# Density = 1.608765 g / cm^3
# Si number density = 16.124351 Si / 1000 Ang^3
#
#
#
# Elastic Constant Matrix: (Units=GPa)
#
#
# Indices 1 2 3 4 5 6 
#
# 1 74.0827 28.5495 52.2227 0.0000 0.0000 0.0000
# 2 28.5495 74.8563 46.5032 0.0000 0.0000 0.0000
# 3 52.2227 46.5032 131.8474 0.0000 0.0000 0.0000
# 4 0.0000 0.0000 0.0000 28.0735 0.0000 0.0000
# 5 0.0000 0.0000 0.0000 0.0000 13.9642 0.0000
# 6 0.0000 0.0000 0.0000 0.0000 0.0000 5.4492
#
#
#
# Elastic Compliance Matrix: (Units=1/GPa)
#
#
# Indices 1 2 3 4 5 6 
#
# 1 0.019364 -0.003356 -0.006486 0.000000 0.000000 0.000000
# 2 -0.003356 0.017689 -0.004910 0.000000 0.000000 0.000000
# 3 -0.006486 -0.004910 0.011885 0.000000 0.000000 0.000000
# 4 0.000000 0.000000 0.000000 0.035621 0.000000 0.000000
# 5 0.000000 0.000000 0.000000 0.000000 0.071612 0.000000
# 6 0.000000 0.000000 0.000000 0.000000 0.000000 0.183513
#
#
# Mechanical properties :
#
#
# Convention : Reuss Voigt Hill
#
# Bulk Modulus (GPa) = 51.45446 59.48192 55.46819
# Shear Modulus (GPa) = 13.30971 19.73145 16.52058
#
# Velocity S-wave (km/s) = 2.87617 3.50194 3.20437
# Velocity P-wave (km/s) = 6.55821 7.30213 6.94014
#
# Compressibility (1/GPa) = 0.01943466
#
# Stress axis : x y z
#
# Youngs Moduli (GPa) = 51.64244 56.53260 84.13763
#
# Poissons Ratio (x) = 0.18971 0.54573
# Poissons Ratio (y) = 0.17330 0.41310
# Poissons Ratio (z) = 0.33496 0.27756
#
# Static dielectric constant tensor:
#      x y z
#    x 2.946260 0.000000 0.000000 
#    y 0.000000 2.961840 0.000000 
#    z 0.000000 0.000000 3.254330 
# 
# 
# High freq. dielectric constant tensor:
#      x y z
#    x 1.570220 0.000000 0.000000 
#    y 0.000000 1.614350 0.000000 
#    z 0.000000 0.000000 1.627190 
# 
# From -- ./inp_files/26535.got.cif
#   From: 2010.03.12/outbox.cif.g09.slc.cpg/sg51_14_cif.got.tgz:26535.got - 2010.04.16 13:43:02.
