data_PCOD8206330
_publ_section_title
;
Structure prediction by ZEFSAII (Michael W. Deem and Ramdas Pophale) SiO2 
 PCOD8206330
Probable space group: P M M A
;
_chemical_formula_sum "Si O2"
_cell_formula_units_Z 48
_cell_length_a 8.918394
_cell_length_b 24.303287
_cell_length_c 13.687274
_cell_angle_alpha 90.000000
_cell_angle_beta 90.000000
_cell_angle_gamma 90.000000
_cell_volume 2966.665845
_symmetry_space_group_name_H-M "P M M A"
_symmetry_group_IT_number 51
_symmetry_cell_setting 'orthorhombic'
loop_
_space_group_symop_operation_xyz
x,y,z
1/2-x,-y,z
1/2+x,-y,-z
-x,y,-z
-x,-y,-z
1/2+x,y,-z
1/2-x,y,z
x,-y,z
loop_
_atom_site_type_symbol
_atom_site_label
_atom_site_fract_x
_atom_site_fract_y
_atom_site_fract_z
Si Si1 0.575857 0.441978 0.396623
Si Si2 0.075530 0.883220 0.397112
Si Si3 0.573322 0.224793 0.719809
Si Si4 0.927770 0.322261 0.393242
Si Si5 0.922722 0.938358 0.223666
Si Si6 0.926799 0.166356 0.103903
O O1 0.500000 0.443862 0.500000
O O2 0.750000 0.441182 0.418014
O O3 0.533690 0.500000 0.339460
O O4 0.534586 0.383266 0.347462
O O5 0.250000 0.891575 0.410766
O O6 0.035588 0.822368 0.358901
O O7 0.000000 0.893622 0.500000
O O8 0.018400 0.928464 0.320788
O O9 0.750000 0.231445 0.735681
O O10 0.502423 0.280997 0.682341
O O11 0.496567 0.210624 0.822416
O O12 0.750000 0.311266 0.401299
O O13 0.000000 0.314789 0.500000
O O14 0.750000 0.929995 0.252521
O O15 0.968233 0.895455 0.139060
O O16 0.954519 0.000000 0.184745
O O17 0.750000 0.175607 0.097286
O O18 0.000000 0.176571 0.000000
#
# Coordination Sequence:
#
# PCOD8206330 Si02
#       6
#     8   8   8   8   8   8
#     4   8  14  24  37  55  83 120 159 194 225 259
#     4  10  20  32  47  66  89 120 153 185 222 263
#     4  10  20  33  48  67  91 118 152 191 229 270
#     4  10  18  27  42  65  93 126 161 194 229 267
#     4   9  19  35  52  70  92 117 146 180 217 261
#     4  10  20  35  54  73  93 116 143 178 224 274
#
# _framework density 16.179780000000001
#
# number of rings (size 3 to 8) (size 9 to 14) (size 15 to 20)
#    0.000    2.500    0.000    2.500    0.000    5.667 
#    0.000    0.000    0.000    0.000    0.000    0.000 
#    0.000    0.667    0.000    1.833    0.000    3.000 
#
# Total GULP energy -594841.437264 kJ/mol
# GULP energy per Si atom -12392.529943 kJ/mol
# Density = 1.614295 g / cm^3
# Si number density = 16.179780 Si / 1000 Ang^3
#
#
#
# Elastic Constant Matrix: (Units=GPa)
#
#
# Indices 1 2 3 4 5 6 
#
# 1 65.6784 42.2529 40.3181 0.0000 0.0000 0.0000
# 2 42.2529 133.9851 47.8936 0.0000 0.0000 0.0000
# 3 40.3181 47.8936 93.3800 0.0000 0.0000 0.0000
# 4 0.0000 0.0000 0.0000 19.8317 0.0000 0.0000
# 5 0.0000 0.0000 0.0000 0.0000 25.0493 0.0000
# 6 0.0000 0.0000 0.0000 0.0000 0.0000 20.6745
#
#
#
# Elastic Compliance Matrix: (Units=1/GPa)
#
#
# Indices 1 2 3 4 5 6 
#
# 1 0.022719 -0.004479 -0.007512 0.000000 0.000000 0.000000
# 2 -0.004479 0.010022 -0.003206 0.000000 0.000000 0.000000
# 3 -0.007512 -0.003206 0.015597 0.000000 0.000000 0.000000
# 4 0.000000 0.000000 0.000000 0.050424 0.000000 0.000000
# 5 0.000000 0.000000 0.000000 0.000000 0.039921 0.000000
# 6 0.000000 0.000000 0.000000 0.000000 0.000000 0.048369
#
#
# Mechanical properties :
#
#
# Convention : Reuss Voigt Hill
#
# Bulk Modulus (GPa) = 55.73231 61.55253 58.64242
# Shear Modulus (GPa) = 22.37866 23.94970 23.16418
#
# Velocity S-wave (km/s) = 3.72307 3.85154 3.78785
# Velocity P-wave (km/s) = 7.28026 7.60951 7.44670
#
# Compressibility (1/GPa) = 0.01794291
#
# Stress axis : x y z
#
# Youngs Moduli (GPa) = 44.01683 99.77849 64.11641
#
# Poissons Ratio (x) = 0.44694 0.48162
# Poissons Ratio (y) = 0.19717 0.20557
# Poissons Ratio (z) = 0.33064 0.31992
#
# Static dielectric constant tensor:
#      x y z
#    x 3.203740 0.000000 0.000000 
#    y 0.000000 3.569210 0.000000 
#    z 0.000000 0.000000 2.742620 
# 
# 
# High freq. dielectric constant tensor:
#      x y z
#    x 1.638200 0.000000 0.000000 
#    y 0.000000 1.630490 0.000000 
#    z 0.000000 0.000000 1.581360 
# 
# From -- ./inp_files/14397.got.cif
#   From: 2010.03.12/outbox.cif.g09.slc.cpg/sg51_8_cif.got.tgz:14397.got - 2010.04.16 13:43:02.
