data_PCOD8206998
_publ_section_title
;
Structure prediction by ZEFSAII (Michael W. Deem and Ramdas Pophale) SiO2 
 PCOD8206998
Probable space group: P M M A
;
_chemical_formula_sum "Si O2"
_cell_formula_units_Z 64
_cell_length_a 24.007609
_cell_length_b 9.874802
_cell_length_c 14.500558
_cell_angle_alpha 90.000000
_cell_angle_beta 90.000000
_cell_angle_gamma 90.000000
_cell_volume 3437.652873
_symmetry_space_group_name_H-M "P M M A"
_symmetry_group_IT_number 51
_symmetry_cell_setting 'orthorhombic'
loop_
_space_group_symop_operation_xyz
x,y,z
1/2-x,-y,z
1/2+x,-y,-z
-x,y,-z
-x,-y,-z
1/2+x,y,-z
1/2-x,y,z
x,-y,z
loop_
_atom_site_type_symbol
_atom_site_label
_atom_site_fract_x
_atom_site_fract_y
_atom_site_fract_z
Si Si1 0.898899 0.659517 0.603841
Si Si2 0.124192 0.155834 0.098730
Si Si3 0.497661 0.751114 0.103087
Si Si4 0.616401 0.661482 0.394847
Si Si5 0.814772 0.842735 0.274769
Si Si6 0.881869 0.847439 0.103699
Si Si7 0.814676 0.657965 0.756286
Si Si8 0.493586 0.651411 0.701588
O O1 0.905659 0.500000 0.606334
O O2 0.894151 0.709090 0.499421
O O3 0.843754 0.701025 0.660496
O O4 0.953338 0.725261 0.653759
O O5 0.057903 0.161105 0.116867
O O6 0.159425 0.253276 0.162943
O O7 0.143093 0.000000 0.111919
O O8 0.135553 0.213375 0.995548
O O9 0.551474 0.845554 0.116248
O O10 0.500380 0.644733 0.187182
O O11 0.500000 0.682833 0.000000
O O12 0.627696 0.500000 0.386435
O O13 0.669668 0.746948 0.360959
O O14 0.564217 0.715665 0.333744
O O15 0.750000 0.828089 0.253870
O O16 0.848330 0.778502 0.187381
O O17 0.830638 0.000000 0.294996
O O18 0.861266 0.000000 0.103178
O O19 0.750000 0.691337 0.745907
O O20 0.825179 0.500000 0.779317
O O21 0.491859 0.500000 0.663526
#
# Coordination Sequence:
#
# PCOD8206998 Si02
#       8
#     8   8   8   8   8   8   8   8
#     4   9  18  34  56  79 106 141 179 218 265 323
#     4  10  20  34  56  84 109 138 179 223 265 312
#     4  10  18  30  52  82 111 140 172 214 264 325
#     4  10  20  35  58  84 106 135 180 229 270 313
#     4  10  21  37  56  77 105 144 183 219 266 321
#     4   9  18  34  54  77 108 144 179 214 258 322
#     4  10  21  37  55  76 105 143 183 220 265 320
#     4  10  18  31  53  82 112 141 173 215 268 325
#
# _framework density 18.617353000000001
#
# number of rings (size 3 to 8) (size 9 to 14) (size 15 to 20)
#    0.000    2.250    2.500    0.750    0.000    4.750 
#    0.000    5.625    0.000    0.750    0.000    0.000 
#    0.000    0.000    0.000    0.000    0.000    0.000 
#
# Total GULP energy -793062.093641 kJ/mol
# GULP energy per Si atom -12391.595213 kJ/mol
# Density = 1.857498 g / cm^3
# Si number density = 18.617353 Si / 1000 Ang^3
#
#
#
# Elastic Constant Matrix: (Units=GPa)
#
#
# Indices 1 2 3 4 5 6 
#
# 1 114.9843 33.4430 59.0697 0.0000 0.0000 0.0000
# 2 33.4430 46.1256 35.5958 0.0000 0.0000 0.0000
# 3 59.0697 35.5958 139.3863 0.0000 0.0000 0.0000
# 4 0.0000 0.0000 0.0000 23.1079 0.0000 0.0000
# 5 0.0000 0.0000 0.0000 0.0000 24.4105 0.0000
# 6 0.0000 0.0000 0.0000 0.0000 0.0000 22.9341
#
#
#
# Elastic Compliance Matrix: (Units=1/GPa)
#
#
# Indices 1 2 3 4 5 6 
#
# 1 0.012368 -0.006131 -0.003676 0.000000 0.000000 0.000000
# 2 -0.006131 0.030040 -0.005073 0.000000 0.000000 0.000000
# 3 -0.003676 -0.005073 0.010028 0.000000 0.000000 0.000000
# 4 0.000000 0.000000 0.000000 0.043275 0.000000 0.000000
# 5 0.000000 0.000000 0.000000 0.000000 0.040966 0.000000
# 6 0.000000 0.000000 0.000000 0.000000 0.000000 0.043603
#
#
# Mechanical properties :
#
#
# Convention : Reuss Voigt Hill
#
# Bulk Modulus (GPa) = 44.09921 61.85701 52.97811
# Shear Modulus (GPa) = 22.97797 25.58300 24.28049
#
# Velocity S-wave (km/s) = 3.51696 3.71097 3.61527
# Velocity P-wave (km/s) = 6.34276 7.18744 6.77827
#
# Compressibility (1/GPa) = 0.02267614
#
# Stress axis : x y z
#
# Youngs Moduli (GPa) = 80.85154 33.28861 99.72404
#
# Poissons Ratio (x) = 0.20409 0.36657
# Poissons Ratio (y) = 0.49569 0.50594
# Poissons Ratio (z) = 0.29720 0.16889
#
# Static dielectric constant tensor:
#      x y z
#    x 3.490070 0.000000 0.000000 
#    y 0.000000 2.997910 0.000000 
#    z 0.000000 0.000000 3.723010 
# 
# 
# High freq. dielectric constant tensor:
#      x y z
#    x 1.727080 0.000000 0.000000 
#    y 0.000000 1.676790 0.000000 
#    z 0.000000 0.000000 1.734970 
# 
# From -- ./inp_files/18851.got.cif
#   From: 2010.03.12/outbox.cif.g09.slc.cpg/sg51_10_cif.got.tgz:18851.got - 2010.04.16 13:43:02.
