data_PCOD8206180
_publ_section_title
;
Structure prediction by ZEFSAII (Michael W. Deem and Ramdas Pophale) SiO2 
 PCOD8206180
Probable space group: P M M A
;
_chemical_formula_sum "Si O2"
_cell_formula_units_Z 64
_cell_length_a 16.588252
_cell_length_b 17.861518
_cell_length_c 12.880732
_cell_angle_alpha 90.000000
_cell_angle_beta 90.000000
_cell_angle_gamma 90.000000
_cell_volume 3816.449624
_symmetry_space_group_name_H-M "P M M A"
_symmetry_group_IT_number 51
_symmetry_cell_setting 'orthorhombic'
loop_
_space_group_symop_operation_xyz
x,y,z
1/2-x,-y,z
1/2+x,-y,-z
-x,y,-z
-x,-y,-z
1/2+x,y,-z
1/2-x,y,z
x,-y,z
loop_
_atom_site_type_symbol
_atom_site_label
_atom_site_fract_x
_atom_site_fract_y
_atom_site_fract_z
Si Si1 0.161389 0.659885 0.903772
Si Si2 0.508813 0.682990 0.875542
Si Si3 0.901329 0.914710 0.214674
Si Si4 0.839955 0.414046 0.886589
Si Si5 0.660882 0.911336 0.430986
Si Si6 0.654412 0.915597 0.656564
Si Si7 0.561084 0.153490 0.834024
Si Si8 0.337919 0.827069 0.971823
O O1 0.250000 0.657956 0.845234
O O2 0.152347 0.737890 0.966494
O O3 0.079654 0.652815 0.832978
O O4 0.160206 0.594248 0.988827
O O5 0.585125 0.632946 0.838088
O O6 0.521055 0.764900 0.827913
O O7 0.500000 0.683685 0.000000
O O8 0.893412 0.885493 0.333547
O O9 0.847489 0.862901 0.141233
O O10 0.993904 0.909453 0.181719
O O11 0.871305 0.000000 0.204022
O O12 0.750000 0.389010 0.845239
O O13 0.855381 0.500000 0.857891
O O14 0.750000 0.876644 0.415085
O O15 0.623573 0.887039 0.542733
O O16 0.667640 0.000000 0.433985
O O17 0.750000 0.916258 0.654251
O O18 0.626051 0.856726 0.743047
O O19 0.622505 0.000000 0.680310
O O20 0.598811 0.139448 0.947022
O O21 0.250000 0.847548 0.014593
#
# Coordination Sequence:
#
# PCOD8206180 Si02
#       8
#     8   8   8   8   8   8   8   8
#     4   9  17  30  45  62  88 125 164 196 233 280
#     4  10  17  30  45  62  93 130 160 188 233 279
#     4  11  22  33  48  67  87 117 158 210 253 284
#     4   9  17  28  46  71  93 121 164 201 228 269
#     4   8  16  34  53  66  83 110 152 203 253 298
#     4   9  19  34  50  66  86 117 157 201 247 298
#     4  12  20  31  45  68  95 124 154 189 241 300
#     4  11  21  33  47  63  90 127 163 194 235 291
#
# _framework density 16.769511999999999
#
# number of rings (size 3 to 8) (size 9 to 14) (size 15 to 20)
#    0.000    2.125    3.750    2.250    0.000    5.500 
#    0.000    1.875    0.000    0.000    0.000    0.000 
#    0.000    0.000    0.000    3.375    0.000   18.625 
#
# Total GULP energy -792864.466345 kJ/mol
# GULP energy per Si atom -12388.507287 kJ/mol
# Density = 1.673134 g / cm^3
# Si number density = 16.769512 Si / 1000 Ang^3
#
#
#
# Elastic Constant Matrix: (Units=GPa)
#
#
# Indices 1 2 3 4 5 6 
#
# 1 117.0909 22.0765 18.7801 0.0000 0.0000 0.0000
# 2 22.0765 40.5310 13.9653 0.0000 0.0000 0.0000
# 3 18.7801 13.9653 58.4966 0.0000 0.0000 0.0000
# 4 0.0000 0.0000 0.0000 2.8477 0.0000 0.0000
# 5 0.0000 0.0000 0.0000 0.0000 15.7050 0.0000
# 6 0.0000 0.0000 0.0000 0.0000 0.0000 23.3021
#
#
#
# Elastic Compliance Matrix: (Units=1/GPa)
#
#
# Indices 1 2 3 4 5 6 
#
# 1 0.009733 -0.004604 -0.002026 0.000000 0.000000 0.000000
# 2 -0.004604 0.029061 -0.005460 0.000000 0.000000 0.000000
# 3 -0.002026 -0.005460 0.019049 0.000000 0.000000 0.000000
# 4 0.000000 0.000000 0.000000 0.351166 0.000000 0.000000
# 5 0.000000 0.000000 0.000000 0.000000 0.063674 0.000000
# 6 0.000000 0.000000 0.000000 0.000000 0.000000 0.042915
#
#
# Mechanical properties :
#
#
# Convention : Reuss Voigt Hill
#
# Bulk Modulus (GPa) = 29.70474 36.19581 32.95028
# Shear Modulus (GPa) = 9.07444 19.12405 14.09924
#
# Velocity S-wave (km/s) = 2.32874 3.38065 2.90274
# Velocity P-wave (km/s) = 4.99827 6.07203 5.56113
#
# Compressibility (1/GPa) = 0.03366466
#
# Stress axis : x y z
#
# Youngs Moduli (GPa) = 102.74070 34.41011 52.49645
#
# Poissons Ratio (x) = 0.15841 0.10635
# Poissons Ratio (y) = 0.47297 0.28663
# Poissons Ratio (z) = 0.20813 0.18788
#
# Static dielectric constant tensor:
#      x y z
#    x 3.696070 0.000000 0.000000 
#    y 0.000000 2.878470 0.000000 
#    z 0.000000 0.000000 2.986820 
# 
# 
# High freq. dielectric constant tensor:
#      x y z
#    x 1.674600 0.000000 0.000000 
#    y 0.000000 1.613510 0.000000 
#    z 0.000000 0.000000 1.593840 
# 
# From -- ./inp_files/17713.got.cif
#   From: 2010.03.12/outbox.cif.g09.slc.cpg/sg51_9_cif.got.tgz:17713.got - 2010.04.16 13:43:02.
