data_PCOD8206964
_publ_section_title
;
Structure prediction by ZEFSAII (Michael W. Deem and Ramdas Pophale) SiO2 
 PCOD8206964
Probable space group: P M M A
;
_chemical_formula_sum "Si O2"
_cell_formula_units_Z 40
_cell_length_a 8.781024
_cell_length_b 26.031674
_cell_length_c 9.040960
_cell_angle_alpha 90.000000
_cell_angle_beta 90.000000
_cell_angle_gamma 90.000000
_cell_volume 2066.625619
_symmetry_space_group_name_H-M "P M M A"
_symmetry_group_IT_number 51
_symmetry_cell_setting 'orthorhombic'
loop_
_space_group_symop_operation_xyz
x,y,z
1/2-x,-y,z
1/2+x,-y,-z
-x,y,-z
-x,-y,-z
1/2+x,y,-z
1/2-x,y,z
x,-y,z
loop_
_atom_site_type_symbol
_atom_site_label
_atom_site_fract_x
_atom_site_fract_y
_atom_site_fract_z
Si Si1 0.430039 0.599215 0.660849
Si Si2 0.929261 0.796870 0.339907
Si Si3 0.569290 0.102913 0.161372
Si Si4 0.430161 0.500000 0.839054
Si Si5 0.930240 0.301468 0.160724
Si Si6 0.931762 0.000000 0.836449
O O1 0.500000 0.597808 0.500000
O O2 0.250000 0.598782 0.644963
O O3 0.488501 0.550012 0.751760
O O4 0.487433 0.650031 0.744695
O O5 0.750000 0.793421 0.357038
O O6 0.979344 0.849814 0.263675
O O7 0.990322 0.749954 0.240564
O O8 0.000000 0.792986 0.500000
O O9 0.750000 0.096613 0.147295
O O10 0.496609 0.051964 0.238644
O O11 0.500000 0.112497 0.000000
O O12 0.250000 0.500000 0.854628
O O13 0.500000 0.500000 0.000000
O O14 0.750000 0.301146 0.145032
O O15 0.000000 0.304967 0.000000
O O16 0.750000 0.000000 0.836101
O O17 0.000000 0.000000 0.000000
#
# Coordination Sequence:
#
# PCOD8206964 Si02
#       6
#     8   8   8   4   8   4
#     4  10  21  36  55  80 111 143 181 223 268 320
#     4  10  22  37  54  77 106 138 175 216 262 314
#     4  10  19  33  53  78 105 135 172 215 259 309
#     4  10  21  36  54  80 110 144 185 228 268 316
#     4  10  21  37  56  81 108 138 177 221 265 316
#     4  10  18  30  51  78 105 136 172 212 258 308
#
# _framework density 19.355222999999999
#
# number of rings (size 3 to 8) (size 9 to 14) (size 15 to 20)
#    0.000    2.000    0.000    4.800    0.000    4.000 
#    0.000    0.500    0.000    0.000    0.000    0.000 
#    0.000    0.000    0.000    0.000    0.000    0.000 
#
# Total GULP energy -496062.993969 kJ/mol
# GULP energy per Si atom -12401.574849 kJ/mol
# Density = 1.931117 g / cm^3
# Si number density = 19.355223 Si / 1000 Ang^3
#
#
#
# Elastic Constant Matrix: (Units=GPa)
#
#
# Indices 1 2 3 4 5 6 
#
# 1 51.4208 49.2117 39.5344 0.0000 0.0000 0.0000
# 2 49.2117 209.0703 98.2098 0.0000 0.0000 0.0000
# 3 39.5344 98.2098 164.5776 0.0000 0.0000 0.0000
# 4 0.0000 0.0000 0.0000 26.1727 0.0000 0.0000
# 5 0.0000 0.0000 0.0000 0.0000 37.4214 0.0000
# 6 0.0000 0.0000 0.0000 0.0000 0.0000 12.9148
#
#
#
# Elastic Compliance Matrix: (Units=1/GPa)
#
#
# Indices 1 2 3 4 5 6 
#
# 1 0.026623 -0.004533 -0.003690 0.000000 0.000000 0.000000
# 2 -0.004533 0.007418 -0.003338 0.000000 0.000000 0.000000
# 3 -0.003690 -0.003338 0.008954 0.000000 0.000000 0.000000
# 4 0.000000 0.000000 0.000000 0.038208 0.000000 0.000000
# 5 0.000000 0.000000 0.000000 0.000000 0.026723 0.000000
# 6 0.000000 0.000000 0.000000 0.000000 0.000000 0.077431
#
#
# Mechanical properties :
#
#
# Convention : Reuss Voigt Hill
#
# Bulk Modulus (GPa) = 50.31887 88.77561 69.54724
# Shear Modulus (GPa) = 23.24472 31.17597 27.21035
#
# Velocity S-wave (km/s) = 3.46924 4.01774 3.75352
# Velocity P-wave (km/s) = 6.48857 8.21517 7.40238
#
# Compressibility (1/GPa) = 0.01987326
#
# Stress axis : x y z
#
# Youngs Moduli (GPa) = 37.56155 134.80817 111.67815
#
# Poissons Ratio (x) = 0.61111 0.41211
# Poissons Ratio (y) = 0.17027 0.37274
# Poissons Ratio (z) = 0.13861 0.44994
#
# Static dielectric constant tensor:
#      x y z
#    x 3.417260 0.000000 0.000000 
#    y 0.000000 4.532700 0.000000 
#    z 0.000000 0.000000 3.368770 
# 
# 
# High freq. dielectric constant tensor:
#      x y z
#    x 1.746630 0.000000 0.000000 
#    y 0.000000 1.781400 0.000000 
#    z 0.000000 0.000000 1.745930 
# 
# From -- ./inp_files/5590.got.cif
#   From: 2010.03.12/outbox.cif.g09.slc.cpg/sg51_3_cif.got.tgz:5590.got - 2010.04.16 13:43:02.
