data_PCOD8206293
_publ_section_title
;
Structure prediction by ZEFSAII (Michael W. Deem and Ramdas Pophale) SiO2 
 PCOD8206293
Probable space group: P M M A
;
_chemical_formula_sum "Si O2"
_cell_formula_units_Z 64
_cell_length_a 9.052771
_cell_length_b 26.223867
_cell_length_c 18.332796
_cell_angle_alpha 90.000000
_cell_angle_beta 90.000000
_cell_angle_gamma 90.000000
_cell_volume 4352.181254
_symmetry_space_group_name_H-M "P M M A"
_symmetry_group_IT_number 51
_symmetry_cell_setting 'orthorhombic'
loop_
_space_group_symop_operation_xyz
x,y,z
1/2-x,-y,z
1/2+x,-y,-z
-x,y,-z
-x,-y,-z
1/2+x,y,-z
1/2-x,y,z
x,-y,z
loop_
_atom_site_type_symbol
_atom_site_label
_atom_site_fract_x
_atom_site_fract_y
_atom_site_fract_z
Si Si1 0.082846 0.742975 0.073857
Si Si2 0.577589 0.058082 0.425958
Si Si3 0.424027 0.648969 0.173256
Si Si4 0.575688 0.295784 0.294781
Si Si5 0.917841 0.207858 0.783876
Si Si6 0.922870 0.557559 0.925990
Si Si7 0.077000 0.754497 0.422468
Si Si8 0.416452 0.139778 0.340591
O O1 0.250000 0.734333 0.050555
O O2 0.025938 0.692385 0.115427
O O3 0.064491 0.791990 0.128315
O O4 0.000000 0.755025 0.000000
O O5 0.500000 0.076427 0.500000
O O6 0.750000 0.064490 0.437748
O O7 0.525922 0.094017 0.360213
O O8 0.534120 0.000000 0.406952
O O9 0.250000 0.652989 0.188801
O O10 0.510451 0.655947 0.249793
O O11 0.469851 0.594261 0.140342
O O12 0.750000 0.302196 0.305619
O O13 0.539499 0.245627 0.248241
O O14 0.496823 0.289988 0.373352
O O15 0.750000 0.227495 0.764120
O O16 0.939371 0.152644 0.745840
O O17 0.750000 0.561587 0.940601
O O18 0.970912 0.500000 0.905357
O O19 0.000000 0.575980 0.000000
O O20 0.250000 0.743286 0.430771
O O21 0.047424 0.809612 0.386656
O O22 0.000000 0.753669 0.500000
O O23 0.250000 0.121271 0.356048
#
# Coordination Sequence:
#
# PCOD8206293 Si02
#       8
#     8   8   8   8   8   8   8   8
#     4   9  16  25  38  56  79 106 134 164 198 237
#     4  10  20  31  42  58  81 107 135 168 202 234
#     4   9  17  29  41  54  79 112 140 169 206 243
#     4  10  18  27  41  60  79 103 137 171 202 239
#     4   8  16  30  42  55  79 108 134 164 203 241
#     4   9  17  28  42  60  82 109 141 176 212 247
#     4  10  19  30  43  61  85 110 136 166 201 239
#     4   9  17  29  45  60  77 106 139 167 197 235
#
# _framework density 14.705271
#
# number of rings (size 3 to 8) (size 9 to 14) (size 15 to 20)
#    0.000    2.750    0.000    4.125    0.000    6.750 
#    0.000    0.000    0.000    0.000    0.000    0.000 
#    0.000    1.000    0.000    2.500    0.000    4.000 
#
# Total GULP energy -793221.003590 kJ/mol
# GULP energy per Si atom -12394.078181 kJ/mol
# Density = 1.467180 g / cm^3
# Si number density = 14.705271 Si / 1000 Ang^3
#
#
#
# Elastic Constant Matrix: (Units=GPa)
#
#
# Indices 1 2 3 4 5 6 
#
# 1 69.1396 31.5364 41.7139 0.0000 0.0000 0.0000
# 2 31.5364 66.6280 41.7910 0.0000 0.0000 0.0000
# 3 41.7139 41.7910 93.2394 0.0000 0.0000 0.0000
# 4 0.0000 0.0000 0.0000 24.8362 0.0000 0.0000
# 5 0.0000 0.0000 0.0000 0.0000 26.9397 0.0000
# 6 0.0000 0.0000 0.0000 0.0000 0.0000 18.1759
#
#
#
# Elastic Compliance Matrix: (Units=1/GPa)
#
#
# Indices 1 2 3 4 5 6 
#
# 1 0.021261 -0.005699 -0.006957 0.000000 0.000000 0.000000
# 2 -0.005699 0.022406 -0.007493 0.000000 0.000000 0.000000
# 3 -0.006957 -0.007493 0.017196 0.000000 0.000000 0.000000
# 4 0.000000 0.000000 0.000000 0.040264 0.000000 0.000000
# 5 0.000000 0.000000 0.000000 0.000000 0.037120 0.000000
# 6 0.000000 0.000000 0.000000 0.000000 0.000000 0.055018
#
#
# Mechanical properties :
#
#
# Convention : Reuss Voigt Hill
#
# Bulk Modulus (GPa) = 48.62884 51.00993 49.81939
# Shear Modulus (GPa) = 20.79713 21.58805 21.19259
#
# Velocity S-wave (km/s) = 3.76475 3.83567 3.80037
# Velocity P-wave (km/s) = 7.21378 7.37428 7.29447
#
# Compressibility (1/GPa) = 0.02056393
#
# Stress axis : x y z
#
# Youngs Moduli (GPa) = 47.03548 44.63074 58.15310
#
# Poissons Ratio (x) = 0.25437 0.40458
# Poissons Ratio (y) = 0.26807 0.43573
# Poissons Ratio (z) = 0.32723 0.33441
#
# Static dielectric constant tensor:
#      x y z
#    x 2.839570 0.000000 0.000000 
#    y 0.000000 2.744360 0.000000 
#    z 0.000000 0.000000 2.945790 
# 
# 
# High freq. dielectric constant tensor:
#      x y z
#    x 1.568360 0.000000 0.000000 
#    y 0.000000 1.526130 0.000000 
#    z 0.000000 0.000000 1.552960 
# 
# From -- ./inp_files/28701.got.cif
#   From: 2010.03.12/outbox.cif.g09.slc.cpg/sg51_15_cif.got.tgz:28701.got - 2010.04.16 13:43:02.
