data_PCOD8206354
_publ_section_title
;
Structure prediction by ZEFSAII (Michael W. Deem and Ramdas Pophale) SiO2 
 PCOD8206354
Probable space group: P M M A
;
_chemical_formula_sum "Si O2"
_cell_formula_units_Z 64
_cell_length_a 19.707854
_cell_length_b 9.755386
_cell_length_c 18.982870
_cell_angle_alpha 90.000000
_cell_angle_beta 90.000000
_cell_angle_gamma 90.000000
_cell_volume 3649.603362
_symmetry_space_group_name_H-M "P M M A"
_symmetry_group_IT_number 51
_symmetry_cell_setting 'orthorhombic'
loop_
_space_group_symop_operation_xyz
x,y,z
1/2-x,-y,z
1/2+x,-y,-z
-x,y,-z
-x,-y,-z
1/2+x,y,-z
1/2-x,y,z
x,-y,z
loop_
_atom_site_type_symbol
_atom_site_label
_atom_site_fract_x
_atom_site_fract_y
_atom_site_fract_z
Si Si1 0.325487 0.836234 0.240918
Si Si2 0.952066 0.842374 0.433325
Si Si3 0.674327 0.655106 0.426535
Si Si4 0.927458 0.839601 0.187462
Si Si5 0.325548 0.350810 0.739640
Si Si6 0.535898 0.160421 0.700010
Si Si7 0.429510 0.836726 0.970119
Si Si8 0.673466 0.840513 0.916636
O O1 0.250000 0.788056 0.267049
O O2 0.386387 0.781995 0.292028
O O3 0.338693 0.778894 0.161605
O O4 0.326708 0.000000 0.237915
O O5 0.884094 0.758316 0.452693
O O6 0.993334 0.777951 0.366066
O O7 0.000000 0.831606 0.500000
O O8 0.931119 0.000000 0.418181
O O9 0.750000 0.697286 0.454755
O O10 0.657473 0.500000 0.451820
O O11 0.675830 0.662205 0.343349
O O12 0.867632 0.773647 0.230952
O O13 0.998624 0.806789 0.226084
O O14 0.924855 0.777782 0.108929
O O15 0.913602 0.000000 0.187022
O O16 0.250000 0.337767 0.770291
O O17 0.355988 0.500000 0.760984
O O18 0.540668 0.000000 0.685586
O O19 0.424986 0.000000 0.967099
O O20 0.500000 0.784839 0.000000
O O21 0.372802 0.773150 0.022368
O O22 0.750000 0.814970 0.940952
O O23 0.655439 0.000000 0.912727
#
# Coordination Sequence:
#
# PCOD8206354 Si02
#       8
#     8   8   8   8   8   8   8   8
#     4   8  13  22  38  57  79 115 156 189 228 278
#     4  10  20  33  49  73 105 134 157 192 246 297
#     4   9  18  34  55  75  96 127 167 204 236 279
#     4  10  18  27  44  68  92 122 156 194 240 283
#     4   9  18  32  48  67  93 123 156 196 238 280
#     4   9  16  27  41  61  90 119 153 193 228 274
#     4   9  16  24  35  56  87 119 149 185 232 281
#     4   8  13  21  32  48  75 110 145 182 224 269
#
# _framework density 17.536152000000001
#
# number of rings (size 3 to 8) (size 9 to 14) (size 15 to 20)
#    0.000    3.000    1.250    2.250    0.000    4.250 
#    0.000    3.125    0.000    2.625    0.000    0.000 
#    0.000    1.500    0.000    0.250    0.000    1.625 
#
# Total GULP energy -792892.603210 kJ/mol
# GULP energy per Si atom -12388.946925 kJ/mol
# Density = 1.749624 g / cm^3
# Si number density = 17.536152 Si / 1000 Ang^3
#
#
#
# Elastic Constant Matrix: (Units=GPa)
#
#
# Indices 1 2 3 4 5 6 
#
# 1 118.1991 36.6850 31.9913 0.0000 0.0000 0.0000
# 2 36.6850 31.5526 17.2884 0.0000 0.0000 0.0000
# 3 31.9913 17.2884 45.3539 0.0000 0.0000 0.0000
# 4 0.0000 0.0000 0.0000 6.3026 0.0000 0.0000
# 5 0.0000 0.0000 0.0000 0.0000 25.9711 0.0000
# 6 0.0000 0.0000 0.0000 0.0000 0.0000 10.4650
#
#
#
# Elastic Compliance Matrix: (Units=1/GPa)
#
#
# Indices 1 2 3 4 5 6 
#
# 1 0.013965 -0.013701 -0.004628 0.000000 0.000000 0.000000
# 2 -0.013701 0.053502 -0.010730 0.000000 0.000000 0.000000
# 3 -0.004628 -0.010730 0.029403 0.000000 0.000000 0.000000
# 4 0.000000 0.000000 0.000000 0.158664 0.000000 0.000000
# 5 0.000000 0.000000 0.000000 0.000000 0.038504 0.000000
# 6 0.000000 0.000000 0.000000 0.000000 0.000000 0.095557
#
#
# Mechanical properties :
#
#
# Convention : Reuss Voigt Hill
#
# Bulk Modulus (GPa) = 25.80479 40.78166 33.29323
# Shear Modulus (GPa) = 10.85466 15.82380 13.33923
#
# Velocity S-wave (km/s) = 2.49065 3.00718 2.76102
# Velocity P-wave (km/s) = 4.79773 5.94674 5.40287
#
# Compressibility (1/GPa) = 0.03875249
#
# Stress axis : x y z
#
# Youngs Moduli (GPa) = 71.60643 18.69088 34.00962
#
# Poissons Ratio (x) = 0.25608 0.15739
# Poissons Ratio (y) = 0.98108 0.36493
# Poissons Ratio (z) = 0.33139 0.20055
#
# Static dielectric constant tensor:
#      x y z
#    x 1.891970 0.000000 0.000000 
#    y 0.000000 2.803780 0.000000 
#    z 0.000000 0.000000 3.487460 
# 
# 
# High freq. dielectric constant tensor:
#      x y z
#    x 1.691350 0.000000 0.000000 
#    y 0.000000 1.610700 0.000000 
#    z 0.000000 0.000000 1.668020 
# 
# From -- ./inp_files/30321.got.cif
#   From: 2010.03.12/outbox.cif.g09.slc.cpg/sg51_16_cif.got.tgz:30321.got - 2010.04.16 13:43:02.
