data_PCOD8206923
_publ_section_title
;
Structure prediction by ZEFSAII (Michael W. Deem and Ramdas Pophale) SiO2 
 PCOD8206923
Probable space group: P M M A
;
_chemical_formula_sum "Si O2"
_cell_formula_units_Z 56
_cell_length_a 9.074078
_cell_length_b 20.234524
_cell_length_c 15.487682
_cell_angle_alpha 90.000000
_cell_angle_beta 90.000000
_cell_angle_gamma 90.000000
_cell_volume 2843.687857
_symmetry_space_group_name_H-M "P M M A"
_symmetry_group_IT_number 51
_symmetry_cell_setting 'orthorhombic'
loop_
_space_group_symop_operation_xyz
x,y,z
1/2-x,-y,z
1/2+x,-y,-z
-x,y,-z
-x,-y,-z
1/2+x,y,-z
1/2-x,y,z
x,-y,z
loop_
_atom_site_type_symbol
_atom_site_label
_atom_site_fract_x
_atom_site_fract_y
_atom_site_fract_z
Si Si1 0.079683 0.663437 0.911384
Si Si2 0.579931 0.424137 0.770671
Si Si3 0.923217 0.929475 0.228587
Si Si4 0.422854 0.110889 0.581728
Si Si5 0.916894 0.614875 0.584029
Si Si6 0.421394 0.213260 0.805408
Si Si7 0.418738 0.762355 0.365055
O O1 0.250000 0.645482 0.922111
O O2 0.058972 0.741652 0.890166
O O3 0.015624 0.619143 0.835360
O O4 0.000000 0.646468 0.000000
O O5 0.750000 0.400075 0.774497
O O6 0.565122 0.500000 0.798895
O O7 0.518239 0.414939 0.673216
O O8 0.750000 0.933482 0.218214
O O9 0.966188 0.925021 0.329520
O O10 0.977629 0.862981 0.178649
O O11 0.990458 0.000000 0.193720
O O12 0.500000 0.074732 0.500000
O O13 0.250000 0.111263 0.566090
O O14 0.481573 0.185723 0.584030
O O15 0.750000 0.590863 0.574763
O O16 0.930271 0.693727 0.585239
O O17 0.000000 0.586811 0.500000
O O18 0.250000 0.211429 0.775349
O O19 0.518605 0.247001 0.731469
O O20 0.250000 0.787047 0.359872
#
# Coordination Sequence:
#
# PCOD8206923 Si02
#       7
#     8   8   8   8   8   8   8
#     4  11  23  39  63  92 119 147 184 229 281 342
#     4  10  22  42  63  84 116 154 191 235 284 334
#     4   8  15  29  49  72 100 137 180 225 275 329
#     4  10  19  29  42  65  98 136 183 232 281 331
#     4  10  21  34  52  80 111 149 192 232 277 326
#     4   9  18  33  55  82 109 140 179 226 275 327
#     4  10  18  30  50  74 103 141 183 229 282 329
#
# _framework density 19.692739
#
# number of rings (size 3 to 8) (size 9 to 14) (size 15 to 20)
#    0.000    2.286    1.429    2.571    0.000    4.571 
#    0.000    0.000    0.000   10.714    0.000    0.000 
#    0.000    0.000    0.000    0.000    0.000    0.143 
#
# Total GULP energy -694051.983281 kJ/mol
# GULP energy per Si atom -12393.785416 kJ/mol
# Density = 1.964792 g / cm^3
# Si number density = 19.692739 Si / 1000 Ang^3
#
#
#
# Elastic Constant Matrix: (Units=GPa)
#
#
# Indices 1 2 3 4 5 6 
#
# 1 71.1036 34.4551 46.3132 0.0000 0.0000 0.0000
# 2 34.4551 92.6375 39.3208 0.0000 0.0000 0.0000
# 3 46.3132 39.3208 110.4819 0.0000 0.0000 0.0000
# 4 0.0000 0.0000 0.0000 7.6942 0.0000 0.0000
# 5 0.0000 0.0000 0.0000 0.0000 28.5802 0.0000
# 6 0.0000 0.0000 0.0000 0.0000 0.0000 14.0064
#
#
#
# Elastic Compliance Matrix: (Units=1/GPa)
#
#
# Indices 1 2 3 4 5 6 
#
# 1 0.021016 -0.004803 -0.007101 0.000000 0.000000 0.000000
# 2 -0.004803 0.013813 -0.002903 0.000000 0.000000 0.000000
# 3 -0.007101 -0.002903 0.013061 0.000000 0.000000 0.000000
# 4 0.000000 0.000000 0.000000 0.129968 0.000000 0.000000
# 5 0.000000 0.000000 0.000000 0.000000 0.034989 0.000000
# 6 0.000000 0.000000 0.000000 0.000000 0.000000 0.071396
#
#
# Mechanical properties :
#
#
# Convention : Reuss Voigt Hill
#
# Bulk Modulus (GPa) = 54.71064 57.15567 55.93315
# Shear Modulus (GPa) = 15.62752 20.33175 17.97964
#
# Velocity S-wave (km/s) = 2.82009 3.21666 3.02488
# Velocity P-wave (km/s) = 6.20051 6.54848 6.37687
#
# Compressibility (1/GPa) = 0.01827798
#
# Stress axis : x y z
#
# Youngs Moduli (GPa) = 47.58237 72.39429 76.56453
#
# Poissons Ratio (x) = 0.34769 0.54365
# Poissons Ratio (y) = 0.22853 0.22226
# Poissons Ratio (z) = 0.33786 0.21015
#
# Static dielectric constant tensor:
#      x y z
#    x 3.496440 0.000000 0.000000 
#    y 0.000000 3.798900 0.000000 
#    z 0.000000 0.000000 3.408480 
# 
# 
# High freq. dielectric constant tensor:
#      x y z
#    x 1.751310 0.000000 0.000000 
#    y 0.000000 1.773190 0.000000 
#    z 0.000000 0.000000 1.743330 
# 
# From -- ./inp_files/21764.got.cif
#   From: 2010.03.12/outbox.cif.g09.slc.cpg/sg51_11_cif.got.tgz:21764.got - 2010.04.16 13:43:02.
