data_PCOD8206929
_publ_section_title
;
Structure prediction by ZEFSAII (Michael W. Deem and Ramdas Pophale) SiO2 
 PCOD8206929
Probable space group: P M M A
;
_chemical_formula_sum "Si O2"
_cell_formula_units_Z 56
_cell_length_a 18.367628
_cell_length_b 8.999412
_cell_length_c 19.742040
_cell_angle_alpha 90.000000
_cell_angle_beta 90.000000
_cell_angle_gamma 90.000000
_cell_volume 3263.316803
_symmetry_space_group_name_H-M "P M M A"
_symmetry_group_IT_number 51
_symmetry_cell_setting 'orthorhombic'
loop_
_space_group_symop_operation_xyz
x,y,z
1/2-x,-y,z
1/2+x,-y,-z
-x,y,-z
-x,-y,-z
1/2+x,y,-z
1/2-x,y,z
x,-y,z
loop_
_atom_site_type_symbol
_atom_site_label
_atom_site_fract_x
_atom_site_fract_y
_atom_site_fract_z
Si Si1 0.026149 0.831431 0.892908
Si Si2 0.888219 0.675034 0.913186
Si Si3 0.166493 0.326173 0.479228
Si Si4 0.063295 0.325498 0.355620
Si Si5 0.670157 0.171321 0.038817
Si Si6 0.580273 0.169809 0.783872
Si Si7 0.946723 0.167504 0.436610
O O1 0.109428 0.780711 0.905604
O O2 0.970425 0.725687 0.934752
O O3 0.003463 0.821412 0.812935
O O4 0.014319 0.000000 0.918625
O O5 0.882558 0.500000 0.904181
O O6 0.868049 0.754265 0.841321
O O7 0.834129 0.729369 0.971492
O O8 0.250000 0.274359 0.473062
O O9 0.160029 0.500000 0.493742
O O10 0.125736 0.284120 0.409677
O O11 0.129544 0.242967 0.542757
O O12 0.052567 0.500000 0.348831
O O13 0.089134 0.259577 0.284831
O O14 0.985372 0.256050 0.375832
O O15 0.750000 0.197764 0.071318
O O16 0.659816 0.000000 0.017786
O O17 0.604490 0.000000 0.771733
O O18 0.000000 0.172083 0.500000
O O19 0.931495 0.000000 0.412364
#
# Coordination Sequence:
#
# PCOD8206929 Si02
#       7
#     8   8   8   8   8   8   8
#     4   8  17  32  50  70  93 124 162 202 242 289
#     4  10  19  31  48  71  96 124 158 198 241 289
#     4   9  18  32  49  71 101 132 160 196 242 288
#     4  10  18  30  50  75  98 127 165 202 244 290
#     4  10  19  32  50  71  96 126 159 198 247 296
#     4   9  18  32  50  69  93 124 163 203 240 283
#     4   9  17  29  47  71  98 126 160 201 237 276
#
# _framework density 17.160456
#
# number of rings (size 3 to 8) (size 9 to 14) (size 15 to 20)
#    0.857    1.857    0.000    2.571    0.000    5.143 
#    0.000    0.714    0.000    3.429    0.000    2.000 
#    0.000    0.000    0.000    0.000    0.000    0.000 
#
# Total GULP energy -693904.543210 kJ/mol
# GULP energy per Si atom -12391.152557 kJ/mol
# Density = 1.712140 g / cm^3
# Si number density = 17.160456 Si / 1000 Ang^3
#
#
#
# Elastic Constant Matrix: (Units=GPa)
#
#
# Indices 1 2 3 4 5 6 
#
# 1 83.3103 23.8143 7.7276 0.0000 0.0000 0.0000
# 2 23.8143 80.4836 15.6614 0.0000 0.0000 0.0000
# 3 7.7276 15.6614 25.6767 0.0000 0.0000 0.0000
# 4 0.0000 0.0000 0.0000 28.2583 0.0000 0.0000
# 5 0.0000 0.0000 0.0000 0.0000 8.7185 0.0000
# 6 0.0000 0.0000 0.0000 0.0000 0.0000 16.4031
#
#
#
# Elastic Compliance Matrix: (Units=1/GPa)
#
#
# Indices 1 2 3 4 5 6 
#
# 1 0.013185 -0.003551 -0.001803 0.000000 0.000000 0.000000
# 2 -0.003551 0.015054 -0.008114 0.000000 0.000000 0.000000
# 3 -0.001803 -0.008114 0.044437 0.000000 0.000000 0.000000
# 4 0.000000 0.000000 0.000000 0.035388 0.000000 0.000000
# 5 0.000000 0.000000 0.000000 0.000000 0.114699 0.000000
# 6 0.000000 0.000000 0.000000 0.000000 0.000000 0.060964
#
#
# Mechanical properties :
#
#
# Convention : Reuss Voigt Hill
#
# Bulk Modulus (GPa) = 21.86117 31.54189 26.70153
# Shear Modulus (GPa) = 15.34169 20.16046 17.75107
#
# Velocity S-wave (km/s) = 2.99325 3.43128 3.21973
# Velocity P-wave (km/s) = 4.97122 5.84113 5.42364
#
# Compressibility (1/GPa) = 0.04574321
#
# Stress axis : x y z
#
# Youngs Moduli (GPa) = 75.84095 66.42585 22.50361
#
# Poissons Ratio (x) = 0.23586 0.04056
# Poissons Ratio (y) = 0.26929 0.18259
# Poissons Ratio (z) = 0.13671 0.53896
#
# Static dielectric constant tensor:
#      x y z
#    x 3.141180 0.000000 0.000000 
#    y 0.000000 3.198910 0.000000 
#    z 0.000000 0.000000 2.980800 
# 
# 
# High freq. dielectric constant tensor:
#      x y z
#    x 1.640550 0.000000 0.000000 
#    y 0.000000 1.668140 0.000000 
#    z 0.000000 0.000000 1.636640 
# 
# From -- ./inp_files/33700.got.cif
#   From: 2010.03.12/outbox.cif.g09.slc.cpg/sg51_17_cif.got.tgz:33700.got - 2010.04.16 13:43:02.
