data_PCOD8206601
_publ_section_title
;
Structure prediction by ZEFSAII (Michael W. Deem and Ramdas Pophale) SiO2 
 PCOD8206601
Probable space group: P M M A
;
_chemical_formula_sum "Si O2"
_cell_formula_units_Z 64
_cell_length_a 9.327938
_cell_length_b 23.618446
_cell_length_c 18.808757
_cell_angle_alpha 90.000000
_cell_angle_beta 90.000000
_cell_angle_gamma 90.000000
_cell_volume 4143.783586
_symmetry_space_group_name_H-M "P M M A"
_symmetry_group_IT_number 51
_symmetry_cell_setting 'orthorhombic'
loop_
_space_group_symop_operation_xyz
x,y,z
1/2-x,-y,z
1/2+x,-y,-z
-x,y,-z
-x,-y,-z
1/2+x,y,-z
1/2-x,y,z
x,-y,z
loop_
_atom_site_type_symbol
_atom_site_label
_atom_site_fract_x
_atom_site_fract_y
_atom_site_fract_z
Si Si1 0.919114 0.888552 0.069897
Si Si2 0.085857 0.241985 0.933162
Si Si3 0.586597 0.063847 0.800567
Si Si4 0.913828 0.227027 0.570495
Si Si5 0.583380 0.564031 0.570342
Si Si6 0.582452 0.666949 0.664605
Si Si7 0.082054 0.270544 0.778060
Si Si8 0.585800 0.830334 0.711369
O O1 0.750000 0.898983 0.062168
O O2 0.957986 0.822858 0.082131
O O3 0.977701 0.923888 0.135983
O O4 0.000000 0.911192 0.000000
O O5 0.250000 0.245346 0.955394
O O6 0.054525 0.278495 0.862364
O O7 0.000000 0.267481 0.000000
O O8 0.750000 0.072631 0.827553
O O9 0.554745 0.105178 0.733971
O O10 0.562032 0.000000 0.773297
O O11 0.750000 0.230397 0.547237
O O12 0.961375 0.286411 0.605923
O O13 0.942615 0.176641 0.627082
O O14 0.000000 0.213586 0.500000
O O15 0.500000 0.582633 0.500000
O O16 0.750000 0.570365 0.552214
O O17 0.543667 0.500000 0.593052
O O18 0.540393 0.605163 0.635035
O O19 0.750000 0.671588 0.683028
O O20 0.493582 0.677723 0.736701
O O21 0.250000 0.270177 0.760518
O O22 0.017706 0.210460 0.755282
O O23 0.750000 0.812259 0.727912
#
# Coordination Sequence:
#
# PCOD8206601 Si02
#       8
#     8   8   8   8   8   8   8   8
#     4  10  19  32  47  65  88 114 144 178 215 257
#     4   9  18  29  43  64  88 114 144 175 212 262
#     4  10  20  33  49  66  83 109 145 181 218 263
#     4   9  17  28  43  64  86 110 139 174 215 259
#     4   9  17  29  45  65  93 129 166 198 224 257
#     4   9  18  30  43  64  93 123 154 184 220 261
#     4  10  18  29  45  67  90 113 146 184 221 260
#     4   9  18  32  47  63  86 112 139 174 219 269
#
# _framework density 15.444822
#
# number of rings (size 3 to 8) (size 9 to 14) (size 15 to 20)
#    0.000    2.625    1.250    1.875    0.000    4.500 
#    0.000    0.000    0.000    0.375    0.000    0.000 
#    0.000    0.500    0.000    1.125    0.000    2.000 
#
# Total GULP energy -793516.592253 kJ/mol
# GULP energy per Si atom -12398.696754 kJ/mol
# Density = 1.540967 g / cm^3
# Si number density = 15.444822 Si / 1000 Ang^3
#
#
#
# Elastic Constant Matrix: (Units=GPa)
#
#
# Indices 1 2 3 4 5 6 
#
# 1 67.7976 36.8439 53.9502 0.0000 0.0000 0.0000
# 2 36.8439 84.3592 54.5974 0.0000 0.0000 0.0000
# 3 53.9502 54.5974 107.8110 0.0000 0.0000 0.0000
# 4 0.0000 0.0000 0.0000 23.1129 0.0000 0.0000
# 5 0.0000 0.0000 0.0000 0.0000 30.7234 0.0000
# 6 0.0000 0.0000 0.0000 0.0000 0.0000 16.0206
#
#
#
# Elastic Compliance Matrix: (Units=1/GPa)
#
#
# Indices 1 2 3 4 5 6 
#
# 1 0.025509 -0.004283 -0.010596 0.000000 0.000000 0.000000
# 2 -0.004283 0.018353 -0.007151 0.000000 0.000000 0.000000
# 3 -0.010596 -0.007151 0.018199 0.000000 0.000000 0.000000
# 4 0.000000 0.000000 0.000000 0.043266 0.000000 0.000000
# 5 0.000000 0.000000 0.000000 0.000000 0.032548 0.000000
# 6 0.000000 0.000000 0.000000 0.000000 0.000000 0.062420
#
#
# Mechanical properties :
#
#
# Convention : Reuss Voigt Hill
#
# Bulk Modulus (GPa) = 55.55257 61.19456 58.37356
# Shear Modulus (GPa) = 19.97153 21.60979 20.79066
#
# Velocity S-wave (km/s) = 3.59986 3.74459 3.67294
# Velocity P-wave (km/s) = 7.30240 7.64221 7.47424
#
# Compressibility (1/GPa) = 0.01800097
#
# Stress axis : x y z
#
# Youngs Moduli (GPa) = 39.20111 54.48757 54.94756
#
# Poissons Ratio (x) = 0.23340 0.58223
# Poissons Ratio (y) = 0.16792 0.39291
# Poissons Ratio (z) = 0.41538 0.38962
#
# Static dielectric constant tensor:
#      x y z
#    x 2.982870 0.000000 0.000000 
#    y 0.000000 2.855630 0.000000 
#    z 0.000000 0.000000 2.960740 
# 
# 
# High freq. dielectric constant tensor:
#      x y z
#    x 1.599060 0.000000 0.000000 
#    y 0.000000 1.561620 0.000000 
#    z 0.000000 0.000000 1.584100 
# 
# From -- ./inp_files/28604.got.cif
#   From: 2010.03.12/outbox.cif.g09.slc.cpg/sg51_15_cif.got.tgz:28604.got - 2010.04.16 13:43:02.
