data_PCOD8206445
_publ_section_title
;
Structure prediction by ZEFSAII (Michael W. Deem and Ramdas Pophale) SiO2 
 PCOD8206445
Probable space group: P M M A
;
_chemical_formula_sum "Si O2"
_cell_formula_units_Z 64
_cell_length_a 28.733248
_cell_length_b 9.235191
_cell_length_c 15.614042
_cell_angle_alpha 90.000000
_cell_angle_beta 90.000000
_cell_angle_gamma 90.000000
_cell_volume 4143.295863
_symmetry_space_group_name_H-M "P M M A"
_symmetry_group_IT_number 51
_symmetry_cell_setting 'orthorhombic'
loop_
_space_group_symop_operation_xyz
x,y,z
1/2-x,-y,z
1/2+x,-y,-z
-x,y,-z
-x,-y,-z
1/2+x,y,-z
1/2-x,y,z
x,-y,z
loop_
_atom_site_type_symbol
_atom_site_label
_atom_site_fract_x
_atom_site_fract_y
_atom_site_fract_z
Si Si1 0.698567 0.333084 0.920183
Si Si2 0.049832 0.669764 0.323361
Si Si3 0.547013 0.827675 0.326947
Si Si4 0.944872 0.659647 0.490600
Si Si5 0.103972 0.170687 0.834562
Si Si6 0.446356 0.170783 0.004173
Si Si7 0.896287 0.332334 0.843862
Si Si8 0.801351 0.830212 0.094163
O O1 0.750000 0.292946 0.883613
O O2 0.696901 0.500000 0.947510
O O3 0.659074 0.298454 0.849616
O O4 0.687022 0.242802 0.004381
O O5 0.036144 0.500000 0.321302
O O6 0.073730 0.707751 0.415359
O O7 0.087140 0.711417 0.250989
O O8 0.003542 0.762659 0.308276
O O9 0.569079 0.772648 0.416658
O O10 0.581005 0.769128 0.252100
O O11 0.543241 0.000000 0.330126
O O12 0.925809 0.500000 0.465895
O O13 0.000000 0.654207 0.500000
O O14 0.158761 0.214845 0.837697
O O15 0.097525 0.000000 0.834570
O O16 0.078142 0.232910 0.918596
O O17 0.424449 0.241349 0.087523
O O18 0.439403 0.000000 0.012561
O O19 0.500000 0.214783 0.000000
O O20 0.906513 0.500000 0.862255
O O21 0.750000 0.784088 0.128442
O O22 0.803500 0.000000 0.076649
#
# Coordination Sequence:
#
# PCOD8206445 Si02
#       8
#     8   8   8   8   8   8   8   8
#     4   9  17  29  44  63  86 108 136 180 225 252
#     4   9  18  31  44  60  86 115 142 172 207 250
#     4  10  18  28  44  64  86 111 140 175 211 248
#     4   8  15  29  45  60  82 111 139 172 212 249
#     4   9  17  28  40  60  87 111 138 172 209 249
#     4  10  19  30  42  57  85 121 147 170 206 247
#     4  10  19  30  44  63  85 113 146 177 209 250
#     4   9  16  28  46  62  78 107 145 179 210 249
#
# _framework density 15.44664
#
# number of rings (size 3 to 8) (size 9 to 14) (size 15 to 20)
#    0.000    2.750    1.250    1.875    0.000    4.000 
#    0.000    2.500    0.000    0.000    0.000    0.875 
#    0.000    1.000    0.000    0.000    0.000    0.000 
#
# Total GULP energy -793186.738835 kJ/mol
# GULP energy per Si atom -12393.542794 kJ/mol
# Density = 1.541148 g / cm^3
# Si number density = 15.446640 Si / 1000 Ang^3
#
#
#
# Elastic Constant Matrix: (Units=GPa)
#
#
# Indices 1 2 3 4 5 6 
#
# 1 104.3878 33.6709 67.6620 0.0000 0.0000 0.0000
# 2 33.6709 37.3815 35.9143 0.0000 0.0000 0.0000
# 3 67.6620 35.9143 131.0955 0.0000 0.0000 0.0000
# 4 0.0000 0.0000 0.0000 23.2218 0.0000 0.0000
# 5 0.0000 0.0000 0.0000 0.0000 12.3527 0.0000
# 6 0.0000 0.0000 0.0000 0.0000 0.0000 10.5079
#
#
#
# Elastic Compliance Matrix: (Units=1/GPa)
#
#
# Indices 1 2 3 4 5 6 
#
# 1 0.016353 -0.008986 -0.005979 0.000000 0.000000 0.000000
# 2 -0.008986 0.041245 -0.006661 0.000000 0.000000 0.000000
# 3 -0.005979 -0.006661 0.012539 0.000000 0.000000 0.000000
# 4 0.000000 0.000000 0.000000 0.043063 0.000000 0.000000
# 5 0.000000 0.000000 0.000000 0.000000 0.080954 0.000000
# 6 0.000000 0.000000 0.000000 0.000000 0.000000 0.095167
#
#
# Mechanical properties :
#
#
# Convention : Reuss Voigt Hill
#
# Bulk Modulus (GPa) = 37.19535 60.81769 49.00652
# Shear Modulus (GPa) = 14.63977 18.25764 16.44871
#
# Velocity S-wave (km/s) = 3.08192 3.44173 3.26678
# Velocity P-wave (km/s) = 6.06601 7.43318 6.78412
#
# Compressibility (1/GPa) = 0.02688508
#
# Stress axis : x y z
#
# Youngs Moduli (GPa) = 61.14920 24.24519 79.75321
#
# Poissons Ratio (x) = 0.21787 0.47682
# Poissons Ratio (y) = 0.54950 0.53126
# Poissons Ratio (z) = 0.36559 0.16151
#
# Static dielectric constant tensor:
#      x y z
#    x 3.113360 0.000000 0.000000 
#    y 0.000000 2.884520 0.000000 
#    z 0.000000 0.000000 3.234930 
# 
# 
# High freq. dielectric constant tensor:
#      x y z
#    x 1.576880 0.000000 0.000000 
#    y 0.000000 1.584330 0.000000 
#    z 0.000000 0.000000 1.582730 
# 
# From -- ./inp_files/26564.got.cif
#   From: 2010.03.12/outbox.cif.g09.slc.cpg/sg51_14_cif.got.tgz:26564.got - 2010.04.16 13:43:02.
