data_PCOD8206121
_publ_section_title
;
Structure prediction by ZEFSAII (Michael W. Deem and Ramdas Pophale) SiO2 
 PCOD8206121
Probable space group: P M M A
;
_chemical_formula_sum "Si O2"
_cell_formula_units_Z 64
_cell_length_a 29.856996
_cell_length_b 8.874864
_cell_length_c 15.132340
_cell_angle_alpha 90.000000
_cell_angle_beta 90.000000
_cell_angle_gamma 90.000000
_cell_volume 4009.718711
_symmetry_space_group_name_H-M "P M M A"
_symmetry_group_IT_number 51
_symmetry_cell_setting 'orthorhombic'
loop_
_space_group_symop_operation_xyz
x,y,z
1/2-x,-y,z
1/2+x,-y,-z
-x,y,-z
-x,-y,-z
1/2+x,y,-z
1/2-x,y,z
x,-y,z
loop_
_atom_site_type_symbol
_atom_site_label
_atom_site_fract_x
_atom_site_fract_y
_atom_site_fract_z
Si Si1 0.944872 0.177352 0.865666
Si Si2 0.298983 0.822361 0.008961
Si Si3 0.037435 0.679022 0.826349
Si Si4 0.612856 0.323801 0.714408
Si Si5 0.700687 0.672239 0.806877
Si Si6 0.062060 0.677751 0.449229
Si Si7 0.894505 0.822268 0.045207
Si Si8 0.030835 0.321287 0.629220
O O1 0.919372 0.233292 0.779110
O O2 0.993498 0.253318 0.872866
O O3 0.951809 0.000000 0.859879
O O4 0.916169 0.223137 0.951464
O O5 0.250000 0.758972 0.975698
O O6 0.307626 0.775731 0.109256
O O7 0.297426 0.000000 0.007573
O O8 0.342026 0.769581 0.952112
O O9 0.033766 0.500000 0.829446
O O10 0.081533 0.732184 0.877209
O O11 0.042641 0.742693 0.726022
O O12 0.601925 0.500000 0.728004
O O13 0.664647 0.285386 0.732210
O O14 0.604022 0.274914 0.612271
O O15 0.750000 0.699852 0.766131
O O16 0.694899 0.500000 0.838013
O O17 0.057591 0.500000 0.455888
O O18 0.065030 0.736697 0.551228
O O19 0.017939 0.738616 0.399349
O O20 0.899296 0.000000 0.061630
O O21 0.031561 0.500000 0.636381
#
# Coordination Sequence:
#
# PCOD8206121 Si02
#       8
#     8   8   8   8   8   8   8   8
#     4  11  21  32  44  62  92 125 151 181 219 259
#     4   9  17  31  49  65  84 115 153 184 214 264
#     4  11  21  32  47  66  87 118 158 191 218 260
#     4  10  17  27  46  67  88 117 152 179 212 264
#     4   9  17  27  41  65  94 116 138 178 224 260
#     4   8  13  24  43  64  85 110 141 181 218 254
#     4  10  21  34  45  63  90 121 151 182 224 264
#     4   8  14  25  42  64  86 107 143 186 219 252
#
# _framework density 15.961219
#
# number of rings (size 3 to 8) (size 9 to 14) (size 15 to 20)
#    0.000    2.500    2.500    1.875    0.000    3.000 
#    0.000    0.000    0.000    2.250    0.000    0.875 
#    0.000    3.000    0.000    0.000    0.000    0.000 
#
# Total GULP energy -792983.374200 kJ/mol
# GULP energy per Si atom -12390.365222 kJ/mol
# Density = 1.592489 g / cm^3
# Si number density = 15.961219 Si / 1000 Ang^3
#
#
#
# Elastic Constant Matrix: (Units=GPa)
#
#
# Indices 1 2 3 4 5 6 
#
# 1 128.6322 27.1862 57.3038 0.0000 0.0000 0.0000
# 2 27.1862 20.7606 25.3444 0.0000 0.0000 0.0000
# 3 57.3038 25.3444 91.4519 0.0000 0.0000 0.0000
# 4 0.0000 0.0000 0.0000 2.6837 0.0000 0.0000
# 5 0.0000 0.0000 0.0000 0.0000 20.3220 0.0000
# 6 0.0000 0.0000 0.0000 0.0000 0.0000 18.5483
#
#
#
# Elastic Compliance Matrix: (Units=1/GPa)
#
#
# Indices 1 2 3 4 5 6 
#
# 1 0.011987 -0.009866 -0.004777 0.000000 0.000000 0.000000
# 2 -0.009866 0.080917 -0.016243 0.000000 0.000000 0.000000
# 3 -0.004777 -0.016243 0.018430 0.000000 0.000000 0.000000
# 4 0.000000 0.000000 0.000000 0.372627 0.000000 0.000000
# 5 0.000000 0.000000 0.000000 0.000000 0.049208 0.000000
# 6 0.000000 0.000000 0.000000 0.000000 0.000000 0.053913
#
#
# Mechanical properties :
#
#
# Convention : Reuss Voigt Hill
#
# Bulk Modulus (GPa) = 20.17672 51.16818 35.67245
# Shear Modulus (GPa) = 7.51458 17.04480 12.27969
#
# Velocity S-wave (km/s) = 2.17215 3.27140 2.77672
# Velocity P-wave (km/s) = 4.35425 6.81152 5.71648
#
# Compressibility (1/GPa) = 0.04956207
#
# Stress axis : x y z
#
# Youngs Moduli (GPa) = 83.42137 12.35840 54.26060
#
# Poissons Ratio (x) = 0.12192 0.25921
# Poissons Ratio (y) = 0.82300 0.88135
# Poissons Ratio (z) = 0.39852 0.20074
#
# Static dielectric constant tensor:
#      x y z
#    x 3.327160 0.000000 0.000000 
#    y 0.000000 2.830560 0.000000 
#    z 0.000000 0.000000 3.189470 
# 
# 
# High freq. dielectric constant tensor:
#      x y z
#    x 1.605900 0.000000 0.000000 
#    y 0.000000 1.593050 0.000000 
#    z 0.000000 0.000000 1.597260 
# 
# From -- ./inp_files/26688.got.cif
#   From: 2010.03.12/outbox.cif.g09.slc.cpg/sg51_14_cif.got.tgz:26688.got - 2010.04.16 13:43:02.
