data_PCOD8206922
_publ_section_title
;
Structure prediction by ZEFSAII (Michael W. Deem and Ramdas Pophale) SiO2 
 PCOD8206922
Probable space group: P M M A
;
_chemical_formula_sum "Si O2"
_cell_formula_units_Z 48
_cell_length_a 14.448699
_cell_length_b 11.796547
_cell_length_c 14.378854
_cell_angle_alpha 90.000000
_cell_angle_beta 90.000000
_cell_angle_gamma 90.000000
_cell_volume 2450.800274
_symmetry_space_group_name_H-M "P M M A"
_symmetry_group_IT_number 51
_symmetry_cell_setting 'orthorhombic'
loop_
_space_group_symop_operation_xyz
x,y,z
1/2-x,-y,z
1/2+x,-y,-z
-x,y,-z
-x,-y,-z
1/2+x,y,-z
1/2-x,y,z
x,-y,z
loop_
_atom_site_type_symbol
_atom_site_label
_atom_site_fract_x
_atom_site_fract_y
_atom_site_fract_z
Si Si1 0.516572 0.368318 0.104100
Si Si2 0.360776 0.247655 0.750397
Si Si3 0.143263 0.628567 0.241652
Si Si4 0.408889 0.368055 0.562633
Si Si5 0.350964 0.772453 0.407963
Si Si6 0.138368 0.000000 0.485706
Si Si7 0.641256 0.000000 0.306866
O O1 0.546128 0.500000 0.105444
O O2 0.597812 0.297684 0.154112
O O3 0.417181 0.348485 0.151285
O O4 0.500000 0.323666 0.000000
O O5 0.250000 0.266292 0.748199
O O6 0.409434 0.313309 0.664793
O O7 0.388204 0.114406 0.747298
O O8 0.250000 0.655591 0.217591
O O9 0.132546 0.500000 0.277163
O O10 0.099315 0.703995 0.324861
O O11 0.500000 0.344082 0.500000
O O12 0.386675 0.500000 0.573512
O O13 0.333240 0.304143 0.500073
O O14 0.250000 0.803303 0.369159
O O15 0.402518 0.889775 0.432924
O O16 0.097668 0.000000 0.589840
O O17 0.250000 0.000000 0.487695
O O18 0.750000 0.000000 0.319397
#
# Coordination Sequence:
#
# PCOD8206922 Si02
#       7
#     8   8   8   8   8   4   4
#     4  10  22  40  60  84 114 144 183 243 304 354
#     4  11  22  38  61  86 115 154 199 243 291 349
#     4   9  18  34  56  80 109 148 188 227 283 350
#     4  11  22  33  47  73 113 152 184 225 273 326
#     4  10  18  30  50  74 103 139 178 217 260 317
#     4   9  16  30  50  74 107 146 183 221 263 311
#     4   9  18  36  57  80 115 156 196 239 284 334
#
# _framework density 19.585439000000001
#
# number of rings (size 3 to 8) (size 9 to 14) (size 15 to 20)
#    0.000    2.000    1.667    2.500    0.000    6.333 
#    0.000    6.250    0.000    0.000    0.000    3.500 
#    0.000    0.000    0.000    0.000    0.000    0.000 
#
# Total GULP energy -594874.933552 kJ/mol
# GULP energy per Si atom -12393.227782 kJ/mol
# Density = 1.954086 g / cm^3
# Si number density = 19.585439 Si / 1000 Ang^3
#
#
#
# Elastic Constant Matrix: (Units=GPa)
#
#
# Indices 1 2 3 4 5 6 
#
# 1 65.2120 40.0264 36.0909 0.0000 0.0000 0.0000
# 2 40.0264 156.4540 78.6155 0.0000 0.0000 0.0000
# 3 36.0909 78.6155 155.4233 0.0000 0.0000 0.0000
# 4 0.0000 0.0000 0.0000 18.1351 0.0000 0.0000
# 5 0.0000 0.0000 0.0000 0.0000 25.7633 0.0000
# 6 0.0000 0.0000 0.0000 0.0000 0.0000 16.2478
#
#
#
# Elastic Compliance Matrix: (Units=1/GPa)
#
#
# Indices 1 2 3 4 5 6 
#
# 1 0.018950 -0.003536 -0.002612 0.000000 0.000000 0.000000
# 2 -0.003536 0.009229 -0.003847 0.000000 0.000000 0.000000
# 3 -0.002612 -0.003847 0.008987 0.000000 0.000000 0.000000
# 4 0.000000 0.000000 0.000000 0.055142 0.000000 0.000000
# 5 0.000000 0.000000 0.000000 0.000000 0.038815 0.000000
# 6 0.000000 0.000000 0.000000 0.000000 0.000000 0.061547
#
#
# Mechanical properties :
#
#
# Convention : Reuss Voigt Hill
#
# Bulk Modulus (GPa) = 58.21994 76.28389 67.25192
# Shear Modulus (GPa) = 22.89529 26.85301 24.87415
#
# Velocity S-wave (km/s) = 3.42277 3.70681 3.56762
# Velocity P-wave (km/s) = 6.73878 7.57327 7.16818
#
# Compressibility (1/GPa) = 0.01717625
#
# Stress axis : x y z
#
# Youngs Moduli (GPa) = 52.76946 108.34900 111.27602
#
# Poissons Ratio (x) = 0.38308 0.29066
# Poissons Ratio (y) = 0.18657 0.42812
# Poissons Ratio (z) = 0.13784 0.41686
#
# Static dielectric constant tensor:
#      x y z
#    x 3.482170 0.000000 0.000000 
#    y 0.000000 3.784190 0.000000 
#    z 0.000000 0.000000 3.434330 
# 
# 
# High freq. dielectric constant tensor:
#      x y z
#    x 1.763410 0.000000 0.000000 
#    y 0.000000 1.764690 0.000000 
#    z 0.000000 0.000000 1.738450 
# 
# From -- ./inp_files/24078.got.cif
#   From: 2010.03.12/outbox.cif.g09.slc.cpg/sg51_13_cif.got.tgz:24078.got - 2010.04.16 13:43:02.
