data_PCOD8206835
_publ_section_title
;
Structure prediction by ZEFSAII (Michael W. Deem and Ramdas Pophale) SiO2 
 PCOD8206835
Probable space group: P M M A
;
_chemical_formula_sum "Si O2"
_cell_formula_units_Z 64
_cell_length_a 13.336569
_cell_length_b 14.196262
_cell_length_c 18.433730
_cell_angle_alpha 90.000000
_cell_angle_beta 90.000000
_cell_angle_gamma 90.000000
_cell_volume 3490.047551
_symmetry_space_group_name_H-M "P M M A"
_symmetry_group_IT_number 51
_symmetry_cell_setting 'orthorhombic'
loop_
_space_group_symop_operation_xyz
x,y,z
1/2-x,-y,z
1/2+x,-y,-z
-x,y,-z
-x,-y,-z
1/2+x,y,-z
1/2-x,y,z
x,-y,z
loop_
_atom_site_type_symbol
_atom_site_label
_atom_site_fract_x
_atom_site_fract_y
_atom_site_fract_z
Si Si1 0.867992 0.603022 0.455579
Si Si2 0.134895 0.609460 0.382205
Si Si3 0.630928 0.897900 0.107680
Si Si4 0.544994 0.288028 0.325223
Si Si5 0.867831 0.707696 0.044185
Si Si6 0.363139 0.391787 0.098407
Si Si7 0.946542 0.392089 0.182350
Si Si8 0.133263 0.893246 0.726313
O O1 0.750000 0.600070 0.466593
O O2 0.906640 0.500000 0.429496
O O3 0.910266 0.624659 0.536500
O O4 0.895692 0.679477 0.396216
O O5 0.250000 0.640852 0.375318
O O6 0.122565 0.500000 0.358856
O O7 0.070697 0.678759 0.330797
O O8 0.750000 0.897512 0.104654
O O9 0.587075 0.812240 0.059711
O O10 0.598057 0.883420 0.190688
O O11 0.590970 0.000000 0.079527
O O12 0.590299 0.332939 0.251697
O O13 0.561750 0.175640 0.320676
O O14 0.750000 0.713181 0.032632
O O15 0.886694 0.638436 0.111097
O O16 0.911369 0.668557 0.968027
O O17 0.250000 0.360659 0.119332
O O18 0.364385 0.500000 0.072809
O O19 0.434174 0.376884 0.168020
O O20 0.921221 0.500000 0.198714
O O21 0.250000 0.864795 0.717155
O O22 0.116266 0.000000 0.698817
#
# Coordination Sequence:
#
# PCOD8206835 Si02
#       8
#     8   8   8   8   8   8   8   8
#     4   9  18  32  50  75 108 139 164 197 248 309
#     4   9  19  35  52  72 103 144 181 206 236 290
#     4   8  14  27  47  69  93 121 155 197 246 300
#     4  12  20  30  52  78 100 129 169 214 253 294
#     4  10  18  30  48  68  92 125 161 197 243 299
#     4   9  19  35  50  62  86 131 175 202 233 286
#     4  11  22  31  43  70 102 127 156 201 249 291
#     4   9  18  33  51  73 104 136 164 201 257 322
#
# _framework density 18.337857
#
# number of rings (size 3 to 8) (size 9 to 14) (size 15 to 20)
#    0.000    2.375    1.250    4.125    0.000    3.750 
#    0.000    1.250    0.000    4.125    0.000    1.750 
#    0.000    0.000    0.000    0.000    0.000    0.125 
#
# Total GULP energy -793321.905189 kJ/mol
# GULP energy per Si atom -12395.654769 kJ/mol
# Density = 1.829612 g / cm^3
# Si number density = 18.337857 Si / 1000 Ang^3
#
#
#
# Elastic Constant Matrix: (Units=GPa)
#
#
# Indices 1 2 3 4 5 6 
#
# 1 24.1894 23.6480 6.6513 0.0000 0.0000 0.0000
# 2 23.6480 118.0038 36.8538 0.0000 0.0000 0.0000
# 3 6.6513 36.8538 57.1456 0.0000 0.0000 0.0000
# 4 0.0000 0.0000 0.0000 22.5231 0.0000 0.0000
# 5 0.0000 0.0000 0.0000 0.0000 19.6402 0.0000
# 6 0.0000 0.0000 0.0000 0.0000 0.0000 22.8667
#
#
#
# Elastic Compliance Matrix: (Units=1/GPa)
#
#
# Indices 1 2 3 4 5 6 
#
# 1 0.051444 -0.010568 0.000828 0.000000 0.000000 0.000000
# 2 -0.010568 0.012783 -0.007014 0.000000 0.000000 0.000000
# 3 0.000828 -0.007014 0.021926 0.000000 0.000000 0.000000
# 4 0.000000 0.000000 0.000000 0.044399 0.000000 0.000000
# 5 0.000000 0.000000 0.000000 0.000000 0.050916 0.000000
# 6 0.000000 0.000000 0.000000 0.000000 0.000000 0.043732
#
#
# Mechanical properties :
#
#
# Convention : Reuss Voigt Hill
#
# Bulk Modulus (GPa) = 18.99511 37.07163 28.03337
# Shear Modulus (GPa) = 18.09919 21.81837 19.95878
#
# Velocity S-wave (km/s) = 3.14504 3.45309 3.30266
# Velocity P-wave (km/s) = 4.85482 6.01317 5.46477
#
# Compressibility (1/GPa) = 0.05264514
#
# Stress axis : x y z
#
# Youngs Moduli (GPa) = 19.43851 78.23175 45.60805
#
# Poissons Ratio (x) = 0.82675 -0.03775
# Poissons Ratio (y) = 0.20543 0.31988
# Poissons Ratio (z) = -0.01609 0.54868
#
# Static dielectric constant tensor:
#      x y z
#    x 3.292110 0.000000 0.000000 
#    y 0.000000 3.504720 0.000000 
#    z 0.000000 0.000000 3.253160 
# 
# 
# High freq. dielectric constant tensor:
#      x y z
#    x 1.703370 0.000000 0.000000 
#    y 0.000000 1.693210 0.000000 
#    z 0.000000 0.000000 1.699410 
# 
# From -- ./inp_files/29997.got.cif
#   From: 2010.03.12/outbox.cif.g09.slc.cpg/sg51_15_cif.got.tgz:29997.got - 2010.04.16 13:43:02.
