data_PCOD8206656
_publ_section_title
;
Structure prediction by ZEFSAII (Michael W. Deem and Ramdas Pophale) SiO2 
 PCOD8206656
Probable space group: P M M A
;
_chemical_formula_sum "Si O2"
_cell_formula_units_Z 64
_cell_length_a 9.096653
_cell_length_b 23.499938
_cell_length_c 18.785615
_cell_angle_alpha 90.000000
_cell_angle_beta 90.000000
_cell_angle_gamma 90.000000
_cell_volume 4015.815600
_symmetry_space_group_name_H-M "P M M A"
_symmetry_group_IT_number 51
_symmetry_cell_setting 'orthorhombic'
loop_
_space_group_symop_operation_xyz
x,y,z
1/2-x,-y,z
1/2+x,-y,-z
-x,y,-z
-x,-y,-z
1/2+x,y,-z
1/2-x,y,z
x,-y,z
loop_
_atom_site_type_symbol
_atom_site_label
_atom_site_fract_x
_atom_site_fract_y
_atom_site_fract_z
Si Si1 0.580517 0.165422 0.196168
Si Si2 0.421266 0.111152 0.428645
Si Si3 0.577617 0.243449 0.572021
Si Si4 0.078747 0.224216 0.074838
Si Si5 0.581829 0.935361 0.295349
Si Si6 0.578438 0.435818 0.928076
Si Si7 0.078895 0.274577 0.710426
Si Si8 0.579310 0.666962 0.832303
O O1 0.750000 0.167098 0.172517
O O2 0.481561 0.174993 0.126738
O O3 0.534997 0.104985 0.229912
O O4 0.547734 0.213323 0.255019
O O5 0.500000 0.089511 0.500000
O O6 0.250000 0.099586 0.437588
O O7 0.456335 0.177179 0.415055
O O8 0.480121 0.074722 0.363155
O O9 0.500000 0.264496 0.500000
O O10 0.750000 0.255945 0.566867
O O11 0.508267 0.278927 0.636576
O O12 0.250000 0.214178 0.063324
O O13 0.043869 0.285616 0.108459
O O14 0.000000 0.219615 0.000000
O O15 0.750000 0.921778 0.317200
O O16 0.562752 0.000000 0.269182
O O17 0.750000 0.430916 0.943565
O O18 0.532375 0.500000 0.906640
O O19 0.533155 0.394136 0.864009
O O20 0.500000 0.416072 0.000000
O O21 0.250000 0.284957 0.696041
O O22 0.018339 0.323662 0.762346
O O23 0.750000 0.669339 0.810463
#
# Coordination Sequence:
#
# PCOD8206656 Si02
#       8
#     8   8   8   8   8   8   8   8
#     4   9  18  32  48  66  89 114 143 179 223 275
#     4  10  20  32  48  67  90 119 151 186 222 265
#     4  10  19  30  46  67  92 122 153 186 226 273
#     4  10  19  30  47  69  92 117 145 182 227 271
#     4  10  20  34  51  68  88 115 147 185 227 272
#     4   9  17  29  45  65  93 131 169 201 232 267
#     4  10  18  29  47  68  91 120 152 189 231 274
#     4   9  18  30  44  66  96 126 157 193 229 269
#
# _framework density 15.936987
#
# number of rings (size 3 to 8) (size 9 to 14) (size 15 to 20)
#    0.000    2.375    1.250    1.875    0.000    3.500 
#    0.000    0.000    0.000    0.375    0.000    0.000 
#    0.000    0.500    0.000    1.375    0.000    2.000 
#
# Total GULP energy -793788.905737 kJ/mol
# GULP energy per Si atom -12402.951652 kJ/mol
# Density = 1.590071 g / cm^3
# Si number density = 15.936987 Si / 1000 Ang^3
#
#
#
# Elastic Constant Matrix: (Units=GPa)
#
#
# Indices 1 2 3 4 5 6 
#
# 1 79.8070 34.9570 62.9457 0.0000 0.0000 0.0000
# 2 34.9570 76.2582 50.6699 0.0000 0.0000 0.0000
# 3 62.9457 50.6699 120.1266 0.0000 0.0000 0.0000
# 4 0.0000 0.0000 0.0000 22.6949 0.0000 0.0000
# 5 0.0000 0.0000 0.0000 0.0000 33.8270 0.0000
# 6 0.0000 0.0000 0.0000 0.0000 0.0000 17.9828
#
#
#
# Elastic Compliance Matrix: (Units=1/GPa)
#
#
# Indices 1 2 3 4 5 6 
#
# 1 0.021961 -0.003363 -0.010089 0.000000 0.000000 0.000000
# 2 -0.003363 0.018735 -0.006140 0.000000 0.000000 0.000000
# 3 -0.010089 -0.006140 0.016201 0.000000 0.000000 0.000000
# 4 0.000000 0.000000 0.000000 0.044063 0.000000 0.000000
# 5 0.000000 0.000000 0.000000 0.000000 0.029562 0.000000
# 6 0.000000 0.000000 0.000000 0.000000 0.000000 0.055609
#
#
# Mechanical properties :
#
#
# Convention : Reuss Voigt Hill
#
# Bulk Modulus (GPa) = 56.45808 63.70410 60.08109
# Shear Modulus (GPa) = 21.62462 23.40888 22.51675
#
# Velocity S-wave (km/s) = 3.68758 3.83670 3.76288
# Velocity P-wave (km/s) = 7.32351 7.72569 7.52729
#
# Compressibility (1/GPa) = 0.01771226
#
# Stress axis : x y z
#
# Youngs Moduli (GPa) = 45.53619 53.37623 61.72547
#
# Poissons Ratio (x) = 0.17953 0.62272
# Poissons Ratio (y) = 0.15316 0.37900
# Poissons Ratio (z) = 0.45939 0.32773
#
# Static dielectric constant tensor:
#      x y z
#    x 3.083150 0.000000 0.000000 
#    y 0.000000 2.905030 0.000000 
#    z 0.000000 0.000000 2.956020 
# 
# 
# High freq. dielectric constant tensor:
#      x y z
#    x 1.622590 0.000000 0.000000 
#    y 0.000000 1.580500 0.000000 
#    z 0.000000 0.000000 1.606270 
# 
# From -- ./inp_files/28572.got.cif
#   From: 2010.03.12/outbox.cif.g09.slc.cpg/sg51_15_cif.got.tgz:28572.got - 2010.04.16 13:43:02.
