data_PCOD8206201
_publ_section_title
;
Structure prediction by ZEFSAII (Michael W. Deem and Ramdas Pophale) SiO2 
 PCOD8206201
Probable space group: P M M A
;
_chemical_formula_sum "Si O2"
_cell_formula_units_Z 40
_cell_length_a 15.366510
_cell_length_b 14.155300
_cell_length_c 10.360000
_cell_angle_alpha 90.000000
_cell_angle_beta 90.000000
_cell_angle_gamma 90.000000
_cell_volume 2253.481911
_symmetry_space_group_name_H-M "P M M A"
_symmetry_group_IT_number 51
_symmetry_cell_setting 'orthorhombic'
loop_
_space_group_symop_operation_xyz
x,y,z
1/2-x,-y,z
1/2+x,-y,-z
-x,y,-z
-x,-y,-z
1/2+x,y,-z
1/2-x,y,z
x,-y,z
loop_
_atom_site_type_symbol
_atom_site_label
_atom_site_fract_x
_atom_site_fract_y
_atom_site_fract_z
Si Si1 0.510723 0.756562 0.357391
Si Si2 0.598373 0.391817 0.001532
Si Si3 0.650872 0.607696 0.292243
Si Si4 0.153863 0.739703 0.213956
Si Si5 0.468426 0.890652 0.145147
O O1 0.500000 0.801412 0.500000
O O2 0.586065 0.678316 0.364852
O O3 0.418065 0.707351 0.319590
O O4 0.531850 0.838161 0.250384
O O5 0.596881 0.500000 0.956250
O O6 0.641182 0.378965 0.139862
O O7 0.500000 0.350394 0.000000
O O8 0.656849 0.335020 0.901608
O O9 0.750000 0.631606 0.331467
O O10 0.627587 0.500000 0.331052
O O11 0.250000 0.745674 0.275999
O O12 0.127122 0.843423 0.158420
O O13 0.463707 0.000000 0.181388
O O14 0.500000 0.874212 0.000000
#
# Coordination Sequence:
#
# PCOD8206201 Si02
#       5
#     8   8   8   8   8
#     4  10  22  37  55  82 112 149 183 230 274 326
#     4  10  17  30  53  80 111 142 179 226 274 322
#     4  10  20  34  55  80 109 149 188 225 276 329
#     4  10  20  33  53  82 110 144 184 224 276 326
#     4   9  19  37  60  83 109 142 182 228 282 331
#
# _framework density 17.750308
#
# number of rings (size 3 to 8) (size 9 to 14) (size 15 to 20)
#    1.200    1.000    2.000    2.400    0.000    3.200 
#    0.000    0.000    0.000    1.800    0.000    0.000 
#    0.000    0.000    0.000    0.000    0.000    0.000 
#
# Total GULP energy -495666.052145 kJ/mol
# GULP energy per Si atom -12391.651304 kJ/mol
# Density = 1.770991 g / cm^3
# Si number density = 17.750308 Si / 1000 Ang^3
#
#
#
# Elastic Constant Matrix: (Units=GPa)
#
#
# Indices 1 2 3 4 5 6 
#
# 1 114.0482 39.0817 22.7448 0.0000 0.0000 0.0000
# 2 39.0817 95.9292 42.3859 0.0000 0.0000 0.0000
# 3 22.7448 42.3859 94.5158 0.0000 0.0000 0.0000
# 4 0.0000 0.0000 0.0000 11.8004 0.0000 0.0000
# 5 0.0000 0.0000 0.0000 0.0000 9.0936 0.0000
# 6 0.0000 0.0000 0.0000 0.0000 0.0000 11.3187
#
#
#
# Elastic Compliance Matrix: (Units=1/GPa)
#
#
# Indices 1 2 3 4 5 6 
#
# 1 0.010232 -0.003842 -0.000739 0.000000 0.000000 0.000000
# 2 -0.003842 0.014443 -0.005552 0.000000 0.000000 0.000000
# 3 -0.000739 -0.005552 0.013248 0.000000 0.000000 0.000000
# 4 0.000000 0.000000 0.000000 0.084743 0.000000 0.000000
# 5 0.000000 0.000000 0.000000 0.000000 0.109967 0.000000
# 6 0.000000 0.000000 0.000000 0.000000 0.000000 0.088349
#
#
# Mechanical properties :
#
#
# Convention : Reuss Voigt Hill
#
# Bulk Modulus (GPa) = 56.63869 56.99090 56.81479
# Shear Modulus (GPa) = 14.40361 19.79460 17.09910
#
# Velocity S-wave (km/s) = 2.85170 3.34304 3.10710
# Velocity P-wave (km/s) = 6.54376 6.86133 6.70443
#
# Compressibility (1/GPa) = 0.01765578
#
# Stress axis : x y z
#
# Youngs Moduli (GPa) = 97.73051 69.23838 75.48208
#
# Poissons Ratio (x) = 0.26601 0.05581
# Poissons Ratio (y) = 0.37547 0.41911
# Poissons Ratio (z) = 0.07226 0.38444
#
# Static dielectric constant tensor:
#      x y z
#    x 3.241900 0.000000 0.000000 
#    y 0.000000 3.169590 0.000000 
#    z 0.000000 0.000000 3.061320 
# 
# 
# High freq. dielectric constant tensor:
#      x y z
#    x 1.676420 0.000000 0.000000 
#    y 0.000000 1.673760 0.000000 
#    z 0.000000 0.000000 1.673100 
# 
# From -- ./inp_files/16287.got.cif
#   From: 2010.03.12/outbox.cif.g09.slc.cpg/sg51_9_cif.got.tgz:16287.got - 2010.04.16 13:43:02.
