data_PCOD8206425
_publ_section_title
;
Structure prediction by ZEFSAII (Michael W. Deem and Ramdas Pophale) SiO2 
 PCOD8206425
Probable space group: P M M A
;
_chemical_formula_sum "Si O2"
_cell_formula_units_Z 56
_cell_length_a 8.927168
_cell_length_b 18.560837
_cell_length_c 21.343914
_cell_angle_alpha 90.000000
_cell_angle_beta 90.000000
_cell_angle_gamma 90.000000
_cell_volume 3536.594987
_symmetry_space_group_name_H-M "P M M A"
_symmetry_group_IT_number 51
_symmetry_cell_setting 'orthorhombic'
loop_
_space_group_symop_operation_xyz
x,y,z
1/2-x,-y,z
1/2+x,-y,-z
-x,y,-z
-x,-y,-z
1/2+x,y,-z
1/2-x,y,z
x,-y,z
loop_
_atom_site_type_symbol
_atom_site_label
_atom_site_fract_x
_atom_site_fract_y
_atom_site_fract_z
Si Si1 0.575901 0.918425 0.182278
Si Si2 0.073391 0.664471 0.322054
Si Si3 0.074022 0.417561 0.565544
Si Si4 0.578491 0.281771 0.857509
Si Si5 0.578613 0.847993 0.935762
Si Si6 0.075959 0.421648 0.199656
Si Si7 0.422577 0.785499 0.743722
O O1 0.750000 0.910274 0.164821
O O2 0.483950 0.894171 0.121578
O O3 0.539510 0.870213 0.244414
O O4 0.532576 0.000000 0.199506
O O5 0.250000 0.661442 0.332152
O O6 0.017544 0.616417 0.263156
O O7 0.992602 0.635469 0.383157
O O8 0.023092 0.747632 0.309981
O O9 0.250000 0.405382 0.560083
O O10 0.035123 0.500000 0.583574
O O11 0.000000 0.396591 0.500000
O O12 0.750000 0.270454 0.831929
O O13 0.559532 0.238548 0.922647
O O14 0.546666 0.368311 0.860181
O O15 0.457091 0.250288 0.810392
O O16 0.750000 0.869231 0.943610
O O17 0.500000 0.868980 0.000000
O O18 0.250000 0.435240 0.208162
O O19 0.997133 0.500000 0.189535
O O20 0.250000 0.773759 0.725754
#
# Coordination Sequence:
#
# PCOD8206425 Si02
#       7
#     8   8   8   8   8   8   8
#     4   9  18  32  48  66  89 114 138 169 213 262
#     4  10  18  28  43  63  89 119 151 183 214 255
#     4  10  20  32  45  63  90 124 160 195 229 262
#     4   8  15  27  41  58  79 103 134 172 213 257
#     4  10  19  30  44  61  81 108 142 175 208 252
#     4   8  13  22  39  61  80 100 131 172 214 252
#     4   9  16  27  44  64  85 110 140 174 213 256
#
# _framework density 15.834440000000001
#
# number of rings (size 3 to 8) (size 9 to 14) (size 15 to 20)
#    0.000    2.857    0.000    3.000    0.000    3.143 
#    0.000    0.000    0.000    4.286    0.000    0.000 
#    0.000    0.571    0.000    1.571    0.000    3.571 
#
# Total GULP energy -693767.259037 kJ/mol
# GULP energy per Si atom -12388.701054 kJ/mol
# Density = 1.579840 g / cm^3
# Si number density = 15.834440 Si / 1000 Ang^3
#
#
#
# Elastic Constant Matrix: (Units=GPa)
#
#
# Indices 1 2 3 4 5 6 
#
# 1 60.1902 36.0894 29.6224 0.0000 0.0000 0.0000
# 2 36.0894 123.1291 41.5585 0.0000 0.0000 0.0000
# 3 29.6224 41.5585 55.0302 0.0000 0.0000 0.0000
# 4 0.0000 0.0000 0.0000 18.0912 0.0000 0.0000
# 5 0.0000 0.0000 0.0000 0.0000 21.4055 0.0000
# 6 0.0000 0.0000 0.0000 0.0000 0.0000 18.3988
#
#
#
# Elastic Compliance Matrix: (Units=1/GPa)
#
#
# Indices 1 2 3 4 5 6 
#
# 1 0.023700 -0.003544 -0.010081 0.000000 0.000000 0.000000
# 2 -0.003544 0.011430 -0.006724 0.000000 0.000000 0.000000
# 3 -0.010081 -0.006724 0.028677 0.000000 0.000000 0.000000
# 4 0.000000 0.000000 0.000000 0.055276 0.000000 0.000000
# 5 0.000000 0.000000 0.000000 0.000000 0.046717 0.000000
# 6 0.000000 0.000000 0.000000 0.000000 0.000000 0.054351
#
#
# Mechanical properties :
#
#
# Convention : Reuss Voigt Hill
#
# Bulk Modulus (GPa) = 43.27512 50.32115 46.79813
# Shear Modulus (GPa) = 18.61834 20.31770 19.46802
#
# Velocity S-wave (km/s) = 3.43273 3.58597 3.51019
# Velocity P-wave (km/s) = 6.56511 6.99958 6.78582
#
# Compressibility (1/GPa) = 0.02310797
#
# Stress axis : x y z
#
# Youngs Moduli (GPa) = 42.19327 87.49066 34.87169
#
# Poissons Ratio (x) = 0.31006 0.35156
# Poissons Ratio (y) = 0.14953 0.23448
# Poissons Ratio (z) = 0.42537 0.58829
#
# Static dielectric constant tensor:
#      x y z
#    x 2.997440 0.000000 0.000000 
#    y 0.000000 3.406700 0.000000 
#    z 0.000000 0.000000 2.766300 
# 
# 
# High freq. dielectric constant tensor:
#      x y z
#    x 1.609810 0.000000 0.000000 
#    y 0.000000 1.606720 0.000000 
#    z 0.000000 0.000000 1.566680 
# 
# From -- ./inp_files/32508.got.cif
#   From: 2010.03.12/outbox.cif.g09.slc.cpg/sg51_17_cif.got.tgz:32508.got - 2010.04.16 13:43:02.
