data_PCOD8206045
_publ_section_title
;
Structure prediction by ZEFSAII (Michael W. Deem and Ramdas Pophale) SiO2 
 PCOD8206045
Probable space group: P M M A
;
_chemical_formula_sum "Si O2"
_cell_formula_units_Z 48
_cell_length_a 20.231472
_cell_length_b 8.837584
_cell_length_c 15.301755
_cell_angle_alpha 90.000000
_cell_angle_beta 90.000000
_cell_angle_gamma 90.000000
_cell_volume 2735.912988
_symmetry_space_group_name_H-M "P M M A"
_symmetry_group_IT_number 51
_symmetry_cell_setting 'orthorhombic'
loop_
_space_group_symop_operation_xyz
x,y,z
1/2-x,-y,z
1/2+x,-y,-z
-x,y,-z
-x,-y,-z
1/2+x,y,-z
1/2-x,y,z
x,-y,z
loop_
_atom_site_type_symbol
_atom_site_label
_atom_site_fract_x
_atom_site_fract_y
_atom_site_fract_z
Si Si1 0.442310 0.676743 0.405211
Si Si2 0.607401 0.321824 0.256263
Si Si3 0.541172 0.326079 0.785711
Si Si4 0.431867 0.821508 0.039914
Si Si5 0.915384 0.820934 0.429449
Si Si6 0.674528 0.175253 0.098200
O O1 0.455046 0.500000 0.423761
O O2 0.418250 0.699363 0.305065
O O3 0.391758 0.746813 0.477360
O O4 0.510039 0.768212 0.414212
O O5 0.609997 0.500000 0.271562
O O6 0.534492 0.269630 0.224975
O O7 0.627156 0.241392 0.347875
O O8 0.660467 0.271369 0.184790
O O9 0.541217 0.500000 0.813265
O O10 0.578114 0.234715 0.861355
O O11 0.434262 0.000000 0.042256
O O12 0.500000 0.755386 0.000000
O O13 0.370904 0.764365 0.981014
O O14 0.908971 0.000000 0.435082
O O15 0.750000 0.200247 0.069848
O O16 0.659216 0.000000 0.118507
#
# Coordination Sequence:
#
# PCOD8206045 Si02
#       6
#     8   8   8   8   8   8
#     4   9  16  27  40  62  96 128 159 196 241 286
#     4  10  19  31  47  68  95 128 163 199 243 293
#     4   9  18  29  45  69  96 128 161 200 245 290
#     4  10  19  31  49  72  95 125 165 205 247 297
#     4  10  17  25  41  65  93 127 161 193 237 288
#     4  10  21  36  51  70  98 129 162 205 251 295
#
# _framework density 17.544418
#
# number of rings (size 3 to 8) (size 9 to 14) (size 15 to 20)
#    0.000    2.333    1.667    4.500    0.000    4.667 
#    0.000    0.000    0.000    0.000    0.000    1.167 
#    0.000    4.000    0.000    0.000    0.000    0.000 
#
# Total GULP energy -594961.617230 kJ/mol
# GULP energy per Si atom -12395.033692 kJ/mol
# Density = 1.750449 g / cm^3
# Si number density = 17.544418 Si / 1000 Ang^3
#
#
#
# Elastic Constant Matrix: (Units=GPa)
#
#
# Indices 1 2 3 4 5 6 
#
# 1 58.1768 24.2408 45.2814 0.0000 0.0000 0.0000
# 2 24.2408 67.6833 50.5012 0.0000 0.0000 0.0000
# 3 45.2814 50.5012 161.6244 0.0000 0.0000 0.0000
# 4 0.0000 0.0000 0.0000 37.3907 0.0000 0.0000
# 5 0.0000 0.0000 0.0000 0.0000 16.0152 0.0000
# 6 0.0000 0.0000 0.0000 0.0000 0.0000 12.6918
#
#
#
# Elastic Compliance Matrix: (Units=1/GPa)
#
#
# Indices 1 2 3 4 5 6 
#
# 1 0.022974 -0.004467 -0.005041 0.000000 0.000000 0.000000
# 2 -0.004467 0.020135 -0.005040 0.000000 0.000000 0.000000
# 3 -0.005041 -0.005040 0.009174 0.000000 0.000000 0.000000
# 4 0.000000 0.000000 0.000000 0.026745 0.000000 0.000000
# 5 0.000000 0.000000 0.000000 0.000000 0.062441 0.000000
# 6 0.000000 0.000000 0.000000 0.000000 0.000000 0.078791
#
#
# Mechanical properties :
#
#
# Convention : Reuss Voigt Hill
#
# Bulk Modulus (GPa) = 43.12626 58.61457 50.87042
# Shear Modulus (GPa) = 19.44896 24.38363 21.91629
#
# Velocity S-wave (km/s) = 3.33311 3.73208 3.53822
# Velocity P-wave (km/s) = 6.28071 7.21477 6.76389
#
# Compressibility (1/GPa) = 0.02318773
#
# Stress axis : x y z
#
# Youngs Moduli (GPa) = 43.52830 49.66474 109.00194
#
# Poissons Ratio (x) = 0.22185 0.54944
# Poissons Ratio (y) = 0.19444 0.54936
# Poissons Ratio (z) = 0.21941 0.25031
#
# Static dielectric constant tensor:
#      x y z
#    x 2.780950 0.000000 0.000000 
#    y 0.000000 3.180640 0.000000 
#    z 0.000000 0.000000 3.949840 
# 
# 
# High freq. dielectric constant tensor:
#      x y z
#    x 1.603800 0.000000 0.000000 
#    y 0.000000 1.681760 0.000000 
#    z 0.000000 0.000000 1.701870 
# 
# From -- ./inp_files/25479.got.cif
#   From: 2010.03.12/outbox.cif.g09.slc.cpg/sg51_13_cif.got.tgz:25479.got - 2010.04.16 13:43:02.
