data_PCOD8206162
_publ_section_title
;
Structure prediction by ZEFSAII (Michael W. Deem and Ramdas Pophale) SiO2 
 PCOD8206162
Probable space group: P M M A
;
_chemical_formula_sum "Si O2"
_cell_formula_units_Z 56
_cell_length_a 17.790815
_cell_length_b 18.558877
_cell_length_c 9.789202
_cell_angle_alpha 90.000000
_cell_angle_beta 90.000000
_cell_angle_gamma 90.000000
_cell_volume 3232.174707
_symmetry_space_group_name_H-M "P M M A"
_symmetry_group_IT_number 51
_symmetry_cell_setting 'orthorhombic'
loop_
_space_group_symop_operation_xyz
x,y,z
1/2-x,-y,z
1/2+x,-y,-z
-x,y,-z
-x,-y,-z
1/2+x,y,-z
1/2-x,y,z
x,-y,z
loop_
_atom_site_type_symbol
_atom_site_label
_atom_site_fract_x
_atom_site_fract_y
_atom_site_fract_z
Si Si1 0.162815 0.229588 0.875847
Si Si2 0.160965 0.917629 0.351946
Si Si3 0.455780 0.419749 0.361155
Si Si4 0.662805 0.181917 0.413664
Si Si5 0.834867 0.304761 0.603684
Si Si6 0.609273 0.206056 0.828839
Si Si7 0.478419 0.685445 0.853182
O O1 0.250000 0.253200 0.875854
O O2 0.145510 0.175594 0.747863
O O3 0.110813 0.299294 0.851198
O O4 0.140137 0.192755 0.018159
O O5 0.250000 0.908398 0.323492
O O6 0.138530 0.890163 0.504741
O O7 0.112603 0.872007 0.242695
O O8 0.135728 0.000000 0.339444
O O9 0.500000 0.425136 0.500000
O O10 0.439517 0.500000 0.304181
O O11 0.377486 0.379938 0.386319
O O12 0.506406 0.375770 0.255824
O O13 0.750000 0.193252 0.440230
O O14 0.627141 0.253420 0.486244
O O15 0.750000 0.325614 0.569364
O O16 0.837630 0.261948 0.747823
O O17 0.525053 0.239747 0.828068
O O18 0.500000 0.653258 0.000000
#
# Coordination Sequence:
#
# PCOD8206162 Si02
#       7
#     8   8   8   8   8   8   8
#     4  10  17  28  49  72  91 113 152 199 230 263
#     4   9  16  28  46  67  94 127 158 188 226 272
#     4  10  20  32  46  67  95 124 154 188 228 276
#     4   8  15  26  43  67  91 117 150 190 232 268
#     4   9  16  29  48  67  89 119 156 195 231 270
#     4   9  17  30  48  71  95 118 152 193 232 272
#     4   9  19  33  50  70  93 123 151 184 233 279
#
# _framework density 17.325797000000001
#
# number of rings (size 3 to 8) (size 9 to 14) (size 15 to 20)
#    0.000    2.857    0.000    3.000    0.000    0.571 
#    0.000    0.714    0.000    9.429    0.000    0.000 
#    0.000    0.000    0.000    0.000    0.000    0.000 
#
# Total GULP energy -693957.275292 kJ/mol
# GULP energy per Si atom -12392.094202 kJ/mol
# Density = 1.728636 g / cm^3
# Si number density = 17.325797 Si / 1000 Ang^3
#
#
#
# Elastic Constant Matrix: (Units=GPa)
#
#
# Indices 1 2 3 4 5 6 
#
# 1 68.4157 38.1415 26.9242 0.0000 0.0000 0.0000
# 2 38.1415 128.0693 58.2903 0.0000 0.0000 0.0000
# 3 26.9242 58.2903 127.7583 0.0000 0.0000 0.0000
# 4 0.0000 0.0000 0.0000 33.5769 0.0000 0.0000
# 5 0.0000 0.0000 0.0000 0.0000 19.9223 0.0000
# 6 0.0000 0.0000 0.0000 0.0000 0.0000 20.0631
#
#
#
# Elastic Compliance Matrix: (Units=1/GPa)
#
#
# Indices 1 2 3 4 5 6 
#
# 1 0.017809 -0.004538 -0.001683 0.000000 0.000000 0.000000
# 2 -0.004538 0.011011 -0.004068 0.000000 0.000000 0.000000
# 3 -0.001683 -0.004068 0.010038 0.000000 0.000000 0.000000
# 4 0.000000 0.000000 0.000000 0.029782 0.000000 0.000000
# 5 0.000000 0.000000 0.000000 0.000000 0.050195 0.000000
# 6 0.000000 0.000000 0.000000 0.000000 0.000000 0.049843
#
#
# Mechanical properties :
#
#
# Convention : Reuss Voigt Hill
#
# Bulk Modulus (GPa) = 54.70074 63.43947 59.07011
# Shear Modulus (GPa) = 25.59546 28.10495 26.85021
#
# Velocity S-wave (km/s) = 3.84774 4.03196 3.94092
# Velocity P-wave (km/s) = 7.16802 7.64007 7.40781
#
# Compressibility (1/GPa) = 0.01828129
#
# Stress axis : x y z
#
# Youngs Moduli (GPa) = 56.15283 90.81780 99.62450
#
# Poissons Ratio (x) = 0.41212 0.16763
# Poissons Ratio (y) = 0.25482 0.40522
# Poissons Ratio (z) = 0.09448 0.36940
#
# Static dielectric constant tensor:
#      x y z
#    x 3.097710 0.000000 0.000000 
#    y 0.000000 3.095840 0.000000 
#    z 0.000000 0.000000 3.455500 
# 
# 
# High freq. dielectric constant tensor:
#      x y z
#    x 1.656600 0.000000 0.000000 
#    y 0.000000 1.636830 0.000000 
#    z 0.000000 0.000000 1.682950 
# 
# From -- ./inp_files/11121.got.cif
#   From: 2010.03.12/outbox.cif.g09.slc.cpg/sg51_6_cif.got.tgz:11121.got - 2010.04.16 13:43:02.
