data_PCOD8206854
_publ_section_title
;
Structure prediction by ZEFSAII (Michael W. Deem and Ramdas Pophale) SiO2 
 PCOD8206854
Probable space group: P M M A
;
_chemical_formula_sum "Si O2"
_cell_formula_units_Z 40
_cell_length_a 14.784332
_cell_length_b 9.057093
_cell_length_c 16.743338
_cell_angle_alpha 90.000000
_cell_angle_beta 90.000000
_cell_angle_gamma 90.000000
_cell_volume 2241.984358
_symmetry_space_group_name_H-M "P M M A"
_symmetry_group_IT_number 51
_symmetry_cell_setting 'orthorhombic'
loop_
_space_group_symop_operation_xyz
x,y,z
1/2-x,-y,z
1/2+x,-y,-z
-x,y,-z
-x,-y,-z
1/2+x,y,-z
1/2-x,y,z
x,-y,z
loop_
_atom_site_type_symbol
_atom_site_label
_atom_site_fract_x
_atom_site_fract_y
_atom_site_fract_z
Si Si1 0.101981 0.325327 0.001922
Si Si2 0.250000 0.324224 0.122990
Si Si3 0.900636 0.825516 0.412187
Si Si4 0.750000 0.326942 0.125003
Si Si5 0.250000 0.175924 0.705737
Si Si6 0.895424 0.825267 0.590080
Si Si7 0.250000 0.675181 0.303963
O O1 0.093788 0.500000 0.007637
O O2 0.159120 0.281831 0.923058
O O3 0.158930 0.266074 0.078416
O O4 0.000000 0.256312 0.000000
O O5 0.250000 0.500000 0.118616
O O6 0.250000 0.266042 0.213154
O O7 0.836608 0.762666 0.342805
O O8 0.867709 0.775247 0.500362
O O9 0.002068 0.774251 0.394301
O O10 0.897563 0.000000 0.412928
O O11 0.750000 0.500000 0.143135
O O12 0.750000 0.238711 0.206450
O O13 0.250000 0.000000 0.710434
O O14 0.838467 0.736582 0.653954
O O15 0.881157 0.000000 0.601928
O O16 0.250000 0.500000 0.307366
#
# Coordination Sequence:
#
# PCOD8206854 Si02
#       7
#     8   4   8   4   4   8   4
#     4   8  14  28  49  66  84 116 154 189 223 264
#     4   8  16  28  40  61  91 118 147 182 222 275
#     4   8  16  31  52  72  89 121 168 204 228 268
#     4   9  18  30  46  72  94 112 153 196 225 274
#     4  10  18  30  48  71 100 126 148 187 246 292
#     4   9  17  33  53  69  89 124 170 205 226 263
#     4  11  21  30  44  72 105 128 148 187 247 293
#
# _framework density 17.841335999999998
#
# number of rings (size 3 to 8) (size 9 to 14) (size 15 to 20)
#    0.000    3.200    0.000    3.300    0.000    3.200 
#    0.000    7.000    0.000    5.400    0.000    0.000 
#    0.000    0.000    0.000    0.000    0.000    0.000 
#
# Total GULP energy -495704.657050 kJ/mol
# GULP energy per Si atom -12392.616426 kJ/mol
# Density = 1.780073 g / cm^3
# Si number density = 17.841336 Si / 1000 Ang^3
#
#
#
# Elastic Constant Matrix: (Units=GPa)
#
#
# Indices 1 2 3 4 5 6 
#
# 1 155.8926 22.2486 95.3941 0.0000 0.0000 0.0000
# 2 22.2486 25.3590 32.9741 0.0000 0.0000 0.0000
# 3 95.3941 32.9741 171.6812 0.0000 0.0000 0.0000
# 4 0.0000 0.0000 0.0000 25.0841 0.0000 0.0000
# 5 0.0000 0.0000 0.0000 0.0000 101.5303 0.0000
# 6 0.0000 0.0000 0.0000 0.0000 0.0000 15.8259
#
#
#
# Elastic Compliance Matrix: (Units=1/GPa)
#
#
# Indices 1 2 3 4 5 6 
#
# 1 0.009797 -0.002022 -0.005055 0.000000 0.000000 0.000000
# 2 -0.002022 0.052978 -0.009052 0.000000 0.000000 0.000000
# 3 -0.005055 -0.009052 0.010372 0.000000 0.000000 0.000000
# 4 0.000000 0.000000 0.000000 0.039866 0.000000 0.000000
# 5 0.000000 0.000000 0.000000 0.000000 0.009849 0.000000
# 6 0.000000 0.000000 0.000000 0.000000 0.000000 0.063188
#
#
# Mechanical properties :
#
#
# Convention : Reuss Voigt Hill
#
# Bulk Modulus (GPa) = 24.45657 72.68516 48.57086
# Shear Modulus (GPa) = 21.55768 41.97578 31.76673
#
# Velocity S-wave (km/s) = 3.47983 4.85575 4.22419
# Velocity P-wave (km/s) = 5.46655 8.50094 7.14665
#
# Compressibility (1/GPa) = 0.04088881
#
# Stress axis : x y z
#
# Youngs Moduli (GPa) = 102.07669 18.87593 96.41224
#
# Poissons Ratio (x) = 0.03816 0.48737
# Poissons Ratio (y) = 0.20639 0.87270
# Poissons Ratio (z) = 0.51601 0.17086
#
# Static dielectric constant tensor:
#      x y z
#    x 3.984780 0.000000 0.000000 
#    y 0.000000 2.744880 0.000000 
#    z 0.000000 0.000000 3.466310 
# 
# 
# High freq. dielectric constant tensor:
#      x y z
#    x 1.705320 0.000000 0.000000 
#    y 0.000000 1.633270 0.000000 
#    z 0.000000 0.000000 1.694390 
# 
# From -- ./inp_files/23878.got.cif
#   From: 2010.03.12/outbox.cif.g09.slc.cpg/sg51_12_cif.got.tgz:23878.got - 2010.04.16 13:43:02.
