data_PCOD8206349
_publ_section_title
;
Structure prediction by ZEFSAII (Michael W. Deem and Ramdas Pophale) SiO2 
 PCOD8206349
Probable space group: P M M A
;
_chemical_formula_sum "Si O2"
_cell_formula_units_Z 52
_cell_length_a 9.516265
_cell_length_b 13.484358
_cell_length_c 24.513359
_cell_angle_alpha 90.000000
_cell_angle_beta 90.000000
_cell_angle_gamma 90.000000
_cell_volume 3145.571977
_symmetry_space_group_name_H-M "P M M A"
_symmetry_group_IT_number 51
_symmetry_cell_setting 'orthorhombic'
loop_
_space_group_symop_operation_xyz
x,y,z
1/2-x,-y,z
1/2+x,-y,-z
-x,y,-z
-x,-y,-z
1/2+x,y,-z
1/2-x,y,z
x,-y,z
loop_
_atom_site_type_symbol
_atom_site_label
_atom_site_fract_x
_atom_site_fract_y
_atom_site_fract_z
Si Si1 0.411690 0.181148 0.631240
Si Si2 0.086892 0.884045 0.052320
Si Si3 0.416601 0.000000 0.555669
Si Si4 0.586658 0.389853 0.770054
Si Si5 0.591298 0.886501 0.728289
Si Si6 0.088383 0.389996 0.661519
Si Si7 0.914963 0.793489 0.837619
O O1 0.250000 0.156157 0.641826
O O2 0.491535 0.171097 0.687737
O O3 0.434111 0.299540 0.617157
O O4 0.465421 0.101457 0.586549
O O5 0.250000 0.859153 0.042000
O O6 0.020412 0.825128 0.104219
O O7 0.065380 0.000000 0.063797
O O8 0.000000 0.848347 0.000000
O O9 0.500000 0.000000 0.500000
O O10 0.250000 0.000000 0.544574
O O11 0.750000 0.373032 0.756219
O O12 0.556705 0.500000 0.791841
O O13 0.503932 0.368428 0.714653
O O14 0.538155 0.316482 0.818585
O O15 0.750000 0.845059 0.721948
O O16 0.538268 0.869510 0.789998
O O17 0.584199 0.000000 0.712624
O O18 0.250000 0.388926 0.680441
O O19 0.050999 0.500000 0.636761
O O20 0.750000 0.801285 0.846127
#
# Coordination Sequence:
#
# PCOD8206349 Si02
#       7
#     8   8   4   8   8   8   8
#     4  10  19  32  49  70  99 128 154 192 235 274
#     4   9  17  30  46  61  81 112 150 191 231 273
#     4  10  22  38  54  72  96 130 167 198 233 274
#     4   9  16  26  42  65  92 120 151 187 226 272
#     4  10  18  27  43  69  97 124 153 185 228 283
#     4   9  17  29  46  69  97 129 159 186 228 284
#     4   9  16  27  43  64  90 119 150 185 230 280
#
# _framework density 16.531175000000001
#
# number of rings (size 3 to 8) (size 9 to 14) (size 15 to 20)
#    0.000    2.615    2.308    0.462    0.000    2.462 
#    0.000    1.538    0.000    2.769    0.000    0.000 
#    0.000    0.000    0.000    0.000    0.000    0.000 
#
# Total GULP energy -644180.771662 kJ/mol
# GULP energy per Si atom -12388.091763 kJ/mol
# Density = 1.649355 g / cm^3
# Si number density = 16.531175 Si / 1000 Ang^3
#
#
#
# Elastic Constant Matrix: (Units=GPa)
#
#
# Indices 1 2 3 4 5 6 
#
# 1 32.7559 27.1220 26.6822 0.0000 0.0000 0.0000
# 2 27.1220 129.7779 63.6365 0.0000 0.0000 0.0000
# 3 26.6822 63.6365 82.4607 0.0000 0.0000 0.0000
# 4 0.0000 0.0000 0.0000 18.5221 0.0000 0.0000
# 5 0.0000 0.0000 0.0000 0.0000 22.4438 0.0000
# 6 0.0000 0.0000 0.0000 0.0000 0.0000 14.3537
#
#
#
# Elastic Compliance Matrix: (Units=1/GPa)
#
#
# Indices 1 2 3 4 5 6 
#
# 1 0.042385 -0.003431 -0.011066 0.000000 0.000000 0.000000
# 2 -0.003431 0.012674 -0.008671 0.000000 0.000000 0.000000
# 3 -0.011066 -0.008671 0.022399 0.000000 0.000000 0.000000
# 4 0.000000 0.000000 0.000000 0.053990 0.000000 0.000000
# 5 0.000000 0.000000 0.000000 0.000000 0.044556 0.000000
# 6 0.000000 0.000000 0.000000 0.000000 0.000000 0.069668
#
#
# Mechanical properties :
#
#
# Convention : Reuss Voigt Hill
#
# Bulk Modulus (GPa) = 32.13281 53.31954 42.72618
# Shear Modulus (GPa) = 16.53537 19.56751 18.05144
#
# Velocity S-wave (km/s) = 3.16611 3.44419 3.30807
# Velocity P-wave (km/s) = 5.73111 6.93834 6.36341
#
# Compressibility (1/GPa) = 0.03112084
#
# Stress axis : x y z
#
# Youngs Moduli (GPa) = 23.59352 78.90027 44.64463
#
# Poissons Ratio (x) = 0.27074 0.49406
# Poissons Ratio (y) = 0.08096 0.38710
# Poissons Ratio (z) = 0.26110 0.68411
#
# Static dielectric constant tensor:
#      x y z
#    x 2.988720 0.000000 0.000000 
#    y 0.000000 3.625130 0.000000 
#    z 0.000000 0.000000 2.929300 
# 
# 
# High freq. dielectric constant tensor:
#      x y z
#    x 1.619830 0.000000 0.000000 
#    y 0.000000 1.653300 0.000000 
#    z 0.000000 0.000000 1.602230 
# 
# From -- ./inp_files/31693.got.cif
#   From: 2010.03.12/outbox.cif.g09.slc.cpg/sg51_16_cif.got.tgz:31693.got - 2010.04.16 13:43:02.
