data_PCOD8206697
_publ_section_title
;
Structure prediction by ZEFSAII (Michael W. Deem and Ramdas Pophale) SiO2 
 PCOD8206697
Probable space group: P M M A
;
_chemical_formula_sum "Si O2"
_cell_formula_units_Z 64
_cell_length_a 19.456143
_cell_length_b 9.492292
_cell_length_c 19.868413
_cell_angle_alpha 90.000000
_cell_angle_beta 90.000000
_cell_angle_gamma 90.000000
_cell_volume 3669.365878
_symmetry_space_group_name_H-M "P M M A"
_symmetry_group_IT_number 51
_symmetry_cell_setting 'orthorhombic'
loop_
_space_group_symop_operation_xyz
x,y,z
1/2-x,-y,z
1/2+x,-y,-z
-x,y,-z
-x,-y,-z
1/2+x,y,-z
1/2-x,y,z
x,-y,z
loop_
_atom_site_type_symbol
_atom_site_label
_atom_site_fract_x
_atom_site_fract_y
_atom_site_fract_z
Si Si1 0.546903 0.337017 0.895850
Si Si2 0.579049 0.334751 0.390968
Si Si3 0.171068 0.843944 0.863829
Si Si4 0.577636 0.665415 0.636945
Si Si5 0.097723 0.661285 0.959895
Si Si6 0.902308 0.158292 0.265485
Si Si7 0.561347 0.159951 0.765462
Si Si8 0.671786 0.333399 0.514470
O O1 0.547899 0.500000 0.872412
O O2 0.471307 0.292460 0.920721
O O3 0.574879 0.239041 0.836018
O O4 0.595720 0.313736 0.960221
O O5 0.589755 0.500000 0.381113
O O6 0.497515 0.298918 0.395062
O O7 0.614056 0.256979 0.328359
O O8 0.620881 0.278290 0.455755
O O9 0.250000 0.851911 0.847537
O O10 0.159389 0.753326 0.930693
O O11 0.135581 0.774247 0.798726
O O12 0.140090 0.000000 0.875554
O O13 0.581178 0.500000 0.654426
O O14 0.595336 0.753192 0.704213
O O15 0.636507 0.711413 0.584494
O O16 0.112967 0.500000 0.944273
O O17 0.981650 0.156496 0.248822
O O18 0.875541 0.000000 0.280629
O O19 0.590966 0.000000 0.768949
O O20 0.750000 0.271506 0.509257
O O21 0.675616 0.500000 0.509949
#
# Coordination Sequence:
#
# PCOD8206697 Si02
#       8
#     8   8   8   8   8   8   8   8
#     4   9  17  30  49  73  99 123 149 195 249 288
#     4   9  17  29  48  72  95 122 158 200 241 284
#     4  10  20  33  47  64  94 135 170 197 229 278
#     4   9  17  30  49  71  96 127 158 196 246 293
#     4   9  18  31  48  71  97 123 157 198 240 283
#     4   9  18  31  44  65  96 127 159 192 231 278
#     4  10  18  29  48  73  98 124 156 197 238 283
#     4   9  17  30  49  72  96 122 158 202 244 291
#
# _framework density 17.441704999999999
#
# number of rings (size 3 to 8) (size 9 to 14) (size 15 to 20)
#    0.000    2.750    1.250    1.500    0.000    3.750 
#    0.000    1.875    0.000    4.875    0.000    1.750 
#    0.000    0.000    0.000    0.000    0.000    0.000 
#
# Total GULP energy -793309.474758 kJ/mol
# GULP energy per Si atom -12395.460543 kJ/mol
# Density = 1.740201 g / cm^3
# Si number density = 17.441705 Si / 1000 Ang^3
#
#
#
# Elastic Constant Matrix: (Units=GPa)
#
#
# Indices 1 2 3 4 5 6 
#
# 1 46.5999 21.7570 35.9173 0.0000 0.0000 0.0000
# 2 21.7570 63.2439 56.2243 0.0000 0.0000 0.0000
# 3 35.9173 56.2243 128.5070 0.0000 0.0000 0.0000
# 4 0.0000 0.0000 0.0000 2.8969 0.0000 0.0000
# 5 0.0000 0.0000 0.0000 0.0000 14.4303 0.0000
# 6 0.0000 0.0000 0.0000 0.0000 0.0000 15.1480
#
#
#
# Elastic Compliance Matrix: (Units=1/GPa)
#
#
# Indices 1 2 3 4 5 6 
#
# 1 0.028077 -0.004390 -0.005927 0.000000 0.000000 0.000000
# 2 -0.004390 0.026563 -0.010395 0.000000 0.000000 0.000000
# 3 -0.005927 -0.010395 0.013986 0.000000 0.000000 0.000000
# 4 0.000000 0.000000 0.000000 0.345197 0.000000 0.000000
# 5 0.000000 0.000000 0.000000 0.000000 0.069299 0.000000
# 6 0.000000 0.000000 0.000000 0.000000 0.000000 0.066015
#
#
# Mechanical properties :
#
#
# Convention : Reuss Voigt Hill
#
# Bulk Modulus (GPa) = 36.76068 51.79424 44.27746
# Shear Modulus (GPa) = 8.33850 14.79185 11.56517
#
# Velocity S-wave (km/s) = 2.18887 2.91533 2.57782
# Velocity P-wave (km/s) = 5.24502 6.41033 5.85673
#
# Compressibility (1/GPa) = 0.02720298
#
# Stress axis : x y z
#
# Youngs Moduli (GPa) = 35.61627 37.64604 71.49937
#
# Poissons Ratio (x) = 0.16527 0.42375
# Poissons Ratio (y) = 0.15636 0.74323
# Poissons Ratio (z) = 0.21109 0.39133
#
# Static dielectric constant tensor:
#      x y z
#    x 3.046550 0.000000 0.000000 
#    y 0.000000 3.254990 0.000000 
#    z 0.000000 0.000000 3.364460 
# 
# 
# High freq. dielectric constant tensor:
#      x y z
#    x 1.641400 0.000000 0.000000 
#    y 0.000000 1.659050 0.000000 
#    z 0.000000 0.000000 1.681070 
# 
# From -- ./inp_files/30573.got.cif
#   From: 2010.03.12/outbox.cif.g09.slc.cpg/sg51_16_cif.got.tgz:30573.got - 2010.04.16 13:43:02.
