data_PCOD8206325
_publ_section_title
;
Structure prediction by ZEFSAII (Michael W. Deem and Ramdas Pophale) SiO2 
 PCOD8206325
Probable space group: P M M A
;
_chemical_formula_sum "Si O2"
_cell_formula_units_Z 48
_cell_length_a 8.945222
_cell_length_b 24.117217
_cell_length_c 13.628408
_cell_angle_alpha 90.000000
_cell_angle_beta 90.000000
_cell_angle_gamma 90.000000
_cell_volume 2940.109065
_symmetry_space_group_name_H-M "P M M A"
_symmetry_group_IT_number 51
_symmetry_cell_setting 'orthorhombic'
loop_
_space_group_symop_operation_xyz
x,y,z
1/2-x,-y,z
1/2+x,-y,-z
-x,y,-z
-x,-y,-z
1/2+x,y,-z
1/2-x,y,z
x,-y,z
loop_
_atom_site_type_symbol
_atom_site_label
_atom_site_fract_x
_atom_site_fract_y
_atom_site_fract_z
Si Si1 0.076008 0.222732 0.279715
Si Si2 0.574858 0.439828 0.394391
Si Si3 0.575709 0.114626 0.603006
Si Si4 0.574514 0.168064 0.103046
Si Si5 0.073291 0.667538 0.393743
Si Si6 0.922554 0.938000 0.220652
O O1 0.250000 0.219916 0.252289
O O2 0.035145 0.176307 0.360179
O O3 0.029546 0.281693 0.323968
O O4 0.981947 0.213274 0.181208
O O5 0.500000 0.443083 0.500000
O O6 0.750000 0.427120 0.405083
O O7 0.550028 0.500000 0.341411
O O8 0.493463 0.388075 0.340825
O O9 0.500000 0.103138 0.500000
O O10 0.750000 0.106080 0.589580
O O11 0.517334 0.069854 0.680883
O O12 0.750000 0.174176 0.090971
O O13 0.527401 0.106179 0.138079
O O14 0.500000 0.181026 0.000000
O O15 0.250000 0.662244 0.406709
O O16 0.000000 0.676768 0.500000
O O17 0.750000 0.928300 0.247973
O O18 0.950885 0.000000 0.179655
#
# Coordination Sequence:
#
# PCOD8206325 Si02
#       6
#     8   8   8   8   8   8
#     4   9  19  33  47  66  91 117 149 187 223 264
#     4   9  16  25  37  55  83 120 159 194 224 256
#     4  10  19  31  47  66  90 120 151 183 220 261
#     4  10  20  34  53  72  90 114 141 176 224 272
#     4  10  18  27  42  64  91 123 156 190 225 261
#     4   9  19  35  51  68  90 115 146 181 216 260
#
# _framework density 16.325925000000002
#
# number of rings (size 3 to 8) (size 9 to 14) (size 15 to 20)
#    0.000    2.500    0.000    3.500    0.000    4.667 
#    0.000    0.000    0.000    0.000    0.000    0.000 
#    0.000    0.667    0.000    2.167    0.000    3.500 
#
# Total GULP energy -595047.043207 kJ/mol
# GULP energy per Si atom -12396.813400 kJ/mol
# Density = 1.628877 g / cm^3
# Si number density = 16.325925 Si / 1000 Ang^3
#
#
#
# Elastic Constant Matrix: (Units=GPa)
#
#
# Indices 1 2 3 4 5 6 
#
# 1 77.6436 41.9693 41.0197 0.0000 0.0000 0.0000
# 2 41.9693 123.2970 35.6096 0.0000 0.0000 0.0000
# 3 41.0197 35.6096 83.0191 0.0000 0.0000 0.0000
# 4 0.0000 0.0000 0.0000 11.9128 0.0000 0.0000
# 5 0.0000 0.0000 0.0000 0.0000 23.0587 0.0000
# 6 0.0000 0.0000 0.0000 0.0000 0.0000 26.5591
#
#
#
# Elastic Compliance Matrix: (Units=1/GPa)
#
#
# Indices 1 2 3 4 5 6 
#
# 1 0.019277 -0.004350 -0.007659 0.000000 0.000000 0.000000
# 2 -0.004350 0.010239 -0.002243 0.000000 0.000000 0.000000
# 3 -0.007659 -0.002243 0.016792 0.000000 0.000000 0.000000
# 4 0.000000 0.000000 0.000000 0.083943 0.000000 0.000000
# 5 0.000000 0.000000 0.000000 0.000000 0.043368 0.000000
# 6 0.000000 0.000000 0.000000 0.000000 0.000000 0.037652
#
#
# Mechanical properties :
#
#
# Convention : Reuss Voigt Hill
#
# Bulk Modulus (GPa) = 56.16461 57.90633 57.03547
# Shear Modulus (GPa) = 20.34943 23.33019 21.83981
#
# Velocity S-wave (km/s) = 3.53434 3.78435 3.66148
# Velocity P-wave (km/s) = 7.15068 7.39196 7.27232
#
# Compressibility (1/GPa) = 0.01780481
#
# Stress axis : x y z
#
# Youngs Moduli (GPa) = 51.87581 97.66800 59.55352
#
# Poissons Ratio (x) = 0.42482 0.45612
# Poissons Ratio (y) = 0.22564 0.13355
# Poissons Ratio (z) = 0.39731 0.21903
#
# Static dielectric constant tensor:
#      x y z
#    x 3.180810 0.000000 0.000000 
#    y 0.000000 3.581750 0.000000 
#    z 0.000000 0.000000 2.750690 
# 
# 
# High freq. dielectric constant tensor:
#      x y z
#    x 1.643030 0.000000 0.000000 
#    y 0.000000 1.633180 0.000000 
#    z 0.000000 0.000000 1.585220 
# 
# From -- ./inp_files/14444.got.cif
#   From: 2010.03.12/outbox.cif.g09.slc.cpg/sg51_8_cif.got.tgz:14444.got - 2010.04.16 13:43:02.
