data_PCOD8206568
_publ_section_title
;
Structure prediction by ZEFSAII (Michael W. Deem and Ramdas Pophale) SiO2 
 PCOD8206568
Probable space group: P M M A
;
_chemical_formula_sum "Si O2"
_cell_formula_units_Z 52
_cell_length_a 9.361420
_cell_length_b 23.112807
_cell_length_c 14.325542
_cell_angle_alpha 90.000000
_cell_angle_beta 90.000000
_cell_angle_gamma 90.000000
_cell_volume 3099.598809
_symmetry_space_group_name_H-M "P M M A"
_symmetry_group_IT_number 51
_symmetry_cell_setting 'orthorhombic'
loop_
_space_group_symop_operation_xyz
x,y,z
1/2-x,-y,z
1/2+x,-y,-z
-x,y,-z
-x,-y,-z
1/2+x,y,-z
1/2-x,y,z
x,-y,z
loop_
_atom_site_type_symbol
_atom_site_label
_atom_site_fract_x
_atom_site_fract_y
_atom_site_fract_z
Si Si1 0.920624 0.500000 0.598584
Si Si2 0.416869 0.934432 0.406887
Si Si3 0.418698 0.170072 0.283480
Si Si4 0.584441 0.649133 0.909513
Si Si5 0.080076 0.722568 0.403641
Si Si6 0.584312 0.215545 0.909885
Si Si7 0.919022 0.612094 0.711118
O O1 0.750000 0.500000 0.582200
O O2 0.973451 0.555126 0.658018
O O3 0.000000 0.500000 0.500000
O O4 0.500000 0.916682 0.500000
O O5 0.250000 0.926521 0.428442
O O6 0.466205 0.892557 0.322715
O O7 0.453263 0.000000 0.376654
O O8 0.250000 0.176079 0.277633
O O9 0.474799 0.219606 0.352688
O O10 0.477678 0.180016 0.178907
O O11 0.750000 0.636584 0.927898
O O12 0.557433 0.716860 0.891037
O O13 0.526695 0.614535 0.818523
O O14 0.500000 0.626781 0.000000
O O15 0.250000 0.722137 0.419363
O O16 0.026419 0.668278 0.343351
O O17 0.000000 0.718566 0.500000
O O18 0.750000 0.202680 0.927135
O O19 0.500000 0.193265 0.000000
O O20 0.750000 0.613109 0.714070
#
# Coordination Sequence:
#
# PCOD8206568 Si02
#       7
#     4   8   8   8   8   8   8
#     4  10  20  34  51  68  88 120 157 186 215 262
#     4   9  17  29  45  65  89 119 153 184 216 259
#     4   9  16  28  46  65  88 118 148 178 220 268
#     4   9  16  29  48  68  89 115 146 181 221 266
#     4  10  18  29  44  64  89 116 145 180 221 262
#     4   9  16  28  46  66  88 115 146 181 220 264
#     4   9  17  31  49  66  88 120 151 178 218 271
#
# _framework density 16.776364999999998
#
# number of rings (size 3 to 8) (size 9 to 14) (size 15 to 20)
#    0.000    2.769    1.538    0.923    0.000    0.000 
#    0.000    3.462    0.000    0.462    0.000    0.000 
#    0.000    0.000    0.000    0.000    0.000    0.000 
#
# Total GULP energy -644648.673599 kJ/mol
# GULP energy per Si atom -12397.089877 kJ/mol
# Density = 1.673818 g / cm^3
# Si number density = 16.776365 Si / 1000 Ang^3
#
#
#
# Elastic Constant Matrix: (Units=GPa)
#
#
# Indices 1 2 3 4 5 6 
#
# 1 31.5679 24.9948 45.2833 0.0000 0.0000 0.0000
# 2 24.9948 101.5888 75.8651 0.0000 0.0000 0.0000
# 3 45.2833 75.8651 183.8609 0.0000 0.0000 0.0000
# 4 0.0000 0.0000 0.0000 31.2588 0.0000 0.0000
# 5 0.0000 0.0000 0.0000 0.0000 30.6900 0.0000
# 6 0.0000 0.0000 0.0000 0.0000 0.0000 10.2428
#
#
#
# Elastic Compliance Matrix: (Units=1/GPa)
#
#
# Indices 1 2 3 4 5 6 
#
# 1 0.050382 -0.004523 -0.010542 0.000000 0.000000 0.000000
# 2 -0.004523 0.014634 -0.004924 0.000000 0.000000 0.000000
# 3 -0.010542 -0.004924 0.010067 0.000000 0.000000 0.000000
# 4 0.000000 0.000000 0.000000 0.031991 0.000000 0.000000
# 5 0.000000 0.000000 0.000000 0.000000 0.032584 0.000000
# 6 0.000000 0.000000 0.000000 0.000000 0.000000 0.097629
#
#
# Mechanical properties :
#
#
# Convention : Reuss Voigt Hill
#
# Bulk Modulus (GPa) = 28.48716 67.70044 48.09380
# Shear Modulus (GPa) = 17.30302 25.82996 21.56649
#
# Velocity S-wave (km/s) = 3.21501 3.92811 3.58932
# Velocity P-wave (km/s) = 5.54970 7.81125 6.77550
#
# Compressibility (1/GPa) = 0.03510353
#
# Stress axis : x y z
#
# Youngs Moduli (GPa) = 19.84853 68.33487 99.33237
#
# Poissons Ratio (x) = 0.30908 1.04719
# Poissons Ratio (y) = 0.08978 0.48914
# Poissons Ratio (z) = 0.20925 0.33650
#
# Static dielectric constant tensor:
#      x y z
#    x 2.823420 0.000000 0.000000 
#    y 0.000000 3.291280 0.000000 
#    z 0.000000 0.000000 3.353080 
# 
# 
# High freq. dielectric constant tensor:
#      x y z
#    x 1.612050 0.000000 0.000000 
#    y 0.000000 1.635730 0.000000 
#    z 0.000000 0.000000 1.656680 
# 
# From -- ./inp_files/21554.got.cif
#   From: 2010.03.12/outbox.cif.g09.slc.cpg/sg51_11_cif.got.tgz:21554.got - 2010.04.16 13:43:02.
