data_PCOD8206790
_publ_section_title
;
Structure prediction by ZEFSAII (Michael W. Deem and Ramdas Pophale) SiO2 
 PCOD8206790
Probable space group: P M M A
;
_chemical_formula_sum "Si O2"
_cell_formula_units_Z 56
_cell_length_a 8.686848
_cell_length_b 21.532899
_cell_length_c 18.493266
_cell_angle_alpha 90.000000
_cell_angle_beta 90.000000
_cell_angle_gamma 90.000000
_cell_volume 3459.221266
_symmetry_space_group_name_H-M "P M M A"
_symmetry_group_IT_number 51
_symmetry_cell_setting 'orthorhombic'
loop_
_space_group_symop_operation_xyz
x,y,z
1/2-x,-y,z
1/2+x,-y,-z
-x,y,-z
-x,-y,-z
1/2+x,y,-z
1/2-x,y,z
x,-y,z
loop_
_atom_site_type_symbol
_atom_site_label
_atom_site_fract_x
_atom_site_fract_y
_atom_site_fract_z
Si Si1 0.927340 0.928706 0.669928
Si Si2 0.932196 0.795565 0.922351
Si Si3 0.565725 0.319804 0.159434
Si Si4 0.082230 0.744971 0.705285
Si Si5 0.065975 0.177604 0.578480
Si Si6 0.579738 0.867798 0.200918
Si Si7 0.069955 0.428536 0.076730
O O1 0.750000 0.908567 0.671210
O O2 0.012784 0.888820 0.608571
O O3 0.995566 0.919344 0.750288
O O4 0.948520 0.000000 0.647518
O O5 0.750000 0.790406 0.925719
O O6 0.998861 0.729407 0.897139
O O7 0.980446 0.852199 0.870064
O O8 0.000000 0.811812 0.000000
O O9 0.750000 0.314896 0.158365
O O10 0.501096 0.305384 0.241472
O O11 0.510158 0.388435 0.139160
O O12 0.250000 0.718641 0.684767
O O13 0.000057 0.766246 0.630446
O O14 0.098590 0.806502 0.752321
O O15 0.250000 0.178309 0.577707
O O16 0.000000 0.190253 0.500000
O O17 0.750000 0.891811 0.178458
O O18 0.250000 0.414762 0.074698
O O19 0.033443 0.500000 0.094410
O O20 0.000000 0.409030 0.000000
#
# Coordination Sequence:
#
# PCOD8206790 Si02
#       7
#     8   8   8   8   8   8   8
#     4  10  20  33  49  69  91 118 153 186 218 264
#     4  11  20  30  45  66  91 117 148 187 232 276
#     4  10  18  30  47  66  89 118 155 193 229 270
#     4   7  14  28  45  64  86 113 143 179 220 265
#     4  10  19  32  49  69  95 123 150 182 224 270
#     4   9  17  31  48  66  88 114 146 184 228 272
#     4  10  20  32  44  61  89 125 162 197 233 272
#
# _framework density 16.188616
#
# number of rings (size 3 to 8) (size 9 to 14) (size 15 to 20)
#    0.000    2.429    0.000    5.571    0.000    2.286 
#    0.000    2.143    0.000    0.429    0.000    0.000 
#    0.000    0.571    0.000    1.286    0.000    2.286 
#
# Total GULP energy -693985.128287 kJ/mol
# GULP energy per Si atom -12392.591577 kJ/mol
# Density = 1.615177 g / cm^3
# Si number density = 16.188616 Si / 1000 Ang^3
#
#
#
# Elastic Constant Matrix: (Units=GPa)
#
#
# Indices 1 2 3 4 5 6 
#
# 1 96.8866 30.0860 45.7781 0.0000 0.0000 0.0000
# 2 30.0860 61.2560 54.3795 0.0000 0.0000 0.0000
# 3 45.7781 54.3795 133.3923 0.0000 0.0000 0.0000
# 4 0.0000 0.0000 0.0000 22.8465 0.0000 0.0000
# 5 0.0000 0.0000 0.0000 0.0000 25.6854 0.0000
# 6 0.0000 0.0000 0.0000 0.0000 0.0000 22.0629
#
#
#
# Elastic Compliance Matrix: (Units=1/GPa)
#
#
# Indices 1 2 3 4 5 6 
#
# 1 0.012847 -0.003755 -0.002878 0.000000 0.000000 0.000000
# 2 -0.003755 0.026681 -0.009588 0.000000 0.000000 0.000000
# 3 -0.002878 -0.009588 0.012393 0.000000 0.000000 0.000000
# 4 0.000000 0.000000 0.000000 0.043770 0.000000 0.000000
# 5 0.000000 0.000000 0.000000 0.000000 0.038933 0.000000
# 6 0.000000 0.000000 0.000000 0.000000 0.000000 0.045325
#
#
# Mechanical properties :
#
#
# Convention : Reuss Voigt Hill
#
# Bulk Modulus (GPa) = 51.33788 61.33578 56.33683
# Shear Modulus (GPa) = 22.84298 24.87172 23.85735
#
# Velocity S-wave (km/s) = 3.76047 3.92391 3.84306
# Velocity P-wave (km/s) = 7.11590 7.64852 7.38701
#
# Compressibility (1/GPa) = 0.01947880
#
# Stress axis : x y z
#
# Youngs Moduli (GPa) = 77.83751 37.47959 80.68851
#
# Poissons Ratio (x) = 0.14073 0.23224
# Poissons Ratio (y) = 0.29226 0.77368
# Poissons Ratio (z) = 0.22404 0.35937
#
# Static dielectric constant tensor:
#      x y z
#    x 3.147960 0.000000 0.000000 
#    y 0.000000 2.929820 0.000000 
#    z 0.000000 0.000000 3.315450 
# 
# 
# High freq. dielectric constant tensor:
#      x y z
#    x 1.630590 0.000000 0.000000 
#    y 0.000000 1.588730 0.000000 
#    z 0.000000 0.000000 1.615800 
# 
# From -- ./inp_files/28253.got.cif
#   From: 2010.03.12/outbox.cif.g09.slc.cpg/sg51_15_cif.got.tgz:28253.got - 2010.04.16 13:43:02.
