data_PCOD8206950
_publ_section_title
;
Structure prediction by ZEFSAII (Michael W. Deem and Ramdas Pophale) SiO2 
 PCOD8206950
Probable space group: P M M A
;
_chemical_formula_sum "Si O2"
_cell_formula_units_Z 40
_cell_length_a 19.730124
_cell_length_b 9.054965
_cell_length_c 12.514491
_cell_angle_alpha 90.000000
_cell_angle_beta 90.000000
_cell_angle_gamma 90.000000
_cell_volume 2235.783676
_symmetry_space_group_name_H-M "P M M A"
_symmetry_group_IT_number 51
_symmetry_cell_setting 'orthorhombic'
loop_
_space_group_symop_operation_xyz
x,y,z
1/2-x,-y,z
1/2+x,-y,-z
-x,y,-z
-x,-y,-z
1/2+x,y,-z
1/2-x,y,z
x,-y,z
loop_
_atom_site_type_symbol
_atom_site_label
_atom_site_fract_x
_atom_site_fract_y
_atom_site_fract_z
Si Si1 0.901070 0.169902 0.680375
Si Si2 0.054136 0.826723 0.732760
Si Si3 0.171195 0.830678 0.105757
Si Si4 0.920932 0.333293 0.475022
Si Si5 0.428544 0.674082 0.950679
O O1 0.846228 0.205294 0.771232
O O2 0.881380 0.264487 0.576036
O O3 0.974762 0.212977 0.726102
O O4 0.900587 0.000000 0.644948
O O5 0.094327 0.760085 0.631481
O O6 0.084274 0.753703 0.838581
O O7 0.067567 0.000000 0.736534
O O8 0.250000 0.802690 0.087319
O O9 0.150691 0.000000 0.080221
O O10 0.131235 0.720629 0.029484
O O11 0.895787 0.500000 0.457473
O O12 0.000000 0.325707 0.500000
O O13 0.426709 0.500000 0.932423
O O14 0.500000 0.725713 0.000000
#
# Coordination Sequence:
#
# PCOD8206950 Si02
#       5
#     8   8   8   8   8
#     4   9  17  30  49  74 103 135 172 214 261 314
#     4  10  18  30  51  76 104 137 174 219 267 313
#     4  10  21  37  56  78 106 142 182 222 266 320
#     4   9  17  28  45  72 105 135 165 207 260 314
#     4  11  22  34  52  78 109 142 179 224 273 322
#
# _framework density 17.890816999999998
#
# number of rings (size 3 to 8) (size 9 to 14) (size 15 to 20)
#    0.000    2.200    2.000    1.800    0.000    5.200 
#    0.000    0.000    0.000    1.200    0.000    2.800 
#    0.000    0.000    0.000    0.000    0.000    0.000 
#
# Total GULP energy -496116.802134 kJ/mol
# GULP energy per Si atom -12402.920053 kJ/mol
# Density = 1.785010 g / cm^3
# Si number density = 17.890817 Si / 1000 Ang^3
#
#
#
# Elastic Constant Matrix: (Units=GPa)
#
#
# Indices 1 2 3 4 5 6 
#
# 1 51.4501 28.0457 33.5180 0.0000 0.0000 0.0000
# 2 28.0457 96.5891 65.3978 0.0000 0.0000 0.0000
# 3 33.5180 65.3978 134.2601 0.0000 0.0000 0.0000
# 4 0.0000 0.0000 0.0000 35.2896 0.0000 0.0000
# 5 0.0000 0.0000 0.0000 0.0000 19.9514 0.0000
# 6 0.0000 0.0000 0.0000 0.0000 0.0000 14.9154
#
#
#
# Elastic Compliance Matrix: (Units=1/GPa)
#
#
# Indices 1 2 3 4 5 6 
#
# 1 0.024414 -0.004420 -0.003942 0.000000 0.000000 0.000000
# 2 -0.004420 0.016248 -0.006811 0.000000 0.000000 0.000000
# 3 -0.003942 -0.006811 0.011750 0.000000 0.000000 0.000000
# 4 0.000000 0.000000 0.000000 0.028337 0.000000 0.000000
# 5 0.000000 0.000000 0.000000 0.000000 0.050122 0.000000
# 6 0.000000 0.000000 0.000000 0.000000 0.000000 0.067045
#
#
# Mechanical properties :
#
#
# Convention : Reuss Voigt Hill
#
# Bulk Modulus (GPa) = 45.31834 59.58027 52.44930
# Shear Modulus (GPa) = 21.22098 24.38713 22.80405
#
# Velocity S-wave (km/s) = 3.44777 3.69604 3.57406
# Velocity P-wave (km/s) = 6.42145 7.18253 6.81262
#
# Compressibility (1/GPa) = 0.02206612
#
# Stress axis : x y z
#
# Youngs Moduli (GPa) = 40.96074 61.54612 85.10663
#
# Poissons Ratio (x) = 0.27202 0.33549
# Poissons Ratio (y) = 0.18104 0.57966
# Poissons Ratio (z) = 0.16147 0.41919
#
# Static dielectric constant tensor:
#      x y z
#    x 2.872520 0.000000 0.000000 
#    y 0.000000 3.363540 0.000000 
#    z 0.000000 0.000000 3.426420 
# 
# 
# High freq. dielectric constant tensor:
#      x y z
#    x 1.639590 0.000000 0.000000 
#    y 0.000000 1.700230 0.000000 
#    z 0.000000 0.000000 1.706660 
# 
# From -- ./inp_files/17057.got.cif
#   From: 2010.03.12/outbox.cif.g09.slc.cpg/sg51_9_cif.got.tgz:17057.got - 2010.04.16 13:43:02.
