data_PCOD8206699
_publ_section_title
;
Structure prediction by ZEFSAII (Michael W. Deem and Ramdas Pophale) SiO2 
 PCOD8206699
Probable space group: P M M A
;
_chemical_formula_sum "Si O2"
_cell_formula_units_Z 40
_cell_length_a 24.737651
_cell_length_b 8.961630
_cell_length_c 10.373510
_cell_angle_alpha 90.000000
_cell_angle_beta 90.000000
_cell_angle_gamma 90.000000
_cell_volume 2299.700064
_symmetry_space_group_name_H-M "P M M A"
_symmetry_group_IT_number 51
_symmetry_cell_setting 'orthorhombic'
loop_
_space_group_symop_operation_xyz
x,y,z
1/2-x,-y,z
1/2+x,-y,-z
-x,y,-z
-x,-y,-z
1/2+x,y,-z
1/2-x,y,z
x,-y,z
loop_
_atom_site_type_symbol
_atom_site_label
_atom_site_fract_x
_atom_site_fract_y
_atom_site_fract_z
Si Si1 0.750000 0.663311 0.526020
Si Si2 0.526207 0.174778 0.130261
Si Si3 0.640445 0.175663 0.233897
Si Si4 0.472408 0.672788 0.370013
Si Si5 0.750000 0.666356 0.219577
Si Si6 0.636416 0.323979 0.504723
O O1 0.750000 0.500000 0.589363
O O2 0.750000 0.656051 0.372037
O O3 0.806788 0.741451 0.564324
O O4 0.590198 0.212509 0.138611
O O5 0.492914 0.238914 0.248585
O O6 0.516953 0.000000 0.134819
O O7 0.500000 0.242403 0.000000
O O8 0.695198 0.248249 0.175822
O O9 0.622642 0.240457 0.372364
O O10 0.650215 0.000000 0.248021
O O11 0.500000 0.732984 0.500000
O O12 0.486717 0.500000 0.350046
O O13 0.408445 0.701482 0.386632
O O14 0.750000 0.500000 0.158646
O O15 0.642727 0.500000 0.471152
#
# Coordination Sequence:
#
# PCOD8206699 Si02
#       6
#     4   8   8   8   4   8
#     4   7  12  23  41  64  91 124 154 188 240 298
#     4  10  22  37  51  71 103 140 175 212 257 306
#     4  10  18  29  48  73  99 128 168 210 247 296
#     4  10  19  31  50  75 102 131 168 213 258 308
#     4   9  17  29  47  70  99 130 160 202 256 302
#     4   9  16  28  46  70 100 131 164 205 258 305
#
# _framework density 17.393571999999999
#
# number of rings (size 3 to 8) (size 9 to 14) (size 15 to 20)
#    0.000    2.600    2.000    2.100    0.000    2.400 
#    0.000    0.000    0.000    1.200    0.000    2.800 
#    0.000    0.000    0.000    0.000    0.000    0.000 
#
# Total GULP energy -495630.767207 kJ/mol
# GULP energy per Si atom -12390.769180 kJ/mol
# Density = 1.735398 g / cm^3
# Si number density = 17.393572 Si / 1000 Ang^3
#
#
#
# Elastic Constant Matrix: (Units=GPa)
#
#
# Indices 1 2 3 4 5 6 
#
# 1 166.6041 48.6286 62.4364 0.0000 0.0000 0.0000
# 2 48.6286 57.5045 25.9438 0.0000 0.0000 0.0000
# 3 62.4364 25.9438 81.6375 0.0000 0.0000 0.0000
# 4 0.0000 0.0000 0.0000 5.1132 0.0000 0.0000
# 5 0.0000 0.0000 0.0000 0.0000 19.5779 0.0000
# 6 0.0000 0.0000 0.0000 0.0000 0.0000 30.8943
#
#
#
# Elastic Compliance Matrix: (Units=1/GPa)
#
#
# Indices 1 2 3 4 5 6 
#
# 1 0.009801 -0.005728 -0.005676 0.000000 0.000000 0.000000
# 2 -0.005728 0.023648 -0.003135 0.000000 0.000000 0.000000
# 3 -0.005676 -0.003135 0.017586 0.000000 0.000000 0.000000
# 4 0.000000 0.000000 0.000000 0.195572 0.000000 0.000000
# 5 0.000000 0.000000 0.000000 0.000000 0.051078 0.000000
# 6 0.000000 0.000000 0.000000 0.000000 0.000000 0.032368
#
#
# Mechanical properties :
#
#
# Convention : Reuss Voigt Hill
#
# Bulk Modulus (GPa) = 45.53902 64.41820 54.97861
# Shear Modulus (GPa) = 13.64446 22.36623 18.00535
#
# Velocity S-wave (km/s) = 2.80385 3.58982 3.22090
# Velocity P-wave (km/s) = 6.05974 7.36875 6.74607
#
# Compressibility (1/GPa) = 0.02195919
#
# Stress axis : x y z
#
# Youngs Moduli (GPa) = 102.03008 42.28745 56.86295
#
# Poissons Ratio (x) = 0.24221 0.32273
# Poissons Ratio (y) = 0.58439 0.17824
# Poissons Ratio (z) = 0.57909 0.13255
#
# Static dielectric constant tensor:
#      x y z
#    x 3.921330 0.000000 0.000000 
#    y 0.000000 3.166850 0.000000 
#    z 0.000000 0.000000 2.869760 
# 
# 
# High freq. dielectric constant tensor:
#      x y z
#    x 1.702670 0.000000 0.000000 
#    y 0.000000 1.660740 0.000000 
#    z 0.000000 0.000000 1.614230 
# 
# From -- ./inp_files/12196.got.cif
#   From: 2010.03.12/outbox.cif.g09.slc.cpg/sg51_7_cif.got.tgz:12196.got - 2010.04.16 13:43:02.
