data_PCOD8206521
_publ_section_title
;
Structure prediction by ZEFSAII (Michael W. Deem and Ramdas Pophale) SiO2 
 PCOD8206521
Probable space group: P M M A
;
_chemical_formula_sum "Si O2"
_cell_formula_units_Z 48
_cell_length_a 15.686207
_cell_length_b 9.012750
_cell_length_c 18.527890
_cell_angle_alpha 90.000000
_cell_angle_beta 90.000000
_cell_angle_gamma 90.000000
_cell_volume 2619.396422
_symmetry_space_group_name_H-M "P M M A"
_symmetry_group_IT_number 51
_symmetry_cell_setting 'orthorhombic'
loop_
_space_group_symop_operation_xyz
x,y,z
1/2-x,-y,z
1/2+x,-y,-z
-x,y,-z
-x,-y,-z
1/2+x,y,-z
1/2-x,y,z
x,-y,z
loop_
_atom_site_type_symbol
_atom_site_label
_atom_site_fract_x
_atom_site_fract_y
_atom_site_fract_z
Si Si1 0.344534 0.823756 0.909822
Si Si2 0.493087 0.324744 0.329280
Si Si3 0.587222 0.166505 0.543509
Si Si4 0.344771 0.176012 0.071545
Si Si5 0.343894 0.669077 0.583835
Si Si6 0.492710 0.177041 0.176349
O O1 0.250000 0.770894 0.884140
O O2 0.417336 0.764202 0.855927
O O3 0.347806 0.000000 0.911475
O O4 0.362798 0.763765 0.990684
O O5 0.483264 0.500000 0.321356
O O6 0.421501 0.263892 0.384159
O O7 0.586878 0.276573 0.357784
O O8 0.477900 0.247810 0.253541
O O9 0.500000 0.167300 0.500000
O O10 0.656542 0.237688 0.490225
O O11 0.615004 0.000000 0.564663
O O12 0.250000 0.226994 0.096799
O O13 0.416456 0.237427 0.125615
O O14 0.349692 0.000000 0.070240
O O15 0.250000 0.685439 0.618906
O O16 0.364846 0.500000 0.562566
O O17 0.491560 0.000000 0.183121
#
# Coordination Sequence:
#
# PCOD8206521 Si02
#       6
#     8   8   8   8   8   8
#     4   8  14  25  43  69  97 122 153 197 246 292
#     4  10  20  33  48  67  96 132 161 188 231 287
#     4   9  17  31  51  72  92 116 151 194 234 272
#     4   8  14  26  45  68  92 119 156 202 246 287
#     4   9  18  33  52  72  94 123 158 192 230 283
#     4  10  18  28  46  71  96 124 159 199 242 286
#
# _framework density 18.324832000000001
#
# number of rings (size 3 to 8) (size 9 to 14) (size 15 to 20)
#    0.000    3.000    0.000    2.500    0.000    5.667 
#    0.000    0.833    0.000    5.500    0.000    2.333 
#    0.000    0.000    0.000    0.000    0.000    0.000 
#
# Total GULP energy -594950.957866 kJ/mol
# GULP energy per Si atom -12394.811622 kJ/mol
# Density = 1.828312 g / cm^3
# Si number density = 18.324832 Si / 1000 Ang^3
#
#
#
# Elastic Constant Matrix: (Units=GPa)
#
#
# Indices 1 2 3 4 5 6 
#
# 1 59.1750 9.0736 22.5777 0.0000 0.0000 0.0000
# 2 9.0736 39.2691 18.7309 0.0000 0.0000 0.0000
# 3 22.5777 18.7309 94.0601 0.0000 0.0000 0.0000
# 4 0.0000 0.0000 0.0000 7.8706 0.0000 0.0000
# 5 0.0000 0.0000 0.0000 0.0000 20.4428 0.0000
# 6 0.0000 0.0000 0.0000 0.0000 0.0000 12.3634
#
#
#
# Elastic Compliance Matrix: (Units=1/GPa)
#
#
# Indices 1 2 3 4 5 6 
#
# 1 0.018809 -0.002423 -0.004032 0.000000 0.000000 0.000000
# 2 -0.002423 0.028450 -0.005084 0.000000 0.000000 0.000000
# 3 -0.004032 -0.005084 0.012612 0.000000 0.000000 0.000000
# 4 0.000000 0.000000 0.000000 0.127055 0.000000 0.000000
# 5 0.000000 0.000000 0.000000 0.000000 0.048917 0.000000
# 6 0.000000 0.000000 0.000000 0.000000 0.000000 0.080884
#
#
# Mechanical properties :
#
#
# Convention : Reuss Voigt Hill
#
# Bulk Modulus (GPa) = 27.17914 32.58541 29.88228
# Shear Modulus (GPa) = 14.20176 17.61017 15.90597
#
# Velocity S-wave (km/s) = 2.78690 3.10336 2.94938
# Velocity P-wave (km/s) = 5.02194 5.53732 5.28591
#
# Compressibility (1/GPa) = 0.03679292
#
# Stress axis : x y z
#
# Youngs Moduli (GPa) = 53.16597 35.14930 79.29072
#
# Poissons Ratio (x) = 0.08515 0.31973
# Poissons Ratio (y) = 0.12880 0.40311
# Poissons Ratio (z) = 0.21439 0.17870
#
# Static dielectric constant tensor:
#      x y z
#    x 3.557350 0.000000 0.000000 
#    y 0.000000 3.061420 0.000000 
#    z 0.000000 0.000000 3.348940 
# 
# 
# High freq. dielectric constant tensor:
#      x y z
#    x 1.708300 0.000000 0.000000 
#    y 0.000000 1.673310 0.000000 
#    z 0.000000 0.000000 1.702410 
# 
# From -- ./inp_files/29491.got.cif
#   From: 2010.03.12/outbox.cif.g09.slc.cpg/sg51_15_cif.got.tgz:29491.got - 2010.04.16 13:43:02.
