data_PCOD8206550
_publ_section_title
;
Structure prediction by ZEFSAII (Michael W. Deem and Ramdas Pophale) SiO2 
 PCOD8206550
Probable space group: P M M A
;
_chemical_formula_sum "Si O2"
_cell_formula_units_Z 48
_cell_length_a 30.836900
_cell_length_b 9.013478
_cell_length_c 9.056879
_cell_angle_alpha 90.000000
_cell_angle_beta 90.000000
_cell_angle_gamma 90.000000
_cell_volume 2517.338866
_symmetry_space_group_name_H-M "P M M A"
_symmetry_group_IT_number 51
_symmetry_cell_setting 'orthorhombic'
loop_
_space_group_symop_operation_xyz
x,y,z
1/2-x,-y,z
1/2+x,-y,-z
-x,y,-z
-x,-y,-z
1/2+x,y,-z
1/2-x,y,z
x,-y,z
loop_
_atom_site_type_symbol
_atom_site_label
_atom_site_fract_x
_atom_site_fract_y
_atom_site_fract_z
Si Si1 0.250000 0.667239 0.641175
Si Si2 0.656047 0.667952 0.323082
Si Si3 0.921051 0.675514 0.839316
Si Si4 0.497548 0.171385 0.329778
Si Si5 0.250000 0.826232 0.341888
Si Si6 0.916679 0.828056 0.150569
Si Si7 0.163492 0.673376 0.332658
O O1 0.250000 0.500000 0.568883
O O2 0.294119 0.684765 0.735880
O O3 0.250000 0.790642 0.515174
O O4 0.639283 0.500000 0.298009
O O5 0.627398 0.780460 0.230328
O O6 0.654420 0.709778 0.495824
O O7 0.921988 0.500000 0.846886
O O8 0.961855 0.728043 0.746071
O O9 0.877140 0.732245 0.761484
O O10 0.924250 0.737918 0.002664
O O11 0.500000 0.216203 0.500000
O O12 0.543961 0.206571 0.259799
O O13 0.484559 0.000000 0.308674
O O14 0.206259 0.756891 0.272066
O O15 0.250000 0.000000 0.313025
O O16 0.913662 0.000000 0.110023
O O17 0.171074 0.500000 0.309282
#
# Coordination Sequence:
#
# PCOD8206550 Si02
#       7
#     4   8   8   8   4   8   8
#     4   8  16  32  53  78 111 146 180 226 278 320
#     4   9  17  33  57  81 106 140 184 228 268 316
#     4  11  23  38  58  82 108 143 185 225 267 320
#     4  10  22  40  60  82 110 143 177 218 272 327
#     4  10  18  28  51  84 111 140 180 224 268 318
#     4  11  23  37  54  79 113 148 178 217 273 328
#     4   9  19  36  56  79 109 144 181 225 275 320
#
# _framework density 19.067754999999998
#
# number of rings (size 3 to 8) (size 9 to 14) (size 15 to 20)
#    0.000    2.167    0.000    4.250    0.000    7.667 
#    0.000    0.833    0.000    2.000    0.000    0.000 
#    0.000    0.000    0.000    0.000    0.000    0.000 
#
# Total GULP energy -595219.341919 kJ/mol
# GULP energy per Si atom -12400.402957 kJ/mol
# Density = 1.902436 g / cm^3
# Si number density = 19.067755 Si / 1000 Ang^3
#
#
#
# Elastic Constant Matrix: (Units=GPa)
#
#
# Indices 1 2 3 4 5 6 
#
# 1 146.0094 56.5809 59.6729 0.0000 0.0000 0.0000
# 2 56.5809 68.5495 37.0607 0.0000 0.0000 0.0000
# 3 59.6729 37.0607 99.4073 0.0000 0.0000 0.0000
# 4 0.0000 0.0000 0.0000 25.9668 0.0000 0.0000
# 5 0.0000 0.0000 0.0000 0.0000 -6.4783 0.0000
# 6 0.0000 0.0000 0.0000 0.0000 0.0000 17.6721
#
#
#
# Elastic Compliance Matrix: (Units=1/GPa)
#
#
# Indices 1 2 3 4 5 6 
#
# 1 0.011280 -0.007076 -0.004133 0.000000 0.000000 0.000000
# 2 -0.007076 0.022709 -0.004219 0.000000 0.000000 0.000000
# 3 -0.004133 -0.004219 0.014114 0.000000 0.000000 0.000000
# 4 0.000000 0.000000 0.000000 0.038511 0.000000 0.000000
# 5 0.000000 0.000000 0.000000 0.000000 -0.154362 0.000000
# 6 0.000000 0.000000 0.000000 0.000000 0.000000 0.056587
#
#
# Mechanical properties :
#
#
# Convention : Reuss Voigt Hill
#
# Bulk Modulus (GPa) = 57.98114 68.95503 63.46809
# Shear Modulus (GPa) = 196.51572 18.14224 107.32898
#
# Velocity S-wave (km/s) = 10.16295 3.08792 7.51069
# Velocity P-wave (km/s) = 12.96873 6.99681 10.41977
#
# Compressibility (1/GPa) = 0.01724699
#
# Stress axis : x y z
#
# Youngs Moduli (GPa) = 88.65088 44.03453 70.85362
#
# Poissons Ratio (x) = 0.31159 0.29286
# Poissons Ratio (y) = 0.62730 0.29892
# Poissons Ratio (z) = 0.36642 0.18577
#
# Static dielectric constant tensor:
#      x y z
#    x 3.848770 0.000000 0.000000 
#    y 0.000000 3.408190 0.000000 
#    z 0.000000 0.000000 3.483250 
# 
# 
# High freq. dielectric constant tensor:
#      x y z
#    x 1.762310 0.000000 0.000000 
#    y 0.000000 1.738880 0.000000 
#    z 0.000000 0.000000 1.719530 
# 
# From -- ./inp_files/12917.got.cif
#   From: 2010.03.12/outbox.cif.g09.slc.cpg/sg51_7_cif.got.tgz:12917.got - 2010.04.16 13:43:02.
