data_PCOD8206456
_publ_section_title
;
Structure prediction by ZEFSAII (Michael W. Deem and Ramdas Pophale) SiO2 
 PCOD8206456
Probable space group: P M M A
;
_chemical_formula_sum "Si O2"
_cell_formula_units_Z 52
_cell_length_a 9.056416
_cell_length_b 18.625476
_cell_length_c 18.072150
_cell_angle_alpha 90.000000
_cell_angle_beta 90.000000
_cell_angle_gamma 90.000000
_cell_volume 3048.411326
_symmetry_space_group_name_H-M "P M M A"
_symmetry_group_IT_number 51
_symmetry_cell_setting 'orthorhombic'
loop_
_space_group_symop_operation_xyz
x,y,z
1/2-x,-y,z
1/2+x,-y,-z
-x,y,-z
-x,-y,-z
1/2+x,y,-z
1/2-x,y,z
x,-y,z
loop_
_atom_site_type_symbol
_atom_site_label
_atom_site_fract_x
_atom_site_fract_y
_atom_site_fract_z
Si Si1 0.422365 0.784735 0.421937
Si Si2 0.916309 0.291352 0.206293
Si Si3 0.424089 0.500000 0.421095
Si Si4 0.084404 0.144632 0.704251
Si Si5 0.421633 0.359260 0.333910
Si Si6 0.580659 0.920067 0.832517
Si Si7 0.424604 0.218180 0.078092
O O1 0.500000 0.789481 0.500000
O O2 0.250000 0.798889 0.431530
O O3 0.488989 0.847121 0.370085
O O4 0.455665 0.706869 0.387974
O O5 0.750000 0.314129 0.184384
O O6 0.915842 0.219002 0.252668
O O7 0.989163 0.353043 0.256985
O O8 0.013484 0.279365 0.132875
O O9 0.250000 0.500000 0.434314
O O10 0.500000 0.500000 0.500000
O O11 0.475629 0.430563 0.375362
O O12 0.250000 0.120783 0.683406
O O13 0.012718 0.085011 0.757196
O O14 0.250000 0.362613 0.313159
O O15 0.750000 0.905506 0.810890
O O16 0.530648 0.861420 0.893068
O O17 0.558024 0.000000 0.865947
O O18 0.250000 0.227291 0.070680
O O19 0.500000 0.230200 0.000000
#
# Coordination Sequence:
#
# PCOD8206456 Si02
#       7
#     8   8   4   8   8   8   8
#     4  10  18  28  44  65  89 117 151 192 236 277
#     4   9  17  30  48  68  90 119 157 197 233 272
#     4  10  20  32  46  68 101 136 167 198 234 276
#     4   9  17  29  45  65  87 113 150 193 232 272
#     4   9  18  31  46  66  94 128 161 193 231 275
#     4   9  18  32  48  66  91 124 156 184 221 272
#     4  10  19  31  48  71  99 126 153 189 231 273
#
# _framework density 17.058066
#
# number of rings (size 3 to 8) (size 9 to 14) (size 15 to 20)
#    0.000    2.615    0.000    2.308    0.000    6.154 
#    0.000    0.000    0.000    0.462    0.000    0.538 
#    0.000    0.000    0.000    0.000    0.000    0.000 
#
# Total GULP energy -644791.185850 kJ/mol
# GULP energy per Si atom -12399.830497 kJ/mol
# Density = 1.701924 g / cm^3
# Si number density = 17.058066 Si / 1000 Ang^3
#
#
#
# Elastic Constant Matrix: (Units=GPa)
#
#
# Indices 1 2 3 4 5 6 
#
# 1 94.9279 21.9645 69.6656 0.0000 0.0000 0.0000
# 2 21.9645 49.5223 42.7844 0.0000 0.0000 0.0000
# 3 69.6656 42.7844 137.7301 0.0000 0.0000 0.0000
# 4 0.0000 0.0000 0.0000 20.4266 0.0000 0.0000
# 5 0.0000 0.0000 0.0000 0.0000 36.7586 0.0000
# 6 0.0000 0.0000 0.0000 0.0000 0.0000 17.6373
#
#
#
# Elastic Compliance Matrix: (Units=1/GPa)
#
#
# Indices 1 2 3 4 5 6 
#
# 1 0.016754 -0.000150 -0.008428 0.000000 0.000000 0.000000
# 2 -0.000150 0.027601 -0.008498 0.000000 0.000000 0.000000
# 3 -0.008428 -0.008498 0.014163 0.000000 0.000000 0.000000
# 4 0.000000 0.000000 0.000000 0.048956 0.000000 0.000000
# 5 0.000000 0.000000 0.000000 0.000000 0.027205 0.000000
# 6 0.000000 0.000000 0.000000 0.000000 0.000000 0.056698
#
#
# Mechanical properties :
#
#
# Convention : Reuss Voigt Hill
#
# Bulk Modulus (GPa) = 41.03914 61.22327 51.13121
# Shear Modulus (GPa) = 21.39939 24.81555 23.10747
#
# Velocity S-wave (km/s) = 3.54574 3.81828 3.68453
# Velocity P-wave (km/s) = 6.39326 7.44366 6.93836
#
# Compressibility (1/GPa) = 0.02436698
#
# Stress axis : x y z
#
# Youngs Moduli (GPa) = 59.68730 36.22999 70.60429
#
# Poissons Ratio (x) = 0.00542 0.59504
# Poissons Ratio (y) = 0.00893 0.60002
# Poissons Ratio (z) = 0.50304 0.30790
#
# Static dielectric constant tensor:
#      x y z
#    x 3.352390 0.000000 0.000000 
#    y 0.000000 3.032520 0.000000 
#    z 0.000000 0.000000 3.140360 
# 
# 
# High freq. dielectric constant tensor:
#      x y z
#    x 1.670190 0.000000 0.000000 
#    y 0.000000 1.622990 0.000000 
#    z 0.000000 0.000000 1.651620 
# 
# From -- ./inp_files/27902.got.cif
#   From: 2010.03.12/outbox.cif.g09.slc.cpg/sg51_14_cif.got.tgz:27902.got - 2010.04.16 13:43:02.
