data_PCOD8206954
_publ_section_title
;
Structure prediction by ZEFSAII (Michael W. Deem and Ramdas Pophale) SiO2 
 PCOD8206954
Probable space group: P M M A
;
_chemical_formula_sum "Si O2"
_cell_formula_units_Z 48
_cell_length_a 8.708087
_cell_length_b 30.597031
_cell_length_c 9.566316
_cell_angle_alpha 90.000000
_cell_angle_beta 90.000000
_cell_angle_gamma 90.000000
_cell_volume 2548.864617
_symmetry_space_group_name_H-M "P M M A"
_symmetry_group_IT_number 51
_symmetry_cell_setting 'orthorhombic'
loop_
_space_group_symop_operation_xyz
x,y,z
1/2-x,-y,z
1/2+x,-y,-z
-x,y,-z
-x,-y,-z
1/2+x,y,-z
1/2-x,y,z
x,-y,z
loop_
_atom_site_type_symbol
_atom_site_label
_atom_site_fract_x
_atom_site_fract_y
_atom_site_fract_z
Si Si1 0.568779 0.699032 0.152682
Si Si2 0.569525 0.381643 0.347859
Si Si3 0.067337 0.212794 0.154937
Si Si4 0.067739 0.874847 0.847113
Si Si5 0.431014 0.048862 0.646378
Si Si6 0.929104 0.449145 0.854518
O O1 0.750000 0.705230 0.137797
O O2 0.523154 0.659573 0.253500
O O3 0.495592 0.742572 0.224277
O O4 0.500000 0.689497 0.000000
O O5 0.500000 0.375059 0.500000
O O6 0.750000 0.386884 0.361931
O O7 0.503377 0.425079 0.276973
O O8 0.250000 0.212205 0.155574
O O9 0.001709 0.168771 0.227545
O O10 0.000000 0.212775 0.000000
O O11 0.250000 0.870574 0.854127
O O12 0.011798 0.917138 0.762190
O O13 0.000000 0.880822 0.000000
O O14 0.500000 0.063940 0.500000
O O15 0.250000 0.050025 0.632323
O O16 0.487990 0.000000 0.686988
O O17 0.750000 0.439111 0.858969
O O18 0.965853 0.500000 0.834299
O O19 0.000000 0.431861 0.000000
#
# Coordination Sequence:
#
# PCOD8206954 Si02
#       6
#     8   8   8   8   8   8
#     4  10  20  35  56  81 106 137 177 218 263 313
#     4  11  24  39  57  81 112 148 183 224 272 322
#     4  10  18  30  51  77 104 135 171 212 259 309
#     4  10  19  32  51  76 106 135 167 211 259 308
#     4   9  19  35  53  73  99 133 172 212 255 305
#     4  10  21  38  61  87 114 145 183 226 269 317
#
# _framework density 18.831913
#
# number of rings (size 3 to 8) (size 9 to 14) (size 15 to 20)
#    0.000    2.000    0.000    6.000    0.000    7.000 
#    0.000    0.833    0.000    0.000    0.000    0.000 
#    0.000    0.000    0.000    0.000    0.000    0.000 
#
# Total GULP energy -595184.715507 kJ/mol
# GULP energy per Si atom -12399.681573 kJ/mol
# Density = 1.878905 g / cm^3
# Si number density = 18.831913 Si / 1000 Ang^3
#
#
#
# Elastic Constant Matrix: (Units=GPa)
#
#
# Indices 1 2 3 4 5 6 
#
# 1 99.5143 65.1434 48.2861 0.0000 0.0000 0.0000
# 2 65.1434 136.1950 75.3384 0.0000 0.0000 0.0000
# 3 48.2861 75.3384 106.1638 0.0000 0.0000 0.0000
# 4 0.0000 0.0000 0.0000 -0.7300 0.0000 0.0000
# 5 0.0000 0.0000 0.0000 0.0000 30.9577 0.0000
# 6 0.0000 0.0000 0.0000 0.0000 0.0000 30.2196
#
#
#
# Elastic Compliance Matrix: (Units=1/GPa)
#
#
# Indices 1 2 3 4 5 6 
#
# 1 0.015145 -0.005653 -0.002877 0.000000 0.000000 0.000000
# 2 -0.005653 0.014197 -0.007504 0.000000 0.000000 0.000000
# 3 -0.002877 -0.007504 0.016053 0.000000 0.000000 0.000000
# 4 0.000000 0.000000 0.000000 -1.369937 0.000000 0.000000
# 5 0.000000 0.000000 0.000000 0.000000 0.032302 0.000000
# 6 0.000000 0.000000 0.000000 0.000000 0.000000 0.033091
#
#
# Mechanical properties :
#
#
# Convention : Reuss Voigt Hill
#
# Bulk Modulus (GPa) = 75.02942 79.93433 77.48187
# Shear Modulus (GPa) = -4.08951 22.29649 9.10349
#
# Velocity S-wave (km/s) = -1.47523 3.44462 2.20104
# Velocity P-wave (km/s) = 6.08493 7.63930 6.90599
#
# Compressibility (1/GPa) = 0.01332810
#
# Stress axis : x y z
#
# Youngs Moduli (GPa) = 66.02821 70.43779 62.29360
#
# Poissons Ratio (x) = 0.39815 0.17922
# Poissons Ratio (y) = 0.37323 0.46744
# Poissons Ratio (z) = 0.18997 0.52855
#
# Static dielectric constant tensor:
#      x y z
#    x 3.521080 0.000000 0.000000 
#    y 0.000000 4.211260 0.000000 
#    z 0.000000 0.000000 3.221160 
# 
# 
# High freq. dielectric constant tensor:
#      x y z
#    x 1.745710 0.000000 0.000000 
#    y 0.000000 1.753170 0.000000 
#    z 0.000000 0.000000 1.701460 
# 
# From -- ./inp_files/6077.got.cif
#   From: 2010.03.12/outbox.cif.g09.slc.cpg/sg51_4_cif.got.tgz:6077.got - 2010.04.16 13:43:02.
