data_PCOD8206574
_publ_section_title
;
Structure prediction by ZEFSAII (Michael W. Deem and Ramdas Pophale) SiO2 
 PCOD8206574
Probable space group: P M M A
;
_chemical_formula_sum "Si O2"
_cell_formula_units_Z 64
_cell_length_a 25.851086
_cell_length_b 9.160199
_cell_length_c 18.226620
_cell_angle_alpha 90.000000
_cell_angle_beta 90.000000
_cell_angle_gamma 90.000000
_cell_volume 4316.083522
_symmetry_space_group_name_H-M "P M M A"
_symmetry_group_IT_number 51
_symmetry_cell_setting 'orthorhombic'
loop_
_space_group_symop_operation_xyz
x,y,z
1/2-x,-y,z
1/2+x,-y,-z
-x,y,-z
-x,-y,-z
1/2+x,y,-z
1/2-x,y,z
x,-y,z
loop_
_atom_site_type_symbol
_atom_site_label
_atom_site_fract_x
_atom_site_fract_y
_atom_site_fract_z
Si Si1 0.897648 0.668969 0.575987
Si Si2 0.690832 0.667708 0.683700
Si Si3 0.689698 0.830663 0.831297
Si Si4 0.447818 0.834968 0.546333
Si Si5 0.003431 0.670144 0.165301
Si Si6 0.052336 0.835262 0.954374
Si Si7 0.106450 0.328512 0.077231
Si Si8 0.501667 0.329892 0.666605
O O1 0.900462 0.500000 0.554563
O O2 0.843474 0.711091 0.613650
O O3 0.902453 0.758924 0.500554
O O4 0.942659 0.710039 0.633240
O O5 0.750000 0.692158 0.660408
O O6 0.680067 0.500000 0.706855
O O7 0.675118 0.768560 0.751609
O O8 0.750000 0.806394 0.847846
O O9 0.658618 0.743546 0.892899
O O10 0.674236 0.000000 0.833402
O O11 0.500000 0.823638 0.500000
O O12 0.456149 0.754667 0.623885
O O13 0.431287 0.000000 0.562270
O O14 0.990985 0.500000 0.155754
O O15 0.060107 0.705722 0.133656
O O16 0.002098 0.720749 0.249348
O O17 0.958768 0.759664 0.123643
O O18 0.072499 0.000000 0.941884
O O19 0.095147 0.742592 0.998049
O O20 0.000000 0.834797 0.000000
O O21 0.114922 0.500000 0.066632
O O22 0.489796 0.500000 0.659038
#
# Coordination Sequence:
#
# PCOD8206574 Si02
#       8
#     8   8   8   8   8   8   8   8
#     4   9  16  27  42  58  78 107 139 167 200 239
#     4   9  17  29  44  61  81 106 138 173 204 237
#     4  10  20  31  42  59  84 111 139 173 210 244
#     4   9  17  27  38  55  78 103 133 168 203 238
#     4   9  17  28  42  61  83 108 139 171 203 241
#     4   9  17  28  41  59  83 109 136 167 204 243
#     4  10  18  29  45  61  80 109 143 174 203 239
#     4   9  16  26  40  57  79 107 137 167 199 238
#
# _framework density 14.828258999999999
#
# number of rings (size 3 to 8) (size 9 to 14) (size 15 to 20)
#    0.000    2.750    0.000    2.250    0.000    7.250 
#    0.000    2.500    0.000    0.000    0.000    0.000 
#    0.000    1.000    0.000    8.250    0.000    3.875 
#
# Total GULP energy -793645.641067 kJ/mol
# GULP energy per Si atom -12400.713142 kJ/mol
# Density = 1.479451 g / cm^3
# Si number density = 14.828259 Si / 1000 Ang^3
#
#
#
# Elastic Constant Matrix: (Units=GPa)
#
#
# Indices 1 2 3 4 5 6 
#
# 1 56.8437 39.0147 38.8749 0.0000 0.0000 0.0000
# 2 39.0147 87.2861 50.0610 0.0000 0.0000 0.0000
# 3 38.8749 50.0610 94.7776 0.0000 0.0000 0.0000
# 4 0.0000 0.0000 0.0000 19.3673 0.0000 0.0000
# 5 0.0000 0.0000 0.0000 0.0000 26.7962 0.0000
# 6 0.0000 0.0000 0.0000 0.0000 0.0000 18.7701
#
#
#
# Elastic Compliance Matrix: (Units=1/GPa)
#
#
# Indices 1 2 3 4 5 6 
#
# 1 0.028341 -0.008608 -0.007078 0.000000 0.000000 0.000000
# 2 -0.008608 0.019050 -0.006531 0.000000 0.000000 0.000000
# 3 -0.007078 -0.006531 0.016904 0.000000 0.000000 0.000000
# 4 0.000000 0.000000 0.000000 0.051633 0.000000 0.000000
# 5 0.000000 0.000000 0.000000 0.000000 0.037319 0.000000
# 6 0.000000 0.000000 0.000000 0.000000 0.000000 0.053276
#
#
# Mechanical properties :
#
#
# Convention : Reuss Voigt Hill
#
# Bulk Modulus (GPa) = 50.35202 54.97872 52.66537
# Shear Modulus (GPa) = 19.41159 20.38383 19.89771
#
# Velocity S-wave (km/s) = 3.62207 3.71166 3.66714
# Velocity P-wave (km/s) = 7.17795 7.45158 7.31605
#
# Compressibility (1/GPa) = 0.01986018
#
# Stress axis : x y z
#
# Youngs Moduli (GPa) = 35.28477 52.49292 59.15812
#
# Poissons Ratio (x) = 0.45188 0.41870
# Poissons Ratio (y) = 0.30375 0.38638
# Poissons Ratio (z) = 0.24973 0.34285
#
# Static dielectric constant tensor:
#      x y z
#    x 2.667530 0.000000 0.000000 
#    y 0.000000 2.983290 0.000000 
#    z 0.000000 0.000000 2.845940 
# 
# 
# High freq. dielectric constant tensor:
#      x y z
#    x 1.531550 0.000000 0.000000 
#    y 0.000000 1.577910 0.000000 
#    z 0.000000 0.000000 1.555000 
# 
# From -- ./inp_files/30846.got.cif
#   From: 2010.03.12/outbox.cif.g09.slc.cpg/sg51_16_cif.got.tgz:30846.got - 2010.04.16 13:43:02.
