data_PCOD8206333
_publ_section_title
;
Structure prediction by ZEFSAII (Michael W. Deem and Ramdas Pophale) SiO2 
 PCOD8206333
Probable space group: P M M A
;
_chemical_formula_sum "Si O2"
_cell_formula_units_Z 64
_cell_length_a 28.497010
_cell_length_b 9.097611
_cell_length_c 15.765537
_cell_angle_alpha 90.000000
_cell_angle_beta 90.000000
_cell_angle_gamma 90.000000
_cell_volume 4087.289749
_symmetry_space_group_name_H-M "P M M A"
_symmetry_group_IT_number 51
_symmetry_cell_setting 'orthorhombic'
loop_
_space_group_symop_operation_xyz
x,y,z
1/2-x,-y,z
1/2+x,-y,-z
-x,y,-z
-x,-y,-z
1/2+x,y,-z
1/2-x,y,z
x,-y,z
loop_
_atom_site_type_symbol
_atom_site_label
_atom_site_fract_x
_atom_site_fract_y
_atom_site_fract_z
Si Si1 0.151431 0.325567 0.655724
Si Si2 0.049131 0.673867 0.395920
Si Si3 0.305554 0.171374 0.814087
Si Si4 0.637091 0.825811 0.663346
Si Si5 0.304088 0.171822 0.997446
Si Si6 0.303176 0.175660 0.179444
Si Si7 0.804090 0.830480 0.500434
Si Si8 0.053806 0.326520 0.587235
O O1 0.155073 0.500000 0.654366
O O2 0.167259 0.267249 0.746123
O O3 0.184705 0.264376 0.582197
O O4 0.097876 0.269962 0.641777
O O5 0.056575 0.500000 0.387519
O O6 0.085405 0.755679 0.334436
O O7 0.058439 0.732389 0.491293
O O8 0.995826 0.721263 0.370713
O O9 0.250000 0.195324 0.804508
O O10 0.317713 0.000000 0.801073
O O11 0.323388 0.232011 0.906976
O O12 0.664368 0.763238 0.745388
O O13 0.665059 0.774968 0.579545
O O14 0.632825 0.000000 0.667247
O O15 0.250000 0.211749 0.002634
O O16 0.324932 0.230028 0.087686
O O17 0.311722 0.000000 0.991661
O O18 0.250000 0.234030 0.192600
O O19 0.302123 0.000000 0.180798
O O20 0.750000 0.808261 0.525427
O O21 0.814778 0.000000 0.479248
O O22 0.053927 0.500000 0.580238
#
# Coordination Sequence:
#
# PCOD8206333 Si02
#       8
#     8   8   8   8   8   8   8   8
#     4  11  20  30  44  63  83 108 145 182 211 245
#     4   9  16  31  49  60  77 109 144 177 215 259
#     4   9  17  29  44  63  88 115 142 173 210 251
#     4  10  18  27  42  67  91 110 138 177 213 242
#     4   7  11  22  41  62  82 109 145 176 201 240
#     4   8  13  23  41  64  89 116 144 172 203 245
#     4  10  20  31  40  55  87 125 148 163 195 245
#     4   8  16  30  47  61  76 106 146 181 213 252
#
# _framework density 15.658298
#
# number of rings (size 3 to 8) (size 9 to 14) (size 15 to 20)
#    0.000    3.000    1.250    3.375    0.000    3.500 
#    0.000    2.500    0.000    1.875    0.000    2.625 
#    0.000    7.000    0.000    0.000    0.000    0.000 
#
# Total GULP energy -792885.860748 kJ/mol
# GULP energy per Si atom -12388.841574 kJ/mol
# Density = 1.562266 g / cm^3
# Si number density = 15.658298 Si / 1000 Ang^3
#
#
#
# Elastic Constant Matrix: (Units=GPa)
#
#
# Indices 1 2 3 4 5 6 
#
# 1 84.1891 22.0081 43.7866 0.0000 0.0000 0.0000
# 2 22.0081 26.8878 24.2040 0.0000 0.0000 0.0000
# 3 43.7866 24.2040 118.8826 0.0000 0.0000 0.0000
# 4 0.0000 0.0000 0.0000 8.5168 0.0000 0.0000
# 5 0.0000 0.0000 0.0000 0.0000 13.1707 0.0000
# 6 0.0000 0.0000 0.0000 0.0000 0.0000 21.9561
#
#
#
# Elastic Compliance Matrix: (Units=1/GPa)
#
#
# Indices 1 2 3 4 5 6 
#
# 1 0.016596 -0.009895 -0.004098 0.000000 0.000000 0.000000
# 2 -0.009895 0.051437 -0.006828 0.000000 0.000000 0.000000
# 3 -0.004098 -0.006828 0.011311 0.000000 0.000000 0.000000
# 4 0.000000 0.000000 0.000000 0.117415 0.000000 0.000000
# 5 0.000000 0.000000 0.000000 0.000000 0.075926 0.000000
# 6 0.000000 0.000000 0.000000 0.000000 0.000000 0.045546
#
#
# Mechanical properties :
#
#
# Convention : Reuss Voigt Hill
#
# Bulk Modulus (GPa) = 26.52348 45.55078 36.03713
# Shear Modulus (GPa) = 13.42496 18.05944 15.74220
#
# Velocity S-wave (km/s) = 2.93127 3.39978 3.17418
# Velocity P-wave (km/s) = 5.33218 6.67570 6.04140
#
# Compressibility (1/GPa) = 0.03770244
#
# Stress axis : x y z
#
# Youngs Moduli (GPa) = 60.25502 19.44111 88.40829
#
# Poissons Ratio (x) = 0.19237 0.36230
# Poissons Ratio (y) = 0.59624 0.60364
# Poissons Ratio (z) = 0.24693 0.13274
#
# Static dielectric constant tensor:
#      x y z
#    x 3.054930 0.000000 0.000000 
#    y 0.000000 2.639500 0.000000 
#    z 0.000000 0.000000 3.266130 
# 
# 
# High freq. dielectric constant tensor:
#      x y z
#    x 1.583770 0.000000 0.000000 
#    y 0.000000 1.567250 0.000000 
#    z 0.000000 0.000000 1.599010 
# 
# From -- ./inp_files/26650.got.cif
#   From: 2010.03.12/outbox.cif.g09.slc.cpg/sg51_14_cif.got.tgz:26650.got - 2010.04.16 13:43:02.
