data_PCOD8206105
_publ_section_title
;
Structure prediction by ZEFSAII (Michael W. Deem and Ramdas Pophale) SiO2 
 PCOD8206105
Probable space group: P M M A
;
_chemical_formula_sum "Si O2"
_cell_formula_units_Z 56
_cell_length_a 27.036806
_cell_length_b 8.931965
_cell_length_c 14.408423
_cell_angle_alpha 90.000000
_cell_angle_beta 90.000000
_cell_angle_gamma 90.000000
_cell_volume 3479.516076
_symmetry_space_group_name_H-M "P M M A"
_symmetry_group_IT_number 51
_symmetry_cell_setting 'orthorhombic'
loop_
_space_group_symop_operation_xyz
x,y,z
1/2-x,-y,z
1/2+x,-y,-z
-x,y,-z
-x,-y,-z
1/2+x,y,-z
1/2-x,y,z
x,-y,z
loop_
_atom_site_type_symbol
_atom_site_label
_atom_site_fract_x
_atom_site_fract_y
_atom_site_fract_z
Si Si1 0.036643 0.670936 0.127111
Si Si2 0.536561 0.822632 0.380641
Si Si3 0.616892 0.330244 0.026381
Si Si4 0.805171 0.678850 0.878033
Si Si5 0.617905 0.323803 0.735356
Si Si6 0.438905 0.825302 0.825937
Si Si7 0.935324 0.677315 0.558130
O O1 0.020965 0.500000 0.147748
O O2 0.070924 0.740096 0.208475
O O3 0.987793 0.769463 0.122007
O O4 0.065987 0.681028 0.030827
O O5 0.560633 0.778792 0.282353
O O6 0.485104 0.735816 0.392947
O O7 0.573643 0.763851 0.461329
O O8 0.527796 0.000000 0.390236
O O9 0.629111 0.500000 0.052499
O O10 0.609490 0.242081 0.122993
O O11 0.662576 0.263831 0.965910
O O12 0.750000 0.746981 0.883014
O O13 0.803469 0.500000 0.879359
O O14 0.831017 0.735842 0.781545
O O15 0.616594 0.500000 0.752526
O O16 0.611165 0.284876 0.626394
O O17 0.435861 0.000000 0.837285
O O18 0.939976 0.500000 0.541256
#
# Coordination Sequence:
#
# PCOD8206105 Si02
#       7
#     8   8   8   8   8   8   8
#     4   9  16  28  42  58  85 117 146 177 210 250
#     4  10  20  30  39  56  86 119 151 182 213 248
#     4   9  18  29  44  64  85 113 145 177 216 259
#     4   8  14  27  47  70  92 111 135 173 222 271
#     4   8  14  24  41  65  89 112 141 175 213 261
#     4  11  21  29  39  58  86 120 152 182 213 250
#     4  10  17  27  44  63  83 113 149 181 214 251
#
# _framework density 16.094192
#
# number of rings (size 3 to 8) (size 9 to 14) (size 15 to 20)
#    0.000    2.714    1.429    4.286    0.000    4.000 
#    0.000    0.000    0.000    0.429    0.000    1.000 
#    0.000    5.714    0.000    0.000    0.000    0.000 
#
# Total GULP energy -693909.458106 kJ/mol
# GULP energy per Si atom -12391.240323 kJ/mol
# Density = 1.605756 g / cm^3
# Si number density = 16.094192 Si / 1000 Ang^3
#
#
#
# Elastic Constant Matrix: (Units=GPa)
#
#
# Indices 1 2 3 4 5 6 
#
# 1 85.9561 17.4921 56.6027 0.0000 0.0000 0.0000
# 2 17.4921 45.1552 36.6699 0.0000 0.0000 0.0000
# 3 56.6027 36.6699 112.9678 0.0000 0.0000 0.0000
# 4 0.0000 0.0000 0.0000 22.9906 0.0000 0.0000
# 5 0.0000 0.0000 0.0000 0.0000 16.8278 0.0000
# 6 0.0000 0.0000 0.0000 0.0000 0.0000 0.1793
#
#
#
# Elastic Compliance Matrix: (Units=1/GPa)
#
#
# Indices 1 2 3 4 5 6 
#
# 1 0.017370 0.000460 -0.008853 0.000000 0.000000 0.000000
# 2 0.000460 0.030086 -0.009997 0.000000 0.000000 0.000000
# 3 -0.008853 -0.009997 0.016533 0.000000 0.000000 0.000000
# 4 0.000000 0.000000 0.000000 0.043496 0.000000 0.000000
# 5 0.000000 0.000000 0.000000 0.000000 0.059426 0.000000
# 6 0.000000 0.000000 0.000000 0.000000 0.000000 5.578531
#
#
# Mechanical properties :
#
#
# Convention : Reuss Voigt Hill
#
# Bulk Modulus (GPa) = 36.75071 51.73429 44.24250
# Shear Modulus (GPa) = 0.86337 16.88715 8.87526
#
# Velocity S-wave (km/s) = 0.73322 3.24276 2.35086
# Velocity P-wave (km/s) = 4.85810 6.79964 5.90916
#
# Compressibility (1/GPa) = 0.02721036
#
# Stress axis : x y z
#
# Youngs Moduli (GPa) = 57.57183 33.23847 60.48656
#
# Poissons Ratio (x) = -0.01530 0.53546
# Poissons Ratio (y) = -0.02651 0.60466
# Poissons Ratio (z) = 0.50966 0.33227
#
# Static dielectric constant tensor:
#      x y z
#    x 2.949000 0.000000 0.000000 
#    y 0.000000 2.842510 0.000000 
#    z 0.000000 0.000000 3.348570 
# 
# 
# High freq. dielectric constant tensor:
#      x y z
#    x 1.573130 0.000000 0.000000 
#    y 0.000000 1.597600 0.000000 
#    z 0.000000 0.000000 1.625120 
# 
# From -- ./inp_files/26520.got.cif
#   From: 2010.03.12/outbox.cif.g09.slc.cpg/sg51_14_cif.got.tgz:26520.got - 2010.04.16 13:43:02.
