data_PCOD8206493
_publ_section_title
;
Structure prediction by ZEFSAII (Michael W. Deem and Ramdas Pophale) SiO2 
 PCOD8206493
Probable space group: P M M A
;
_chemical_formula_sum "Si O2"
_cell_formula_units_Z 40
_cell_length_a 26.342039
_cell_length_b 8.722746
_cell_length_c 9.303639
_cell_angle_alpha 90.000000
_cell_angle_beta 90.000000
_cell_angle_gamma 90.000000
_cell_volume 2137.742863
_symmetry_space_group_name_H-M "P M M A"
_symmetry_group_IT_number 51
_symmetry_cell_setting 'orthorhombic'
loop_
_space_group_symop_operation_xyz
x,y,z
1/2-x,-y,z
1/2+x,-y,-z
-x,y,-z
-x,-y,-z
1/2+x,y,-z
1/2-x,y,z
x,-y,z
loop_
_atom_site_type_symbol
_atom_site_label
_atom_site_fract_x
_atom_site_fract_y
_atom_site_fract_z
Si Si1 0.640603 0.322237 0.406304
Si Si2 0.250000 0.323627 0.617458
Si Si3 0.451450 0.317054 0.411724
Si Si4 0.646415 0.681984 0.080732
Si Si5 0.750000 0.821893 0.080351
Si Si6 0.548174 0.317290 0.911954
O O1 0.627046 0.500000 0.398141
O O2 0.697778 0.295410 0.471377
O O3 0.598806 0.246822 0.510861
O O4 0.637911 0.256945 0.243915
O O5 0.250000 0.500000 0.676261
O O6 0.250000 0.208823 0.750087
O O7 0.500000 0.258302 0.500000
O O8 0.449959 0.500000 0.406870
O O9 0.454223 0.252328 0.250041
O O10 0.650250 0.500000 0.078169
O O11 0.698696 0.748374 0.014143
O O12 0.599741 0.742609 0.985484
O O13 0.750000 0.000000 0.045979
O O14 0.547065 0.500000 0.912246
O O15 0.500000 0.252965 0.000000
#
# Coordination Sequence:
#
# PCOD8206493 Si02
#       6
#     8   4   8   8   4   8
#     4   8  13  22  37  56  80 111 141 171 209 253
#     4   8  14  26  43  62  86 114 142 174 218 264
#     4   9  15  22  34  57  88 116 142 175 216 259
#     4   9  16  28  45  65  91 120 148 179 219 263
#     4  10  18  28  45  68  90 114 150 188 220 258
#     4   9  16  25  39  62  92 122 148 178 220 267
#
# _framework density 18.711324999999999
#
# number of rings (size 3 to 8) (size 9 to 14) (size 15 to 20)
#    0.000    3.200    0.000    3.300    0.000    4.800 
#    0.000    1.000    0.000    5.400    0.000   11.200 
#    0.000   20.000    0.000    0.000    0.000    0.000 
#
# Total GULP energy -495621.598929 kJ/mol
# GULP energy per Si atom -12390.539973 kJ/mol
# Density = 1.866874 g / cm^3
# Si number density = 18.711325 Si / 1000 Ang^3
#
#
#
# Elastic Constant Matrix: (Units=GPa)
#
#
# Indices 1 2 3 4 5 6 
#
# 1 223.1416 17.2400 97.4530 0.0000 0.0000 0.0000
# 2 17.2400 19.5446 7.9857 0.0000 0.0000 0.0000
# 3 97.4530 7.9857 123.2786 0.0000 0.0000 0.0000
# 4 0.0000 0.0000 0.0000 3.2901 0.0000 0.0000
# 5 0.0000 0.0000 0.0000 0.0000 36.2281 0.0000
# 6 0.0000 0.0000 0.0000 0.0000 0.0000 3.2871
#
#
#
# Elastic Compliance Matrix: (Units=1/GPa)
#
#
# Indices 1 2 3 4 5 6 
#
# 1 0.007152 -0.004107 -0.005387 0.000000 0.000000 0.000000
# 2 -0.004107 0.054915 -0.000311 0.000000 0.000000 0.000000
# 3 -0.005387 -0.000311 0.012391 0.000000 0.000000 0.000000
# 4 0.000000 0.000000 0.000000 0.303946 0.000000 0.000000
# 5 0.000000 0.000000 0.000000 0.000000 0.027603 0.000000
# 6 0.000000 0.000000 0.000000 0.000000 0.000000 0.304216
#
#
# Mechanical properties :
#
#
# Convention : Reuss Voigt Hill
#
# Bulk Modulus (GPa) = 18.23261 67.92471 43.07866
# Shear Modulus (GPa) = 6.68347 24.78014 15.73180
#
# Velocity S-wave (km/s) = 1.89199 3.64309 2.90274
# Velocity P-wave (km/s) = 3.81289 7.35366 5.85724
#
# Compressibility (1/GPa) = 0.05484679
#
# Stress axis : x y z
#
# Youngs Moduli (GPa) = 139.82854 18.21009 80.70637
#
# Poissons Ratio (x) = 0.07479 0.43480
# Poissons Ratio (y) = 0.57429 0.02506
# Poissons Ratio (z) = 0.75331 0.00565
#
# Static dielectric constant tensor:
#      x y z
#    x 3.959290 0.000000 0.000000 
#    y 0.000000 2.650330 0.000000 
#    z 0.000000 0.000000 3.380710 
# 
# 
# High freq. dielectric constant tensor:
#      x y z
#    x 1.756120 0.000000 0.000000 
#    y 0.000000 1.647730 0.000000 
#    z 0.000000 0.000000 1.696890 
# 
# From -- ./inp_files/12131.got.cif
#   From: 2010.03.12/outbox.cif.g09.slc.cpg/sg51_7_cif.got.tgz:12131.got - 2010.04.16 13:43:02.
