data_PCOD8206166
_publ_section_title
;
Structure prediction by ZEFSAII (Michael W. Deem and Ramdas Pophale) SiO2 
 PCOD8206166
Probable space group: P M M A
;
_chemical_formula_sum "Si O2"
_cell_formula_units_Z 44
_cell_length_a 8.724302
_cell_length_b 17.167457
_cell_length_c 15.165574
_cell_angle_alpha 90.000000
_cell_angle_beta 90.000000
_cell_angle_gamma 90.000000
_cell_volume 2271.409885
_symmetry_space_group_name_H-M "P M M A"
_symmetry_group_IT_number 51
_symmetry_cell_setting 'orthorhombic'
loop_
_space_group_symop_operation_xyz
x,y,z
1/2-x,-y,z
1/2+x,-y,-z
-x,y,-z
-x,-y,-z
1/2+x,y,-z
1/2-x,y,z
x,-y,z
loop_
_atom_site_type_symbol
_atom_site_label
_atom_site_fract_x
_atom_site_fract_y
_atom_site_fract_z
Si Si1 0.073487 0.289407 0.418009
Si Si2 0.571519 0.586898 0.089640
Si Si3 0.930106 0.122646 0.410956
Si Si4 0.077015 0.697364 0.224368
Si Si5 0.567757 0.000000 0.097729
Si Si6 0.430402 0.120765 0.228838
O O1 0.250000 0.265535 0.435667
O O2 0.061493 0.333865 0.325090
O O3 0.000000 0.339163 0.500000
O O4 0.966773 0.213804 0.413044
O O5 0.750000 0.583086 0.075624
O O6 0.506466 0.500000 0.110175
O O7 0.536513 0.645595 0.168065
O O8 0.500000 0.620319 0.000000
O O9 0.750000 0.106512 0.407813
O O10 0.000000 0.083282 0.500000
O O11 0.005573 0.087817 0.321893
O O12 0.250000 0.685307 0.190251
O O13 0.031484 0.787891 0.218241
O O14 0.510853 0.076949 0.148276
O O15 0.750000 0.000000 0.092306
O O16 0.500000 0.000000 0.000000
O O17 0.250000 0.104999 0.226328
#
# Coordination Sequence:
#
# PCOD8206166 Si02
#       6
#     8   8   8   8   4   8
#     4   9  16  27  45  73 107 142 179 218 262 311
#     4  10  21  36  55  79 107 139 174 216 269 324
#     4  10  17  28  49  78 110 144 179 218 266 319
#     4   9  19  34  55  82 110 141 178 219 264 314
#     4  12  26  44  63  82 105 142 184 224 276 326
#     4  10  21  39  59  82 111 143 182 227 271 319
#
# _framework density 19.371227000000001
#
# number of rings (size 3 to 8) (size 9 to 14) (size 15 to 20)
#    0.000    2.182    0.000    6.273    0.000    6.182 
#    0.000    0.455    0.000    0.545    0.000    0.000 
#    0.000    0.000    0.000    0.000    0.000    0.000 
#
# Total GULP energy -545371.748054 kJ/mol
# GULP energy per Si atom -12394.812456 kJ/mol
# Density = 1.932714 g / cm^3
# Si number density = 19.371227 Si / 1000 Ang^3
#
#
#
# Elastic Constant Matrix: (Units=GPa)
#
#
# Indices 1 2 3 4 5 6 
#
# 1 130.8770 33.4875 71.6627 0.0000 0.0000 0.0000
# 2 33.4875 56.9922 49.9940 0.0000 0.0000 0.0000
# 3 71.6627 49.9940 174.4588 0.0000 0.0000 0.0000
# 4 0.0000 0.0000 0.0000 -225.3196 0.0000 0.0000
# 5 0.0000 0.0000 0.0000 0.0000 42.7680 0.0000
# 6 0.0000 0.0000 0.0000 0.0000 0.0000 22.2137
#
#
#
# Elastic Compliance Matrix: (Units=1/GPa)
#
#
# Indices 1 2 3 4 5 6 
#
# 1 0.010256 -0.003113 -0.003321 0.000000 0.000000 0.000000
# 2 -0.003113 0.024383 -0.005709 0.000000 0.000000 0.000000
# 3 -0.003321 -0.005709 0.008732 0.000000 0.000000 0.000000
# 4 0.000000 0.000000 0.000000 -0.004438 0.000000 0.000000
# 5 0.000000 0.000000 0.000000 0.000000 0.023382 0.000000
# 6 0.000000 0.000000 0.000000 0.000000 0.000000 0.045017
#
#
# Mechanical properties :
#
#
# Convention : Reuss Voigt Hill
#
# Bulk Modulus (GPa) = 52.39457 74.73515 63.56486
# Shear Modulus (GPa) = 36.23766 -18.25531 8.99117
#
# Velocity S-wave (km/s) = 4.32985 -3.07317 2.15675
# Velocity P-wave (km/s) = 7.21825 5.10605 6.25199
#
# Compressibility (1/GPa) = 0.01908595
#
# Stress axis : x y z
#
# Youngs Moduli (GPa) = 97.50855 41.01209 114.52279
#
# Poissons Ratio (x) = 0.12768 0.38028
# Poissons Ratio (y) = 0.30356 0.65376
# Poissons Ratio (z) = 0.32378 0.23412
#
# Static dielectric constant tensor:
#      x y z
#    x 3.585710 0.000000 0.000000 
#    y 0.000000 3.152640 0.000000 
#    z 0.000000 0.000000 4.047680 
# 
# 
# High freq. dielectric constant tensor:
#      x y z
#    x 1.766210 0.000000 0.000000 
#    y 0.000000 1.709090 0.000000 
#    z 0.000000 0.000000 1.772110 
# 
# From -- ./inp_files/20968.got.cif
#   From: 2010.03.12/outbox.cif.g09.slc.cpg/sg51_11_cif.got.tgz:20968.got - 2010.04.16 13:43:02.
