data_PCOD8206251
_publ_section_title
;
Structure prediction by ZEFSAII (Michael W. Deem and Ramdas Pophale) SiO2 
 PCOD8206251
Probable space group: P M M A
;
_chemical_formula_sum "Si O2"
_cell_formula_units_Z 56
_cell_length_a 24.611706
_cell_length_b 9.302716
_cell_length_c 16.370595
_cell_angle_alpha 90.000000
_cell_angle_beta 90.000000
_cell_angle_gamma 90.000000
_cell_volume 3748.141221
_symmetry_space_group_name_H-M "P M M A"
_symmetry_group_IT_number 51
_symmetry_cell_setting 'orthorhombic'
loop_
_space_group_symop_operation_xyz
x,y,z
1/2-x,-y,z
1/2+x,-y,-z
-x,y,-z
-x,-y,-z
1/2+x,y,-z
1/2-x,y,z
x,-y,z
loop_
_atom_site_type_symbol
_atom_site_label
_atom_site_fract_x
_atom_site_fract_y
_atom_site_fract_z
Si Si1 0.810973 0.169993 0.890341
Si Si2 0.084416 0.170670 0.020561
Si Si3 0.984477 0.829383 0.126111
Si Si4 0.407310 0.667204 0.388924
Si Si5 0.005555 0.169999 0.691800
Si Si6 0.939318 0.158560 0.466029
Si Si7 0.811319 0.336132 0.728539
O O1 0.750000 0.218893 0.916512
O O2 0.854673 0.224854 0.957762
O O3 0.827946 0.236164 0.803885
O O4 0.813906 0.000000 0.880039
O O5 0.041636 0.226353 0.088828
O O6 0.083439 0.000000 0.020461
O O7 0.065316 0.227067 0.931089
O O8 0.977134 0.773407 0.218568
O O9 0.984268 0.000000 0.125939
O O10 0.422289 0.500000 0.393480
O O11 0.451566 0.747267 0.334256
O O12 0.404297 0.728913 0.481414
O O13 0.348974 0.696227 0.348924
O O14 0.055414 0.204307 0.629462
O O15 0.992410 0.000000 0.690844
O O16 0.000000 0.154607 0.500000
O O17 0.912792 0.000000 0.473763
O O18 0.750000 0.303587 0.700118
O O19 0.818091 0.500000 0.758063
#
# Coordination Sequence:
#
# PCOD8206251 Si02
#       7
#     8   8   8   8   8   8   8
#     4   9  16  25  39  59  79  98 123 157 192 221
#     4   8  13  21  34  55  79  98 122 155 184 214
#     4   8  13  21  35  54  75 101 128 151 178 215
#     4  10  18  26  39  57  76 100 126 155 191 224
#     4   9  16  26  40  57  77 102 129 153 182 223
#     4   8  15  26  38  54  76 100 125 152 182 220
#     4   9  18  30  40  53  76 103 129 154 183 225
#
# _framework density 14.94074
#
# number of rings (size 3 to 8) (size 9 to 14) (size 15 to 20)
#    0.000    3.286    0.000    3.000    0.000    4.857 
#    0.000    0.000    0.000    0.857    0.000    5.000 
#    0.000    3.429    0.000    0.000    0.000    0.143 
#
# Total GULP energy -693892.301279 kJ/mol
# GULP energy per Si atom -12390.933951 kJ/mol
# Density = 1.490673 g / cm^3
# Si number density = 14.940740 Si / 1000 Ang^3
#
#
#
# Elastic Constant Matrix: (Units=GPa)
#
#
# Indices 1 2 3 4 5 6 
#
# 1 84.5654 28.2189 60.4123 0.0000 0.0000 0.0000
# 2 28.2189 36.1533 31.1393 0.0000 0.0000 0.0000
# 3 60.4123 31.1393 137.9378 0.0000 0.0000 0.0000
# 4 0.0000 0.0000 0.0000 7.4511 0.0000 0.0000
# 5 0.0000 0.0000 0.0000 0.0000 22.9809 0.0000
# 6 0.0000 0.0000 0.0000 0.0000 0.0000 14.3663
#
#
#
# Elastic Compliance Matrix: (Units=1/GPa)
#
#
# Indices 1 2 3 4 5 6 
#
# 1 0.019682 -0.009854 -0.006396 0.000000 0.000000 0.000000
# 2 -0.009854 0.039270 -0.004549 0.000000 0.000000 0.000000
# 3 -0.006396 -0.004549 0.011078 0.000000 0.000000 0.000000
# 4 0.000000 0.000000 0.000000 0.134209 0.000000 0.000000
# 5 0.000000 0.000000 0.000000 0.000000 0.043514 0.000000
# 6 0.000000 0.000000 0.000000 0.000000 0.000000 0.069607
#
#
# Mechanical properties :
#
#
# Convention : Reuss Voigt Hill
#
# Bulk Modulus (GPa) = 35.17197 55.35528 45.26363
# Shear Modulus (GPa) = 13.57087 18.21872 15.89480
#
# Velocity S-wave (km/s) = 3.01709 3.49578 3.26522
# Velocity P-wave (km/s) = 5.97739 7.30919 6.67658
#
# Compressibility (1/GPa) = 0.02843173
#
# Stress axis : x y z
#
# Youngs Moduli (GPa) = 50.80670 25.46478 90.27088
#
# Poissons Ratio (x) = 0.25093 0.57735
# Poissons Ratio (y) = 0.50066 0.41067
# Poissons Ratio (z) = 0.32494 0.11585
#
# Static dielectric constant tensor:
#      x y z
#    x 2.911240 0.000000 0.000000 
#    y 0.000000 2.699030 0.000000 
#    z 0.000000 0.000000 3.294990 
# 
# 
# High freq. dielectric constant tensor:
#      x y z
#    x 1.545980 0.000000 0.000000 
#    y 0.000000 1.548670 0.000000 
#    z 0.000000 0.000000 1.569120 
# 
# From -- ./inp_files/30775.got.cif
#   From: 2010.03.12/outbox.cif.g09.slc.cpg/sg51_16_cif.got.tgz:30775.got - 2010.04.16 13:43:02.
