data_PCOD8206708
_publ_section_title
;
Structure prediction by ZEFSAII (Michael W. Deem and Ramdas Pophale) SiO2 
 PCOD8206708
Probable space group: P M M A
;
_chemical_formula_sum "Si O2"
_cell_formula_units_Z 56
_cell_length_a 9.019332
_cell_length_b 19.127191
_cell_length_c 18.883949
_cell_angle_alpha 90.000000
_cell_angle_beta 90.000000
_cell_angle_gamma 90.000000
_cell_volume 3257.754753
_symmetry_space_group_name_H-M "P M M A"
_symmetry_group_IT_number 51
_symmetry_cell_setting 'orthorhombic'
loop_
_space_group_symop_operation_xyz
x,y,z
1/2-x,-y,z
1/2+x,-y,-z
-x,y,-z
-x,-y,-z
1/2+x,y,-z
1/2-x,y,z
x,-y,z
loop_
_atom_site_type_symbol
_atom_site_label
_atom_site_fract_x
_atom_site_fract_y
_atom_site_fract_z
Si Si1 0.074812 0.577068 0.857706
Si Si2 0.923511 0.716175 0.071297
Si Si3 0.922183 0.279234 0.656961
Si Si4 0.423532 0.209466 0.786088
Si Si5 0.419351 0.576920 0.288709
Si Si6 0.925885 0.166104 0.427304
Si Si7 0.576183 0.076708 0.294183
O O1 0.250000 0.581567 0.853966
O O2 0.022463 0.500000 0.884777
O O3 0.015834 0.638402 0.909147
O O4 0.019747 0.591470 0.779021
O O5 0.750000 0.714341 0.057569
O O6 0.963454 0.770958 0.133476
O O7 0.000000 0.742914 0.000000
O O8 0.750000 0.259383 0.648081
O O9 0.948125 0.363185 0.652423
O O10 0.978022 0.255935 0.734142
O O11 0.015468 0.242983 0.594472
O O12 0.250000 0.224069 0.769540
O O13 0.461928 0.127569 0.771963
O O14 0.250000 0.580969 0.262421
O O15 0.454332 0.500000 0.321315
O O16 0.750000 0.168874 0.435644
O O17 0.979758 0.111739 0.367208
O O18 0.000000 0.141436 0.500000
O O19 0.750000 0.066932 0.300396
O O20 0.501620 0.000000 0.283607
#
# Coordination Sequence:
#
# PCOD8206708 Si02
#       7
#     8   8   8   8   8   8   8
#     4   9  17  29  44  62  88 121 156 196 241 288
#     4  10  20  31  44  64  91 124 162 200 243 285
#     4  10  18  29  49  72  95 125 160 196 236 279
#     4   9  17  31  49  69  94 122 157 199 236 280
#     4   9  17  28  44  68  94 120 154 197 241 282
#     4  10  20  33  50  73 103 132 159 189 224 271
#     4   8  15  29  51  76  98 123 154 188 229 275
#
# _framework density 17.189751999999999
#
# number of rings (size 3 to 8) (size 9 to 14) (size 15 to 20)
#    0.000    2.714    1.429    1.714    0.000    2.286 
#    0.000    0.000    0.000   11.143    0.000    0.000 
#    0.000    0.000    0.000    0.000    0.000    0.000 
#
# Total GULP energy -694038.772424 kJ/mol
# GULP energy per Si atom -12393.549508 kJ/mol
# Density = 1.715063 g / cm^3
# Si number density = 17.189752 Si / 1000 Ang^3
#
#
#
# Elastic Constant Matrix: (Units=GPa)
#
#
# Indices 1 2 3 4 5 6 
#
# 1 36.8647 24.9257 23.5064 0.0000 0.0000 0.0000
# 2 24.9257 130.8500 59.7712 0.0000 0.0000 0.0000
# 3 23.5064 59.7712 89.4213 0.0000 0.0000 0.0000
# 4 0.0000 0.0000 0.0000 18.0573 0.0000 0.0000
# 5 0.0000 0.0000 0.0000 0.0000 27.7315 0.0000
# 6 0.0000 0.0000 0.0000 0.0000 0.0000 14.4474
#
#
#
# Elastic Compliance Matrix: (Units=1/GPa)
#
#
# Indices 1 2 3 4 5 6 
#
# 1 0.033612 -0.003407 -0.006558 0.000000 0.000000 0.000000
# 2 -0.003407 0.011347 -0.006689 0.000000 0.000000 0.000000
# 3 -0.006558 -0.006689 0.017378 0.000000 0.000000 0.000000
# 4 0.000000 0.000000 0.000000 0.055379 0.000000 0.000000
# 5 0.000000 0.000000 0.000000 0.000000 0.036060 0.000000
# 6 0.000000 0.000000 0.000000 0.000000 0.000000 0.069217
#
#
# Mechanical properties :
#
#
# Convention : Reuss Voigt Hill
#
# Bulk Modulus (GPa) = 34.44923 52.61583 43.53253
# Shear Modulus (GPa) = 18.79864 21.97607 20.38736
#
# Velocity S-wave (km/s) = 3.31054 3.57941 3.44760
# Velocity P-wave (km/s) = 5.89042 6.91073 6.42087
#
# Compressibility (1/GPa) = 0.02902822
#
# Stress axis : x y z
#
# Youngs Moduli (GPa) = 29.75159 88.13124 57.54407
#
# Poissons Ratio (x) = 0.30025 0.37739
# Poissons Ratio (y) = 0.10136 0.38490
# Poissons Ratio (z) = 0.19512 0.58949
#
# Static dielectric constant tensor:
#      x y z
#    x 3.088110 0.000000 0.000000 
#    y 0.000000 3.677830 0.000000 
#    z 0.000000 0.000000 2.986540 
# 
# 
# High freq. dielectric constant tensor:
#      x y z
#    x 1.652670 0.000000 0.000000 
#    y 0.000000 1.667470 0.000000 
#    z 0.000000 0.000000 1.632780 
# 
# From -- ./inp_files/28169.got.cif
#   From: 2010.03.12/outbox.cif.g09.slc.cpg/sg51_15_cif.got.tgz:28169.got - 2010.04.16 13:43:02.
