data_PCOD8206719
_publ_section_title
;
Structure prediction by ZEFSAII (Michael W. Deem and Ramdas Pophale) SiO2 
 PCOD8206719
Probable space group: P M M A
;
_chemical_formula_sum "Si O2"
_cell_formula_units_Z 48
_cell_length_a 34.812524
_cell_length_b 9.311165
_cell_length_c 8.054597
_cell_angle_alpha 90.000000
_cell_angle_beta 90.000000
_cell_angle_gamma 90.000000
_cell_volume 2610.858593
_symmetry_space_group_name_H-M "P M M A"
_symmetry_group_IT_number 51
_symmetry_cell_setting 'orthorhombic'
loop_
_space_group_symop_operation_xyz
x,y,z
1/2-x,-y,z
1/2+x,-y,-z
-x,y,-z
-x,-y,-z
1/2+x,y,-z
1/2-x,y,z
x,-y,z
loop_
_atom_site_type_symbol
_atom_site_label
_atom_site_fract_x
_atom_site_fract_y
_atom_site_fract_z
Si Si1 0.793126 0.829694 0.574612
Si Si2 0.658369 0.828341 0.258913
Si Si3 0.538126 0.655042 0.890430
Si Si4 0.206770 0.829671 0.056404
Si Si5 0.580471 0.667986 0.207256
Si Si6 0.009064 0.155649 0.686313
O O1 0.750000 0.770273 0.546628
O O2 0.819701 0.773386 0.424641
O O3 0.807932 0.780688 0.759078
O O4 0.792166 0.000000 0.568010
O O5 0.617368 0.753969 0.266346
O O6 0.653638 0.000000 0.257673
O O7 0.680032 0.771872 0.092776
O O8 0.544663 0.500000 0.802766
O O9 0.530950 0.780589 0.759053
O O10 0.500000 0.646329 0.000000
O O11 0.574383 0.689626 0.009087
O O12 0.250000 0.771208 0.028178
O O13 0.207392 0.000000 0.047706
O O14 0.583985 0.500000 0.252995
O O15 0.543892 0.733428 0.300911
O O16 0.000000 0.124668 0.500000
O O17 0.018387 0.000000 0.771158
#
# Coordination Sequence:
#
# PCOD8206719 Si02
#       6
#     8   8   8   8   8   8
#     4   8  14  26  46  73 103 132 167 213 258 305
#     4  10  18  29  49  75 103 133 168 213 262 301
#     4   8  16  32  52  70  92 127 166 198 235 292
#     4   8  14  26  46  73 101 130 167 209 257 308
#     4  10  21  36  51  70 101 137 170 203 247 305
#     4  10  20  34  54  80 102 123 160 210 256 299
#
# _framework density 18.384757
#
# number of rings (size 3 to 8) (size 9 to 14) (size 15 to 20)
#    0.000    3.000    0.000    3.500    0.000    7.000 
#    3.000    0.000    0.000    2.000    0.000    2.333 
#    0.000    0.000    0.000    0.000    0.000    0.000 
#
# Total GULP energy -594633.851319 kJ/mol
# GULP energy per Si atom -12388.205236 kJ/mol
# Density = 1.834291 g / cm^3
# Si number density = 18.384757 Si / 1000 Ang^3
#
#
#
# Elastic Constant Matrix: (Units=GPa)
#
#
# Indices 1 2 3 4 5 6 
#
# 1 67.8273 22.1998 34.5075 0.0000 0.0000 0.0000
# 2 22.1998 66.3750 29.7932 0.0000 0.0000 0.0000
# 3 34.5075 29.7932 104.2733 0.0000 0.0000 0.0000
# 4 0.0000 0.0000 0.0000 24.2149 0.0000 0.0000
# 5 0.0000 0.0000 0.0000 0.0000 20.4383 0.0000
# 6 0.0000 0.0000 0.0000 0.0000 0.0000 6.1755
#
#
#
# Elastic Compliance Matrix: (Units=1/GPa)
#
#
# Indices 1 2 3 4 5 6 
#
# 1 0.018596 -0.003966 -0.005021 0.000000 0.000000 0.000000
# 2 -0.003966 0.018128 -0.003867 0.000000 0.000000 0.000000
# 3 -0.005021 -0.003867 0.012357 0.000000 0.000000 0.000000
# 4 0.000000 0.000000 0.000000 0.041297 0.000000 0.000000
# 5 0.000000 0.000000 0.000000 0.000000 0.048928 0.000000
# 6 0.000000 0.000000 0.000000 0.000000 0.000000 0.161931
#
#
# Mechanical properties :
#
#
# Convention : Reuss Voigt Hill
#
# Bulk Modulus (GPa) = 42.78472 45.71963 44.25217
# Shear Modulus (GPa) = 14.93720 20.29741 17.61730
#
# Velocity S-wave (km/s) = 2.85349 3.32631 3.09893
# Velocity P-wave (km/s) = 5.84627 6.29878 6.07674
#
# Compressibility (1/GPa) = 0.02337283
#
# Stress axis : x y z
#
# Youngs Moduli (GPa) = 53.77582 55.16281 80.92790
#
# Poissons Ratio (x) = 0.21877 0.40632
# Poissons Ratio (y) = 0.21327 0.31296
# Poissons Ratio (z) = 0.27000 0.21332
#
# Static dielectric constant tensor:
#      x y z
#    x 3.356700 0.000000 0.000000 
#    y 0.000000 3.243980 0.000000 
#    z 0.000000 0.000000 3.688180 
# 
# 
# High freq. dielectric constant tensor:
#      x y z
#    x 1.694200 0.000000 0.000000 
#    y 0.000000 1.681860 0.000000 
#    z 0.000000 0.000000 1.714510 
# 
# From -- ./inp_files/12787.got.cif
#   From: 2010.03.12/outbox.cif.g09.slc.cpg/sg51_7_cif.got.tgz:12787.got - 2010.04.16 13:43:02.
