data_PCOD8206221
_publ_section_title
;
Structure prediction by ZEFSAII (Michael W. Deem and Ramdas Pophale) SiO2 
 PCOD8206221
Probable space group: P M M A
;
_chemical_formula_sum "Si O2"
_cell_formula_units_Z 64
_cell_length_a 21.518108
_cell_length_b 18.469428
_cell_length_c 9.060804
_cell_angle_alpha 90.000000
_cell_angle_beta 90.000000
_cell_angle_gamma 90.000000
_cell_volume 3601.009478
_symmetry_space_group_name_H-M "P M M A"
_symmetry_group_IT_number 51
_symmetry_cell_setting 'orthorhombic'
loop_
_space_group_symop_operation_xyz
x,y,z
1/2-x,-y,z
1/2+x,-y,-z
-x,y,-z
-x,-y,-z
1/2+x,y,-z
1/2-x,y,z
x,-y,z
loop_
_atom_site_type_symbol
_atom_site_label
_atom_site_fract_x
_atom_site_fract_y
_atom_site_fract_z
Si Si1 0.389802 0.283113 0.690031
Si Si2 0.319653 0.290406 0.986828
Si Si3 0.513092 0.785436 0.673539
Si Si4 0.073003 0.581411 0.504182
Si Si5 0.182173 0.221481 0.434444
Si Si6 0.820369 0.138293 0.853203
Si Si7 0.046424 0.917848 0.134642
Si Si8 0.619839 0.329482 0.738961
O O1 0.453536 0.250401 0.754178
O O2 0.397840 0.362333 0.618522
O O3 0.365897 0.224269 0.570000
O O4 0.341159 0.293280 0.819488
O O5 0.250000 0.321063 0.992402
O O6 0.323346 0.209490 0.047445
O O7 0.364364 0.341451 0.088506
O O8 0.500000 0.786510 0.500000
O O9 0.526871 0.865612 0.731856
O O10 0.570391 0.734662 0.712887
O O11 0.091323 0.500000 0.550601
O O12 0.097815 0.596360 0.337592
O O13 0.000000 0.592823 0.500000
O O14 0.250000 0.212796 0.504757
O O15 0.169088 0.155633 0.320785
O O16 0.180907 0.297412 0.342839
O O17 0.750000 0.103701 0.873362
O O18 0.879348 0.089657 0.905051
O O19 0.034994 0.000000 0.185977
O O20 0.000000 0.898950 0.000000
#
# Coordination Sequence:
#
# PCOD8206221 Si02
#       8
#     8   8   8   8   8   8   8   8
#     4  11  19  31  52  82 112 139 171 224 269 320
#     4  10  20  32  53  80 107 138 182 225 262 308
#     4  12  19  34  55  82 105 138 180 218 274 318
#     4  10  19  35  55  80 108 137 174 219 273 329
#     4   9  16  29  52  75 102 135 175 220 259 303
#     4   9  17  34  54  76 102 141 187 232 267 311
#     4  11  23  36  51  78 116 151 179 219 274 336
#     4  10  17  33  53  78 104 138 170 225 257 318
#
# _framework density 17.772794000000001
#
# number of rings (size 3 to 8) (size 9 to 14) (size 15 to 20)
#    0.000    1.750    6.250    2.250    0.000    0.500 
#    0.000    0.625    0.000   15.750    0.000    0.000 
#    0.000    4.500    0.000    0.000    0.000    0.000 
#
# Total GULP energy -792982.946943 kJ/mol
# GULP energy per Si atom -12390.358546 kJ/mol
# Density = 1.773234 g / cm^3
# Si number density = 17.772794 Si / 1000 Ang^3
#
#
#
# Elastic Constant Matrix: (Units=GPa)
#
#
# Indices 1 2 3 4 5 6 
#
# 1 119.9730 39.7409 50.1507 0.0000 0.0000 0.0000
# 2 39.7409 69.8562 26.2434 0.0000 0.0000 0.0000
# 3 50.1507 26.2434 91.2830 0.0000 0.0000 0.0000
# 4 0.0000 0.0000 0.0000 16.0936 0.0000 0.0000
# 5 0.0000 0.0000 0.0000 0.0000 30.3333 0.0000
# 6 0.0000 0.0000 0.0000 0.0000 0.0000 10.9107
#
#
#
# Elastic Compliance Matrix: (Units=1/GPa)
#
#
# Indices 1 2 3 4 5 6 
#
# 1 0.012176 -0.004948 -0.005267 0.000000 0.000000 0.000000
# 2 -0.004948 0.018059 -0.002473 0.000000 0.000000 0.000000
# 3 -0.005267 -0.002473 0.014560 0.000000 0.000000 0.000000
# 4 0.000000 0.000000 0.000000 0.062136 0.000000 0.000000
# 5 0.000000 0.000000 0.000000 0.000000 0.032967 0.000000
# 6 0.000000 0.000000 0.000000 0.000000 0.000000 0.091653
#
#
# Mechanical properties :
#
#
# Convention : Reuss Voigt Hill
#
# Bulk Modulus (GPa) = 51.49876 57.04245 54.27060
# Shear Modulus (GPa) = 18.98248 22.46603 20.72425
#
# Velocity S-wave (km/s) = 3.27167 3.55923 3.41848
# Velocity P-wave (km/s) = 6.58110 7.00399 6.79583
#
# Compressibility (1/GPa) = 0.01941794
#
# Stress axis : x y z
#
# Youngs Moduli (GPa) = 82.12939 55.37304 68.68304
#
# Poissons Ratio (x) = 0.27400 0.36174
# Poissons Ratio (y) = 0.40639 0.16988
# Poissons Ratio (z) = 0.43256 0.13696
#
# Static dielectric constant tensor:
#      x y z
#    x 3.717300 0.000000 0.000000 
#    y 0.000000 3.006560 0.000000 
#    z 0.000000 0.000000 3.248800 
# 
# 
# High freq. dielectric constant tensor:
#      x y z
#    x 1.710670 0.000000 0.000000 
#    y 0.000000 1.644160 0.000000 
#    z 0.000000 0.000000 1.676860 
# 
# From -- ./inp_files/11230.got.cif
#   From: 2010.03.12/outbox.cif.g09.slc.cpg/sg51_6_cif.got.tgz:11230.got - 2010.04.16 13:43:02.
