data_PCOD8206565
_publ_section_title
;
Structure prediction by ZEFSAII (Michael W. Deem and Ramdas Pophale) SiO2 
 PCOD8206565
Probable space group: P M M A
;
_chemical_formula_sum "Si O2"
_cell_formula_units_Z 40
_cell_length_a 8.898976
_cell_length_b 13.772240
_cell_length_c 20.980952
_cell_angle_alpha 90.000000
_cell_angle_beta 90.000000
_cell_angle_gamma 90.000000
_cell_volume 2571.400997
_symmetry_space_group_name_H-M "P M M A"
_symmetry_group_IT_number 51
_symmetry_cell_setting 'orthorhombic'
loop_
_space_group_symop_operation_xyz
x,y,z
1/2-x,-y,z
1/2+x,-y,-z
-x,y,-z
-x,-y,-z
1/2+x,y,-z
1/2-x,y,z
x,-y,z
loop_
_atom_site_type_symbol
_atom_site_label
_atom_site_fract_x
_atom_site_fract_y
_atom_site_fract_z
Si Si1 0.573293 0.888398 0.308658
Si Si2 0.079479 0.608882 0.120953
Si Si3 0.580955 0.115560 0.562665
Si Si4 0.079354 0.792522 0.190159
Si Si5 0.427375 0.222391 0.935671
O O1 0.750000 0.876155 0.312952
O O2 0.504375 0.848198 0.374324
O O3 0.511503 0.824192 0.251576
O O4 0.526627 0.000000 0.297069
O O5 0.250000 0.607358 0.094056
O O6 0.020964 0.500000 0.134808
O O7 0.076039 0.674078 0.185894
O O8 0.972381 0.662705 0.069388
O O9 0.500000 0.158424 0.500000
O O10 0.750000 0.155752 0.564496
O O11 0.578592 0.000000 0.559858
O O12 0.250000 0.831921 0.193674
O O13 0.998995 0.833739 0.125615
O O14 0.250000 0.207851 0.936780
O O15 0.500000 0.178777 0.000000
#
# Coordination Sequence:
#
# PCOD8206565 Si02
#       5
#     8   8   8   8   8
#     4  10  19  30  45  65  89 118 149 180 214 253
#     4   8  16  30  45  63  87 113 141 175 216 262
#     4   9  16  26  41  62  88 116 144 175 211 253
#     4   9  18  31  45  63  85 113 146 181 217 257
#     4  10  18  29  44  63  86 113 143 177 219 263
#
# _framework density 15.555721
#
# number of rings (size 3 to 8) (size 9 to 14) (size 15 to 20)
#    1.200    1.600    0.000    3.000    0.000    4.400 
#    0.000    0.000    0.000    0.600    0.000    0.000 
#    0.000    0.800    0.000    2.200    0.000    3.200 
#
# Total GULP energy -495545.833215 kJ/mol
# GULP energy per Si atom -12388.645830 kJ/mol
# Density = 1.552032 g / cm^3
# Si number density = 15.555721 Si / 1000 Ang^3
#
#
#
# Elastic Constant Matrix: (Units=GPa)
#
#
# Indices 1 2 3 4 5 6 
#
# 1 100.9931 10.2049 51.5146 0.0000 0.0000 0.0000
# 2 10.2049 10.7222 18.1424 0.0000 0.0000 0.0000
# 3 51.5146 18.1424 134.3373 0.0000 0.0000 0.0000
# 4 0.0000 0.0000 0.0000 -6.1014 0.0000 0.0000
# 5 0.0000 0.0000 0.0000 0.0000 35.3086 0.0000
# 6 0.0000 0.0000 0.0000 0.0000 0.0000 16.7194
#
#
#
# Elastic Compliance Matrix: (Units=1/GPa)
#
#
# Indices 1 2 3 4 5 6 
#
# 1 0.012506 -0.004910 -0.004132 0.000000 0.000000 0.000000
# 2 -0.004910 0.122818 -0.014704 0.000000 0.000000 0.000000
# 3 -0.004132 -0.014704 0.011014 0.000000 0.000000 0.000000
# 4 0.000000 0.000000 0.000000 -0.163896 0.000000 0.000000
# 5 0.000000 0.000000 0.000000 0.000000 0.028322 0.000000
# 6 0.000000 0.000000 0.000000 0.000000 0.000000 0.059811
#
#
# Mechanical properties :
#
#
# Convention : Reuss Voigt Hill
#
# Bulk Modulus (GPa) = 10.11684 45.08627 27.60156
# Shear Modulus (GPa) = 33.10916 20.26468 26.68692
#
# Velocity S-wave (km/s) = 4.61849 3.61323 4.14644
# Velocity P-wave (km/s) = 5.91256 6.81571 6.38013
#
# Compressibility (1/GPa) = 0.09884507
#
# Stress axis : x y z
#
# Youngs Moduli (GPa) = 79.96358 8.14215 90.79020
#
# Poissons Ratio (x) = 0.03998 0.37519
# Poissons Ratio (y) = 0.39263 1.33496
# Poissons Ratio (z) = 0.33045 0.11972
#
# Static dielectric constant tensor:
#      x y z
#    x 3.067630 0.000000 0.000000 
#    y 0.000000 2.563380 0.000000 
#    z 0.000000 0.000000 2.953840 
# 
# 
# High freq. dielectric constant tensor:
#      x y z
#    x 1.614430 0.000000 0.000000 
#    y 0.000000 1.536180 0.000000 
#    z 0.000000 0.000000 1.593610 
# 
# From -- ./inp_files/27744.got.cif
#   From: 2010.03.12/outbox.cif.g09.slc.cpg/sg51_14_cif.got.tgz:27744.got - 2010.04.16 13:43:02.
