data_PCOD8206580
_publ_section_title
;
Structure prediction by ZEFSAII (Michael W. Deem and Ramdas Pophale) SiO2 
 PCOD8206580
Probable space group: P M M A
;
_chemical_formula_sum "Si O2"
_cell_formula_units_Z 64
_cell_length_a 8.924595
_cell_length_b 18.184504
_cell_length_c 26.368277
_cell_angle_alpha 90.000000
_cell_angle_beta 90.000000
_cell_angle_gamma 90.000000
_cell_volume 4279.290099
_symmetry_space_group_name_H-M "P M M A"
_symmetry_group_IT_number 51
_symmetry_cell_setting 'orthorhombic'
loop_
_space_group_symop_operation_xyz
x,y,z
1/2-x,-y,z
1/2+x,-y,-z
-x,y,-z
-x,-y,-z
1/2+x,y,-z
1/2-x,y,z
x,-y,z
loop_
_atom_site_type_symbol
_atom_site_label
_atom_site_fract_x
_atom_site_fract_y
_atom_site_fract_z
Si Si1 0.924668 0.085320 0.947118
Si Si2 0.428280 0.846256 0.850853
Si Si3 0.915418 0.296492 0.201822
Si Si4 0.081586 0.204559 0.695683
Si Si5 0.426206 0.581867 0.254722
Si Si6 0.427699 0.667567 0.354869
Si Si7 0.577479 0.914655 0.754763
Si Si8 0.425619 0.415248 0.553071
O O1 0.750000 0.104736 0.949390
O O2 0.004887 0.133572 0.904844
O O3 0.950893 0.000000 0.934368
O O4 0.000000 0.106728 0.000000
O O5 0.250000 0.856930 0.849945
O O6 0.471953 0.760474 0.841158
O O7 0.497109 0.898669 0.807994
O O8 0.750000 0.325467 0.188645
O O9 0.914017 0.251094 0.253374
O O10 0.019651 0.367994 0.207610
O O11 0.250000 0.188410 0.676219
O O12 0.990809 0.250120 0.653238
O O13 0.997551 0.128300 0.707711
O O14 0.250000 0.578641 0.251932
O O15 0.494874 0.500000 0.249835
O O16 0.478458 0.615733 0.308222
O O17 0.250000 0.670777 0.360311
O O18 0.499327 0.635601 0.405210
O O19 0.750000 0.890235 0.759801
O O20 0.561833 0.000000 0.742001
O O21 0.500000 0.394072 0.500000
O O22 0.250000 0.398992 0.550127
O O23 0.458341 0.500000 0.566704
#
# Coordination Sequence:
#
# PCOD8206580 Si02
#       8
#     8   8   8   8   8   8   8   8
#     4  10  20  32  45  62  84 110 141 176 212 249
#     4  10  19  30  44  61  83 112 145 178 212 251
#     4   8  16  28  40  57  80 107 138 171 206 244
#     4   9  17  29  43  60  83 110 142 177 212 252
#     4   9  17  27  40  60  84 110 140 172 206 246
#     4  10  18  29  45  62  84 114 145 177 215 257
#     4  10  19  29  42  62  87 114 145 178 212 253
#     4  10  20  32  45  62  85 113 146 183 219 254
#
# _framework density 14.955750999999999
#
# number of rings (size 3 to 8) (size 9 to 14) (size 15 to 20)
#    0.000    2.500    0.000    3.750    0.000    8.750 
#    0.000    0.000    0.000    0.000    0.000    0.000 
#    0.000    1.000    0.000    3.500    0.000    5.250 
#
# Total GULP energy -793514.997832 kJ/mol
# GULP energy per Si atom -12398.671841 kJ/mol
# Density = 1.492171 g / cm^3
# Si number density = 14.955751 Si / 1000 Ang^3
#
#
#
# Elastic Constant Matrix: (Units=GPa)
#
#
# Indices 1 2 3 4 5 6 
#
# 1 92.9321 51.3889 49.4149 0.0000 0.0000 0.0000
# 2 51.3889 93.4752 55.7467 0.0000 0.0000 0.0000
# 3 49.4149 55.7467 87.9340 0.0000 0.0000 0.0000
# 4 0.0000 0.0000 0.0000 27.5256 0.0000 0.0000
# 5 0.0000 0.0000 0.0000 0.0000 26.4774 0.0000
# 6 0.0000 0.0000 0.0000 0.0000 0.0000 24.9114
#
#
#
# Elastic Compliance Matrix: (Units=1/GPa)
#
#
# Indices 1 2 3 4 5 6 
#
# 1 0.017170 -0.005925 -0.005892 0.000000 0.000000 0.000000
# 2 -0.005925 0.019246 -0.008872 0.000000 0.000000 0.000000
# 3 -0.005892 -0.008872 0.020308 0.000000 0.000000 0.000000
# 4 0.000000 0.000000 0.000000 0.036330 0.000000 0.000000
# 5 0.000000 0.000000 0.000000 0.000000 0.037768 0.000000
# 6 0.000000 0.000000 0.000000 0.000000 0.000000 0.040142
#
#
# Mechanical properties :
#
#
# Convention : Reuss Voigt Hill
#
# Bulk Modulus (GPa) = 65.16598 65.27137 65.21867
# Shear Modulus (GPa) = 22.99283 23.63560 23.31422
#
# Velocity S-wave (km/s) = 3.92521 3.97970 3.95255
# Velocity P-wave (km/s) = 8.01312 8.05326 8.03322
#
# Compressibility (1/GPa) = 0.01534543
#
# Stress axis : x y z
#
# Youngs Moduli (GPa) = 58.23989 51.95755 49.24228
#
# Poissons Ratio (x) = 0.30787 0.29016
# Poissons Ratio (y) = 0.34510 0.43686
# Poissons Ratio (z) = 0.34318 0.46095
#
# Static dielectric constant tensor:
#      x y z
#    x 3.068020 0.000000 0.000000 
#    y 0.000000 2.994540 0.000000 
#    z 0.000000 0.000000 2.711410 
# 
# 
# High freq. dielectric constant tensor:
#      x y z
#    x 1.590100 0.000000 0.000000 
#    y 0.000000 1.560580 0.000000 
#    z 0.000000 0.000000 1.539760 
# 
# From -- ./inp_files/35125.got.cif
#   From: 2010.03.12/outbox.cif.g09.slc.cpg/sg51_18_cif.got.tgz:35125.got - 2010.04.16 13:43:02.
