data_PCOD8206659
_publ_section_title
;
Structure prediction by ZEFSAII (Michael W. Deem and Ramdas Pophale) SiO2 
 PCOD8206659
Probable space group: P M M A
;
_chemical_formula_sum "Si O2"
_cell_formula_units_Z 48
_cell_length_a 8.865921
_cell_length_b 18.465702
_cell_length_c 17.409209
_cell_angle_alpha 90.000000
_cell_angle_beta 90.000000
_cell_angle_gamma 90.000000
_cell_volume 2850.156575
_symmetry_space_group_name_H-M "P M M A"
_symmetry_group_IT_number 51
_symmetry_cell_setting 'orthorhombic'
loop_
_space_group_symop_operation_xyz
x,y,z
1/2-x,-y,z
1/2+x,-y,-z
-x,y,-z
-x,-y,-z
1/2+x,y,-z
1/2-x,y,z
x,-y,z
loop_
_atom_site_type_symbol
_atom_site_label
_atom_site_fract_x
_atom_site_fract_y
_atom_site_fract_z
Si Si1 0.922239 0.823418 0.919930
Si Si2 0.926641 0.197958 0.319621
Si Si3 0.928273 0.082878 0.775732
Si Si4 0.574522 0.579310 0.712457
Si Si5 0.923502 0.291297 0.805562
Si Si6 0.429148 0.311393 0.419419
O O1 0.750000 0.840920 0.935116
O O2 0.983500 0.877463 0.853946
O O3 0.945983 0.739266 0.892046
O O4 0.000000 0.838034 0.000000
O O5 0.750000 0.192012 0.335801
O O6 0.993170 0.118781 0.298952
O O7 0.959952 0.249176 0.247545
O O8 0.007342 0.232686 0.394229
O O9 0.750000 0.091295 0.766110
O O10 0.979846 0.000000 0.780290
O O11 0.750000 0.566785 0.700764
O O12 0.494545 0.500000 0.715497
O O13 0.544887 0.622851 0.793199
O O14 0.515426 0.627514 0.641347
O O15 0.750000 0.274092 0.778880
O O16 0.500000 0.334370 0.500000
O O17 0.250000 0.307285 0.425448
#
# Coordination Sequence:
#
# PCOD8206659 Si02
#       6
#     8   8   8   8   8   8
#     4   9  17  28  43  65  91 121 154 188 227 269
#     4  10  18  29  47  69  91 117 153 191 224 264
#     4   9  18  33  50  67  91 122 152 184 226 274
#     4   8  14  26  46  69  90 116 152 192 231 271
#     4   8  15  29  46  63  87 119 155 191 227 271
#     4  10  19  31  47  68  95 124 154 187 225 270
#
# _framework density 16.841179
#
# number of rings (size 3 to 8) (size 9 to 14) (size 15 to 20)
#    0.000    3.000    0.000    4.000    0.000    3.667 
#    0.000    0.000    0.000   13.000    0.000    0.000 
#    0.000    0.000    0.000    0.000    0.000    1.333 
#
# Total GULP energy -594637.967820 kJ/mol
# GULP energy per Si atom -12388.290996 kJ/mol
# Density = 1.680285 g / cm^3
# Si number density = 16.841179 Si / 1000 Ang^3
#
#
#
# Elastic Constant Matrix: (Units=GPa)
#
#
# Indices 1 2 3 4 5 6 
#
# 1 52.7793 29.6283 14.0691 0.0000 0.0000 0.0000
# 2 29.6283 141.5492 52.5516 0.0000 0.0000 0.0000
# 3 14.0691 52.5516 30.5021 0.0000 0.0000 0.0000
# 4 0.0000 0.0000 0.0000 17.7327 0.0000 0.0000
# 5 0.0000 0.0000 0.0000 0.0000 26.5839 0.0000
# 6 0.0000 0.0000 0.0000 0.0000 0.0000 12.9683
#
#
#
# Elastic Compliance Matrix: (Units=1/GPa)
#
#
# Indices 1 2 3 4 5 6 
#
# 1 0.021872 -0.002311 -0.006107 0.000000 0.000000 0.000000
# 2 -0.002311 0.019849 -0.033131 0.000000 0.000000 0.000000
# 3 -0.006107 -0.033131 0.092683 0.000000 0.000000 0.000000
# 4 0.000000 0.000000 0.000000 0.056393 0.000000 0.000000
# 5 0.000000 0.000000 0.000000 0.000000 0.037617 0.000000
# 6 0.000000 0.000000 0.000000 0.000000 0.000000 0.077111
#
#
# Mechanical properties :
#
#
# Convention : Reuss Voigt Hill
#
# Bulk Modulus (GPa) = 19.49124 46.36983 32.93054
# Shear Modulus (GPa) = 12.32363 20.02908 16.17636
#
# Velocity S-wave (km/s) = 2.70803 3.45235 3.10259
# Velocity P-wave (km/s) = 4.62348 6.59432 5.69481
#
# Compressibility (1/GPa) = 0.05130509
#
# Stress axis : x y z
#
# Youngs Moduli (GPa) = 45.72066 50.38127 10.78946
#
# Poissons Ratio (x) = 0.11642 0.06590
# Poissons Ratio (y) = 0.10565 0.35747
# Poissons Ratio (z) = 0.27923 1.66919
#
# Static dielectric constant tensor:
#      x y z
#    x 2.939550 0.000000 0.000000 
#    y 0.000000 3.520200 0.000000 
#    z 0.000000 0.000000 3.080430 
# 
# 
# High freq. dielectric constant tensor:
#      x y z
#    x 1.632680 0.000000 0.000000 
#    y 0.000000 1.644180 0.000000 
#    z 0.000000 0.000000 1.624130 
# 
# From -- ./inp_files/27815.got.cif
#   From: 2010.03.12/outbox.cif.g09.slc.cpg/sg51_14_cif.got.tgz:27815.got - 2010.04.16 13:43:02.
