data_PCOD8206182
_publ_section_title
;
Structure prediction by ZEFSAII (Michael W. Deem and Ramdas Pophale) SiO2 
 PCOD8206182
Probable space group: P M M A
;
_chemical_formula_sum "Si O2"
_cell_formula_units_Z 56
_cell_length_a 26.974293
_cell_length_b 8.560576
_cell_length_c 14.414056
_cell_angle_alpha 90.000000
_cell_angle_beta 90.000000
_cell_angle_gamma 90.000000
_cell_volume 3328.428736
_symmetry_space_group_name_H-M "P M M A"
_symmetry_group_IT_number 51
_symmetry_cell_setting 'orthorhombic'
loop_
_space_group_symop_operation_xyz
x,y,z
1/2-x,-y,z
1/2+x,-y,-z
-x,y,-z
-x,-y,-z
1/2+x,y,-z
1/2-x,y,z
x,-y,z
loop_
_atom_site_type_symbol
_atom_site_label
_atom_site_fract_x
_atom_site_fract_y
_atom_site_fract_z
Si Si1 0.543624 0.323915 0.613733
Si Si2 0.462860 0.817538 0.879374
Si Si3 0.376878 0.676146 0.233524
Si Si4 0.937845 0.682832 0.312565
Si Si5 0.383466 0.818480 0.524961
Si Si6 0.566566 0.314415 0.936977
Si Si7 0.193624 0.686418 0.388034
O O1 0.545970 0.500000 0.572716
O O2 0.571710 0.316302 0.711010
O O3 0.487558 0.270595 0.631426
O O4 0.568848 0.209653 0.540027
O O5 0.435382 0.773580 0.784496
O O6 0.513554 0.722394 0.890959
O O7 0.474872 0.000000 0.882140
O O8 0.426620 0.772035 0.964852
O O9 0.359722 0.500000 0.216697
O O10 0.389648 0.748918 0.132423
O O11 0.333143 0.756285 0.294786
O O12 0.935727 0.500000 0.291644
O O13 0.891553 0.736046 0.375527
O O14 0.333803 0.749015 0.479185
O O15 0.375837 0.000000 0.541585
O O16 0.570314 0.500000 0.949944
O O17 0.250000 0.744988 0.388731
O O18 0.189264 0.500000 0.388984
#
# Coordination Sequence:
#
# PCOD8206182 Si02
#       7
#     8   8   8   8   8   8   8
#     4   9  17  31  47  65  91 128 168 200 230 277
#     4  11  21  30  42  66  98 128 164 206 243 278
#     4   8  14  27  48  72  93 120 161 202 237 277
#     4  11  20  33  49  65  90 131 172 203 235 283
#     4  11  22  32  45  70 100 126 155 197 248 294
#     4  10  17  30  47  65  92 131 170 197 235 287
#     4   9  18  35  56  75  95 123 161 201 240 288
#
# _framework density 16.824755
#
# number of rings (size 3 to 8) (size 9 to 14) (size 15 to 20)
#    0.000    2.143    1.429    5.571    0.000    3.143 
#    0.000    0.714    0.000    0.000    0.000    1.000 
#    0.000    5.714    0.000    0.000    0.000    0.000 
#
# Total GULP energy -694118.767627 kJ/mol
# GULP energy per Si atom -12394.977993 kJ/mol
# Density = 1.678646 g / cm^3
# Si number density = 16.824755 Si / 1000 Ang^3
#
#
#
# Elastic Constant Matrix: (Units=GPa)
#
#
# Indices 1 2 3 4 5 6 
#
# 1 86.8247 14.7794 47.8916 0.0000 0.0000 0.0000
# 2 14.7794 51.5683 20.1958 0.0000 0.0000 0.0000
# 3 47.8916 20.1958 100.9140 0.0000 0.0000 0.0000
# 4 0.0000 0.0000 0.0000 15.1394 0.0000 0.0000
# 5 0.0000 0.0000 0.0000 0.0000 15.0169 0.0000
# 6 0.0000 0.0000 0.0000 0.0000 0.0000 9.2998
#
#
#
# Elastic Compliance Matrix: (Units=1/GPa)
#
#
# Indices 1 2 3 4 5 6 
#
# 1 0.015741 -0.001721 -0.007126 0.000000 0.000000 0.000000
# 2 -0.001721 0.021229 -0.003432 0.000000 0.000000 0.000000
# 3 -0.007126 -0.003432 0.013978 0.000000 0.000000 0.000000
# 4 0.000000 0.000000 0.000000 0.066053 0.000000 0.000000
# 5 0.000000 0.000000 0.000000 0.000000 0.066592 0.000000
# 6 0.000000 0.000000 0.000000 0.000000 0.000000 0.107530
#
#
# Mechanical properties :
#
#
# Convention : Reuss Voigt Hill
#
# Bulk Modulus (GPa) = 37.89181 45.00452 41.44816
# Shear Modulus (GPa) = 15.40946 18.32056 16.86501
#
# Velocity S-wave (km/s) = 3.02963 3.30344 3.16949
# Velocity P-wave (km/s) = 5.89988 6.43097 6.17114
#
# Compressibility (1/GPa) = 0.02639093
#
# Stress axis : x y z
#
# Youngs Moduli (GPa) = 63.52854 47.10550 71.54045
#
# Poissons Ratio (x) = 0.08105 0.50980
# Poissons Ratio (y) = 0.10931 0.24553
# Poissons Ratio (z) = 0.45270 0.16167
#
# Static dielectric constant tensor:
#      x y z
#    x 2.947570 0.000000 0.000000 
#    y 0.000000 2.987790 0.000000 
#    z 0.000000 0.000000 3.378610 
# 
# 
# High freq. dielectric constant tensor:
#      x y z
#    x 1.600850 0.000000 0.000000 
#    y 0.000000 1.638900 0.000000 
#    z 0.000000 0.000000 1.655260 
# 
# From -- ./inp_files/26539.got.cif
#   From: 2010.03.12/outbox.cif.g09.slc.cpg/sg51_14_cif.got.tgz:26539.got - 2010.04.16 13:43:02.
