data_PCOD8206683
_publ_section_title
;
Structure prediction by ZEFSAII (Michael W. Deem and Ramdas Pophale) SiO2 
 PCOD8206683
Probable space group: P M M A
;
_chemical_formula_sum "Si O2"
_cell_formula_units_Z 64
_cell_length_a 8.892054
_cell_length_b 18.297625
_cell_length_c 23.121813
_cell_angle_alpha 90.000000
_cell_angle_beta 90.000000
_cell_angle_gamma 90.000000
_cell_volume 3761.999198
_symmetry_space_group_name_H-M "P M M A"
_symmetry_group_IT_number 51
_symmetry_cell_setting 'orthorhombic'
loop_
_space_group_symop_operation_xyz
x,y,z
1/2-x,-y,z
1/2+x,-y,-z
-x,y,-z
-x,-y,-z
1/2+x,y,-z
1/2-x,y,z
x,-y,z
loop_
_atom_site_type_symbol
_atom_site_label
_atom_site_fract_x
_atom_site_fract_y
_atom_site_fract_z
Si Si1 0.423617 0.683605 0.653868
Si Si2 0.080250 0.298432 0.943478
Si Si3 0.916459 0.685386 0.832106
Si Si4 0.576688 0.915936 0.819957
Si Si5 0.916448 0.418026 0.734388
Si Si6 0.074096 0.582832 0.438116
Si Si7 0.571944 0.795508 0.251903
Si Si8 0.578017 0.125178 0.059427
O O1 0.250000 0.687328 0.635761
O O2 0.449970 0.624535 0.703444
O O3 0.517597 0.652239 0.599725
O O4 0.474060 0.761795 0.684003
O O5 0.250000 0.326015 0.942946
O O6 0.068372 0.211739 0.938552
O O7 0.990428 0.335474 0.892039
O O8 0.000000 0.328236 0.000000
O O9 0.750000 0.720476 0.840099
O O10 0.903053 0.608811 0.799592
O O11 0.022186 0.741415 0.798543
O O12 0.750000 0.892676 0.825758
O O13 0.504077 0.872495 0.765171
O O14 0.500381 0.903856 0.882433
O O15 0.558935 0.000000 0.802560
O O16 0.750000 0.408294 0.704082
O O17 0.969440 0.500000 0.734553
O O18 0.250000 0.592100 0.445964
O O19 0.037815 0.500000 0.412965
O O20 0.000000 0.590968 0.500000
O O21 0.750000 0.804835 0.249754
O O22 0.750000 0.097710 0.058907
O O23 0.500000 0.096053 0.000000
#
# Coordination Sequence:
#
# PCOD8206683 Si02
#       8
#     8   8   8   8   8   8   8   8
#     4  10  20  32  49  73 101 132 169 208 243 279
#     4  10  19  30  46  67  88 111 144 186 231 284
#     4  10  18  29  48  68  89 117 147 189 237 280
#     4  11  23  36  51  71  96 126 159 198 245 297
#     4   9  18  31  46  67  94 124 158 193 234 283
#     4  10  20  33  50  74 107 146 183 214 246 285
#     4  10  20  34  50  70  95 125 161 200 240 286
#     4  10  20  33  50  69  92 122 154 192 237 291
#
# _framework density 17.012232000000001
#
# number of rings (size 3 to 8) (size 9 to 14) (size 15 to 20)
#    0.000    2.000    1.250    3.000    0.000    6.750 
#    0.000    0.000    0.000    0.375    0.000    0.000 
#    0.000    0.500    0.000    1.625    0.000    2.375 
#
# Total GULP energy -792894.632893 kJ/mol
# GULP energy per Si atom -12388.978639 kJ/mol
# Density = 1.697351 g / cm^3
# Si number density = 17.012232 Si / 1000 Ang^3
#
#
#
# Elastic Constant Matrix: (Units=GPa)
#
#
# Indices 1 2 3 4 5 6 
#
# 1 104.9038 36.9122 49.2748 0.0000 0.0000 0.0000
# 2 36.9122 54.9952 38.0536 0.0000 0.0000 0.0000
# 3 49.2748 38.0536 95.4692 0.0000 0.0000 0.0000
# 4 0.0000 0.0000 0.0000 18.9692 0.0000 0.0000
# 5 0.0000 0.0000 0.0000 0.0000 31.2029 0.0000
# 6 0.0000 0.0000 0.0000 0.0000 0.0000 17.4041
#
#
#
# Elastic Compliance Matrix: (Units=1/GPa)
#
#
# Indices 1 2 3 4 5 6 
#
# 1 0.013892 -0.006025 -0.004769 0.000000 0.000000 0.000000
# 2 -0.006025 0.027721 -0.007940 0.000000 0.000000 0.000000
# 3 -0.004769 -0.007940 0.016101 0.000000 0.000000 0.000000
# 4 0.000000 0.000000 0.000000 0.052717 0.000000 0.000000
# 5 0.000000 0.000000 0.000000 0.000000 0.032048 0.000000
# 6 0.000000 0.000000 0.000000 0.000000 0.000000 0.057458
#
#
# Mechanical properties :
#
#
# Convention : Reuss Voigt Hill
#
# Bulk Modulus (GPa) = 49.38946 55.98326 52.68636
# Shear Modulus (GPa) = 20.47891 22.25709 21.36800
#
# Velocity S-wave (km/s) = 3.47331 3.62097 3.54791
# Velocity P-wave (km/s) = 6.72160 7.10359 6.91523
#
# Compressibility (1/GPa) = 0.02024723
#
# Stress axis : x y z
#
# Youngs Moduli (GPa) = 71.98150 36.07363 62.10853
#
# Poissons Ratio (x) = 0.21733 0.29619
# Poissons Ratio (y) = 0.43366 0.49314
# Poissons Ratio (z) = 0.34328 0.28642
#
# Static dielectric constant tensor:
#      x y z
#    x 3.386110 0.000000 0.000000 
#    y 0.000000 3.122480 0.000000 
#    z 0.000000 0.000000 3.252060 
# 
# 
# High freq. dielectric constant tensor:
#      x y z
#    x 1.673950 0.000000 0.000000 
#    y 0.000000 1.625860 0.000000 
#    z 0.000000 0.000000 1.641370 
# 
# From -- ./inp_files/32540.got.cif
#   From: 2010.03.12/outbox.cif.g09.slc.cpg/sg51_17_cif.got.tgz:32540.got - 2010.04.16 13:43:02.
