data_PCOD8206414
_publ_section_title
;
Structure prediction by ZEFSAII (Michael W. Deem and Ramdas Pophale) SiO2 
 PCOD8206414
Probable space group: P M M A
;
_chemical_formula_sum "Si O2"
_cell_formula_units_Z 56
_cell_length_a 8.892714
_cell_length_b 18.572226
_cell_length_c 21.413197
_cell_angle_alpha 90.000000
_cell_angle_beta 90.000000
_cell_angle_gamma 90.000000
_cell_volume 3536.549959
_symmetry_space_group_name_H-M "P M M A"
_symmetry_group_IT_number 51
_symmetry_cell_setting 'orthorhombic'
loop_
_space_group_symop_operation_xyz
x,y,z
1/2-x,-y,z
1/2+x,-y,-z
-x,y,-z
-x,-y,-z
1/2+x,y,-z
1/2-x,y,z
x,-y,z
loop_
_atom_site_type_symbol
_atom_site_label
_atom_site_fract_x
_atom_site_fract_y
_atom_site_fract_z
Si Si1 0.425265 0.578666 0.317829
Si Si2 0.071671 0.329611 0.436217
Si Si3 0.573899 0.918196 0.694252
Si Si4 0.074055 0.206833 0.632409
Si Si5 0.077066 0.282899 0.256214
Si Si6 0.920963 0.156638 0.824423
Si Si7 0.926174 0.081642 0.063858
O O1 0.250000 0.566151 0.325455
O O2 0.503123 0.500000 0.308391
O O3 0.484018 0.617234 0.380853
O O4 0.456499 0.630912 0.257467
O O5 0.250000 0.327210 0.441930
O O6 0.000000 0.359358 0.500000
O O7 0.009624 0.249032 0.423411
O O8 0.750000 0.911187 0.681502
O O9 0.487636 0.874552 0.639823
O O10 0.534250 0.887697 0.762736
O O11 0.517763 0.000000 0.691113
O O12 0.250000 0.205526 0.618318
O O13 0.039532 0.247013 0.696926
O O14 0.250000 0.269760 0.280111
O O15 0.058062 0.242949 0.189397
O O16 0.750000 0.139481 0.843929
O O17 0.028197 0.134544 0.880536
O O18 0.750000 0.085399 0.054839
O O19 0.979598 0.000000 0.078910
O O20 0.000000 0.109415 0.000000
#
# Coordination Sequence:
#
# PCOD8206414 Si02
#       7
#     8   8   8   8   8   8   8
#     4   8  14  26  45  67  90 115 141 171 207 248
#     4  10  19  31  46  63  84 111 144 176 208 251
#     4   9  17  29  45  64  86 112 140 173 216 260
#     4  10  18  28  43  62  84 109 139 176 215 253
#     4   8  15  28  44  62  86 115 144 174 211 254
#     4   9  16  27  43  62  85 114 146 177 209 248
#     4  10  20  31  42  58  83 116 151 185 219 253
#
# _framework density 15.834641
#
# number of rings (size 3 to 8) (size 9 to 14) (size 15 to 20)
#    0.000    2.857    0.000    4.286    0.000    4.286 
#    0.000    0.000    0.000   10.714    0.000    0.000 
#    0.000    0.571    0.000    1.000    0.000    1.429 
#
# Total GULP energy -693912.962086 kJ/mol
# GULP energy per Si atom -12391.302894 kJ/mol
# Density = 1.579860 g / cm^3
# Si number density = 15.834641 Si / 1000 Ang^3
#
#
#
# Elastic Constant Matrix: (Units=GPa)
#
#
# Indices 1 2 3 4 5 6 
#
# 1 56.2910 28.6208 21.6165 0.0000 0.0000 0.0000
# 2 28.6208 132.9404 46.4469 0.0000 0.0000 0.0000
# 3 21.6165 46.4469 55.4354 0.0000 0.0000 0.0000
# 4 0.0000 0.0000 0.0000 17.3863 0.0000 0.0000
# 5 0.0000 0.0000 0.0000 0.0000 24.3644 0.0000
# 6 0.0000 0.0000 0.0000 0.0000 0.0000 12.1390
#
#
#
# Elastic Compliance Matrix: (Units=1/GPa)
#
#
# Indices 1 2 3 4 5 6 
#
# 1 0.021419 -0.002394 -0.006346 0.000000 0.000000 0.000000
# 2 -0.002394 0.010903 -0.008202 0.000000 0.000000 0.000000
# 3 -0.006346 -0.008202 0.027386 0.000000 0.000000 0.000000
# 4 0.000000 0.000000 0.000000 0.057517 0.000000 0.000000
# 5 0.000000 0.000000 0.000000 0.000000 0.041044 0.000000
# 6 0.000000 0.000000 0.000000 0.000000 0.000000 0.082379
#
#
# Mechanical properties :
#
#
# Convention : Reuss Voigt Hill
#
# Bulk Modulus (GPa) = 38.72417 48.67056 43.69736
# Shear Modulus (GPa) = 17.65917 20.64345 19.15131
#
# Velocity S-wave (km/s) = 3.34312 3.61458 3.48150
# Velocity P-wave (km/s) = 6.27777 6.94433 6.61945
#
# Compressibility (1/GPa) = 0.02582367
#
# Stress axis : x y z
#
# Youngs Moduli (GPa) = 46.68726 91.71706 36.51560
#
# Poissons Ratio (x) = 0.21957 0.23174
# Poissons Ratio (y) = 0.11177 0.29949
# Poissons Ratio (z) = 0.29629 0.75224
#
# Static dielectric constant tensor:
#      x y z
#    x 2.845380 0.000000 0.000000 
#    y 0.000000 3.394780 0.000000 
#    z 0.000000 0.000000 2.801110 
# 
# 
# High freq. dielectric constant tensor:
#      x y z
#    x 1.599540 0.000000 0.000000 
#    y 0.000000 1.602790 0.000000 
#    z 0.000000 0.000000 1.570910 
# 
# From -- ./inp_files/32270.got.cif
#   From: 2010.03.12/outbox.cif.g09.slc.cpg/sg51_17_cif.got.tgz:32270.got - 2010.04.16 13:43:02.
