data_PCOD8206104
_publ_section_title
;
Structure prediction by ZEFSAII (Michael W. Deem and Ramdas Pophale) SiO2 
 PCOD8206104
Probable space group: P M M A
;
_chemical_formula_sum "Si O2"
_cell_formula_units_Z 64
_cell_length_a 29.780263
_cell_length_b 9.420996
_cell_length_c 15.137133
_cell_angle_alpha 90.000000
_cell_angle_beta 90.000000
_cell_angle_gamma 90.000000
_cell_volume 4246.870078
_symmetry_space_group_name_H-M "P M M A"
_symmetry_group_IT_number 51
_symmetry_cell_setting 'orthorhombic'
loop_
_space_group_symop_operation_xyz
x,y,z
1/2-x,-y,z
1/2+x,-y,-z
-x,y,-z
-x,-y,-z
1/2+x,y,-z
1/2-x,y,z
x,-y,z
loop_
_atom_site_type_symbol
_atom_site_label
_atom_site_fract_x
_atom_site_fract_y
_atom_site_fract_z
Si Si1 0.439694 0.665532 0.142626
Si Si2 0.299675 0.666456 0.017631
Si Si3 0.113270 0.835136 0.287736
Si Si4 0.604830 0.332567 0.037562
Si Si5 0.060377 0.165813 0.448635
Si Si6 0.540751 0.665846 0.189899
Si Si7 0.700541 0.161696 0.806699
Si Si8 0.032386 0.831914 0.632866
O O1 0.428685 0.500000 0.153693
O O2 0.418482 0.746578 0.224453
O O3 0.492925 0.693918 0.143350
O O4 0.418119 0.726867 0.052109
O O5 0.250000 0.710734 0.979233
O O6 0.300739 0.500000 0.035306
O O7 0.341936 0.709880 0.955548
O O8 0.308561 0.738560 0.110882
O O9 0.103975 0.793559 0.390297
O O10 0.165374 0.801278 0.270173
O O11 0.101669 0.000000 0.271951
O O12 0.598590 0.500000 0.035788
O O13 0.578817 0.274043 0.123084
O O14 0.063962 0.219342 0.550051
O O15 0.017225 0.221475 0.394346
O O16 0.052706 0.000000 0.457715
O O17 0.547168 0.500000 0.210504
O O18 0.547816 0.750574 0.280099
O O19 0.750000 0.187692 0.766841
O O20 0.694842 0.000000 0.839534
O O21 0.035159 0.000000 0.651711
#
# Coordination Sequence:
#
# PCOD8206104 Si02
#       8
#     8   8   8   8   8   8   8   8
#     4  10  18  28  41  59  84 115 145 168 196 240
#     4   9  16  27  44  62  79 105 142 176 202 238
#     4  10  17  27  44  62  83 111 140 167 201 247
#     4   9  17  29  42  58  84 115 142 168 204 248
#     4   8  15  27  44  61  79 107 137 166 205 246
#     4  10  19  29  42  60  84 114 143 173 208 243
#     4   9  17  27  40  61  87 109 130 165 210 248
#     4   9  16  29  45  60  80 106 139 174 205 242
#
# _framework density 15.069922
#
# number of rings (size 3 to 8) (size 9 to 14) (size 15 to 20)
#    0.000    2.750    2.500    1.125    0.000    1.500 
#    0.000    3.125    0.000    1.500    0.000    0.875 
#    0.000    1.000    0.000    0.000    0.000    0.000 
#
# Total GULP energy -792978.267882 kJ/mol
# GULP energy per Si atom -12390.285436 kJ/mol
# Density = 1.503562 g / cm^3
# Si number density = 15.069922 Si / 1000 Ang^3
#
#
#
# Elastic Constant Matrix: (Units=GPa)
#
#
# Indices 1 2 3 4 5 6 
#
# 1 117.6108 28.2432 64.1124 0.0000 0.0000 0.0000
# 2 28.2432 26.3127 28.6305 0.0000 0.0000 0.0000
# 3 64.1124 28.6305 108.1552 0.0000 0.0000 0.0000
# 4 0.0000 0.0000 0.0000 22.4913 0.0000 0.0000
# 5 0.0000 0.0000 0.0000 0.0000 22.0064 0.0000
# 6 0.0000 0.0000 0.0000 0.0000 0.0000 12.5572
#
#
#
# Elastic Compliance Matrix: (Units=1/GPa)
#
#
# Indices 1 2 3 4 5 6 
#
# 1 0.013732 -0.008262 -0.005953 0.000000 0.000000 0.000000
# 2 -0.008262 0.058351 -0.010549 0.000000 0.000000 0.000000
# 3 -0.005953 -0.010549 0.015567 0.000000 0.000000 0.000000
# 4 0.000000 0.000000 0.000000 0.044462 0.000000 0.000000
# 5 0.000000 0.000000 0.000000 0.000000 0.045441 0.000000
# 6 0.000000 0.000000 0.000000 0.000000 0.000000 0.079636
#
#
# Mechanical properties :
#
#
# Convention : Reuss Voigt Hill
#
# Bulk Modulus (GPa) = 26.23141 54.89454 40.56298
# Shear Modulus (GPa) = 15.65323 20.15048 17.90186
#
# Velocity S-wave (km/s) = 3.22639 3.66065 3.45036
# Velocity P-wave (km/s) = 5.59676 7.37379 6.54586
#
# Compressibility (1/GPa) = 0.03812223
#
# Stress axis : x y z
#
# Youngs Moduli (GPa) = 72.82435 17.13775 64.23788
#
# Poissons Ratio (x) = 0.14159 0.38239
# Poissons Ratio (y) = 0.60168 0.67764
# Poissons Ratio (z) = 0.43351 0.18078
#
# Static dielectric constant tensor:
#      x y z
#    x 3.161530 0.000000 0.000000 
#    y 0.000000 2.726550 0.000000 
#    z 0.000000 0.000000 2.942150 
# 
# 
# High freq. dielectric constant tensor:
#      x y z
#    x 1.571920 0.000000 0.000000 
#    y 0.000000 1.556660 0.000000 
#    z 0.000000 0.000000 1.560150 
# 
# From -- ./inp_files/26609.got.cif
#   From: 2010.03.12/outbox.cif.g09.slc.cpg/sg51_14_cif.got.tgz:26609.got - 2010.04.16 13:43:02.
