data_PCOD8206623
_publ_section_title
;
Structure prediction by ZEFSAII (Michael W. Deem and Ramdas Pophale) SiO2 
 PCOD8206623
Probable space group: P M M A
;
_chemical_formula_sum "Si O2"
_cell_formula_units_Z 64
_cell_length_a 30.049969
_cell_length_b 8.699170
_cell_length_c 14.024871
_cell_angle_alpha 90.000000
_cell_angle_beta 90.000000
_cell_angle_gamma 90.000000
_cell_volume 3666.238566
_symmetry_space_group_name_H-M "P M M A"
_symmetry_group_IT_number 51
_symmetry_cell_setting 'orthorhombic'
loop_
_space_group_symop_operation_xyz
x,y,z
1/2-x,-y,z
1/2+x,-y,-z
-x,y,-z
-x,-y,-z
1/2+x,y,-z
1/2-x,y,z
x,-y,z
loop_
_atom_site_type_symbol
_atom_site_label
_atom_site_fract_x
_atom_site_fract_y
_atom_site_fract_z
Si Si1 0.134753 0.177439 0.657419
Si Si2 0.938448 0.679359 0.467066
Si Si3 0.120292 0.181188 0.380269
Si Si4 0.576658 0.679839 0.785284
Si Si5 0.505402 0.824471 0.314508
Si Si6 0.086094 0.829599 0.832268
Si Si7 0.298729 0.821075 0.504855
Si Si8 0.549522 0.680080 0.988685
O O1 0.102640 0.295389 0.604053
O O2 0.131686 0.206382 0.772155
O O3 0.184031 0.204392 0.613965
O O4 0.119588 0.000000 0.635624
O O5 0.947188 0.500000 0.483323
O O6 0.924755 0.757920 0.567557
O O7 0.982413 0.755557 0.419045
O O8 0.117287 0.236698 0.270494
O O9 0.165236 0.248076 0.429716
O O10 0.120638 0.000000 0.386911
O O11 0.586155 0.500000 0.783502
O O12 0.530582 0.716055 0.733802
O O13 0.573574 0.744441 0.893641
O O14 0.547883 0.816294 0.246231
O O15 0.488186 0.000000 0.324918
O O16 0.087476 0.000000 0.876899
O O17 0.079894 0.713653 0.919510
O O18 0.250000 0.741895 0.493566
O O19 0.293653 0.000000 0.483315
O O20 0.543907 0.500000 0.976257
O O21 0.500000 0.754113 0.000000
#
# Coordination Sequence:
#
# PCOD8206623 Si02
#       8
#     8   8   8   8   8   8   8   8
#     4   8  15  28  45  71 101 125 153 190 231 279
#     4  10  18  29  46  66  91 125 162 194 231 278
#     4  10  20  34  49  68  96 124 155 194 237 284
#     4  11  22  34  47  65  91 123 164 205 240 280
#     4  10  19  31  46  66  91 123 162 201 241 277
#     4   9  17  28  45  67  93 124 158 197 238 279
#     4   8  14  28  53  79 100 123 150 183 229 286
#     4  10  20  33  47  65  90 122 163 208 245 275
#
# _framework density 17.456583999999999
#
# number of rings (size 3 to 8) (size 9 to 14) (size 15 to 20)
#    0.000    2.500    1.250    3.750    0.000    3.750 
#    0.000    2.500    0.000    9.375    0.000    0.875 
#    0.000    5.000    0.000    0.000    0.000    0.000 
#
# Total GULP energy -793088.451406 kJ/mol
# GULP energy per Si atom -12392.007053 kJ/mol
# Density = 1.741685 g / cm^3
# Si number density = 17.456584 Si / 1000 Ang^3
#
#
#
# Elastic Constant Matrix: (Units=GPa)
#
#
# Indices 1 2 3 4 5 6 
#
# 1 62.1992 4.8442 36.9847 0.0000 0.0000 0.0000
# 2 4.8442 42.5091 22.4965 0.0000 0.0000 0.0000
# 3 36.9847 22.4965 129.0223 0.0000 0.0000 0.0000
# 4 0.0000 0.0000 0.0000 27.1179 0.0000 0.0000
# 5 0.0000 0.0000 0.0000 0.0000 15.5533 0.0000
# 6 0.0000 0.0000 0.0000 0.0000 0.0000 8.7698
#
#
#
# Elastic Compliance Matrix: (Units=1/GPa)
#
#
# Indices 1 2 3 4 5 6 
#
# 1 0.019406 0.000807 -0.005703 0.000000 0.000000 0.000000
# 2 0.000807 0.025949 -0.004756 0.000000 0.000000 0.000000
# 3 -0.005703 -0.004756 0.010215 0.000000 0.000000 0.000000
# 4 0.000000 0.000000 0.000000 0.036876 0.000000 0.000000
# 5 0.000000 0.000000 0.000000 0.000000 0.064295 0.000000
# 6 0.000000 0.000000 0.000000 0.000000 0.000000 0.114028
#
#
# Mechanical properties :
#
#
# Convention : Reuss Voigt Hill
#
# Bulk Modulus (GPa) = 27.57468 40.26459 33.91964
# Shear Modulus (GPa) = 16.54740 21.58188 19.06464
#
# Velocity S-wave (km/s) = 3.08217 3.51994 3.30831
# Velocity P-wave (km/s) = 5.33824 6.29569 5.83663
#
# Compressibility (1/GPa) = 0.03626515
#
# Stress axis : x y z
#
# Youngs Moduli (GPa) = 51.53067 38.53672 97.89758
#
# Poissons Ratio (x) = -0.03110 0.55836
# Poissons Ratio (y) = -0.04158 0.46559
# Poissons Ratio (z) = 0.29390 0.18327
#
# Static dielectric constant tensor:
#      x y z
#    x 3.254520 0.000000 0.000000 
#    y 0.000000 3.052300 0.000000 
#    z 0.000000 0.000000 3.475730 
# 
# 
# High freq. dielectric constant tensor:
#      x y z
#    x 1.632250 0.000000 0.000000 
#    y 0.000000 1.661780 0.000000 
#    z 0.000000 0.000000 1.674540 
# 
# From -- ./inp_files/26649.got.cif
#   From: 2010.03.12/outbox.cif.g09.slc.cpg/sg51_14_cif.got.tgz:26649.got - 2010.04.16 13:43:02.
