data_PCOD8206548
_publ_section_title
;
Structure prediction by ZEFSAII (Michael W. Deem and Ramdas Pophale) SiO2 
 PCOD8206548
Probable space group: P M M A
;
_chemical_formula_sum "Si O2"
_cell_formula_units_Z 40
_cell_length_a 22.753008
_cell_length_b 8.960055
_cell_length_c 11.483080
_cell_angle_alpha 90.000000
_cell_angle_beta 90.000000
_cell_angle_gamma 90.000000
_cell_volume 2341.034886
_symmetry_space_group_name_H-M "P M M A"
_symmetry_group_IT_number 51
_symmetry_cell_setting 'orthorhombic'
loop_
_space_group_symop_operation_xyz
x,y,z
1/2-x,-y,z
1/2+x,-y,-z
-x,y,-z
-x,-y,-z
1/2+x,y,-z
1/2-x,y,z
x,-y,z
loop_
_atom_site_type_symbol
_atom_site_label
_atom_site_fract_x
_atom_site_fract_y
_atom_site_fract_z
Si Si1 0.370176 0.824277 0.427550
Si Si2 0.185161 0.669394 0.863891
Si Si3 0.516660 0.668228 0.634386
Si Si4 0.597807 0.175587 0.311290
Si Si5 0.750000 0.176952 0.682729
Si Si6 0.750000 0.822344 0.948030
O O1 0.420378 0.746622 0.349645
O O2 0.376101 0.781169 0.562883
O O3 0.307621 0.762500 0.383326
O O4 0.376848 0.000000 0.408884
O O5 0.250000 0.670280 0.803212
O O6 0.163325 0.500000 0.883893
O O7 0.139611 0.756622 0.785420
O O8 0.191770 0.754427 0.988578
O O9 0.500000 0.672024 0.500000
O O10 0.519996 0.500000 0.682235
O O11 0.467255 0.757509 0.706122
O O12 0.594184 0.000000 0.294165
O O13 0.750000 0.000000 0.678345
O O14 0.750000 0.233063 0.815342
O O15 0.750000 0.000000 0.958947
#
# Coordination Sequence:
#
# PCOD8206548 Si02
#       6
#     8   8   8   8   4   4
#     4   9  18  31  48  73 102 129 161 194 235 284
#     4   9  19  32  47  69  98 126 155 198 245 283
#     4   9  17  30  46  66  99 135 163 192 233 284
#     4  10  18  28  50  76 100 128 161 197 236 286
#     4   9  18  32  51  72  96 127 158 201 240 277
#     4   9  17  32  51  68  90 125 166 197 238 287
#
# _framework density 17.086459999999999
#
# number of rings (size 3 to 8) (size 9 to 14) (size 15 to 20)
#    0.600    2.200    0.000    1.800    1.400    3.200 
#    0.000    2.500    0.000    1.200    0.000    8.400 
#    0.000    0.000    0.000    0.000    0.000    0.000 
#
# Total GULP energy -495805.636476 kJ/mol
# GULP energy per Si atom -12395.140912 kJ/mol
# Density = 1.704757 g / cm^3
# Si number density = 17.086460 Si / 1000 Ang^3
#
#
#
# Elastic Constant Matrix: (Units=GPa)
#
#
# Indices 1 2 3 4 5 6 
#
# 1 136.6003 42.6818 48.7945 0.0000 0.0000 0.0000
# 2 42.6818 79.3730 31.6132 0.0000 0.0000 0.0000
# 3 48.7945 31.6132 67.0108 0.0000 0.0000 0.0000
# 4 0.0000 0.0000 0.0000 12.6338 0.0000 0.0000
# 5 0.0000 0.0000 0.0000 0.0000 3.3653 0.0000
# 6 0.0000 0.0000 0.0000 0.0000 0.0000 28.4246
#
#
#
# Elastic Compliance Matrix: (Units=1/GPa)
#
#
# Indices 1 2 3 4 5 6 
#
# 1 0.010518 -0.003208 -0.006145 0.000000 0.000000 0.000000
# 2 -0.003208 0.016492 -0.005444 0.000000 0.000000 0.000000
# 3 -0.006145 -0.005444 0.021966 0.000000 0.000000 0.000000
# 4 0.000000 0.000000 0.000000 0.079153 0.000000 0.000000
# 5 0.000000 0.000000 0.000000 0.000000 0.297155 0.000000
# 6 0.000000 0.000000 0.000000 0.000000 0.000000 0.035181
#
#
# Mechanical properties :
#
#
# Convention : Reuss Voigt Hill
#
# Bulk Modulus (GPa) = 51.59759 58.79590 55.19674
# Shear Modulus (GPa) = 10.07006 19.54437 14.80721
#
# Velocity S-wave (km/s) = 2.43031 3.38576 2.94701
# Velocity P-wave (km/s) = 6.17565 7.05478 6.62981
#
# Compressibility (1/GPa) = 0.01938075
#
# Stress axis : x y z
#
# Youngs Moduli (GPa) = 95.07243 60.63399 45.52456
#
# Poissons Ratio (x) = 0.19454 0.27977
# Poissons Ratio (y) = 0.30504 0.24785
# Poissons Ratio (z) = 0.58425 0.33011
#
# Static dielectric constant tensor:
#      x y z
#    x 3.318020 0.000000 0.000000 
#    y 0.000000 3.207430 0.000000 
#    z 0.000000 0.000000 2.898370 
# 
# 
# High freq. dielectric constant tensor:
#      x y z
#    x 1.658070 0.000000 0.000000 
#    y 0.000000 1.664440 0.000000 
#    z 0.000000 0.000000 1.621970 
# 
# From -- ./inp_files/17998.got.cif
#   From: 2010.03.12/outbox.cif.g09.slc.cpg/sg51_9_cif.got.tgz:17998.got - 2010.04.16 13:43:02.
