data_PCOD8206449
_publ_section_title
;
Structure prediction by ZEFSAII (Michael W. Deem and Ramdas Pophale) SiO2 
 PCOD8206449
Probable space group: P M M A
;
_chemical_formula_sum "Si O2"
_cell_formula_units_Z 56
_cell_length_a 8.731367
_cell_length_b 18.445552
_cell_length_c 21.698551
_cell_angle_alpha 90.000000
_cell_angle_beta 90.000000
_cell_angle_gamma 90.000000
_cell_volume 3494.657615
_symmetry_space_group_name_H-M "P M M A"
_symmetry_group_IT_number 51
_symmetry_cell_setting 'orthorhombic'
loop_
_space_group_symop_operation_xyz
x,y,z
1/2-x,-y,z
1/2+x,-y,-z
-x,y,-z
-x,-y,-z
1/2+x,y,-z
1/2-x,y,z
x,-y,z
loop_
_atom_site_type_symbol
_atom_site_label
_atom_site_fract_x
_atom_site_fract_y
_atom_site_fract_z
Si Si1 0.933251 0.344291 0.817771
Si Si2 0.080440 0.703295 0.370737
Si Si3 0.426719 0.583633 0.701684
Si Si4 0.917087 0.207681 0.754161
Si Si5 0.932854 0.917432 0.676524
Si Si6 0.069958 0.583383 0.935077
Si Si7 0.068676 0.167692 0.565006
O O1 0.750000 0.344252 0.817003
O O2 0.998346 0.262202 0.802952
O O3 0.989741 0.400291 0.766223
O O4 0.994938 0.366167 0.883952
O O5 0.250000 0.686886 0.397514
O O6 0.096749 0.747448 0.308334
O O7 0.994496 0.628150 0.356006
O O8 0.986116 0.750711 0.419715
O O9 0.250000 0.604244 0.710381
O O10 0.450222 0.500000 0.685359
O O11 0.750000 0.188993 0.780957
O O12 0.996663 0.131259 0.734759
O O13 0.750000 0.906881 0.670114
O O14 0.010761 0.891417 0.613897
O O15 0.978609 0.000000 0.689806
O O16 0.250000 0.595968 0.936379
O O17 0.028444 0.500000 0.920758
O O18 0.000000 0.607503 0.000000
O O19 0.250000 0.166182 0.562559
O O20 0.000000 0.143312 0.500000
#
# Coordination Sequence:
#
# PCOD8206449 Si02
#       7
#     8   8   8   8   8   8   8
#     4  10  18  28  44  64  89 121 156 191 225 265
#     4   9  17  31  48  65  86 112 146 185 226 270
#     4  10  19  29  43  66  93 118 147 185 228 271
#     4   7  13  26  43  64  87 112 143 179 218 260
#     4   9  17  31  50  70  94 122 150 182 220 262
#     4  10  20  32  44  60  86 120 157 195 233 273
#     4  11  21  33  49  67  89 117 150 184 219 265
#
# _framework density 16.024460000000001
#
# number of rings (size 3 to 8) (size 9 to 14) (size 15 to 20)
#    0.000    2.571    0.000    5.143    0.000    4.286 
#    0.000    0.714    0.000    0.429    0.000    0.000 
#    0.000    0.571    0.000    1.000    0.000    1.429 
#
# Total GULP energy -693953.491533 kJ/mol
# GULP energy per Si atom -12392.026635 kJ/mol
# Density = 1.598799 g / cm^3
# Si number density = 16.024460 Si / 1000 Ang^3
#
#
#
# Elastic Constant Matrix: (Units=GPa)
#
#
# Indices 1 2 3 4 5 6 
#
# 1 84.3766 44.2453 31.1391 0.0000 0.0000 0.0000
# 2 44.2453 122.2190 55.2671 0.0000 0.0000 0.0000
# 3 31.1391 55.2671 65.9985 0.0000 0.0000 0.0000
# 4 0.0000 0.0000 0.0000 19.9879 0.0000 0.0000
# 5 0.0000 0.0000 0.0000 0.0000 24.0837 0.0000
# 6 0.0000 0.0000 0.0000 0.0000 0.0000 20.2138
#
#
#
# Elastic Compliance Matrix: (Units=1/GPa)
#
#
# Indices 1 2 3 4 5 6 
#
# 1 0.015305 -0.003662 -0.004155 0.000000 0.000000 0.000000
# 2 -0.003662 0.014045 -0.010033 0.000000 0.000000 0.000000
# 3 -0.004155 -0.010033 0.025514 0.000000 0.000000 0.000000
# 4 0.000000 0.000000 0.000000 0.050030 0.000000 0.000000
# 5 0.000000 0.000000 0.000000 0.000000 0.041522 0.000000
# 6 0.000000 0.000000 0.000000 0.000000 0.000000 0.049471
#
#
# Mechanical properties :
#
#
# Convention : Reuss Voigt Hill
#
# Bulk Modulus (GPa) = 52.18118 59.32191 55.75155
# Shear Modulus (GPa) = 21.01061 22.31993 21.66527
#
# Velocity S-wave (km/s) = 3.62492 3.73616 3.68096
# Velocity P-wave (km/s) = 7.08196 7.46404 7.27551
#
# Compressibility (1/GPa) = 0.01916400
#
# Stress axis : x y z
#
# Youngs Moduli (GPa) = 65.33732 71.20087 39.19420
#
# Poissons Ratio (x) = 0.26074 0.16284
# Poissons Ratio (y) = 0.23927 0.39325
# Poissons Ratio (z) = 0.27146 0.71438
#
# Static dielectric constant tensor:
#      x y z
#    x 3.083800 0.000000 0.000000 
#    y 0.000000 3.290010 0.000000 
#    z 0.000000 0.000000 2.907380 
# 
# 
# High freq. dielectric constant tensor:
#      x y z
#    x 1.618510 0.000000 0.000000 
#    y 0.000000 1.608570 0.000000 
#    z 0.000000 0.000000 1.584630 
# 
# From -- ./inp_files/32216.got.cif
#   From: 2010.03.12/outbox.cif.g09.slc.cpg/sg51_17_cif.got.tgz:32216.got - 2010.04.16 13:43:02.
