data_PCOD8206384
_publ_section_title
;
Structure prediction by ZEFSAII (Michael W. Deem and Ramdas Pophale) SiO2 
 PCOD8206384
Probable space group: P M M A
;
_chemical_formula_sum "Si O2"
_cell_formula_units_Z 64
_cell_length_a 9.009836
_cell_length_b 18.256419
_cell_length_c 26.369712
_cell_angle_alpha 90.000000
_cell_angle_beta 90.000000
_cell_angle_gamma 90.000000
_cell_volume 4337.483813
_symmetry_space_group_name_H-M "P M M A"
_symmetry_group_IT_number 51
_symmetry_cell_setting 'orthorhombic'
loop_
_space_group_symop_operation_xyz
x,y,z
1/2-x,-y,z
1/2+x,-y,-z
-x,y,-z
-x,-y,-z
1/2+x,y,-z
1/2-x,y,z
x,-y,z
loop_
_atom_site_type_symbol
_atom_site_label
_atom_site_fract_x
_atom_site_fract_y
_atom_site_fract_z
Si Si1 0.077166 0.083730 0.346539
Si Si2 0.423531 0.584080 0.347723
Si Si3 0.924144 0.166349 0.756432
Si Si4 0.417276 0.912947 0.049425
Si Si5 0.924761 0.915145 0.151679
Si Si6 0.417002 0.793438 0.601219
Si Si7 0.924432 0.666781 0.550576
Si Si8 0.582639 0.707210 0.294114
O O1 0.250000 0.092975 0.358213
O O2 0.039289 0.114339 0.291022
O O3 0.988650 0.126845 0.390229
O O4 0.025295 0.000000 0.348466
O O5 0.250000 0.595697 0.338287
O O6 0.471560 0.500000 0.343694
O O7 0.466885 0.612566 0.403618
O O8 0.509699 0.627971 0.303826
O O9 0.750000 0.171616 0.767022
O O10 0.005129 0.132826 0.804396
O O11 0.987489 0.247919 0.747109
O O12 0.250000 0.881716 0.051463
O O13 0.506298 0.887254 0.098960
O O14 0.414251 0.000000 0.046341
O O15 0.500000 0.880718 0.000000
O O16 0.750000 0.902427 0.149785
O O17 0.964449 0.000000 0.161368
O O18 0.250000 0.802577 0.580629
O O19 0.512488 0.748190 0.560610
O O20 0.419943 0.751129 0.653886
O O21 0.750000 0.672123 0.542354
O O22 0.000000 0.634493 0.500000
O O23 0.750000 0.696821 0.273980
#
# Coordination Sequence:
#
# PCOD8206384 Si02
#       8
#     8   8   8   8   8   8   8   8
#     4   9  17  28  42  60  81 104 130 162 201 243
#     4   9  18  32  48  66  88 112 136 161 190 227
#     4  10  18  28  42  59  81 109 139 170 206 248
#     4   9  16  26  39  53  71  99 137 179 221 263
#     4  10  19  28  38  55  80 108 140 181 224 259
#     4   9  17  29  44  61  80 103 132 162 192 232
#     4  10  19  31  47  65  85 108 132 159 192 230
#     4   9  17  29  44  62  83 107 135 165 197 235
#
# _framework density 14.755096999999999
#
# number of rings (size 3 to 8) (size 9 to 14) (size 15 to 20)
#    0.000    2.625    0.000    2.625    0.000    7.500 
#    0.000    0.000    0.000    0.375    0.000    0.000 
#    0.000    0.000    0.000    0.000    0.000    0.625 
#
# Total GULP energy -793615.508739 kJ/mol
# GULP energy per Si atom -12400.242324 kJ/mol
# Density = 1.472151 g / cm^3
# Si number density = 14.755097 Si / 1000 Ang^3
#
#
#
# Elastic Constant Matrix: (Units=GPa)
#
#
# Indices 1 2 3 4 5 6 
#
# 1 91.0717 43.8932 40.9191 0.0000 0.0000 0.0000
# 2 43.8932 93.1895 36.4856 0.0000 0.0000 0.0000
# 3 40.9191 36.4856 59.7425 0.0000 0.0000 0.0000
# 4 0.0000 0.0000 0.0000 11.0994 0.0000 0.0000
# 5 0.0000 0.0000 0.0000 0.0000 27.3729 0.0000
# 6 0.0000 0.0000 0.0000 0.0000 0.0000 20.7767
#
#
#
# Elastic Compliance Matrix: (Units=1/GPa)
#
#
# Indices 1 2 3 4 5 6 
#
# 1 0.017240 -0.004596 -0.009001 0.000000 0.000000 0.000000
# 2 -0.004596 0.015328 -0.006213 0.000000 0.000000 0.000000
# 3 -0.009001 -0.006213 0.026698 0.000000 0.000000 0.000000
# 4 0.000000 0.000000 0.000000 0.090095 0.000000 0.000000
# 5 0.000000 0.000000 0.000000 0.000000 0.036532 0.000000
# 6 0.000000 0.000000 0.000000 0.000000 0.000000 0.048131
#
#
# Mechanical properties :
#
#
# Convention : Reuss Voigt Hill
#
# Bulk Modulus (GPa) = 50.90252 54.06659 52.48456
# Shear Modulus (GPa) = 17.84482 20.03019 18.93751
#
# Velocity S-wave (km/s) = 3.48142 3.68844 3.58642
# Velocity P-wave (km/s) = 7.12275 7.40686 7.26619
#
# Compressibility (1/GPa) = 0.01964539
#
# Stress axis : x y z
#
# Youngs Moduli (GPa) = 58.00571 65.23926 37.45592
#
# Poissons Ratio (x) = 0.29984 0.33714
# Poissons Ratio (y) = 0.26659 0.23272
# Poissons Ratio (z) = 0.52211 0.40535
#
# Static dielectric constant tensor:
#      x y z
#    x 3.031490 0.000000 0.000000 
#    y 0.000000 2.728460 0.000000 
#    z 0.000000 0.000000 2.724600 
# 
# 
# High freq. dielectric constant tensor:
#      x y z
#    x 1.582370 0.000000 0.000000 
#    y 0.000000 1.532890 0.000000 
#    z 0.000000 0.000000 1.538390 
# 
# From -- ./inp_files/35096.got.cif
#   From: 2010.03.12/outbox.cif.g09.slc.cpg/sg51_18_cif.got.tgz:35096.got - 2010.04.16 13:43:02.
