data_PCOD8206955
_publ_section_title
;
Structure prediction by ZEFSAII (Michael W. Deem and Ramdas Pophale) SiO2 
 PCOD8206955
Probable space group: P M M A
;
_chemical_formula_sum "Si O2"
_cell_formula_units_Z 64
_cell_length_a 9.168290
_cell_length_b 24.138096
_cell_length_c 15.289632
_cell_angle_alpha 90.000000
_cell_angle_beta 90.000000
_cell_angle_gamma 90.000000
_cell_volume 3383.672991
_symmetry_space_group_name_H-M "P M M A"
_symmetry_group_IT_number 51
_symmetry_cell_setting 'orthorhombic'
loop_
_space_group_symop_operation_xyz
x,y,z
1/2-x,-y,z
1/2+x,-y,-z
-x,y,-z
-x,-y,-z
1/2+x,y,-z
1/2-x,y,z
x,-y,z
loop_
_atom_site_type_symbol
_atom_site_label
_atom_site_fract_x
_atom_site_fract_y
_atom_site_fract_z
Si Si1 0.082139 0.564300 0.230005
Si Si2 0.421272 0.167753 0.583075
Si Si3 0.082612 0.635547 0.911301
Si Si4 0.415419 0.737149 0.799299
Si Si5 0.082441 0.137897 0.778001
Si Si6 0.419136 0.064740 0.087285
Si Si7 0.085051 0.600866 0.417333
Si Si8 0.583835 0.275573 0.631078
O O1 0.250000 0.584766 0.222893
O O2 0.068861 0.500000 0.207239
O O3 0.021137 0.576144 0.327355
O O4 0.982317 0.597506 0.163783
O O5 0.500000 0.137769 0.500000
O O6 0.250000 0.169598 0.565577
O O7 0.456963 0.136931 0.674409
O O8 0.480245 0.230433 0.586227
O O9 0.250000 0.619032 0.924517
O O10 0.066747 0.700582 0.886532
O O11 0.000000 0.623350 0.000000
O O12 0.250000 0.732360 0.761729
O O13 0.448308 0.801527 0.818993
O O14 0.529206 0.713290 0.729529
O O15 0.250000 0.120425 0.791763
O O16 0.980269 0.094545 0.826827
O O17 0.250000 0.079036 0.076597
O O18 0.446973 0.000000 0.101055
O O19 0.500000 0.086060 0.000000
O O20 0.250000 0.580675 0.426816
O O21 0.072657 0.667273 0.420558
O O22 0.000000 0.575878 0.500000
O O23 0.750000 0.253568 0.633458
#
# Coordination Sequence:
#
# PCOD8206955 Si02
#       8
#     8   8   8   8   8   8   8   8
#     4  10  22  42  62  79 105 139 179 230 278 326
#     4  10  20  33  50  77 114 152 191 231 274 324
#     4  11  23  39  61  85 111 142 178 222 274 333
#     4   9  19  35  54  80 113 146 178 220 271 324
#     4   9  19  35  55  82 116 150 187 229 276 327
#     4  10  21  37  58  84 113 147 189 235 281 329
#     4  10  21  34  52  80 108 139 177 218 268 324
#     4  10  18  30  51  77 107 144 183 221 267 322
#
# _framework density 18.914359000000001
#
# number of rings (size 3 to 8) (size 9 to 14) (size 15 to 20)
#    0.000    2.125    1.250    2.625    0.000    7.500 
#    0.000    1.250    0.000    0.375    0.000    0.000 
#    0.000    0.000    0.000    0.000    0.000    0.000 
#
# Total GULP energy -793628.521596 kJ/mol
# GULP energy per Si atom -12400.445650 kJ/mol
# Density = 1.887131 g / cm^3
# Si number density = 18.914359 Si / 1000 Ang^3
#
#
#
# Elastic Constant Matrix: (Units=GPa)
#
#
# Indices 1 2 3 4 5 6 
#
# 1 113.6616 42.1199 76.1325 0.0000 0.0000 0.0000
# 2 42.1199 54.9717 44.9626 0.0000 0.0000 0.0000
# 3 76.1325 44.9626 143.3786 0.0000 0.0000 0.0000
# 4 0.0000 0.0000 0.0000 14.1462 0.0000 0.0000
# 5 0.0000 0.0000 0.0000 0.0000 37.7125 0.0000
# 6 0.0000 0.0000 0.0000 0.0000 0.0000 22.9504
#
#
#
# Elastic Compliance Matrix: (Units=1/GPa)
#
#
# Indices 1 2 3 4 5 6 
#
# 1 0.015363 -0.006858 -0.006007 0.000000 0.000000 0.000000
# 2 -0.006858 0.027528 -0.004991 0.000000 0.000000 0.000000
# 3 -0.006007 -0.004991 0.011729 0.000000 0.000000 0.000000
# 4 0.000000 0.000000 0.000000 0.070690 0.000000 0.000000
# 5 0.000000 0.000000 0.000000 0.000000 0.026516 0.000000
# 6 0.000000 0.000000 0.000000 0.000000 0.000000 0.043572
#
#
# Mechanical properties :
#
#
# Convention : Reuss Voigt Hill
#
# Bulk Modulus (GPa) = 52.88671 70.93796 61.91234
# Shear Modulus (GPa) = 21.06020 24.88162 22.97091
#
# Velocity S-wave (km/s) = 3.34046 3.63090 3.48870
# Velocity P-wave (km/s) = 6.54982 7.42726 7.00229
#
# Compressibility (1/GPa) = 0.01890834
#
# Stress axis : x y z
#
# Youngs Moduli (GPa) = 65.09141 36.32632 85.25633
#
# Poissons Ratio (x) = 0.24913 0.51213
# Poissons Ratio (y) = 0.44640 0.42552
# Poissons Ratio (z) = 0.39100 0.18131
#
# Static dielectric constant tensor:
#      x y z
#    x 3.549490 0.000000 0.000000 
#    y 0.000000 3.229570 0.000000 
#    z 0.000000 0.000000 3.546670 
# 
# 
# High freq. dielectric constant tensor:
#      x y z
#    x 1.740890 0.000000 0.000000 
#    y 0.000000 1.709850 0.000000 
#    z 0.000000 0.000000 1.738040 
# 
# From -- ./inp_files/22281.got.cif
#   From: 2010.03.12/outbox.cif.g09.slc.cpg/sg51_12_cif.got.tgz:22281.got - 2010.04.16 13:43:02.
