data_PCOD8206076
_publ_section_title
;
Structure prediction by ZEFSAII (Michael W. Deem and Ramdas Pophale) SiO2 
 PCOD8206076
Probable space group: P M M A
;
_chemical_formula_sum "Si O2"
_cell_formula_units_Z 56
_cell_length_a 24.268945
_cell_length_b 8.980604
_cell_length_c 16.208434
_cell_angle_alpha 90.000000
_cell_angle_beta 90.000000
_cell_angle_gamma 90.000000
_cell_volume 3532.624698
_symmetry_space_group_name_H-M "P M M A"
_symmetry_group_IT_number 51
_symmetry_cell_setting 'orthorhombic'
loop_
_space_group_symop_operation_xyz
x,y,z
1/2-x,-y,z
1/2+x,-y,-z
-x,y,-z
-x,-y,-z
1/2+x,y,-z
1/2-x,y,z
x,-y,z
loop_
_atom_site_type_symbol
_atom_site_label
_atom_site_fract_x
_atom_site_fract_y
_atom_site_fract_z
Si Si1 0.504603 0.824222 0.189195
Si Si2 0.396904 0.676397 0.117621
Si Si3 0.487671 0.824289 0.625636
Si Si4 0.813204 0.325023 0.600174
Si Si5 0.314428 0.830637 0.229703
Si Si6 0.410937 0.823518 0.481643
Si Si7 0.557015 0.664776 0.048706
O O1 0.447829 0.746406 0.166315
O O2 0.520875 0.769327 0.280842
O O3 0.553436 0.776203 0.126359
O O4 0.496656 0.000000 0.184533
O O5 0.399015 0.500000 0.130169
O O6 0.341187 0.744570 0.153254
O O7 0.398190 0.716694 0.019595
O O8 0.436181 0.771478 0.569685
O O9 0.546141 0.768888 0.588948
O O10 0.489585 0.000000 0.620716
O O11 0.750000 0.285933 0.577265
O O12 0.821620 0.500000 0.609680
O O13 0.830899 0.248597 0.685521
O O14 0.852816 0.260402 0.529309
O O15 0.250000 0.823652 0.213867
O O16 0.336006 0.000000 0.233849
O O17 0.400554 0.000000 0.478257
O O18 0.570951 0.500000 0.082651
O O19 0.500000 0.660791 0.000000
#
# Coordination Sequence:
#
# PCOD8206076 Si02
#       7
#     8   8   8   8   8   8   8
#     4  10  17  26  43  66  90 116 148 181 214 254
#     4  10  19  30  44  62  88 119 146 176 215 256
#     4   8  16  28  43  65  90 116 144 181 224 260
#     4  10  20  32  45  64  91 118 145 180 219 256
#     4  10  20  32  46  65  87 112 145 179 211 254
#     4   9  16  30  48  63  86 118 150 180 215 262
#     4   8  16  29  41  58  86 116 144 173 208 251
#
# _framework density 15.852236
#
# number of rings (size 3 to 8) (size 9 to 14) (size 15 to 20)
#    0.000    2.714    0.000    4.286    0.000    6.000 
#    0.000    3.571    0.000    0.000    0.000    1.000 
#    0.000    1.143    0.000    0.000    0.000    0.000 
#
# Total GULP energy -694170.957514 kJ/mol
# GULP energy per Si atom -12395.909956 kJ/mol
# Density = 1.581616 g / cm^3
# Si number density = 15.852236 Si / 1000 Ang^3
#
#
#
# Elastic Constant Matrix: (Units=GPa)
#
#
# Indices 1 2 3 4 5 6 
#
# 1 66.7501 34.5834 47.6983 0.0000 0.0000 0.0000
# 2 34.5834 75.7212 48.4338 0.0000 0.0000 0.0000
# 3 47.6983 48.4338 118.7543 0.0000 0.0000 0.0000
# 4 0.0000 0.0000 0.0000 19.1912 0.0000 0.0000
# 5 0.0000 0.0000 0.0000 0.0000 28.2189 0.0000
# 6 0.0000 0.0000 0.0000 0.0000 0.0000 22.9895
#
#
#
# Elastic Compliance Matrix: (Units=1/GPa)
#
#
# Indices 1 2 3 4 5 6 
#
# 1 0.022988 -0.006214 -0.006699 0.000000 0.000000 0.000000
# 2 -0.006214 0.019547 -0.005476 0.000000 0.000000 0.000000
# 3 -0.006699 -0.005476 0.013345 0.000000 0.000000 0.000000
# 4 0.000000 0.000000 0.000000 0.052107 0.000000 0.000000
# 5 0.000000 0.000000 0.000000 0.000000 0.035437 0.000000
# 6 0.000000 0.000000 0.000000 0.000000 0.000000 0.043498
#
#
# Mechanical properties :
#
#
# Convention : Reuss Voigt Hill
#
# Bulk Modulus (GPa) = 52.35248 58.07296 55.21272
# Shear Modulus (GPa) = 21.73272 22.78060 22.25666
#
# Velocity S-wave (km/s) = 3.70666 3.79497 3.75107
# Velocity P-wave (km/s) = 7.17050 7.47769 7.32571
#
# Compressibility (1/GPa) = 0.01910129
#
# Stress axis : x y z
#
# Youngs Moduli (GPa) = 43.50185 51.15774 74.93537
#
# Poissons Ratio (x) = 0.31790 0.50196
# Poissons Ratio (y) = 0.27033 0.41038
# Poissons Ratio (z) = 0.29140 0.28016
#
# Static dielectric constant tensor:
#      x y z
#    x 2.928840 0.000000 0.000000 
#    y 0.000000 3.007510 0.000000 
#    z 0.000000 0.000000 3.320670 
# 
# 
# High freq. dielectric constant tensor:
#      x y z
#    x 1.581940 0.000000 0.000000 
#    y 0.000000 1.608740 0.000000 
#    z 0.000000 0.000000 1.602320 
# 
# From -- ./inp_files/30784.got.cif
#   From: 2010.03.12/outbox.cif.g09.slc.cpg/sg51_16_cif.got.tgz:30784.got - 2010.04.16 13:43:02.
