data_PCOD8206083
_publ_section_title
;
Structure prediction by ZEFSAII (Michael W. Deem and Ramdas Pophale) SiO2 
 PCOD8206083
Probable space group: P M M A
;
_chemical_formula_sum "Si O2"
_cell_formula_units_Z 64
_cell_length_a 9.350247
_cell_length_b 14.722226
_cell_length_c 28.931005
_cell_angle_alpha 90.000000
_cell_angle_beta 90.000000
_cell_angle_gamma 90.000000
_cell_volume 3982.539428
_symmetry_space_group_name_H-M "P M M A"
_symmetry_group_IT_number 51
_symmetry_cell_setting 'orthorhombic'
loop_
_space_group_symop_operation_xyz
x,y,z
1/2-x,-y,z
1/2+x,-y,-z
-x,y,-z
-x,-y,-z
1/2+x,y,-z
1/2-x,y,z
x,-y,z
loop_
_atom_site_type_symbol
_atom_site_label
_atom_site_fract_x
_atom_site_fract_y
_atom_site_fract_z
Si Si1 0.585156 0.106356 0.192248
Si Si2 0.920083 0.898612 0.642906
Si Si3 0.591837 0.107844 0.541773
Si Si4 0.913033 0.102417 0.897807
Si Si5 0.084244 0.272587 0.045897
Si Si6 0.081678 0.397701 0.127248
Si Si7 0.919457 0.400005 0.769985
Si Si8 0.919538 0.786167 0.729922
O O1 0.750000 0.136695 0.192660
O O2 0.517900 0.132584 0.143084
O O3 0.498754 0.157541 0.231315
O O4 0.568090 0.000000 0.201733
O O5 0.750000 0.902843 0.640317
O O6 0.976552 0.868320 0.592076
O O7 0.971493 0.824634 0.680399
O O8 0.977500 0.000000 0.655799
O O9 0.500000 0.150525 0.500000
O O10 0.750000 0.150004 0.537466
O O11 0.599739 0.000000 0.537035
O O12 0.750000 0.112533 0.879706
O O13 0.938699 0.166712 0.941868
O O14 0.945532 0.000000 0.914145
O O15 0.250000 0.295869 0.037482
O O16 0.018387 0.330746 0.088455
O O17 0.000000 0.298261 0.000000
O O18 0.250000 0.382851 0.128853
O O19 0.041459 0.500000 0.113015
O O20 0.020065 0.376273 0.178638
O O21 0.750000 0.405642 0.773330
O O22 0.977230 0.500000 0.753964
O O23 0.964288 0.320309 0.734291
O O24 0.750000 0.799248 0.736421
#
# Coordination Sequence:
#
# PCOD8206083 Si02
#       8
#     8   8   8   8   8   8   8   8
#     4  10  20  31  43  63  90 115 139 172 211 244
#     4   8  14  23  35  55  83 112 143 177 209 245
#     4   8  13  22  35  50  71 102 140 179 214 246
#     4   9  18  33  50  64  79 105 142 173 194 232
#     4  10  20  32  46  65  85 104 129 161 198 240
#     4   8  14  26  43  61  82 106 129 156 193 237
#     4   8  14  25  43  67  88 105 134 176 212 241
#     4  10  17  26  44  65  86 116 147 172 205 254
#
# _framework density 16.070148
#
# number of rings (size 3 to 8) (size 9 to 14) (size 15 to 20)
#    0.000    3.125    0.000    3.000    0.000    4.250 
#    0.000    0.625    0.000    2.625    0.000    1.750 
#    0.000    0.500    0.000    0.375    0.000    0.750 
#
# Total GULP energy -793098.219414 kJ/mol
# GULP energy per Si atom -12392.159678 kJ/mol
# Density = 1.603357 g / cm^3
# Si number density = 16.070148 Si / 1000 Ang^3
#
#
#
# Elastic Constant Matrix: (Units=GPa)
#
#
# Indices 1 2 3 4 5 6 
#
# 1 33.8118 19.5211 23.6397 0.0000 0.0000 0.0000
# 2 19.5211 80.0527 67.2962 0.0000 0.0000 0.0000
# 3 23.6397 67.2962 107.6354 0.0000 0.0000 0.0000
# 4 0.0000 0.0000 0.0000 18.1339 0.0000 0.0000
# 5 0.0000 0.0000 0.0000 0.0000 18.5258 0.0000
# 6 0.0000 0.0000 0.0000 0.0000 0.0000 7.8669
#
#
#
# Elastic Compliance Matrix: (Units=1/GPa)
#
#
# Indices 1 2 3 4 5 6 
#
# 1 0.035679 -0.004454 -0.005051 0.000000 0.000000 0.000000
# 2 -0.004454 0.026887 -0.015832 0.000000 0.000000 0.000000
# 3 -0.005051 -0.015832 0.020299 0.000000 0.000000 0.000000
# 4 0.000000 0.000000 0.000000 0.055145 0.000000 0.000000
# 5 0.000000 0.000000 0.000000 0.000000 0.053979 0.000000
# 6 0.000000 0.000000 0.000000 0.000000 0.000000 0.127114
#
#
# Mechanical properties :
#
#
# Convention : Reuss Voigt Hill
#
# Bulk Modulus (GPa) = 31.06607 49.15709 40.11158
# Shear Modulus (GPa) = 13.14032 16.30819 14.72426
#
# Velocity S-wave (km/s) = 2.86262 3.18907 3.03024
# Velocity P-wave (km/s) = 5.50451 6.64949 6.10391
#
# Compressibility (1/GPa) = 0.03218946
#
# Stress axis : x y z
#
# Youngs Moduli (GPa) = 28.02805 37.19214 49.26388
#
# Poissons Ratio (x) = 0.16565 0.24885
# Poissons Ratio (y) = 0.12484 0.77997
# Poissons Ratio (z) = 0.14158 0.58884
#
# Static dielectric constant tensor:
#      x y z
#    x 2.810480 0.000000 0.000000 
#    y 0.000000 3.208520 0.000000 
#    z 0.000000 0.000000 3.251120 
# 
# 
# High freq. dielectric constant tensor:
#      x y z
#    x 1.579510 0.000000 0.000000 
#    y 0.000000 1.603070 0.000000 
#    z 0.000000 0.000000 1.607650 
# 
# From -- ./inp_files/37597.got.cif
#   From: 2010.03.12/outbox.cif.g09.slc.cpg/sg51_19_cif.got.tgz:37597.got - 2010.04.16 13:43:02.
