data_PCOD8206735
_publ_section_title
;
Structure prediction by ZEFSAII (Michael W. Deem and Ramdas Pophale) SiO2 
 PCOD8206735
Probable space group: P M M A
;
_chemical_formula_sum "Si O2"
_cell_formula_units_Z 56
_cell_length_a 8.872661
_cell_length_b 14.466486
_cell_length_c 23.528493
_cell_angle_alpha 90.000000
_cell_angle_beta 90.000000
_cell_angle_gamma 90.000000
_cell_volume 3020.028568
_symmetry_space_group_name_H-M "P M M A"
_symmetry_group_IT_number 51
_symmetry_cell_setting 'orthorhombic'
loop_
_space_group_symop_operation_xyz
x,y,z
1/2-x,-y,z
1/2+x,-y,-z
-x,y,-z
-x,-y,-z
1/2+x,y,-z
1/2-x,y,z
x,-y,z
loop_
_atom_site_type_symbol
_atom_site_label
_atom_site_fract_x
_atom_site_fract_y
_atom_site_fract_z
Si Si1 0.927160 0.395041 0.441755
Si Si2 0.427686 0.711744 0.669144
Si Si3 0.572817 0.605896 0.112266
Si Si4 0.922069 0.892050 0.152619
Si Si5 0.572475 0.227291 0.942395
Si Si6 0.572198 0.899440 0.279839
Si Si7 0.922335 0.607800 0.771595
O O1 0.750000 0.391193 0.449536
O O2 0.979875 0.500000 0.427744
O O3 0.980373 0.326102 0.391959
O O4 0.000000 0.359307 0.500000
O O5 0.250000 0.695523 0.678379
O O6 0.471827 0.820351 0.674680
O O7 0.518317 0.657252 0.716099
O O8 0.750000 0.620013 0.106487
O O9 0.524587 0.500000 0.101402
O O10 0.488404 0.668598 0.066317
O O11 0.522429 0.638551 0.174893
O O12 0.750000 0.856903 0.145671
O O13 0.983998 0.872767 0.216467
O O14 0.028351 0.837378 0.109948
O O15 0.932523 0.000000 0.138529
O O16 0.750000 0.229326 0.949182
O O17 0.500000 0.186892 0.000000
O O18 0.750000 0.909199 0.275303
O O19 0.505318 0.000000 0.298678
O O20 0.750000 0.635757 0.783763
O O21 0.939460 0.500000 0.760007
#
# Coordination Sequence:
#
# PCOD8206735 Si02
#       7
#     8   8   8   8   8   8   8
#     4   9  18  31  46  67  97 134 176 217 256 300
#     4  10  18  29  50  76 101 132 171 214 255 299
#     4  10  21  38  58  77 101 135 172 211 256 306
#     4   9  18  35  58  81 106 135 167 206 255 313
#     4  12  25  39  56  77 103 134 171 215 260 311
#     4   8  15  29  51  78 103 127 158 199 249 303
#     4  10  20  32  48  75 108 136 163 200 251 309
#
# _framework density 18.542871000000002
#
# number of rings (size 3 to 8) (size 9 to 14) (size 15 to 20)
#    0.000    2.286    0.000    4.286    0.000    4.857 
#    0.000    1.429    0.000    1.714    0.000    0.000 
#    0.000    0.000    0.000    0.000    0.000    0.000 
#
# Total GULP energy -694392.040633 kJ/mol
# GULP energy per Si atom -12399.857868 kJ/mol
# Density = 1.850067 g / cm^3
# Si number density = 18.542871 Si / 1000 Ang^3
#
#
#
# Elastic Constant Matrix: (Units=GPa)
#
#
# Indices 1 2 3 4 5 6 
#
# 1 68.0385 33.0271 26.0120 0.0000 0.0000 0.0000
# 2 33.0271 89.7455 69.4320 0.0000 0.0000 0.0000
# 3 26.0120 69.4320 100.7840 0.0000 0.0000 0.0000
# 4 0.0000 0.0000 0.0000 23.3803 0.0000 0.0000
# 5 0.0000 0.0000 0.0000 0.0000 29.3560 0.0000
# 6 0.0000 0.0000 0.0000 0.0000 0.0000 21.3627
#
#
#
# Elastic Compliance Matrix: (Units=1/GPa)
#
#
# Indices 1 2 3 4 5 6 
#
# 1 0.017896 -0.006450 -0.000175 0.000000 0.000000 0.000000
# 2 -0.006450 0.026184 -0.016374 0.000000 0.000000 0.000000
# 3 -0.000175 -0.016374 0.021248 0.000000 0.000000 0.000000
# 4 0.000000 0.000000 0.000000 0.042771 0.000000 0.000000
# 5 0.000000 0.000000 0.000000 0.000000 0.034065 0.000000
# 6 0.000000 0.000000 0.000000 0.000000 0.000000 0.046811
#
#
# Mechanical properties :
#
#
# Convention : Reuss Voigt Hill
#
# Bulk Modulus (GPa) = 51.73619 57.27893 54.50756
# Shear Modulus (GPa) = 20.71118 23.49292 22.10205
#
# Velocity S-wave (km/s) = 3.34568 3.56329 3.45620
# Velocity P-wave (km/s) = 6.54876 6.92000 6.73694
#
# Compressibility (1/GPa) = 0.01932883
#
# Stress axis : x y z
#
# Youngs Moduli (GPa) = 55.87976 38.19096 47.06382
#
# Poissons Ratio (x) = 0.24634 0.00824
# Poissons Ratio (y) = 0.36044 0.77062
# Poissons Ratio (z) = 0.00978 0.62534
#
# Static dielectric constant tensor:
#      x y z
#    x 3.289720 0.000000 0.000000 
#    y 0.000000 3.819980 0.000000 
#    z 0.000000 0.000000 3.389380 
# 
# 
# High freq. dielectric constant tensor:
#      x y z
#    x 1.704950 0.000000 0.000000 
#    y 0.000000 1.723520 0.000000 
#    z 0.000000 0.000000 1.706370 
# 
# From -- ./inp_files/31938.got.cif
#   From: 2010.03.12/outbox.cif.g09.slc.cpg/sg51_16_cif.got.tgz:31938.got - 2010.04.16 13:43:02.
