data_PCOD8206840
_publ_section_title
;
Structure prediction by ZEFSAII (Michael W. Deem and Ramdas Pophale) SiO2 
 PCOD8206840
Probable space group: P M M A
;
_chemical_formula_sum "Si O2"
_cell_formula_units_Z 64
_cell_length_a 8.916581
_cell_length_b 19.981787
_cell_length_c 20.229163
_cell_angle_alpha 90.000000
_cell_angle_beta 90.000000
_cell_angle_gamma 90.000000
_cell_volume 3604.214240
_symmetry_space_group_name_H-M "P M M A"
_symmetry_group_IT_number 51
_symmetry_cell_setting 'orthorhombic'
loop_
_space_group_symop_operation_xyz
x,y,z
1/2-x,-y,z
1/2+x,-y,-z
-x,y,-z
-x,-y,-z
1/2+x,y,-z
1/2-x,y,z
x,-y,z
loop_
_atom_site_type_symbol
_atom_site_label
_atom_site_fract_x
_atom_site_fract_y
_atom_site_fract_z
Si Si1 0.419618 0.896135 0.760276
Si Si2 0.424143 0.209642 0.433079
Si Si3 0.428948 0.206765 0.933839
Si Si4 0.573648 0.575636 0.432186
Si Si5 0.423423 0.074626 0.109115
Si Si6 0.419534 0.073493 0.371012
Si Si7 0.928647 0.690478 0.335085
Si Si8 0.081190 0.745592 0.796524
O O1 0.250000 0.919350 0.775596
O O2 0.529706 0.927325 0.814361
O O3 0.466670 0.923173 0.689489
O O4 0.429573 0.816262 0.759929
O O5 0.500000 0.235176 0.500000
O O6 0.250000 0.226828 0.437159
O O7 0.456643 0.130510 0.424620
O O8 0.495113 0.247973 0.371742
O O9 0.250000 0.209454 0.936632
O O10 0.476699 0.128902 0.929682
O O11 0.494042 0.248061 0.869780
O O12 0.500000 0.238929 0.000000
O O13 0.500000 0.602210 0.500000
O O14 0.750000 0.579494 0.442646
O O15 0.520266 0.500000 0.416877
O O16 0.522845 0.621109 0.370079
O O17 0.250000 0.095770 0.103326
O O18 0.449054 0.000000 0.079432
O O19 0.250000 0.084681 0.344582
O O20 0.436267 0.000000 0.404343
O O21 0.750000 0.700583 0.337395
O O22 0.984970 0.692432 0.257554
O O23 0.250000 0.724032 0.811271
#
# Coordination Sequence:
#
# PCOD8206840 Si02
#       8
#     8   8   8   8   8   8   8   8
#     4  10  18  30  48  69  91 115 151 195 245 300
#     4  11  23  36  50  69  92 121 160 205 250 299
#     4  10  20  34  50  69  93 122 156 195 245 301
#     4   9  18  31  49  75 107 142 173 200 236 284
#     4  10  20  32  46  65  90 120 154 193 241 296
#     4  10  21  35  48  63  86 116 152 200 255 304
#     4  10  18  33  55  75 100 130 163 204 243 285
#     4   8  16  30  49  71  93 119 153 194 239 283
#
# _framework density 17.756990999999999
#
# number of rings (size 3 to 8) (size 9 to 14) (size 15 to 20)
#    0.000    2.250    1.250    3.000    0.000    5.250 
#    0.000    0.625    0.000    0.000    0.000    0.000 
#    0.000    0.500    0.000    0.375    0.000    0.750 
#
# Total GULP energy -793135.427891 kJ/mol
# GULP energy per Si atom -12392.741061 kJ/mol
# Density = 1.771657 g / cm^3
# Si number density = 17.756991 Si / 1000 Ang^3
#
#
#
# Elastic Constant Matrix: (Units=GPa)
#
#
# Indices 1 2 3 4 5 6 
#
# 1 52.3324 22.1550 31.2319 0.0000 0.0000 0.0000
# 2 22.1550 68.8166 48.3047 0.0000 0.0000 0.0000
# 3 31.2319 48.3047 135.8991 0.0000 0.0000 0.0000
# 4 0.0000 0.0000 0.0000 17.5006 0.0000 0.0000
# 5 0.0000 0.0000 0.0000 0.0000 24.8212 0.0000
# 6 0.0000 0.0000 0.0000 0.0000 0.0000 14.8099
#
#
#
# Elastic Compliance Matrix: (Units=1/GPa)
#
#
# Indices 1 2 3 4 5 6 
#
# 1 0.023371 -0.005002 -0.003593 0.000000 0.000000 0.000000
# 2 -0.005002 0.020433 -0.006113 0.000000 0.000000 0.000000
# 3 -0.003593 -0.006113 0.010357 0.000000 0.000000 0.000000
# 4 0.000000 0.000000 0.000000 0.057141 0.000000 0.000000
# 5 0.000000 0.000000 0.000000 0.000000 0.040288 0.000000
# 6 0.000000 0.000000 0.000000 0.000000 0.000000 0.067522
#
#
# Mechanical properties :
#
#
# Convention : Reuss Voigt Hill
#
# Bulk Modulus (GPa) = 40.41378 51.15904 45.78641
# Shear Modulus (GPa) = 19.47221 21.78342 20.62782
#
# Velocity S-wave (km/s) = 3.31508 3.50630 3.41203
# Velocity P-wave (km/s) = 6.12060 6.72796 6.43145
#
# Compressibility (1/GPa) = 0.02474403
#
# Stress axis : x y z
#
# Youngs Moduli (GPa) = 42.78898 48.94098 96.55260
#
# Poissons Ratio (x) = 0.24480 0.34692
# Poissons Ratio (y) = 0.21403 0.59025
# Poissons Ratio (z) = 0.15374 0.29919
#
# Static dielectric constant tensor:
#      x y z
#    x 3.241660 0.000000 0.000000 
#    y 0.000000 3.212770 0.000000 
#    z 0.000000 0.000000 3.441290 
# 
# 
# High freq. dielectric constant tensor:
#      x y z
#    x 1.680400 0.000000 0.000000 
#    y 0.000000 1.648550 0.000000 
#    z 0.000000 0.000000 1.684270 
# 
# From -- ./inp_files/32587.got.cif
#   From: 2010.03.12/outbox.cif.g09.slc.cpg/sg51_17_cif.got.tgz:32587.got - 2010.04.16 13:43:02.
