data_PCOD8206963
_publ_section_title
;
Structure prediction by ZEFSAII (Michael W. Deem and Ramdas Pophale) SiO2 
 PCOD8206963
Probable space group: P M M A
;
_chemical_formula_sum "Si O2"
_cell_formula_units_Z 36
_cell_length_a 8.797151
_cell_length_b 23.237616
_cell_length_c 9.266105
_cell_angle_alpha 90.000000
_cell_angle_beta 90.000000
_cell_angle_gamma 90.000000
_cell_volume 1894.221817
_symmetry_space_group_name_H-M "P M M A"
_symmetry_group_IT_number 51
_symmetry_cell_setting 'orthorhombic'
loop_
_space_group_symop_operation_xyz
x,y,z
1/2-x,-y,z
1/2+x,-y,-z
-x,y,-z
-x,-y,-z
1/2+x,y,-z
1/2-x,y,z
x,-y,z
loop_
_atom_site_type_symbol
_atom_site_label
_atom_site_fract_x
_atom_site_fract_y
_atom_site_fract_z
Si Si1 0.570886 0.064611 0.349408
Si Si2 0.430289 0.384761 0.842780
Si Si3 0.568454 0.500000 0.840611
Si Si4 0.428713 0.724946 0.656329
Si Si5 0.929732 0.168269 0.155803
O O1 0.500000 0.084718 0.500000
O O2 0.750000 0.067720 0.368549
O O3 0.515647 0.107810 0.224624
O O4 0.517141 0.000000 0.308338
O O5 0.250000 0.392246 0.857505
O O6 0.503522 0.441779 0.767698
O O7 0.477308 0.332048 0.741801
O O8 0.500000 0.373384 0.000000
O O9 0.750000 0.500000 0.840153
O O10 0.500000 0.500000 0.000000
O O11 0.500000 0.723889 0.500000
O O12 0.250000 0.728738 0.637955
O O13 0.490021 0.780087 0.743830
O O14 0.750000 0.170884 0.140272
O O15 0.000000 0.175235 0.000000
#
# Coordination Sequence:
#
# PCOD8206963 Si02
#       5
#     8   8   4   8   8
#     4   9  18  33  53  77 106 139 175 214 256 305
#     4  10  19  33  53  78 105 134 170 211 254 302
#     4  10  18  30  51  78 105 136 170 206 252 302
#     4  10  22  37  54  76 103 135 172 214 259 308
#     4  10  21  36  53  77 106 136 173 216 260 306
#
# _framework density 19.005165999999999
#
# number of rings (size 3 to 8) (size 9 to 14) (size 15 to 20)
#    0.000    2.222    0.000    4.333    0.000    4.000 
#    0.000    0.556    0.000    0.000    0.000    0.000 
#    0.000    0.000    0.000    0.000    0.000    0.000 
#
# Total GULP energy -446385.186054 kJ/mol
# GULP energy per Si atom -12399.588501 kJ/mol
# Density = 1.896191 g / cm^3
# Si number density = 19.005166 Si / 1000 Ang^3
#
#
#
# Elastic Constant Matrix: (Units=GPa)
#
#
# Indices 1 2 3 4 5 6 
#
# 1 55.4758 50.0948 40.0580 0.0000 0.0000 0.0000
# 2 50.0948 175.0252 94.9705 0.0000 0.0000 0.0000
# 3 40.0580 94.9705 143.2236 0.0000 0.0000 0.0000
# 4 0.0000 0.0000 0.0000 -196.9068 0.0000 0.0000
# 5 0.0000 0.0000 0.0000 0.0000 33.5929 0.0000
# 6 0.0000 0.0000 0.0000 0.0000 0.0000 14.2584
#
#
#
# Elastic Compliance Matrix: (Units=1/GPa)
#
#
# Indices 1 2 3 4 5 6 
#
# 1 0.025426 -0.005340 -0.003571 0.000000 0.000000 0.000000
# 2 -0.005340 0.010046 -0.005168 0.000000 0.000000 0.000000
# 3 -0.003571 -0.005168 0.011408 0.000000 0.000000 0.000000
# 4 0.000000 0.000000 0.000000 -0.005079 0.000000 0.000000
# 5 0.000000 0.000000 0.000000 0.000000 0.029768 0.000000
# 6 0.000000 0.000000 0.000000 0.000000 0.000000 0.070134
#
#
# Mechanical properties :
#
#
# Convention : Reuss Voigt Hill
#
# Bulk Modulus (GPa) = 53.41059 82.66346 68.03703
# Shear Modulus (GPa) = 28.39279 -17.23770 5.57754
#
# Velocity S-wave (km/s) = 3.86936 -3.01491 1.71497
# Velocity P-wave (km/s) = 6.93735 5.60982 6.30860
#
# Compressibility (1/GPa) = 0.01872288
#
# Stress axis : x y z
#
# Youngs Moduli (GPa) = 39.32976 99.54227 87.66150
#
# Poissons Ratio (x) = 0.53155 0.31300
# Poissons Ratio (y) = 0.21002 0.45303
# Poissons Ratio (z) = 0.14043 0.51442
#
# Static dielectric constant tensor:
#      x y z
#    x 3.391910 0.000000 0.000000 
#    y 0.000000 4.230140 0.000000 
#    z 0.000000 0.000000 4.387680 
# 
# 
# High freq. dielectric constant tensor:
#      x y z
#    x 1.734540 0.000000 0.000000 
#    y 0.000000 1.763990 0.000000 
#    z 0.000000 0.000000 1.720900 
# 
# From -- ./inp_files/5239.got.cif
#   From: 2010.03.12/outbox.cif.g09.slc.cpg/sg51_3_cif.got.tgz:5239.got - 2010.04.16 13:43:02.
