data_PCOD8206679
_publ_section_title
;
Structure prediction by ZEFSAII (Michael W. Deem and Ramdas Pophale) SiO2 
 PCOD8206679
Probable space group: P M M A
;
_chemical_formula_sum "Si O2"
_cell_formula_units_Z 48
_cell_length_a 17.186918
_cell_length_b 18.238470
_cell_length_c 8.122903
_cell_angle_alpha 90.000000
_cell_angle_beta 90.000000
_cell_angle_gamma 90.000000
_cell_volume 2546.230261
_symmetry_space_group_name_H-M "P M M A"
_symmetry_group_IT_number 51
_symmetry_cell_setting 'orthorhombic'
loop_
_space_group_symop_operation_xyz
x,y,z
1/2-x,-y,z
1/2+x,-y,-z
-x,y,-z
-x,-y,-z
1/2+x,y,-z
1/2-x,y,z
x,-y,z
loop_
_atom_site_type_symbol
_atom_site_label
_atom_site_fract_x
_atom_site_fract_y
_atom_site_fract_z
Si Si1 0.342262 0.917688 0.110031
Si Si2 0.842956 0.827017 0.207823
Si Si3 0.842275 0.082642 0.523949
Si Si4 0.426623 0.688741 0.904360
Si Si5 0.015209 0.582905 0.325901
Si Si6 0.662028 0.582257 0.870026
O O1 0.250000 0.919685 0.104303
O O2 0.368588 0.888649 0.292983
O O3 0.374596 0.000000 0.083562
O O4 0.372232 0.867590 0.959466
O O5 0.750000 0.818958 0.209978
O O6 0.873703 0.867847 0.373049
O O7 0.883884 0.748191 0.208932
O O8 0.750000 0.081840 0.515431
O O9 0.873804 0.000000 0.498202
O O10 0.463381 0.622534 0.806141
O O11 0.500000 0.725748 0.000000
O O12 0.360483 0.649459 0.012234
O O13 0.984646 0.500000 0.328156
O O14 0.106989 0.587426 0.289121
O O15 0.000000 0.621424 0.500000
O O16 0.750000 0.595224 0.810938
O O17 0.652928 0.500000 0.949353
#
# Coordination Sequence:
#
# PCOD8206679 Si02
#       6
#     8   8   8   8   8   8
#     4   8  14  26  46  71  97 127 165 209 257 306
#     4  10  18  29  47  73 103 131 165 211 260 308
#     4   8  14  26  45  70  97 127 167 212 258 307
#     4  10  20  34  49  70 101 136 171 204 256 317
#     4   9  18  35  57  77 101 137 178 214 257 316
#     4   9  17  32  55  79 101 130 172 219 258 299
#
# _framework density 18.851399000000001
#
# number of rings (size 3 to 8) (size 9 to 14) (size 15 to 20)
#    0.000    3.000    0.000    2.500    0.000    4.000 
#    6.000    1.667    0.000    6.000    0.000    2.333 
#    0.000    0.000    0.000    0.000    0.000    0.000 
#
# Total GULP energy -594676.303613 kJ/mol
# GULP energy per Si atom -12389.089659 kJ/mol
# Density = 1.880849 g / cm^3
# Si number density = 18.851399 Si / 1000 Ang^3
#
#
#
# Elastic Constant Matrix: (Units=GPa)
#
#
# Indices 1 2 3 4 5 6 
#
# 1 63.4767 28.3022 27.1971 0.0000 0.0000 0.0000
# 2 28.3022 58.3240 23.0893 0.0000 0.0000 0.0000
# 3 27.1971 23.0893 100.5738 0.0000 0.0000 0.0000
# 4 0.0000 0.0000 0.0000 -23.9095 0.0000 0.0000
# 5 0.0000 0.0000 0.0000 0.0000 10.2452 0.0000
# 6 0.0000 0.0000 0.0000 0.0000 0.0000 10.9265
#
#
#
# Elastic Compliance Matrix: (Units=1/GPa)
#
#
# Indices 1 2 3 4 5 6 
#
# 1 0.021301 -0.008862 -0.003726 0.000000 0.000000 0.000000
# 2 -0.008862 0.022546 -0.002780 0.000000 0.000000 0.000000
# 3 -0.003726 -0.002780 0.011589 0.000000 0.000000 0.000000
# 4 0.000000 0.000000 0.000000 -0.041824 0.000000 0.000000
# 5 0.000000 0.000000 0.000000 0.000000 0.097607 0.000000
# 6 0.000000 0.000000 0.000000 0.000000 0.000000 0.091520
#
#
# Mechanical properties :
#
#
# Convention : Reuss Voigt Hill
#
# Bulk Modulus (GPa) = 40.48298 42.17242 41.32770
# Shear Modulus (GPa) = 20.68616 9.03817 14.86216
#
# Velocity S-wave (km/s) = 3.31619 2.19199 2.81087
# Velocity P-wave (km/s) = 6.01533 5.36898 5.70132
#
# Compressibility (1/GPa) = 0.02470174
#
# Stress axis : x y z
#
# Youngs Moduli (GPa) = 46.94542 44.35336 86.29141
#
# Poissons Ratio (x) = 0.39304 0.32151
# Poissons Ratio (y) = 0.41601 0.23986
# Poissons Ratio (z) = 0.17491 0.12329
#
# Static dielectric constant tensor:
#      x y z
#    x 3.394670 0.000000 0.000000 
#    y 0.000000 3.408380 0.000000 
#    z 0.000000 0.000000 4.045910 
# 
# 
# High freq. dielectric constant tensor:
#      x y z
#    x 1.701330 0.000000 0.000000 
#    y 0.000000 1.725720 0.000000 
#    z 0.000000 0.000000 1.730260 
# 
# From -- ./inp_files/9644.got.cif
#   From: 2010.03.12/outbox.cif.g09.slc.cpg/sg51_5_cif.got.tgz:9644.got - 2010.04.16 13:43:02.
