data_PCOD8206599
_publ_section_title
;
Structure prediction by ZEFSAII (Michael W. Deem and Ramdas Pophale) SiO2 
 PCOD8206599
Probable space group: P M M A
;
_chemical_formula_sum "Si O2"
_cell_formula_units_Z 52
_cell_length_a 8.873846
_cell_length_b 26.172525
_cell_length_c 13.721314
_cell_angle_alpha 90.000000
_cell_angle_beta 90.000000
_cell_angle_gamma 90.000000
_cell_volume 3186.788298
_symmetry_space_group_name_H-M "P M M A"
_symmetry_group_IT_number 51
_symmetry_cell_setting 'orthorhombic'
loop_
_space_group_symop_operation_xyz
x,y,z
1/2-x,-y,z
1/2+x,-y,-z
-x,y,-z
-x,-y,-z
1/2+x,y,-z
1/2-x,y,z
x,-y,z
loop_
_atom_site_type_symbol
_atom_site_label
_atom_site_fract_x
_atom_site_fract_y
_atom_site_fract_z
Si Si1 0.426216 0.301596 0.395753
Si Si2 0.426963 0.256201 0.895259
Si Si3 0.926679 0.643466 0.223207
Si Si4 0.077497 0.000000 0.601506
Si Si5 0.927751 0.110948 0.393230
Si Si6 0.924755 0.440726 0.898422
Si Si7 0.926492 0.799135 0.722078
O O1 0.500000 0.307026 0.500000
O O2 0.250000 0.312140 0.403147
O O3 0.498977 0.344067 0.326524
O O4 0.461646 0.245354 0.355192
O O5 0.250000 0.246860 0.902394
O O6 0.465245 0.312351 0.854477
O O7 0.497401 0.213464 0.825140
O O8 0.500000 0.250178 0.000000
O O9 0.750000 0.636881 0.238215
O O10 0.997020 0.590534 0.187432
O O11 0.038350 0.054151 0.653294
O O12 0.000000 0.000000 0.500000
O O13 0.250000 0.000000 0.574709
O O14 0.750000 0.122003 0.402128
O O15 0.000000 0.117390 0.500000
O O16 0.002132 0.149186 0.317555
O O17 0.750000 0.426339 0.905091
O O18 0.950253 0.500000 0.874680
O O19 0.000000 0.425232 0.000000
O O20 0.750000 0.806472 0.738686
#
# Coordination Sequence:
#
# PCOD8206599 Si02
#       7
#     8   8   8   4   8   8   8
#     4  10  20  33  49  69  96 127 160 196 233 276
#     4  10  20  33  49  70  96 125 156 192 233 278
#     4  10  20  33  51  73  97 126 159 193 232 278
#     4   8  16  28  42  62  89 122 157 192 232 276
#     4  10  18  29  45  66  94 126 159 195 234 277
#     4  10  20  33  50  73 100 128 158 193 234 279
#     4  10  20  32  47  69  95 125 159 194 233 277
#
# _framework density 16.317368999999999
#
# number of rings (size 3 to 8) (size 9 to 14) (size 15 to 20)
#    0.000    2.154    0.000    3.692    0.000    7.692 
#    0.000    0.000    0.000    0.462    0.000    0.538 
#    0.000    0.000    0.000    0.000    0.000    0.000 
#
# Total GULP energy -644775.053508 kJ/mol
# GULP energy per Si atom -12399.520260 kJ/mol
# Density = 1.628023 g / cm^3
# Si number density = 16.317369 Si / 1000 Ang^3
#
#
#
# Elastic Constant Matrix: (Units=GPa)
#
#
# Indices 1 2 3 4 5 6 
#
# 1 100.8502 57.2618 66.4914 0.0000 0.0000 0.0000
# 2 57.2618 96.6889 60.9775 0.0000 0.0000 0.0000
# 3 66.4914 60.9775 129.4318 0.0000 0.0000 0.0000
# 4 0.0000 0.0000 0.0000 24.9167 0.0000 0.0000
# 5 0.0000 0.0000 0.0000 0.0000 33.1838 0.0000
# 6 0.0000 0.0000 0.0000 0.0000 0.0000 27.6435
#
#
#
# Elastic Compliance Matrix: (Units=1/GPa)
#
#
# Indices 1 2 3 4 5 6 
#
# 1 0.017607 -0.006720 -0.005880 0.000000 0.000000 0.000000
# 2 -0.006720 0.017279 -0.004688 0.000000 0.000000 0.000000
# 3 -0.005880 -0.004688 0.012955 0.000000 0.000000 0.000000
# 4 0.000000 0.000000 0.000000 0.040134 0.000000 0.000000
# 5 0.000000 0.000000 0.000000 0.000000 0.030135 0.000000
# 6 0.000000 0.000000 0.000000 0.000000 0.000000 0.036175
#
#
# Mechanical properties :
#
#
# Convention : Reuss Voigt Hill
#
# Bulk Modulus (GPa) = 75.37804 77.38139 76.37971
# Shear Modulus (GPa) = 25.86888 26.63146 26.25017
#
# Velocity S-wave (km/s) = 3.98598 4.04430 4.01524
# Velocity P-wave (km/s) = 8.21458 8.32671 8.27083
#
# Compressibility (1/GPa) = 0.01326646
#
# Stress axis : x y z
#
# Youngs Moduli (GPa) = 56.79399 57.87466 77.18899
#
# Poissons Ratio (x) = 0.38890 0.45383
# Poissons Ratio (y) = 0.38164 0.36188
# Poissons Ratio (z) = 0.33392 0.27133
#
# Static dielectric constant tensor:
#      x y z
#    x 3.290910 0.000000 0.000000 
#    y 0.000000 3.177520 0.000000 
#    z 0.000000 0.000000 2.903400 
# 
# 
# High freq. dielectric constant tensor:
#      x y z
#    x 1.650630 0.000000 0.000000 
#    y 0.000000 1.623850 0.000000 
#    z 0.000000 0.000000 1.607280 
# 
# From -- ./inp_files/14634.got.cif
#   From: 2010.03.12/outbox.cif.g09.slc.cpg/sg51_8_cif.got.tgz:14634.got - 2010.04.16 13:43:02.
