data_PCOD8206899
_publ_section_title
;
Structure prediction by ZEFSAII (Michael W. Deem and Ramdas Pophale) SiO2 
 PCOD8206899
Probable space group: P M M A
;
_chemical_formula_sum "Si O2"
_cell_formula_units_Z 44
_cell_length_a 8.641875
_cell_length_b 27.698381
_cell_length_c 9.659174
_cell_angle_alpha 90.000000
_cell_angle_beta 90.000000
_cell_angle_gamma 90.000000
_cell_volume 2312.077325
_symmetry_space_group_name_H-M "P M M A"
_symmetry_group_IT_number 51
_symmetry_cell_setting 'orthorhombic'
loop_
_space_group_symop_operation_xyz
x,y,z
1/2-x,-y,z
1/2+x,-y,-z
-x,y,-z
-x,-y,-z
1/2+x,y,-z
1/2-x,y,z
x,-y,z
loop_
_atom_site_type_symbol
_atom_site_label
_atom_site_fract_x
_atom_site_fract_y
_atom_site_fract_z
Si Si1 0.933433 0.210855 0.352796
Si Si2 0.931917 0.679800 0.356131
Si Si3 0.429775 0.056335 0.646595
Si Si4 0.433490 0.402520 0.848074
Si Si5 0.066295 0.500000 0.154041
Si Si6 0.433031 0.132394 0.152977
O O1 0.750000 0.205035 0.355539
O O2 0.986964 0.265780 0.322771
O O3 0.000000 0.193152 0.500000
O O4 0.003038 0.179230 0.230578
O O5 0.750000 0.678065 0.369100
O O6 0.990846 0.643826 0.237515
O O7 0.000000 0.661289 0.500000
O O8 0.500000 0.072474 0.500000
O O9 0.250000 0.070294 0.647067
O O10 0.516101 0.083924 0.768873
O O11 0.457059 0.000000 0.673028
O O12 0.250000 0.406887 0.854257
O O13 0.502063 0.451023 0.775089
O O14 0.500000 0.395460 0.000000
O O15 0.250000 0.500000 0.154586
O O16 0.000000 0.500000 0.000000
O O17 0.250000 0.135014 0.145774
O O18 0.500000 0.131192 0.000000
#
# Coordination Sequence:
#
# PCOD8206899 Si02
#       6
#     8   8   8   8   4   8
#     4  10  20  38  60  83 110 144 185 226 270 325
#     4   9  20  36  56  80 108 140 177 220 268 319
#     4  10  21  39  63  89 116 149 189 230 272 323
#     4  10  19  33  52  77 105 137 175 218 265 316
#     4  10  18  30  49  74 101 136 176 216 262 314
#     4  12  25  40  58  83 115 150 186 229 279 328
#
# _framework density 19.030505000000002
#
# number of rings (size 3 to 8) (size 9 to 14) (size 15 to 20)
#    0.000    1.818    0.000    5.727    0.000    4.364 
#    0.000    2.273    0.000    0.000    0.000    0.000 
#    0.000    0.000    0.000    0.000    0.000    0.000 
#
# Total GULP energy -545673.657942 kJ/mol
# GULP energy per Si atom -12401.674044 kJ/mol
# Density = 1.898719 g / cm^3
# Si number density = 19.030505 Si / 1000 Ang^3
#
#
#
# Elastic Constant Matrix: (Units=GPa)
#
#
# Indices 1 2 3 4 5 6 
#
# 1 116.8212 49.4102 55.8511 0.0000 0.0000 0.0000
# 2 49.4102 122.7289 79.0205 0.0000 0.0000 0.0000
# 3 55.8511 79.0205 140.2717 0.0000 0.0000 0.0000
# 4 0.0000 0.0000 0.0000 44.9299 0.0000 0.0000
# 5 0.0000 0.0000 0.0000 0.0000 34.5689 0.0000
# 6 0.0000 0.0000 0.0000 0.0000 0.0000 30.0109
#
#
#
# Elastic Compliance Matrix: (Units=1/GPa)
#
#
# Indices 1 2 3 4 5 6 
#
# 1 0.011054 -0.002536 -0.002972 0.000000 0.000000 0.000000
# 2 -0.002536 0.013368 -0.006521 0.000000 0.000000 0.000000
# 3 -0.002972 -0.006521 0.011986 0.000000 0.000000 0.000000
# 4 0.000000 0.000000 0.000000 0.022257 0.000000 0.000000
# 5 0.000000 0.000000 0.000000 0.000000 0.028928 0.000000
# 6 0.000000 0.000000 0.000000 0.000000 0.000000 0.033321
#
#
# Mechanical properties :
#
#
# Convention : Reuss Voigt Hill
#
# Bulk Modulus (GPa) = 80.98140 83.15392 82.06766
# Shear Modulus (GPa) = 33.53720 34.93793 34.23756
#
# Velocity S-wave (km/s) = 4.20251 4.28938 4.24617
# Velocity P-wave (km/s) = 8.13597 8.26569 8.20109
#
# Compressibility (1/GPa) = 0.01234851
#
# Stress axis : x y z
#
# Youngs Moduli (GPa) = 90.46516 74.80810 83.43214
#
# Poissons Ratio (x) = 0.18975 0.24799
# Poissons Ratio (y) = 0.22946 0.54402
# Poissons Ratio (z) = 0.26890 0.48779
#
# Static dielectric constant tensor:
#      x y z
#    x 3.577470 0.000000 0.000000 
#    y 0.000000 4.038600 0.000000 
#    z 0.000000 0.000000 3.380340 
# 
# 
# High freq. dielectric constant tensor:
#      x y z
#    x 1.754260 0.000000 0.000000 
#    y 0.000000 1.758010 0.000000 
#    z 0.000000 0.000000 1.724350 
# 
# From -- ./inp_files/5712.got.cif
#   From: 2010.03.12/outbox.cif.g09.slc.cpg/sg51_3_cif.got.tgz:5712.got - 2010.04.16 13:43:02.
