data_PCOD8206562
_publ_section_title
;
Structure prediction by ZEFSAII (Michael W. Deem and Ramdas Pophale) SiO2 
 PCOD8206562
Probable space group: P M M A
;
_chemical_formula_sum "Si O2"
_cell_formula_units_Z 48
_cell_length_a 26.427640
_cell_length_b 8.959125
_cell_length_c 12.099162
_cell_angle_alpha 90.000000
_cell_angle_beta 90.000000
_cell_angle_gamma 90.000000
_cell_volume 2864.700804
_symmetry_space_group_name_H-M "P M M A"
_symmetry_group_IT_number 51
_symmetry_cell_setting 'orthorhombic'
loop_
_space_group_symop_operation_xyz
x,y,z
1/2-x,-y,z
1/2+x,-y,-z
-x,y,-z
-x,-y,-z
1/2+x,y,-z
1/2-x,y,z
x,-y,z
loop_
_atom_site_type_symbol
_atom_site_label
_atom_site_fract_x
_atom_site_fract_y
_atom_site_fract_z
Si Si1 0.613575 0.327569 0.499985
Si Si2 0.305711 0.324136 0.671257
Si Si3 0.937965 0.326703 0.712070
Si Si4 0.553868 0.675673 0.957579
Si Si5 0.392934 0.324627 0.828421
Si Si6 0.461998 0.823555 0.656589
O O1 0.604245 0.500000 0.468026
O O2 0.666518 0.275925 0.443514
O O3 0.612196 0.306028 0.633848
O O4 0.568243 0.231962 0.449727
O O5 0.250000 0.248282 0.676060
O O6 0.298908 0.500000 0.674804
O O7 0.338811 0.272156 0.778180
O O8 0.953463 0.500000 0.717008
O O9 0.929954 0.262778 0.836428
O O10 0.981219 0.235521 0.649883
O O11 0.547225 0.500000 0.949525
O O12 0.500000 0.743488 0.000000
O O13 0.599914 0.715230 0.041930
O O14 0.400322 0.500000 0.807051
O O15 0.437924 0.239146 0.768444
O O16 0.461929 0.000000 0.658250
#
# Coordination Sequence:
#
# PCOD8206562 Si02
#       6
#     8   8   8   8   8   8
#     4   9  18  30  45  63  84 114 149 178 212 261
#     4   8  14  26  46  68  85 105 140 185 225 257
#     4  10  18  29  44  61  85 119 154 178 205 254
#     4   9  15  25  44  64  84 113 149 181 202 239
#     4   9  16  29  47  65  86 116 150 179 213 256
#     4  11  20  28  41  63  92 119 144 179 218 253
#
# _framework density 16.755676000000001
#
# number of rings (size 3 to 8) (size 9 to 14) (size 15 to 20)
#    0.000    2.667    1.667    3.000    0.000    2.667 
#    0.000    1.667    0.000    9.000    0.000    7.000 
#    0.000    0.000    0.000   12.000    0.000   13.333 
#
# Total GULP energy -594628.766974 kJ/mol
# GULP energy per Si atom -12388.099312 kJ/mol
# Density = 1.671754 g / cm^3
# Si number density = 16.755676 Si / 1000 Ang^3
#
#
#
# Elastic Constant Matrix: (Units=GPa)
#
#
# Indices 1 2 3 4 5 6 
#
# 1 109.9193 12.9201 66.7695 0.0000 0.0000 0.0000
# 2 12.9201 41.2401 12.7974 0.0000 0.0000 0.0000
# 3 66.7695 12.7974 138.0060 0.0000 0.0000 0.0000
# 4 0.0000 0.0000 0.0000 4.4706 0.0000 0.0000
# 5 0.0000 0.0000 0.0000 0.0000 15.2349 0.0000
# 6 0.0000 0.0000 0.0000 0.0000 0.0000 1.3777
#
#
#
# Elastic Compliance Matrix: (Units=1/GPa)
#
#
# Indices 1 2 3 4 5 6 
#
# 1 0.013074 -0.002196 -0.006122 0.000000 0.000000 0.000000
# 2 -0.002196 0.025336 -0.001287 0.000000 0.000000 0.000000
# 3 -0.006122 -0.001287 0.010327 0.000000 0.000000 0.000000
# 4 0.000000 0.000000 0.000000 0.223684 0.000000 0.000000
# 5 0.000000 0.000000 0.000000 0.000000 0.065639 0.000000
# 6 0.000000 0.000000 0.000000 0.000000 0.000000 0.725828
#
#
# Mechanical properties :
#
#
# Convention : Reuss Voigt Hill
#
# Bulk Modulus (GPa) = 33.86704 52.68214 43.27459
# Shear Modulus (GPa) = 4.57481 17.32854 10.95168
#
# Velocity S-wave (km/s) = 1.65416 3.21937 2.55935
# Velocity P-wave (km/s) = 4.88922 6.73266 5.88359
#
# Compressibility (1/GPa) = 0.02952723
#
# Stress axis : x y z
#
# Youngs Moduli (GPa) = 76.48491 39.47011 96.83090
#
# Poissons Ratio (x) = 0.08669 0.59280
# Poissons Ratio (y) = 0.16799 0.12460
# Poissons Ratio (z) = 0.46824 0.05079
#
# Static dielectric constant tensor:
#      x y z
#    x 3.173130 0.000000 0.000000 
#    y 0.000000 2.750340 0.000000 
#    z 0.000000 0.000000 3.472780 
# 
# 
# High freq. dielectric constant tensor:
#      x y z
#    x 1.611460 0.000000 0.000000 
#    y 0.000000 1.604850 0.000000 
#    z 0.000000 0.000000 1.655320 
# 
# From -- ./inp_files/19006.got.cif
#   From: 2010.03.12/outbox.cif.g09.slc.cpg/sg51_10_cif.got.tgz:19006.got - 2010.04.16 13:43:02.
