data_PCOD8206457
_publ_section_title
;
Structure prediction by ZEFSAII (Michael W. Deem and Ramdas Pophale) SiO2 
 PCOD8206457
Probable space group: P M M A
;
_chemical_formula_sum "Si O2"
_cell_formula_units_Z 64
_cell_length_a 19.334546
_cell_length_b 9.049499
_cell_length_c 21.473305
_cell_angle_alpha 90.000000
_cell_angle_beta 90.000000
_cell_angle_gamma 90.000000
_cell_volume 3757.140256
_symmetry_space_group_name_H-M "P M M A"
_symmetry_group_IT_number 51
_symmetry_cell_setting 'orthorhombic'
loop_
_space_group_symop_operation_xyz
x,y,z
1/2-x,-y,z
1/2+x,-y,-z
-x,y,-z
-x,-y,-z
1/2+x,y,-z
1/2-x,y,z
x,-y,z
loop_
_atom_site_type_symbol
_atom_site_label
_atom_site_fract_x
_atom_site_fract_y
_atom_site_fract_z
Si Si1 0.369123 0.673546 0.733388
Si Si2 0.326422 0.674281 0.102744
Si Si3 0.033882 0.829542 0.560752
Si Si4 0.061048 0.167156 0.181693
Si Si5 0.095895 0.173135 0.853059
Si Si6 0.824867 0.828319 0.383491
Si Si7 0.498095 0.832034 0.306210
Si Si8 0.669952 0.671865 0.038035
O O1 0.356060 0.500000 0.738091
O O2 0.357014 0.745327 0.801235
O O3 0.318421 0.743687 0.682206
O O4 0.446488 0.709386 0.711686
O O5 0.250000 0.736645 0.119454
O O6 0.324703 0.500000 0.106693
O O7 0.381772 0.730201 0.151902
O O8 0.346245 0.721423 0.032669
O O9 0.110882 0.764455 0.575573
O O10 0.000000 0.750222 0.500000
O O11 0.981823 0.808921 0.620232
O O12 0.044303 0.000000 0.544186
O O13 0.065230 0.187338 0.257608
O O14 0.984898 0.211136 0.157262
O O15 0.078218 0.000000 0.162671
O O16 0.119155 0.230938 0.920109
O O17 0.109441 0.000000 0.848162
O O18 0.750000 0.807110 0.417413
O O19 0.839343 0.000000 0.369305
O O20 0.527978 0.000000 0.296870
O O21 0.750000 0.703559 0.054135
O O22 0.652817 0.500000 0.048120
#
# Coordination Sequence:
#
# PCOD8206457 Si02
#       8
#     8   8   8   8   8   8   8   8
#     4  10  18  28  44  65  89 118 152 187 224 267
#     4   9  19  35  52  69  90 118 154 197 242 284
#     4   8  13  24  46  71  92 119 154 188 223 266
#     4   9  18  31  48  70  95 122 151 189 233 277
#     4  10  20  33  48  69  97 125 154 188 231 282
#     4   9  17  29  44  63  90 123 157 192 229 271
#     4   8  15  29  46  67  96 122 146 182 228 273
#     4   9  19  35  50  65  89 120 155 195 236 279
#
# _framework density 17.034231999999999
#
# number of rings (size 3 to 8) (size 9 to 14) (size 15 to 20)
#    0.000    3.000    0.000    3.750    0.000    4.750 
#    0.000    3.750    0.000    6.750    0.000    3.500 
#    0.000    0.000    0.000    0.000    0.000    0.000 
#
# Total GULP energy -792893.006325 kJ/mol
# GULP energy per Si atom -12388.953224 kJ/mol
# Density = 1.699546 g / cm^3
# Si number density = 17.034232 Si / 1000 Ang^3
#
#
#
# Elastic Constant Matrix: (Units=GPa)
#
#
# Indices 1 2 3 4 5 6 
#
# 1 83.1237 27.6543 66.8281 0.0000 0.0000 0.0000
# 2 27.6543 53.8146 32.5558 0.0000 0.0000 0.0000
# 3 66.8281 32.5558 129.9916 0.0000 0.0000 0.0000
# 4 0.0000 0.0000 0.0000 13.6885 0.0000 0.0000
# 5 0.0000 0.0000 0.0000 0.0000 20.7197 0.0000
# 6 0.0000 0.0000 0.0000 0.0000 0.0000 21.4706
#
#
#
# Elastic Compliance Matrix: (Units=1/GPa)
#
#
# Indices 1 2 3 4 5 6 
#
# 1 0.021665 -0.005180 -0.009841 0.000000 0.000000 0.000000
# 2 -0.005180 0.023139 -0.003132 0.000000 0.000000 0.000000
# 3 -0.009841 -0.003132 0.013536 0.000000 0.000000 0.000000
# 4 0.000000 0.000000 0.000000 0.073054 0.000000 0.000000
# 5 0.000000 0.000000 0.000000 0.000000 0.048263 0.000000
# 6 0.000000 0.000000 0.000000 0.000000 0.000000 0.046575
#
#
# Mechanical properties :
#
#
# Convention : Reuss Voigt Hill
#
# Bulk Modulus (GPa) = 45.38249 57.88960 51.63605
# Shear Modulus (GPa) = 18.52651 20.50185 19.51418
#
# Velocity S-wave (km/s) = 3.30146 3.47301 3.38832
# Velocity P-wave (km/s) = 6.42127 7.08099 6.75918
#
# Compressibility (1/GPa) = 0.02203493
#
# Stress axis : x y z
#
# Youngs Moduli (GPa) = 46.15724 43.21703 73.87600
#
# Poissons Ratio (x) = 0.22387 0.72698
# Poissons Ratio (y) = 0.23910 0.23138
# Poissons Ratio (z) = 0.45421 0.13536
#
# Static dielectric constant tensor:
#      x y z
#    x 3.081660 0.000000 0.000000 
#    y 0.000000 2.951090 0.000000 
#    z 0.000000 0.000000 3.401600 
# 
# 
# High freq. dielectric constant tensor:
#      x y z
#    x 1.632570 0.000000 0.000000 
#    y 0.000000 1.639990 0.000000 
#    z 0.000000 0.000000 1.653640 
# 
# From -- ./inp_files/34075.got.cif
#   From: 2010.03.12/outbox.cif.g09.slc.cpg/sg51_18_cif.got.tgz:34075.got - 2010.04.16 13:43:02.
