data_PCOD8206771
_publ_section_title
;
Structure prediction by ZEFSAII (Michael W. Deem and Ramdas Pophale) SiO2 
 PCOD8206771
Probable space group: P M M A
;
_chemical_formula_sum "Si O2"
_cell_formula_units_Z 36
_cell_length_a 8.710465
_cell_length_b 15.510547
_cell_length_c 14.674192
_cell_angle_alpha 90.000000
_cell_angle_beta 90.000000
_cell_angle_gamma 90.000000
_cell_volume 1982.543163
_symmetry_space_group_name_H-M "P M M A"
_symmetry_group_IT_number 51
_symmetry_cell_setting 'orthorhombic'
loop_
_space_group_symop_operation_xyz
x,y,z
1/2-x,-y,z
1/2+x,-y,-z
-x,y,-z
-x,-y,-z
1/2+x,y,-z
1/2-x,y,z
x,-y,z
loop_
_atom_site_type_symbol
_atom_site_label
_atom_site_fract_x
_atom_site_fract_y
_atom_site_fract_z
Si Si1 0.932033 0.096373 0.402638
Si Si2 0.930202 0.174418 0.097817
Si Si3 0.067917 0.596777 0.596289
Si Si4 0.067467 0.000000 0.100431
Si Si5 0.069342 0.749053 0.719220
O O1 0.750000 0.100281 0.409565
O O2 0.997797 0.166085 0.330866
O O3 0.000000 0.121131 0.500000
O O4 0.985622 0.000000 0.372749
O O5 0.750000 0.160387 0.084404
O O6 0.968733 0.248408 0.172392
O O7 0.001589 0.087798 0.143486
O O8 0.000000 0.200182 0.000000
O O9 0.250000 0.600653 0.589092
O O10 0.012236 0.500000 0.620746
O O11 0.003752 0.661234 0.674475
O O12 0.000000 0.626929 0.500000
O O13 0.250000 0.000000 0.101987
O O14 0.000000 0.000000 0.000000
O O15 0.250000 0.750327 0.705126
#
# Coordination Sequence:
#
# PCOD8206771 Si02
#       5
#     8   8   8   4   8
#     4   9  17  29  44  62  88 120 153 185 221 270
#     4  10  19  32  49  67  92 125 163 202 241 279
#     4   9  17  31  51  75 100 124 154 194 238 286
#     4  10  18  30  46  66  91 120 157 198 241 280
#     4   9  18  30  48  70  91 124 162 191 231 287
#
# _framework density 18.158496
#
# number of rings (size 3 to 8) (size 9 to 14) (size 15 to 20)
#    0.000    2.667    0.000    3.667    1.556    0.000 
#    0.000    4.444    0.000    0.667    0.000    0.000 
#    0.000    0.000    0.000    0.000    0.000    0.889 
#
# Total GULP energy -446106.754863 kJ/mol
# GULP energy per Si atom -12391.854302 kJ/mol
# Density = 1.811717 g / cm^3
# Si number density = 18.158496 Si / 1000 Ang^3
#
#
#
# Elastic Constant Matrix: (Units=GPa)
#
#
# Indices 1 2 3 4 5 6 
#
# 1 54.3392 22.4176 26.7523 0.0000 0.0000 0.0000
# 2 22.4176 119.1761 83.5746 0.0000 0.0000 0.0000
# 3 26.7523 83.5746 127.8298 0.0000 0.0000 0.0000
# 4 0.0000 0.0000 0.0000 29.1494 0.0000 0.0000
# 5 0.0000 0.0000 0.0000 0.0000 23.2900 0.0000
# 6 0.0000 0.0000 0.0000 0.0000 0.0000 13.1532
#
#
#
# Elastic Compliance Matrix: (Units=1/GPa)
#
#
# Indices 1 2 3 4 5 6 
#
# 1 0.020676 -0.001579 -0.003295 0.000000 0.000000 0.000000
# 2 -0.001579 0.015616 -0.009879 0.000000 0.000000 0.000000
# 3 -0.003295 -0.009879 0.014972 0.000000 0.000000 0.000000
# 4 0.000000 0.000000 0.000000 0.034306 0.000000 0.000000
# 5 0.000000 0.000000 0.000000 0.000000 0.042937 0.000000
# 6 0.000000 0.000000 0.000000 0.000000 0.000000 0.076027
#
#
# Mechanical properties :
#
#
# Convention : Reuss Voigt Hill
#
# Bulk Modulus (GPa) = 45.96017 62.98157 54.47087
# Shear Modulus (GPa) = 20.72174 24.35855 22.54015
#
# Velocity S-wave (km/s) = 3.38177 3.66654 3.52703
# Velocity P-wave (km/s) = 6.37291 7.25840 6.83002
#
# Compressibility (1/GPa) = 0.02175797
#
# Stress axis : x y z
#
# Youngs Moduli (GPa) = 48.36431 64.03722 66.79343
#
# Poissons Ratio (x) = 0.10109 0.22009
# Poissons Ratio (y) = 0.07635 0.65987
# Poissons Ratio (z) = 0.15937 0.63264
#
# Static dielectric constant tensor:
#      x y z
#    x 3.118060 0.000000 0.000000 
#    y 0.000000 3.991240 0.000000 
#    z 0.000000 0.000000 3.368610 
# 
# 
# High freq. dielectric constant tensor:
#      x y z
#    x 1.683040 0.000000 0.000000 
#    y 0.000000 1.690760 0.000000 
#    z 0.000000 0.000000 1.698230 
# 
# From -- ./inp_files/20326.got.cif
#   From: 2010.03.12/outbox.cif.g09.slc.cpg/sg51_11_cif.got.tgz:20326.got - 2010.04.16 13:43:02.
