data_PCOD8206608
_publ_section_title
;
Structure prediction by ZEFSAII (Michael W. Deem and Ramdas Pophale) SiO2 
 PCOD8206608
Probable space group: P M M A
;
_chemical_formula_sum "Si O2"
_cell_formula_units_Z 52
_cell_length_a 9.002060
_cell_length_b 25.923717
_cell_length_c 12.887886
_cell_angle_alpha 90.000000
_cell_angle_beta 90.000000
_cell_angle_gamma 90.000000
_cell_volume 3007.605434
_symmetry_space_group_name_H-M "P M M A"
_symmetry_group_IT_number 51
_symmetry_cell_setting 'orthorhombic'
loop_
_space_group_symop_operation_xyz
x,y,z
1/2-x,-y,z
1/2+x,-y,-z
-x,y,-z
-x,-y,-z
1/2+x,y,-z
1/2-x,y,z
x,-y,z
loop_
_atom_site_type_symbol
_atom_site_label
_atom_site_fract_x
_atom_site_fract_y
_atom_site_fract_z
Si Si1 0.411118 0.725684 0.410516
Si Si2 0.918305 0.000000 0.394506
Si Si3 0.577285 0.559506 0.608865
Si Si4 0.423739 0.646599 0.713857
Si Si5 0.925289 0.887467 0.386125
Si Si6 0.914613 0.191845 0.762091
Si Si7 0.425614 0.272610 0.892140
O O1 0.500000 0.756903 0.500000
O O2 0.250000 0.706533 0.449469
O O3 0.516330 0.677512 0.385534
O O4 0.387419 0.761808 0.314633
O O5 0.954235 0.054576 0.338736
O O6 0.000000 0.000000 0.500000
O O7 0.750000 0.000000 0.428079
O O8 0.500000 0.573574 0.500000
O O9 0.750000 0.573061 0.599100
O O10 0.551109 0.500000 0.636976
O O11 0.506257 0.591451 0.705637
O O12 0.250000 0.637434 0.705274
O O13 0.464162 0.679360 0.816674
O O14 0.750000 0.875162 0.397800
O O15 0.000000 0.880002 0.500000
O O16 0.995363 0.852549 0.296585
O O17 0.750000 0.172211 0.798865
O O18 0.008729 0.216952 0.855883
O O19 0.250000 0.265513 0.903716
O O20 0.500000 0.287875 0.000000
#
# Coordination Sequence:
#
# PCOD8206608 Si02
#       7
#     8   4   8   8   8   8   8
#     4  10  19  29  42  62  92 126 157 190 229 277
#     4   8  16  28  42  62  91 130 171 206 240 280
#     4  10  20  33  50  73 102 135 167 198 233 275
#     4  10  20  33  50  71  95 124 158 195 236 282
#     4  10  18  29  45  67  98 134 170 206 243 285
#     4  10  20  32  47  69  95 125 160 198 241 289
#     4  10  21  37  56  76  97 123 156 198 247 296
#
# _framework density 17.289501000000001
#
# number of rings (size 3 to 8) (size 9 to 14) (size 15 to 20)
#    0.000    2.154    0.000    3.692    0.000    6.462 
#    0.000    0.000    0.000    0.462    0.000    0.538 
#    0.000    0.000    0.000    0.000    0.000    0.000 
#
# Total GULP energy -644213.106051 kJ/mol
# GULP energy per Si atom -12388.713578 kJ/mol
# Density = 1.725015 g / cm^3
# Si number density = 17.289501 Si / 1000 Ang^3
#
#
#
# Elastic Constant Matrix: (Units=GPa)
#
#
# Indices 1 2 3 4 5 6 
#
# 1 132.7204 62.8181 56.1671 0.0000 0.0000 0.0000
# 2 62.8181 104.2704 35.9209 0.0000 0.0000 0.0000
# 3 56.1671 35.9209 70.5445 0.0000 0.0000 0.0000
# 4 0.0000 0.0000 0.0000 13.9567 0.0000 0.0000
# 5 0.0000 0.0000 0.0000 0.0000 27.0782 0.0000
# 6 0.0000 0.0000 0.0000 0.0000 0.0000 44.7265
#
#
#
# Elastic Compliance Matrix: (Units=1/GPa)
#
#
# Indices 1 2 3 4 5 6 
#
# 1 0.013444 -0.005350 -0.007980 0.000000 0.000000 0.000000
# 2 -0.005350 0.013760 -0.002747 0.000000 0.000000 0.000000
# 3 -0.007980 -0.002747 0.021927 0.000000 0.000000 0.000000
# 4 0.000000 0.000000 0.000000 0.071650 0.000000 0.000000
# 5 0.000000 0.000000 0.000000 0.000000 0.036930 0.000000
# 6 0.000000 0.000000 0.000000 0.000000 0.000000 0.022358
#
#
# Mechanical properties :
#
#
# Convention : Reuss Voigt Hill
#
# Bulk Modulus (GPa) = 58.89931 68.59415 63.74673
# Shear Modulus (GPa) = 22.94819 27.32758 25.13788
#
# Velocity S-wave (km/s) = 3.64715 3.97997 3.81719
# Velocity P-wave (km/s) = 7.20251 7.80258 7.50854
#
# Compressibility (1/GPa) = 0.01697813
#
# Stress axis : x y z
#
# Youngs Moduli (GPa) = 74.38242 72.67430 45.60523
#
# Poissons Ratio (x) = 0.38884 0.36391
# Poissons Ratio (y) = 0.39798 0.12526
# Poissons Ratio (z) = 0.59354 0.19960
#
# Static dielectric constant tensor:
#      x y z
#    x 3.778170 0.000000 0.000000 
#    y 0.000000 3.412820 0.000000 
#    z 0.000000 0.000000 2.911030 
# 
# 
# High freq. dielectric constant tensor:
#      x y z
#    x 1.693830 0.000000 0.000000 
#    y 0.000000 1.665860 0.000000 
#    z 0.000000 0.000000 1.624520 
# 
# From -- ./inp_files/14592.got.cif
#   From: 2010.03.12/outbox.cif.g09.slc.cpg/sg51_8_cif.got.tgz:14592.got - 2010.04.16 13:43:02.
