data_PCOD8206507
_publ_section_title
;
Structure prediction by ZEFSAII (Michael W. Deem and Ramdas Pophale) SiO2 
 PCOD8206507
Probable space group: P M M A
;
_chemical_formula_sum "Si O2"
_cell_formula_units_Z 64
_cell_length_a 13.953925
_cell_length_b 9.224500
_cell_length_c 31.505105
_cell_angle_alpha 90.000000
_cell_angle_beta 90.000000
_cell_angle_gamma 90.000000
_cell_volume 4055.273512
_symmetry_space_group_name_H-M "P M M A"
_symmetry_group_IT_number 51
_symmetry_cell_setting 'orthorhombic'
loop_
_space_group_symop_operation_xyz
x,y,z
1/2-x,-y,z
1/2+x,-y,-z
-x,y,-z
-x,-y,-z
1/2+x,y,-z
1/2-x,y,z
x,-y,z
loop_
_atom_site_type_symbol
_atom_site_label
_atom_site_fract_x
_atom_site_fract_y
_atom_site_fract_z
Si Si1 0.018291 0.170581 0.395369
Si Si2 0.861377 0.669963 0.857262
Si Si3 0.143099 0.172323 0.317603
Si Si4 0.639297 0.834155 0.522562
Si Si5 0.542365 0.171655 0.934115
Si Si6 0.136341 0.160800 0.224516
Si Si7 0.638695 0.331192 0.438795
Si Si8 0.855898 0.828374 0.019212
O O1 0.070732 0.231179 0.353307
O O2 0.083821 0.211231 0.435357
O O3 0.918093 0.254870 0.400337
O O4 0.998414 0.000000 0.392109
O O5 0.750000 0.709343 0.864895
O O6 0.879110 0.500000 0.858594
O O7 0.925984 0.745134 0.892458
O O8 0.897639 0.728513 0.811766
O O9 0.250000 0.236869 0.325214
O O10 0.102497 0.216834 0.270991
O O11 0.149766 0.000000 0.320529
O O12 0.750000 0.807971 0.532758
O O13 0.604334 0.736787 0.483398
O O14 0.618549 0.000000 0.509778
O O15 0.432668 0.218174 0.944952
O O16 0.551024 0.000000 0.926551
O O17 0.609765 0.223707 0.972834
O O18 0.250000 0.151247 0.225982
O O19 0.094641 0.000000 0.214778
O O20 0.750000 0.299461 0.430879
O O21 0.615200 0.500000 0.439714
O O22 0.750000 0.763287 0.029118
O O23 0.851701 0.000000 0.018161
#
# Coordination Sequence:
#
# PCOD8206507 Si02
#       8
#     8   8   8   8   8   8   8   8
#     4  10  18  28  46  69  88 108 136 170 208 249
#     4  10  19  28  39  59  88 117 143 175 212 245
#     4   8  14  26  45  69  93 112 132 162 202 250
#     4   9  17  29  45  65  88 112 137 166 203 248
#     4   9  16  26  43  64  83 110 147 180 211 251
#     4   8  14  26  44  63  84 112 141 166 198 247
#     4  10  21  34  44  56  80 114 148 180 210 239
#     4   8  14  25  41  62  87 112 141 179 217 250
#
# _framework density 15.781917999999999
#
# number of rings (size 3 to 8) (size 9 to 14) (size 15 to 20)
#    0.000    3.000    0.000    3.375    0.000    5.500 
#    0.000    1.875    0.000    3.000    0.000    0.875 
#    0.000    3.000    0.000    0.000    0.000    0.000 
#
# Total GULP energy -793335.512790 kJ/mol
# GULP energy per Si atom -12395.867387 kJ/mol
# Density = 1.574600 g / cm^3
# Si number density = 15.781918 Si / 1000 Ang^3
#
#
#
# Elastic Constant Matrix: (Units=GPa)
#
#
# Indices 1 2 3 4 5 6 
#
# 1 83.6842 35.1197 64.3163 0.0000 0.0000 0.0000
# 2 35.1197 52.5469 50.0233 0.0000 0.0000 0.0000
# 3 64.3163 50.0233 134.0475 0.0000 0.0000 0.0000
# 4 0.0000 0.0000 0.0000 0.0510 0.0000 0.0000
# 5 0.0000 0.0000 0.0000 0.0000 24.0529 0.0000
# 6 0.0000 0.0000 0.0000 0.0000 0.0000 16.6959
#
#
#
# Elastic Compliance Matrix: (Units=1/GPa)
#
#
# Indices 1 2 3 4 5 6 
#
# 1 0.020335 -0.006673 -0.007266 0.000000 0.000000 0.000000
# 2 -0.006673 0.031707 -0.008630 0.000000 0.000000 0.000000
# 3 -0.007266 -0.008630 0.014167 0.000000 0.000000 0.000000
# 4 0.000000 0.000000 0.000000 19.623908 0.000000 0.000000
# 5 0.000000 0.000000 0.000000 0.000000 0.041575 0.000000
# 6 0.000000 0.000000 0.000000 0.000000 0.000000 0.059895
#
#
# Mechanical properties :
#
#
# Convention : Reuss Voigt Hill
#
# Bulk Modulus (GPa) = 47.46420 63.24414 55.35417
# Shear Modulus (GPa) = 0.25197 16.21456 8.23327
#
# Velocity S-wave (km/s) = 0.40000 3.20881 2.28653
# Velocity P-wave (km/s) = 5.50942 7.34094 6.49011
#
# Compressibility (1/GPa) = 0.02106851
#
# Stress axis : x y z
#
# Youngs Moduli (GPa) = 49.17625 31.53922 70.58632
#
# Poissons Ratio (x) = 0.21048 0.51291
# Poissons Ratio (y) = 0.32818 0.60917
# Poissons Ratio (z) = 0.35733 0.27219
#
# Static dielectric constant tensor:
#      x y z
#    x 3.113660 0.000000 0.000000 
#    y 0.000000 2.781850 0.000000 
#    z 0.000000 0.000000 3.145200 
# 
# 
# High freq. dielectric constant tensor:
#      x y z
#    x 1.587610 0.000000 0.000000 
#    y 0.000000 1.581710 0.000000 
#    z 0.000000 0.000000 1.599230 
# 
# From -- ./inp_files/37833.got.cif
#   From: 2010.03.12/outbox.cif.g09.slc.cpg/sg51_19_cif.got.tgz:37833.got - 2010.04.16 13:43:02.
