data_PCOD8206260
_publ_section_title
;
Structure prediction by ZEFSAII (Michael W. Deem and Ramdas Pophale) SiO2 
 PCOD8206260
Probable space group: P M M A
;
_chemical_formula_sum "Si O2"
_cell_formula_units_Z 48
_cell_length_a 9.372397
_cell_length_b 23.511096
_cell_length_c 12.790065
_cell_angle_alpha 90.000000
_cell_angle_beta 90.000000
_cell_angle_gamma 90.000000
_cell_volume 2818.358938
_symmetry_space_group_name_H-M "P M M A"
_symmetry_group_IT_number 51
_symmetry_cell_setting 'orthorhombic'
loop_
_space_group_symop_operation_xyz
x,y,z
1/2-x,-y,z
1/2+x,-y,-z
-x,y,-z
-x,-y,-z
1/2+x,y,-z
1/2-x,y,z
x,-y,z
loop_
_atom_site_type_symbol
_atom_site_label
_atom_site_fract_x
_atom_site_fract_y
_atom_site_fract_z
Si Si1 0.914607 0.436693 0.896655
Si Si2 0.907378 0.156275 0.268275
Si Si3 0.086875 0.674903 0.209143
Si Si4 0.404803 0.755869 0.913365
Si Si5 0.083283 0.065608 0.895925
Si Si6 0.581543 0.241859 0.605524
O O1 0.750000 0.435605 0.929455
O O2 0.960664 0.500000 0.859080
O O3 0.940294 0.393233 0.798644
O O4 0.000000 0.418302 0.000000
O O5 0.750000 0.143995 0.319483
O O6 0.884460 0.204315 0.183885
O O7 0.966801 0.100387 0.207562
O O8 0.020319 0.181198 0.351655
O O9 0.250000 0.690326 0.184105
O O10 0.047657 0.703957 0.320010
O O11 0.989079 0.699275 0.117433
O O12 0.250000 0.739193 0.958915
O O13 0.500000 0.788266 0.000000
O O14 0.250000 0.077472 0.916779
O O15 0.051329 0.000000 0.871256
O O16 0.000000 0.085254 0.000000
O O17 0.500000 0.257168 0.500000
O O18 0.750000 0.234103 0.586370
#
# Coordination Sequence:
#
# PCOD8206260 Si02
#       6
#     8   8   8   8   8   8
#     4   9  17  29  45  66  93 124 155 184 215 256
#     4   9  18  31  46  66  92 121 153 188 227 270
#     4   9  18  31  46  65  88 116 150 185 224 271
#     4  10  18  26  39  61  90 121 149 181 221 265
#     4   9  17  29  46  69  98 131 162 190 221 261
#     4  10  20  34  52  71  90 114 147 190 239 285
#
# _framework density 17.031186999999999
#
# number of rings (size 3 to 8) (size 9 to 14) (size 15 to 20)
#    0.000    2.667    0.000    2.000    0.000    4.000 
#    0.000    0.000    0.000    1.000    0.000    0.000 
#    0.000    0.000    0.000    0.000    0.000    0.500 
#
# Total GULP energy -594690.396679 kJ/mol
# GULP energy per Si atom -12389.383264 kJ/mol
# Density = 1.699242 g / cm^3
# Si number density = 17.031187 Si / 1000 Ang^3
#
#
#
# Elastic Constant Matrix: (Units=GPa)
#
#
# Indices 1 2 3 4 5 6 
#
# 1 92.1013 31.8590 45.2958 0.0000 0.0000 0.0000
# 2 31.8590 98.8630 41.6796 0.0000 0.0000 0.0000
# 3 45.2958 41.6796 75.9423 0.0000 0.0000 0.0000
# 4 0.0000 0.0000 0.0000 22.1450 0.0000 0.0000
# 5 0.0000 0.0000 0.0000 0.0000 27.8705 0.0000
# 6 0.0000 0.0000 0.0000 0.0000 0.0000 21.3443
#
#
#
# Elastic Compliance Matrix: (Units=1/GPa)
#
#
# Indices 1 2 3 4 5 6 
#
# 1 0.015518 -0.001429 -0.008471 0.000000 0.000000 0.000000
# 2 -0.001429 0.013292 -0.006442 0.000000 0.000000 0.000000
# 3 -0.008471 -0.006442 0.021756 0.000000 0.000000 0.000000
# 4 0.000000 0.000000 0.000000 0.045157 0.000000 0.000000
# 5 0.000000 0.000000 0.000000 0.000000 0.035880 0.000000
# 6 0.000000 0.000000 0.000000 0.000000 0.000000 0.046851
#
#
# Mechanical properties :
#
#
# Convention : Reuss Voigt Hill
#
# Bulk Modulus (GPa) = 55.92796 56.06393 55.99595
# Shear Modulus (GPa) = 23.03078 24.14344 23.58711
#
# Velocity S-wave (km/s) = 3.68131 3.76919 3.72551
# Velocity P-wave (km/s) = 7.13998 7.20640 7.17327
#
# Compressibility (1/GPa) = 0.01788014
#
# Stress axis : x y z
#
# Youngs Moduli (GPa) = 64.43998 75.23509 45.96343
#
# Poissons Ratio (x) = 0.10754 0.38937
# Poissons Ratio (y) = 0.09211 0.29611
# Poissons Ratio (z) = 0.54590 0.48469
#
# Static dielectric constant tensor:
#      x y z
#    x 3.684490 0.000000 0.000000 
#    y 0.000000 3.354540 0.000000 
#    z 0.000000 0.000000 3.005320 
# 
# 
# High freq. dielectric constant tensor:
#      x y z
#    x 1.666410 0.000000 0.000000 
#    y 0.000000 1.651920 0.000000 
#    z 0.000000 0.000000 1.623900 
# 
# From -- ./inp_files/14437.got.cif
#   From: 2010.03.12/outbox.cif.g09.slc.cpg/sg51_8_cif.got.tgz:14437.got - 2010.04.16 13:43:02.
