data_PCOD8206363
_publ_section_title
;
Structure prediction by ZEFSAII (Michael W. Deem and Ramdas Pophale) SiO2 
 PCOD8206363
Probable space group: P M M A
;
_chemical_formula_sum "Si O2"
_cell_formula_units_Z 64
_cell_length_a 28.045677
_cell_length_b 12.527920
_cell_length_c 11.118013
_cell_angle_alpha 90.000000
_cell_angle_beta 90.000000
_cell_angle_gamma 90.000000
_cell_volume 3906.358315
_symmetry_space_group_name_H-M "P M M A"
_symmetry_group_IT_number 51
_symmetry_cell_setting 'orthorhombic'
loop_
_space_group_symop_operation_xyz
x,y,z
1/2-x,-y,z
1/2+x,-y,-z
-x,y,-z
-x,-y,-z
1/2+x,y,-z
1/2-x,y,z
x,-y,z
loop_
_atom_site_type_symbol
_atom_site_label
_atom_site_fract_x
_atom_site_fract_y
_atom_site_fract_z
Si Si1 0.617698 0.873724 0.587245
Si Si2 0.916595 0.122403 0.853514
Si Si3 0.376622 0.376435 0.704128
Si Si4 0.022158 0.119298 0.776550
Si Si5 0.194525 0.775913 0.574647
Si Si6 0.454184 0.265470 0.562500
Si Si7 0.392236 0.782410 0.909927
Si Si8 0.198948 0.879156 0.813339
O O1 0.610350 0.853905 0.728579
O O2 0.666579 0.814760 0.544806
O O3 0.573611 0.819631 0.519228
O O4 0.619039 0.000000 0.558035
O O5 0.973356 0.136165 0.848118
O O6 0.904687 0.000000 0.894319
O O7 0.899528 0.215702 0.946023
O O8 0.366646 0.500000 0.723613
O O9 0.329493 0.325309 0.643168
O O10 0.419804 0.358349 0.610649
O O11 0.392271 0.328875 0.835334
O O12 0.022335 0.200854 0.669342
O O13 0.067731 0.137399 0.860914
O O14 0.024782 0.000000 0.724570
O O15 0.250000 0.751080 0.542486
O O16 0.188518 0.871501 0.670519
O O17 0.500000 0.320155 0.500000
O O18 0.339539 0.825450 0.895674
O O19 0.250000 0.823275 0.839846
O O20 0.201133 0.000000 0.851790
#
# Coordination Sequence:
#
# PCOD8206363 Si02
#       8
#     8   8   8   8   8   8   8   8
#     4  10  19  29  45  73 108 139 163 189 228 289
#     4  10  19  29  44  69 102 138 170 194 226 283
#     4   9  20  35  52  73  90 116 162 214 265 299
#     4  10  18  27  45  71  98 131 169 202 238 284
#     4   9  18  32  51  74  97 122 154 196 247 297
#     4  10  18  30  48  70  98 131 161 204 246 293
#     4  10  19  31  47  65  94 128 166 209 246 285
#     4   9  16  27  45  68  93 120 151 189 237 292
#
# _framework density 16.383545999999999
#
# number of rings (size 3 to 8) (size 9 to 14) (size 15 to 20)
#    0.000    2.375    1.250    3.000    0.000    2.750 
#    0.000    0.625    0.000    9.750    0.000    0.000 
#    0.000    0.000    0.000    0.000    0.000    0.000 
#
# Total GULP energy -792897.272506 kJ/mol
# GULP energy per Si atom -12389.019883 kJ/mol
# Density = 1.634626 g / cm^3
# Si number density = 16.383546 Si / 1000 Ang^3
#
#
#
# Elastic Constant Matrix: (Units=GPa)
#
#
# Indices 1 2 3 4 5 6 
#
# 1 110.4423 30.8408 33.4267 0.0000 0.0000 0.0000
# 2 30.8408 69.7368 27.2974 0.0000 0.0000 0.0000
# 3 33.4267 27.2974 75.8497 0.0000 0.0000 0.0000
# 4 0.0000 0.0000 0.0000 14.9583 0.0000 0.0000
# 5 0.0000 0.0000 0.0000 0.0000 19.4471 0.0000
# 6 0.0000 0.0000 0.0000 0.0000 0.0000 11.8883
#
#
#
# Elastic Compliance Matrix: (Units=1/GPa)
#
#
# Indices 1 2 3 4 5 6 
#
# 1 0.011135 -0.003496 -0.003649 0.000000 0.000000 0.000000
# 2 -0.003496 0.017789 -0.004861 0.000000 0.000000 0.000000
# 3 -0.003649 -0.004861 0.016542 0.000000 0.000000 0.000000
# 4 0.000000 0.000000 0.000000 0.066852 0.000000 0.000000
# 5 0.000000 0.000000 0.000000 0.000000 0.051422 0.000000
# 6 0.000000 0.000000 0.000000 0.000000 0.000000 0.084116
#
#
# Mechanical properties :
#
#
# Convention : Reuss Voigt Hill
#
# Bulk Modulus (GPa) = 46.61417 48.79540 47.70478
# Shear Modulus (GPa) = 17.91992 20.22300 19.07146
#
# Velocity S-wave (km/s) = 3.31082 3.51714 3.41554
# Velocity P-wave (km/s) = 6.56726 6.80746 6.68844
#
# Compressibility (1/GPa) = 0.02145270
#
# Stress axis : x y z
#
# Youngs Moduli (GPa) = 89.80507 56.21578 60.45377
#
# Poissons Ratio (x) = 0.19654 0.22060
# Poissons Ratio (y) = 0.31397 0.29388
# Poissons Ratio (z) = 0.32770 0.27327
#
# Static dielectric constant tensor:
#      x y z
#    x 3.373780 0.000000 0.000000 
#    y 0.000000 2.745100 0.000000 
#    z 0.000000 0.000000 3.130650 
# 
# 
# High freq. dielectric constant tensor:
#      x y z
#    x 1.644940 0.000000 0.000000 
#    y 0.000000 1.591360 0.000000 
#    z 0.000000 0.000000 1.620830 
# 
# From -- ./inp_files/19215.got.cif
#   From: 2010.03.12/outbox.cif.g09.slc.cpg/sg51_10_cif.got.tgz:19215.got - 2010.04.16 13:43:02.
