data_PCOD8206367
_publ_section_title
;
Structure prediction by ZEFSAII (Michael W. Deem and Ramdas Pophale) SiO2 
 PCOD8206367
Probable space group: P M M A
;
_chemical_formula_sum "Si O2"
_cell_formula_units_Z 40
_cell_length_a 9.239222
_cell_length_b 15.770796
_cell_length_c 19.603069
_cell_angle_alpha 90.000000
_cell_angle_beta 90.000000
_cell_angle_gamma 90.000000
_cell_volume 2856.360937
_symmetry_space_group_name_H-M "P M M A"
_symmetry_group_IT_number 51
_symmetry_cell_setting 'orthorhombic'
loop_
_space_group_symop_operation_xyz
x,y,z
1/2-x,-y,z
1/2+x,-y,-z
-x,y,-z
-x,-y,-z
1/2+x,y,-z
1/2-x,y,z
x,-y,z
loop_
_atom_site_type_symbol
_atom_site_label
_atom_site_fract_x
_atom_site_fract_y
_atom_site_fract_z
Si Si1 0.913457 0.100987 0.434913
Si Si2 0.417534 0.099598 0.302317
Si Si3 0.579953 0.316497 0.928005
Si Si4 0.078454 0.159410 0.158105
Si Si5 0.422183 0.000000 0.071491
Si Si6 0.084514 0.500000 0.068782
O O1 0.750000 0.135989 0.437000
O O2 0.000000 0.137304 0.500000
O O3 0.990512 0.133227 0.366222
O O4 0.914837 0.000000 0.436823
O O5 0.250000 0.119497 0.317378
O O6 0.477034 0.149135 0.235721
O O7 0.439631 0.000000 0.289302
O O8 0.750000 0.302559 0.941609
O O9 0.521270 0.247544 0.874021
O O10 0.549243 0.410176 0.893914
O O11 0.500000 0.305153 0.000000
O O12 0.250000 0.156051 0.160320
O O13 0.022210 0.082271 0.112043
O O14 0.250000 0.000000 0.061359
O O15 0.500000 0.000000 0.000000
O O16 0.250000 0.500000 0.047229
O O17 0.000000 0.500000 0.000000
#
# Coordination Sequence:
#
# PCOD8206367 Si02
#       6
#     8   8   8   8   4   4
#     4   9  16  25  37  54  73  93 119 151 181 210
#     4   9  15  25  39  51  66  93 124 151 179 213
#     4   9  16  26  39  54  71  92 120 154 190 227
#     4   9  16  26  39  52  69  95 125 153 184 221
#     4  10  18  28  38  50  67  92 125 158 187 216
#     4   8  14  24  38  54  70  88 113 148 189 228
#
# _framework density 14.003831999999999
#
# number of rings (size 3 to 8) (size 9 to 14) (size 15 to 20)
#    0.000    3.000    1.000    1.200    0.000    2.400 
#    0.000    2.000    0.000    0.000    0.000    0.000 
#    0.000    0.000    0.000    0.900    0.000    6.400 
#
# Total GULP energy -495638.048297 kJ/mol
# GULP energy per Si atom -12390.951207 kJ/mol
# Density = 1.397196 g / cm^3
# Si number density = 14.003832 Si / 1000 Ang^3
#
#
#
# Elastic Constant Matrix: (Units=GPa)
#
#
# Indices 1 2 3 4 5 6 
#
# 1 50.4155 23.6847 44.2855 0.0000 0.0000 0.0000
# 2 23.6847 92.9960 52.8900 0.0000 0.0000 0.0000
# 3 44.2855 52.8900 128.9254 0.0000 0.0000 0.0000
# 4 0.0000 0.0000 0.0000 8.7339 0.0000 0.0000
# 5 0.0000 0.0000 0.0000 0.0000 22.8240 0.0000
# 6 0.0000 0.0000 0.0000 0.0000 0.0000 8.3502
#
#
#
# Elastic Compliance Matrix: (Units=1/GPa)
#
#
# Indices 1 2 3 4 5 6 
#
# 1 0.028755 -0.002225 -0.008964 0.000000 0.000000 0.000000
# 2 -0.002225 0.014198 -0.005060 0.000000 0.000000 0.000000
# 3 -0.008964 -0.005060 0.012912 0.000000 0.000000 0.000000
# 4 0.000000 0.000000 0.000000 0.114496 0.000000 0.000000
# 5 0.000000 0.000000 0.000000 0.000000 0.043814 0.000000
# 6 0.000000 0.000000 0.000000 0.000000 0.000000 0.119757
#
#
# Mechanical properties :
#
#
# Convention : Reuss Voigt Hill
#
# Bulk Modulus (GPa) = 42.79920 57.11747 49.95834
# Shear Modulus (GPa) = 13.36118 18.08007 15.72063
#
# Velocity S-wave (km/s) = 3.09222 3.59706 3.35415
# Velocity P-wave (km/s) = 6.58619 7.62413 7.12409
#
# Compressibility (1/GPa) = 0.02336492
#
# Stress axis : x y z
#
# Youngs Moduli (GPa) = 34.77661 70.43388 77.45014
#
# Poissons Ratio (x) = 0.15672 0.69430
# Poissons Ratio (y) = 0.07738 0.39191
# Poissons Ratio (z) = 0.31175 0.35640
#
# Static dielectric constant tensor:
#      x y z
#    x 2.661940 0.000000 0.000000 
#    y 0.000000 2.984160 0.000000 
#    z 0.000000 0.000000 2.766890 
# 
# 
# High freq. dielectric constant tensor:
#      x y z
#    x 1.524830 0.000000 0.000000 
#    y 0.000000 1.501840 0.000000 
#    z 0.000000 0.000000 1.523360 
# 
# From -- ./inp_files/27762.got.cif
#   From: 2010.03.12/outbox.cif.g09.slc.cpg/sg51_14_cif.got.tgz:27762.got - 2010.04.16 13:43:02.
