data_PCOD8206228
_publ_section_title
;
Structure prediction by ZEFSAII (Michael W. Deem and Ramdas Pophale) SiO2 
 PCOD8206228
Probable space group: P M M A
;
_chemical_formula_sum "Si O2"
_cell_formula_units_Z 44
_cell_length_a 13.564582
_cell_length_b 17.328481
_cell_length_c 9.729429
_cell_angle_alpha 90.000000
_cell_angle_beta 90.000000
_cell_angle_gamma 90.000000
_cell_volume 2286.937327
_symmetry_space_group_name_H-M "P M M A"
_symmetry_group_IT_number 51
_symmetry_cell_setting 'orthorhombic'
loop_
_space_group_symop_operation_xyz
x,y,z
1/2-x,-y,z
1/2+x,-y,-z
-x,y,-z
-x,-y,-z
1/2+x,y,-z
1/2-x,y,z
x,-y,z
loop_
_atom_site_type_symbol
_atom_site_label
_atom_site_fract_x
_atom_site_fract_y
_atom_site_fract_z
Si Si1 0.603788 0.842571 0.033718
Si Si2 0.419791 0.300960 0.380667
Si Si3 0.750000 0.652225 0.255886
Si Si4 0.944158 0.323697 0.121617
Si Si5 0.750000 0.836786 0.261999
Si Si6 0.250000 0.909875 0.169224
Si Si7 0.750000 0.590016 0.559368
Si Si8 0.750000 0.821930 0.567532
O O1 0.598593 0.750303 0.040804
O O2 0.655126 0.869041 0.177398
O O3 0.500000 0.882229 0.000000
O O4 0.658788 0.867128 0.897583
O O5 0.500000 0.308503 0.500000
O O6 0.480505 0.295541 0.239505
O O7 0.349642 0.375939 0.373800
O O8 0.349457 0.227631 0.409196
O O9 0.649217 0.627501 0.177727
O O10 0.750000 0.744041 0.276786
O O11 0.750000 0.608535 0.398630
O O12 0.000000 0.371846 0.000000
O O13 0.750000 0.864459 0.418855
O O14 0.250000 0.894452 0.331133
O O15 0.250000 0.000000 0.137152
O O16 0.750000 0.500000 0.587750
#
# Coordination Sequence:
#
# PCOD8206228 Si02
#       8
#     8   8   4   8   4   4   4   4
#     4   9  18  35  56  81 107 150 193 242 288 347
#     4  11  20  36  60  91 114 150 205 256 291 344
#     4  10  17  36  52  83 122 151 194 248 299 347
#     4  10  19  32  59  89 115 145 198 259 304 337
#     4   9  16  31  57  81 109 139 191 255 301 329
#     4  11  24  38  53  82 124 160 191 230 296 374
#     4  11  23  38  59  88 126 167 195 235 296 374
#     4  11  20  33  56  84 118 151 193 258 304 342
#
# _framework density 19.239705000000001
#
# number of rings (size 3 to 8) (size 9 to 14) (size 15 to 20)
#    0.000    1.818    3.636    3.818    0.000    2.182 
#    0.000    1.818    0.000    7.091    0.000    0.000 
#    0.000    0.000    0.000    0.000    0.000    0.000 
#
# Total GULP energy -545112.521813 kJ/mol
# GULP energy per Si atom -12388.920950 kJ/mol
# Density = 1.919591 g / cm^3
# Si number density = 19.239705 Si / 1000 Ang^3
#
#
#
# Elastic Constant Matrix: (Units=GPa)
#
#
# Indices 1 2 3 4 5 6 
#
# 1 142.7331 20.2045 43.4281 0.0000 0.0000 0.0000
# 2 20.2045 57.0485 17.4809 0.0000 0.0000 0.0000
# 3 43.4281 17.4809 125.3352 0.0000 0.0000 0.0000
# 4 0.0000 0.0000 0.0000 14.6622 0.0000 0.0000
# 5 0.0000 0.0000 0.0000 0.0000 59.2550 0.0000
# 6 0.0000 0.0000 0.0000 0.0000 0.0000 8.8723
#
#
#
# Elastic Compliance Matrix: (Units=1/GPa)
#
#
# Indices 1 2 3 4 5 6 
#
# 1 0.008063 -0.002089 -0.002503 0.000000 0.000000 0.000000
# 2 -0.002089 0.018853 -0.001906 0.000000 0.000000 0.000000
# 3 -0.002503 -0.001906 0.009112 0.000000 0.000000 0.000000
# 4 0.000000 0.000000 0.000000 0.068203 0.000000 0.000000
# 5 0.000000 0.000000 0.000000 0.000000 0.016876 0.000000
# 6 0.000000 0.000000 0.000000 0.000000 0.000000 0.112710
#
#
# Mechanical properties :
#
#
# Convention : Reuss Voigt Hill
#
# Bulk Modulus (GPa) = 43.41543 54.14931 48.78237
# Shear Modulus (GPa) = 19.64728 32.82479 26.23604
#
# Velocity S-wave (km/s) = 3.19906 4.13497 3.69676
# Velocity P-wave (km/s) = 6.02162 7.14164 6.60541
#
# Compressibility (1/GPa) = 0.02303328
#
# Stress axis : x y z
#
# Youngs Moduli (GPa) = 124.02047 53.04286 109.75136
#
# Poissons Ratio (x) = 0.11080 0.27465
# Poissons Ratio (y) = 0.25906 0.20915
# Poissons Ratio (z) = 0.31036 0.10108
#
# Static dielectric constant tensor:
#      x y z
#    x 4.170660 0.000000 0.000000 
#    y 0.000000 2.935990 0.000000 
#    z 0.000000 0.000000 3.813270 
# 
# 
# High freq. dielectric constant tensor:
#      x y z
#    x 1.775000 0.000000 0.000000 
#    y 0.000000 1.679920 0.000000 
#    z 0.000000 0.000000 1.762910 
# 
# From -- ./inp_files/8186.got.cif
#   From: 2010.03.12/outbox.cif.g09.slc.cpg/sg51_5_cif.got.tgz:8186.got - 2010.04.16 13:43:02.
