data_PCOD8206579
_publ_section_title
;
Structure prediction by ZEFSAII (Michael W. Deem and Ramdas Pophale) SiO2 
 PCOD8206579
Probable space group: P M M A
;
_chemical_formula_sum "Si O2"
_cell_formula_units_Z 64
_cell_length_a 9.033522
_cell_length_b 18.181366
_cell_length_c 26.441134
_cell_angle_alpha 90.000000
_cell_angle_beta 90.000000
_cell_angle_gamma 90.000000
_cell_volume 4342.738642
_symmetry_space_group_name_H-M "P M M A"
_symmetry_group_IT_number 51
_symmetry_cell_setting 'orthorhombic'
loop_
_space_group_symop_operation_xyz
x,y,z
1/2-x,-y,z
1/2+x,-y,-z
-x,y,-z
-x,-y,-z
1/2+x,y,-z
1/2-x,y,z
x,-y,z
loop_
_atom_site_type_symbol
_atom_site_label
_atom_site_fract_x
_atom_site_fract_y
_atom_site_fract_z
Si Si1 0.576492 0.415823 0.949789
Si Si2 0.586526 0.202458 0.795807
Si Si3 0.923657 0.917980 0.256208
Si Si4 0.083148 0.705069 0.306250
Si Si5 0.574492 0.168285 0.356699
Si Si6 0.925475 0.654095 0.845853
Si Si7 0.423139 0.915084 0.447319
Si Si8 0.079063 0.585542 0.751424
O O1 0.750000 0.408890 0.957564
O O2 0.527905 0.500000 0.940782
O O3 0.522955 0.368967 0.901682
O O4 0.500000 0.383602 0.000000
O O5 0.750000 0.173242 0.808722
O O6 0.482944 0.131267 0.790352
O O7 0.587113 0.248201 0.744510
O O8 0.531130 0.259621 0.838839
O O9 0.750000 0.920428 0.250591
O O10 0.970249 0.883921 0.309888
O O11 0.991089 0.000000 0.252611
O O12 0.250000 0.690087 0.325872
O O13 0.990959 0.750065 0.348292
O O14 0.001771 0.628356 0.294297
O O15 0.750000 0.173075 0.363748
O O16 0.500074 0.135266 0.405984
O O17 0.750000 0.642869 0.837641
O O18 0.007658 0.602730 0.805677
O O19 0.500000 0.895913 0.500000
O O20 0.250000 0.896510 0.450866
O O21 0.449579 0.000000 0.432889
O O22 0.250000 0.609856 0.752991
O O23 0.060883 0.500000 0.739590
#
# Coordination Sequence:
#
# PCOD8206579 Si02
#       8
#     8   8   8   8   8   8   8   8
#     4   9  17  28  41  57  78 104 134 168 203 238
#     4   8  15  26  39  56  76 100 132 167 198 232
#     4   9  17  27  39  57  81 108 135 162 196 240
#     4   9  17  29  43  59  81 109 140 171 205 247
#     4  10  18  29  45  62  83 111 142 175 211 249
#     4   9  17  29  43  57  77 108 141 169 202 245
#     4  10  20  32  45  62  85 113 146 182 216 250
#     4  10  19  28  40  61  86 110 139 174 208 243
#
# _framework density 14.737244
#
# number of rings (size 3 to 8) (size 9 to 14) (size 15 to 20)
#    0.000    2.750    0.000    3.000    0.000    7.000 
#    0.000    1.250    0.000    0.000    0.000    0.000 
#    0.000    1.000    0.000    3.000    0.000    4.875 
#
# Total GULP energy -793449.731169 kJ/mol
# GULP energy per Si atom -12397.652050 kJ/mol
# Density = 1.470370 g / cm^3
# Si number density = 14.737244 Si / 1000 Ang^3
#
#
#
# Elastic Constant Matrix: (Units=GPa)
#
#
# Indices 1 2 3 4 5 6 
#
# 1 72.7543 46.7941 42.8837 0.0000 0.0000 0.0000
# 2 46.7941 93.1145 55.1175 0.0000 0.0000 0.0000
# 3 42.8837 55.1175 89.0722 0.0000 0.0000 0.0000
# 4 0.0000 0.0000 0.0000 26.2106 0.0000 0.0000
# 5 0.0000 0.0000 0.0000 0.0000 23.7558 0.0000
# 6 0.0000 0.0000 0.0000 0.0000 0.0000 24.9601
#
#
#
# Elastic Compliance Matrix: (Units=1/GPa)
#
#
# Indices 1 2 3 4 5 6 
#
# 1 0.022147 -0.007603 -0.005958 0.000000 0.000000 0.000000
# 2 -0.007603 0.019557 -0.008441 0.000000 0.000000 0.000000
# 3 -0.005958 -0.008441 0.019319 0.000000 0.000000 0.000000
# 4 0.000000 0.000000 0.000000 0.038152 0.000000 0.000000
# 5 0.000000 0.000000 0.000000 0.000000 0.042095 0.000000
# 6 0.000000 0.000000 0.000000 0.000000 0.000000 0.040064
#
#
# Mechanical properties :
#
#
# Convention : Reuss Voigt Hill
#
# Bulk Modulus (GPa) = 58.76097 60.50349 59.63223
# Shear Modulus (GPa) = 21.64400 22.32835 21.98618
#
# Velocity S-wave (km/s) = 3.83647 3.89665 3.86667
# Velocity P-wave (km/s) = 7.71904 7.83512 7.77730
#
# Compressibility (1/GPa) = 0.01701810
#
# Stress axis : x y z
#
# Youngs Moduli (GPa) = 45.15338 51.13246 51.76349
#
# Poissons Ratio (x) = 0.38877 0.30839
# Poissons Ratio (y) = 0.34331 0.43695
# Poissons Ratio (z) = 0.26901 0.43162
#
# Static dielectric constant tensor:
#      x y z
#    x 2.976820 0.000000 0.000000 
#    y 0.000000 2.973010 0.000000 
#    z 0.000000 0.000000 2.731140 
# 
# 
# High freq. dielectric constant tensor:
#      x y z
#    x 1.574520 0.000000 0.000000 
#    y 0.000000 1.552040 0.000000 
#    z 0.000000 0.000000 1.531160 
# 
# From -- ./inp_files/35105.got.cif
#   From: 2010.03.12/outbox.cif.g09.slc.cpg/sg51_18_cif.got.tgz:35105.got - 2010.04.16 13:43:02.
