data_PCOD8206235
_publ_section_title
;
Structure prediction by ZEFSAII (Michael W. Deem and Ramdas Pophale) SiO2 
 PCOD8206235
Probable space group: P M M A
;
_chemical_formula_sum "Si O2"
_cell_formula_units_Z 32
_cell_length_a 10.594509
_cell_length_b 16.713388
_cell_length_c 8.634080
_cell_angle_alpha 90.000000
_cell_angle_beta 90.000000
_cell_angle_gamma 90.000000
_cell_volume 1528.837751
_symmetry_space_group_name_H-M "P M M A"
_symmetry_group_IT_number 51
_symmetry_cell_setting 'orthorhombic'
loop_
_space_group_symop_operation_xyz
x,y,z
1/2-x,-y,z
1/2+x,-y,-z
-x,y,-z
-x,-y,-z
1/2+x,y,-z
1/2-x,y,z
x,-y,z
loop_
_atom_site_type_symbol
_atom_site_label
_atom_site_fract_x
_atom_site_fract_y
_atom_site_fract_z
Si Si1 0.984037 0.411548 0.814908
Si Si2 0.990111 0.091013 0.168183
Si Si3 0.750000 0.317312 0.821911
Si Si4 0.250000 0.096205 0.642167
Si Si5 0.750000 0.140792 0.700256
Si Si6 0.250000 0.593834 0.856201
O O1 0.942224 0.500000 0.763535
O O2 0.879026 0.351767 0.746206
O O3 0.125041 0.390693 0.751222
O O4 0.000000 0.406353 0.000000
O O5 0.123702 0.093705 0.254199
O O6 0.874688 0.127215 0.267324
O O7 0.950572 0.000000 0.139385
O O8 0.000000 0.134569 0.000000
O O9 0.750000 0.223734 0.792382
O O10 0.750000 0.344300 0.000447
O O11 0.250000 0.146739 0.484298
O O12 0.250000 0.000000 0.610680
O O13 0.250000 0.500000 0.915917
#
# Coordination Sequence:
#
# PCOD8206235 Si02
#       6
#     8   8   4   4   4   4
#     4   8  13  24  42  62  90 134 188 240 283 324
#     4  10  21  39  62  85 108 140 189 244 289 332
#     4  10  18  25  37  65 106 144 178 214 266 328
#     4  10  21  40  65  86 108 144 189 238 288 343
#     4  12  23  33  51  83 121 157 190 222 280 351
#     4   8  14  26  45  66  93 139 197 248 286 322
#
# _framework density 20.930931999999999
#
# number of rings (size 3 to 8) (size 9 to 14) (size 15 to 20)
#    0.000    2.500    0.000    5.250    0.000    7.000 
#    0.000    1.250    0.000    0.000    0.000    0.000 
#    0.000   36.000    0.000   24.750    0.000    2.250 
#
# Total GULP energy -396431.417788 kJ/mol
# GULP energy per Si atom -12388.481806 kJ/mol
# Density = 2.088329 g / cm^3
# Si number density = 20.930932 Si / 1000 Ang^3
#
#
#
# Elastic Constant Matrix: (Units=GPa)
#
#
# Indices 1 2 3 4 5 6 
#
# 1 191.9355 9.5461 37.3779 0.0000 0.0000 0.0000
# 2 9.5461 57.2747 7.6469 0.0000 0.0000 0.0000
# 3 37.3779 7.6469 94.1821 0.0000 0.0000 0.0000
# 4 0.0000 0.0000 0.0000 7.2308 0.0000 0.0000
# 5 0.0000 0.0000 0.0000 0.0000 26.1483 0.0000
# 6 0.0000 0.0000 0.0000 0.0000 0.0000 11.9935
#
#
#
# Elastic Compliance Matrix: (Units=1/GPa)
#
#
# Indices 1 2 3 4 5 6 
#
# 1 0.005670 -0.000652 -0.002198 0.000000 0.000000 0.000000
# 2 -0.000652 0.017726 -0.001181 0.000000 0.000000 0.000000
# 3 -0.002198 -0.001181 0.011586 0.000000 0.000000 0.000000
# 4 0.000000 0.000000 0.000000 0.138298 0.000000 0.000000
# 5 0.000000 0.000000 0.000000 0.000000 0.038243 0.000000
# 6 0.000000 0.000000 0.000000 0.000000 0.000000 0.083378
#
#
# Mechanical properties :
#
#
# Convention : Reuss Voigt Hill
#
# Bulk Modulus (GPa) = 37.14363 50.28158 43.71260
# Shear Modulus (GPa) = 16.02894 28.32928 22.17911
#
# Velocity S-wave (km/s) = 2.77031 3.68294 3.25873
# Velocity P-wave (km/s) = 5.29313 6.49308 5.92357
#
# Compressibility (1/GPa) = 0.02692252
#
# Stress axis : x y z
#
# Youngs Moduli (GPa) = 176.35298 56.41449 86.31328
#
# Poissons Ratio (x) = 0.03677 0.18967
# Poissons Ratio (y) = 0.11493 0.10190
# Poissons Ratio (z) = 0.38754 0.06660
#
# Static dielectric constant tensor:
#      x y z
#    x 4.840630 0.000000 0.000000 
#    y 0.000000 3.361020 0.000000 
#    z 0.000000 0.000000 3.305630 
# 
# 
# High freq. dielectric constant tensor:
#      x y z
#    x 1.859440 0.000000 0.000000 
#    y 0.000000 1.784360 0.000000 
#    z 0.000000 0.000000 1.759030 
# 
# From -- ./inp_files/6776.got.cif
#   From: 2010.03.12/outbox.cif.g09.slc.cpg/sg51_4_cif.got.tgz:6776.got - 2010.04.16 13:43:02.
