data_PCOD8206999
_publ_section_title
;
Structure prediction by ZEFSAII (Michael W. Deem and Ramdas Pophale) SiO2 
 PCOD8206999
Probable space group: P M M A
;
_chemical_formula_sum "Si O2"
_cell_formula_units_Z 44
_cell_length_a 15.471642
_cell_length_b 12.708862
_cell_length_c 11.136308
_cell_angle_alpha 90.000000
_cell_angle_beta 90.000000
_cell_angle_gamma 90.000000
_cell_volume 2189.698422
_symmetry_space_group_name_H-M "P M M A"
_symmetry_group_IT_number 51
_symmetry_cell_setting 'orthorhombic'
loop_
_space_group_symop_operation_xyz
x,y,z
1/2-x,-y,z
1/2+x,-y,-z
-x,y,-z
-x,-y,-z
1/2+x,y,-z
1/2-x,y,z
x,-y,z
loop_
_atom_site_type_symbol
_atom_site_label
_atom_site_fract_x
_atom_site_fract_y
_atom_site_fract_z
Si Si1 0.100981 0.797257 0.263586
Si Si2 0.250000 0.129820 0.090941
Si Si3 0.250000 0.375606 0.627910
Si Si4 0.595115 0.619810 0.550726
Si Si5 0.250000 0.799949 0.828654
Si Si6 0.425235 0.879237 0.733105
Si Si7 0.655802 0.882055 0.499326
O O1 0.166248 0.827475 0.159436
O O2 0.114203 0.683564 0.326220
O O3 0.114619 0.881615 0.369716
O O4 0.003619 0.810001 0.212034
O O5 0.250000 0.000000 0.076203
O O6 0.250000 0.202204 0.972453
O O7 0.250000 0.500000 0.660723
O O8 0.164283 0.346912 0.551003
O O9 0.250000 0.310911 0.754908
O O10 0.500000 0.641894 0.500000
O O11 0.607720 0.500000 0.588573
O O12 0.335762 0.865797 0.801858
O O13 0.411032 0.835075 0.597193
O O14 0.454055 0.000000 0.740339
O O15 0.750000 0.823716 0.494103
O O16 0.672490 0.000000 0.457889
#
# Coordination Sequence:
#
# PCOD8206999 Si02
#       7
#     8   4   4   8   4   8   8
#     4  12  22  37  59  86 120 159 194 238 301 363
#     4  12  27  43  59  82 119 166 210 254 297 346
#     4  10  21  39  65  92 117 152 200 250 301 360
#     4  10  21  38  63  96 127 152 186 240 306 371
#     4  12  24  42  60  80 114 162 212 260 306 340
#     4  11  22  36  58  86 116 154 201 248 297 362
#     4  10  18  30  52  82 114 145 178 227 295 363
#
# _framework density 20.094092
#
# number of rings (size 3 to 8) (size 9 to 14) (size 15 to 20)
#    0.000    1.091    1.818    6.818    0.000    2.182 
#    0.000    2.727    0.000    0.000    0.000    6.364 
#    0.000    0.000    0.000    0.000    0.000    0.000 
#
# Total GULP energy -545132.839498 kJ/mol
# GULP energy per Si atom -12389.382716 kJ/mol
# Density = 2.004836 g / cm^3
# Si number density = 20.094092 Si / 1000 Ang^3
#
#
#
# Elastic Constant Matrix: (Units=GPa)
#
#
# Indices 1 2 3 4 5 6 
#
# 1 159.4077 46.3757 57.6592 0.0000 0.0000 0.0000
# 2 46.3757 121.4797 38.1481 0.0000 0.0000 0.0000
# 3 57.6592 38.1481 122.2500 0.0000 0.0000 0.0000
# 4 0.0000 0.0000 0.0000 12.0646 0.0000 0.0000
# 5 0.0000 0.0000 0.0000 0.0000 -17.2529 0.0000
# 6 0.0000 0.0000 0.0000 0.0000 0.0000 29.4035
#
#
#
# Elastic Compliance Matrix: (Units=1/GPa)
#
#
# Indices 1 2 3 4 5 6 
#
# 1 0.008009 -0.002075 -0.003130 0.000000 0.000000 0.000000
# 2 -0.002075 0.009663 -0.002037 0.000000 0.000000 0.000000
# 3 -0.003130 -0.002037 0.010292 0.000000 0.000000 0.000000
# 4 0.000000 0.000000 0.000000 0.082887 0.000000 0.000000
# 5 0.000000 0.000000 0.000000 0.000000 -0.057961 0.000000
# 6 0.000000 0.000000 0.000000 0.000000 0.000000 0.034010
#
#
# Mechanical properties :
#
#
# Convention : Reuss Voigt Hill
#
# Bulk Modulus (GPa) = 74.17806 76.38924 75.28365
# Shear Modulus (GPa) = 47.22495 22.24001 34.73248
#
# Velocity S-wave (km/s) = 4.85314 3.33046 4.16202
# Velocity P-wave (km/s) = 8.27039 7.27239 7.78739
#
# Compressibility (1/GPa) = 0.01348107
#
# Stress axis : x y z
#
# Youngs Moduli (GPa) = 124.86073 103.48239 97.16378
#
# Poissons Ratio (x) = 0.21468 0.30413
# Poissons Ratio (y) = 0.25903 0.19793
# Poissons Ratio (z) = 0.39082 0.21080
#
# Static dielectric constant tensor:
#      x y z
#    x 4.040420 0.000000 0.000000 
#    y 0.000000 4.670740 0.000000 
#    z 0.000000 0.000000 3.414170 
# 
# 
# High freq. dielectric constant tensor:
#      x y z
#    x 1.813930 0.000000 0.000000 
#    y 0.000000 1.786440 0.000000 
#    z 0.000000 0.000000 1.744000 
# 
# From -- ./inp_files/16367.got.cif
#   From: 2010.03.12/outbox.cif.g09.slc.cpg/sg51_9_cif.got.tgz:16367.got - 2010.04.16 13:43:02.
