data_PCOD8206040
_publ_section_title
;
Structure prediction by ZEFSAII (Michael W. Deem and Ramdas Pophale) SiO2 
 PCOD8206040
Probable space group: P M M A
;
_chemical_formula_sum "Si O2"
_cell_formula_units_Z 40
_cell_length_a 18.778010
_cell_length_b 8.513188
_cell_length_c 13.255872
_cell_angle_alpha 90.000000
_cell_angle_beta 90.000000
_cell_angle_gamma 90.000000
_cell_volume 2119.093367
_symmetry_space_group_name_H-M "P M M A"
_symmetry_group_IT_number 51
_symmetry_cell_setting 'orthorhombic'
loop_
_space_group_symop_operation_xyz
x,y,z
1/2-x,-y,z
1/2+x,-y,-z
-x,y,-z
-x,-y,-z
1/2+x,y,-z
1/2-x,y,z
x,-y,z
loop_
_atom_site_type_symbol
_atom_site_label
_atom_site_fract_x
_atom_site_fract_y
_atom_site_fract_z
Si Si1 0.918804 0.181717 0.094221
Si Si2 0.426748 0.682245 0.104494
Si Si3 0.577985 0.813706 0.313956
Si Si4 0.083832 0.813605 0.308114
Si Si5 0.669750 0.187312 0.498232
O O1 0.889144 0.235192 0.204385
O O2 0.003268 0.210225 0.100248
O O3 0.902742 0.000000 0.075316
O O4 0.884306 0.279193 0.000337
O O5 0.446584 0.500000 0.107879
O O6 0.384766 0.734184 0.205539
O O7 0.496893 0.753253 0.327109
O O8 0.627381 0.742634 0.401970
O O9 0.576172 0.000000 0.322549
O O10 0.131919 0.752906 0.400134
O O11 0.087774 0.000000 0.296886
O O12 0.750000 0.252725 0.495712
O O13 0.669133 0.000000 0.494586
#
# Coordination Sequence:
#
# PCOD8206040 Si02
#       5
#     8   8   8   8   8
#     4   9  15  25  42  64  91 119 144 175 220 269
#     4  10  17  25  40  64  92 117 145 183 219 253
#     4   8  14  24  41  65  90 115 141 172 215 264
#     4   9  16  27  44  65  90 118 145 175 216 265
#     4   9  16  26  43  67  90 111 142 185 224 257
#
# _framework density 18.875995
#
# number of rings (size 3 to 8) (size 9 to 14) (size 15 to 20)
#    0.000    3.000    0.000    5.400    0.000    2.400 
#    0.000    0.000    0.000   12.600    0.000    5.600 
#    0.000    0.000    0.000    0.000    0.000    0.000 
#
# Total GULP energy -495577.754275 kJ/mol
# GULP energy per Si atom -12389.443857 kJ/mol
# Density = 1.883303 g / cm^3
# Si number density = 18.875995 Si / 1000 Ang^3
#
#
#
# Elastic Constant Matrix: (Units=GPa)
#
#
# Indices 1 2 3 4 5 6 
#
# 1 71.5825 10.8710 66.8088 0.0000 0.0000 0.0000
# 2 10.8710 31.0947 33.3336 0.0000 0.0000 0.0000
# 3 66.8088 33.3336 225.5083 0.0000 0.0000 0.0000
# 4 0.0000 0.0000 0.0000 6.9211 0.0000 0.0000
# 5 0.0000 0.0000 0.0000 0.0000 4.8520 0.0000
# 6 0.0000 0.0000 0.0000 0.0000 0.0000 2.6665
#
#
#
# Elastic Compliance Matrix: (Units=1/GPa)
#
#
# Indices 1 2 3 4 5 6 
#
# 1 0.019323 -0.000735 -0.005616 0.000000 0.000000 0.000000
# 2 -0.000735 0.038243 -0.005435 0.000000 0.000000 0.000000
# 3 -0.005616 -0.005435 0.006902 0.000000 0.000000 0.000000
# 4 0.000000 0.000000 0.000000 0.144486 0.000000 0.000000
# 5 0.000000 0.000000 0.000000 0.000000 0.206102 0.000000
# 6 0.000000 0.000000 0.000000 0.000000 0.000000 0.375026
#
#
# Mechanical properties :
#
#
# Convention : Reuss Voigt Hill
#
# Bulk Modulus (GPa) = 24.45270 61.13471 42.79370
# Shear Modulus (GPa) = 6.04386 17.36605 11.70495
#
# Velocity S-wave (km/s) = 1.79132 3.03645 2.49288
# Velocity P-wave (km/s) = 4.15463 6.68964 5.56831
#
# Compressibility (1/GPa) = 0.04089527
#
# Stress axis : x y z
#
# Youngs Moduli (GPa) = 51.75192 26.14837 144.89431
#
# Poissons Ratio (x) = 0.01923 0.81371
# Poissons Ratio (y) = 0.03805 0.78752
# Poissons Ratio (z) = 0.29063 0.14212
#
# Static dielectric constant tensor:
#      x y z
#    x 3.058490 0.000000 0.000000 
#    y 0.000000 2.934740 0.000000 
#    z 0.000000 0.000000 4.477470 
# 
# 
# High freq. dielectric constant tensor:
#      x y z
#    x 1.662120 0.000000 0.000000 
#    y 0.000000 1.690860 0.000000 
#    z 0.000000 0.000000 1.770810 
# 
# From -- ./inp_files/17895.got.cif
#   From: 2010.03.12/outbox.cif.g09.slc.cpg/sg51_9_cif.got.tgz:17895.got - 2010.04.16 13:43:02.
