data_PCOD8206302
_publ_section_title
;
Structure prediction by ZEFSAII (Michael W. Deem and Ramdas Pophale) SiO2 
 PCOD8206302
Probable space group: P M M A
;
_chemical_formula_sum "Si O2"
_cell_formula_units_Z 64
_cell_length_a 26.850339
_cell_length_b 9.023385
_cell_length_c 16.951570
_cell_angle_alpha 90.000000
_cell_angle_beta 90.000000
_cell_angle_gamma 90.000000
_cell_volume 4107.042419
_symmetry_space_group_name_H-M "P M M A"
_symmetry_group_IT_number 51
_symmetry_cell_setting 'orthorhombic'
loop_
_space_group_symop_operation_xyz
x,y,z
1/2-x,-y,z
1/2+x,-y,-z
-x,y,-z
-x,-y,-z
1/2+x,y,-z
1/2-x,y,z
x,-y,z
loop_
_atom_site_type_symbol
_atom_site_label
_atom_site_fract_x
_atom_site_fract_y
_atom_site_fract_z
Si Si1 0.193837 0.175151 0.408958
Si Si2 0.061277 0.670102 0.666942
Si Si3 0.879888 0.329595 0.480674
Si Si4 0.573103 0.325048 0.860834
Si Si5 0.030508 0.825337 0.820040
Si Si6 0.558588 0.163097 0.013087
Si Si7 0.119853 0.173564 0.274548
Si Si8 0.952393 0.332664 0.618133
O O1 0.250000 0.236591 0.406503
O O2 0.166433 0.236352 0.486589
O O3 0.166506 0.226294 0.328224
O O4 0.192617 0.000000 0.415358
O O5 0.067222 0.500000 0.694276
O O6 0.106664 0.717337 0.609105
O O7 0.061163 0.773863 0.743584
O O8 0.011355 0.689863 0.615301
O O9 0.863748 0.500000 0.483598
O O10 0.929445 0.302140 0.532380
O O11 0.571451 0.500000 0.855302
O O12 0.521536 0.261061 0.826580
O O13 0.618882 0.261221 0.808557
O O14 0.582893 0.278063 0.951700
O O15 0.065892 0.788501 0.895627
O O16 0.018737 0.000000 0.816335
O O17 0.581741 0.000000 0.997744
O O18 0.500000 0.156252 0.000000
O O19 0.069326 0.214330 0.320394
O O20 0.121631 0.000000 0.257036
O O21 0.938948 0.500000 0.646533
#
# Coordination Sequence:
#
# PCOD8206302 Si02
#       8
#     8   8   8   8   8   8   8   8
#     4   9  19  35  51  66  86 112 143 182 226 266
#     4  10  18  27  41  61  88 119 148 181 216 253
#     4   9  18  30  44  64  87 113 146 179 218 264
#     4  11  19  27  41  61  85 113 147 183 215 253
#     4  10  19  29  41  58  84 118 152 184 216 249
#     4   8  16  29  41  55  79 113 149 182 213 245
#     4  10  18  28  44  64  86 113 145 181 219 262
#     4   9  16  27  41  58  84 116 146 177 213 252
#
# _framework density 15.582990000000001
#
# number of rings (size 3 to 8) (size 9 to 14) (size 15 to 20)
#    0.000    2.500    1.250    3.000    0.000    5.500 
#    0.000    0.000    0.000    3.750    0.000    0.000 
#    0.000    1.000    0.000    9.000    0.000    5.250 
#
# Total GULP energy -793279.614657 kJ/mol
# GULP energy per Si atom -12394.993979 kJ/mol
# Density = 1.554752 g / cm^3
# Si number density = 15.582990 Si / 1000 Ang^3
#
#
#
# Elastic Constant Matrix: (Units=GPa)
#
#
# Indices 1 2 3 4 5 6 
#
# 1 61.8781 29.6126 42.4111 0.0000 0.0000 0.0000
# 2 29.6126 73.8984 49.3483 0.0000 0.0000 0.0000
# 3 42.4111 49.3483 118.0958 0.0000 0.0000 0.0000
# 4 0.0000 0.0000 0.0000 26.4419 0.0000 0.0000
# 5 0.0000 0.0000 0.0000 0.0000 13.3942 0.0000
# 6 0.0000 0.0000 0.0000 0.0000 0.0000 15.1405
#
#
#
# Elastic Compliance Matrix: (Units=1/GPa)
#
#
# Indices 1 2 3 4 5 6 
#
# 1 0.022731 -0.005073 -0.006043 0.000000 0.000000 0.000000
# 2 -0.005073 0.019902 -0.006494 0.000000 0.000000 0.000000
# 3 -0.006043 -0.006494 0.013352 0.000000 0.000000 0.000000
# 4 0.000000 0.000000 0.000000 0.037819 0.000000 0.000000
# 5 0.000000 0.000000 0.000000 0.000000 0.074659 0.000000
# 6 0.000000 0.000000 0.000000 0.000000 0.000000 0.066048
#
#
# Mechanical properties :
#
#
# Convention : Reuss Voigt Hill
#
# Bulk Modulus (GPa) = 48.16314 55.17959 51.67136
# Shear Modulus (GPa) = 18.07323 19.82870 18.95097
#
# Velocity S-wave (km/s) = 3.40929 3.57102 3.49109
# Velocity P-wave (km/s) = 6.81706 7.24500 7.03428
#
# Compressibility (1/GPa) = 0.02076277
#
# Stress axis : x y z
#
# Youngs Moduli (GPa) = 43.99357 50.24653 74.89617
#
# Poissons Ratio (x) = 0.25490 0.45262
# Poissons Ratio (y) = 0.22318 0.48641
# Poissons Ratio (z) = 0.26587 0.32633
#
# Static dielectric constant tensor:
#      x y z
#    x 2.629270 0.000000 0.000000 
#    y 0.000000 2.970480 0.000000 
#    z 0.000000 0.000000 3.309790 
# 
# 
# High freq. dielectric constant tensor:
#      x y z
#    x 1.535370 0.000000 0.000000 
#    y 0.000000 1.601340 0.000000 
#    z 0.000000 0.000000 1.604590 
# 
# From -- ./inp_files/31010.got.cif
#   From: 2010.03.12/outbox.cif.g09.slc.cpg/sg51_16_cif.got.tgz:31010.got - 2010.04.16 13:43:02.
