data_PCOD8206631
_publ_section_title
;
Structure prediction by ZEFSAII (Michael W. Deem and Ramdas Pophale) SiO2 
 PCOD8206631
Probable space group: P M M A
;
_chemical_formula_sum "Si O2"
_cell_formula_units_Z 48
_cell_length_a 21.411907
_cell_length_b 9.010505
_cell_length_c 15.062744
_cell_angle_alpha 90.000000
_cell_angle_beta 90.000000
_cell_angle_gamma 90.000000
_cell_volume 2906.086758
_symmetry_space_group_name_H-M "P M M A"
_symmetry_group_IT_number 51
_symmetry_cell_setting 'orthorhombic'
loop_
_space_group_symop_operation_xyz
x,y,z
1/2-x,-y,z
1/2+x,-y,-z
-x,y,-z
-x,-y,-z
1/2+x,y,-z
1/2-x,y,z
x,-y,z
loop_
_atom_site_type_symbol
_atom_site_label
_atom_site_fract_x
_atom_site_fract_y
_atom_site_fract_z
Si Si1 0.821883 0.671504 0.703770
Si Si2 0.956850 0.825731 0.388224
Si Si3 0.082968 0.325194 0.446757
Si Si4 0.459494 0.828906 0.810805
Si Si5 0.900110 0.825738 0.850950
Si Si6 0.427406 0.667687 0.977540
O O1 0.750000 0.712028 0.689144
O O2 0.831890 0.500000 0.728501
O O3 0.856419 0.710339 0.611801
O O4 0.847829 0.767331 0.784490
O O5 0.907837 0.750179 0.456246
O O6 0.933283 0.798937 0.287866
O O7 0.023690 0.748529 0.399600
O O8 0.963810 0.000000 0.408285
O O9 0.071528 0.500000 0.457829
O O10 0.531949 0.779024 0.813996
O O11 0.417140 0.737615 0.880028
O O12 0.454425 0.000000 0.838036
O O13 0.892867 0.000000 0.859914
O O14 0.888455 0.755651 0.948124
O O15 0.403121 0.500000 0.975904
O O16 0.500000 0.679517 0.000000
#
# Coordination Sequence:
#
# PCOD8206631 Si02
#       6
#     8   8   8   8   8   8
#     4  10  21  35  49  66  92 126 162 200 238 277
#     4  10  18  29  46  67  95 125 153 188 238 288
#     4  10  19  30  45  66  91 121 158 196 236 282
#     4   9  17  28  43  66  94 124 152 184 230 280
#     4  10  18  30  46  65  92 123 156 192 231 278
#     4   9  17  27  42  65  92 122 152 183 223 271
#
# _framework density 16.517057000000001
#
# number of rings (size 3 to 8) (size 9 to 14) (size 15 to 20)
#    0.000    2.333    1.667    3.000    0.000    5.000 
#    0.000    0.000    0.000    0.000    0.000    1.167 
#    0.000    4.000    0.000    0.000    0.000    0.000 
#
# Total GULP energy -595154.717679 kJ/mol
# GULP energy per Si atom -12399.056618 kJ/mol
# Density = 1.647946 g / cm^3
# Si number density = 16.517057 Si / 1000 Ang^3
#
#
#
# Elastic Constant Matrix: (Units=GPa)
#
#
# Indices 1 2 3 4 5 6 
#
# 1 58.5490 38.2534 48.5095 0.0000 0.0000 0.0000
# 2 38.2534 104.3324 74.5455 0.0000 0.0000 0.0000
# 3 48.5095 74.5455 156.0230 0.0000 0.0000 0.0000
# 4 0.0000 0.0000 0.0000 34.6538 0.0000 0.0000
# 5 0.0000 0.0000 0.0000 0.0000 19.4480 0.0000
# 6 0.0000 0.0000 0.0000 0.0000 0.0000 14.3361
#
#
#
# Elastic Compliance Matrix: (Units=1/GPa)
#
#
# Indices 1 2 3 4 5 6 
#
# 1 0.024901 -0.005463 -0.005132 0.000000 0.000000 0.000000
# 2 -0.005463 0.015751 -0.005827 0.000000 0.000000 0.000000
# 3 -0.005132 -0.005827 0.010789 0.000000 0.000000 0.000000
# 4 0.000000 0.000000 0.000000 0.028857 0.000000 0.000000
# 5 0.000000 0.000000 0.000000 0.000000 0.051419 0.000000
# 6 0.000000 0.000000 0.000000 0.000000 0.000000 0.069754
#
#
# Mechanical properties :
#
#
# Convention : Reuss Voigt Hill
#
# Bulk Modulus (GPa) = 53.77238 71.28014 62.52626
# Shear Modulus (GPa) = 20.78875 24.19399 22.49137
#
# Velocity S-wave (km/s) = 3.55156 3.83141 3.69413
# Velocity P-wave (km/s) = 7.03167 7.92604 7.49221
#
# Compressibility (1/GPa) = 0.01859691
#
# Stress axis : x y z
#
# Youngs Moduli (GPa) = 40.15910 63.48656 92.68728
#
# Poissons Ratio (x) = 0.34684 0.47565
# Poissons Ratio (y) = 0.21940 0.54010
# Poissons Ratio (z) = 0.20609 0.36995
#
# Static dielectric constant tensor:
#      x y z
#    x 2.649720 0.000000 0.000000 
#    y 0.000000 3.207290 0.000000 
#    z 0.000000 0.000000 3.369950 
# 
# 
# High freq. dielectric constant tensor:
#      x y z
#    x 1.570110 0.000000 0.000000 
#    y 0.000000 1.650470 0.000000 
#    z 0.000000 0.000000 1.651610 
# 
# From -- ./inp_files/25491.got.cif
#   From: 2010.03.12/outbox.cif.g09.slc.cpg/sg51_13_cif.got.tgz:25491.got - 2010.04.16 13:43:02.
