data_PCOD8206495
_publ_section_title
;
Structure prediction by ZEFSAII (Michael W. Deem and Ramdas Pophale) SiO2 
 PCOD8206495
Probable space group: P M M A
;
_chemical_formula_sum "Si O2"
_cell_formula_units_Z 64
_cell_length_a 17.440505
_cell_length_b 17.123472
_cell_length_c 12.605359
_cell_angle_alpha 90.000000
_cell_angle_beta 90.000000
_cell_angle_gamma 90.000000
_cell_volume 3764.489610
_symmetry_space_group_name_H-M "P M M A"
_symmetry_group_IT_number 51
_symmetry_cell_setting 'orthorhombic'
loop_
_space_group_symop_operation_xyz
x,y,z
1/2-x,-y,z
1/2+x,-y,-z
-x,y,-z
-x,-y,-z
1/2+x,y,-z
1/2-x,y,z
x,-y,z
loop_
_atom_site_type_symbol
_atom_site_label
_atom_site_fract_x
_atom_site_fract_y
_atom_site_fract_z
Si Si1 0.087463 0.088957 0.654333
Si Si2 0.563746 0.270338 0.918028
Si Si3 0.024195 0.588187 0.820044
Si Si4 0.663198 0.911999 0.566845
Si Si5 0.664609 0.237388 0.300504
Si Si6 0.561853 0.818247 0.707937
Si Si7 0.336964 0.332009 0.909215
Si Si8 0.975030 0.677914 0.385261
O O1 0.102000 0.096823 0.528247
O O2 0.149716 0.144768 0.710461
O O3 0.002916 0.116276 0.688180
O O4 0.100070 0.000000 0.691938
O O5 0.537229 0.352196 0.867282
O O6 0.575277 0.201925 0.831827
O O7 0.500000 0.239524 0.000000
O O8 0.642485 0.289012 0.980287
O O9 0.995165 0.500000 0.836240
O O10 0.105404 0.597069 0.881940
O O11 0.032550 0.604816 0.694309
O O12 0.750000 0.892026 0.528793
O O13 0.640415 0.852441 0.660439
O O14 0.660022 0.000000 0.611406
O O15 0.750000 0.254962 0.341292
O O16 0.650184 0.269293 0.183379
O O17 0.606333 0.276071 0.385279
O O18 0.540655 0.737976 0.650054
O O19 0.250000 0.363341 0.914315
O O20 0.000000 0.645677 0.500000
#
# Coordination Sequence:
#
# PCOD8206495 Si02
#       8
#     8   8   8   8   8   8   8   8
#     4  10  18  28  45  68  92 120 153 188 229 275
#     4   9  18  32  50  70  90 117 154 191 229 272
#     4   9  18  31  47  70  97 120 145 182 225 268
#     4  10  20  31  44  67  96 122 151 190 237 283
#     4   9  17  30  47  67  93 120 149 191 233 269
#     4  10  18  30  48  66  89 121 156 193 228 268
#     4   9  18  32  50  71  92 116 148 187 231 273
#     4   9  17  29  46  68  92 121 156 185 215 265
#
# _framework density 17.000976000000001
#
# number of rings (size 3 to 8) (size 9 to 14) (size 15 to 20)
#    0.000    2.625    0.000    4.875    0.000    5.000 
#    0.000    0.000    0.000    7.500    0.000    0.000 
#    0.000    0.000    0.000    0.000    0.000    0.000 
#
# Total GULP energy -793277.183550 kJ/mol
# GULP energy per Si atom -12394.955993 kJ/mol
# Density = 1.696228 g / cm^3
# Si number density = 17.000976 Si / 1000 Ang^3
#
#
#
# Elastic Constant Matrix: (Units=GPa)
#
#
# Indices 1 2 3 4 5 6 
#
# 1 75.6048 23.3234 34.6408 0.0000 0.0000 0.0000
# 2 23.3234 79.7989 29.4350 0.0000 0.0000 0.0000
# 3 34.6408 29.4350 92.5391 0.0000 0.0000 0.0000
# 4 0.0000 0.0000 0.0000 18.0291 0.0000 0.0000
# 5 0.0000 0.0000 0.0000 0.0000 24.7012 0.0000
# 6 0.0000 0.0000 0.0000 0.0000 0.0000 15.7677
#
#
#
# Elastic Compliance Matrix: (Units=1/GPa)
#
#
# Indices 1 2 3 4 5 6 
#
# 1 0.016532 -0.002888 -0.005270 0.000000 0.000000 0.000000
# 2 -0.002888 0.014702 -0.003595 0.000000 0.000000 0.000000
# 3 -0.005270 -0.003595 0.013923 0.000000 0.000000 0.000000
# 4 0.000000 0.000000 0.000000 0.055466 0.000000 0.000000
# 5 0.000000 0.000000 0.000000 0.000000 0.040484 0.000000
# 6 0.000000 0.000000 0.000000 0.000000 0.000000 0.063421
#
#
# Mechanical properties :
#
#
# Convention : Reuss Voigt Hill
#
# Bulk Modulus (GPa) = 46.18947 46.97126 46.58037
# Shear Modulus (GPa) = 21.25396 22.40252 21.82824
#
# Velocity S-wave (km/s) = 3.53960 3.63398 3.58710
# Velocity P-wave (km/s) = 6.62817 6.73025 6.67941
#
# Compressibility (1/GPa) = 0.02164996
#
# Stress axis : x y z
#
# Youngs Moduli (GPa) = 60.48791 68.01893 71.82582
#
# Poissons Ratio (x) = 0.19644 0.37852
# Poissons Ratio (y) = 0.17469 0.25823
# Poissons Ratio (z) = 0.31877 0.24455
#
# Static dielectric constant tensor:
#      x y z
#    x 3.203690 0.000000 0.000000 
#    y 0.000000 3.043750 0.000000 
#    z 0.000000 0.000000 3.208660 
# 
# 
# High freq. dielectric constant tensor:
#      x y z
#    x 1.648160 0.000000 0.000000 
#    y 0.000000 1.639740 0.000000 
#    z 0.000000 0.000000 1.645500 
# 
# From -- ./inp_files/17722.got.cif
#   From: 2010.03.12/outbox.cif.g09.slc.cpg/sg51_9_cif.got.tgz:17722.got - 2010.04.16 13:43:02.
