data_PCOD8206181
_publ_section_title
;
Structure prediction by ZEFSAII (Michael W. Deem and Ramdas Pophale) SiO2 
 PCOD8206181
Probable space group: P M M A
;
_chemical_formula_sum "Si O2"
_cell_formula_units_Z 64
_cell_length_a 17.730875
_cell_length_b 17.951631
_cell_length_c 12.552871
_cell_angle_alpha 90.000000
_cell_angle_beta 90.000000
_cell_angle_gamma 90.000000
_cell_volume 3995.555307
_symmetry_space_group_name_H-M "P M M A"
_symmetry_group_IT_number 51
_symmetry_cell_setting 'orthorhombic'
loop_
_space_group_symop_operation_xyz
x,y,z
1/2-x,-y,z
1/2+x,-y,-z
-x,y,-z
-x,-y,-z
1/2+x,y,-z
1/2-x,y,z
x,-y,z
loop_
_atom_site_type_symbol
_atom_site_label
_atom_site_fract_x
_atom_site_fract_y
_atom_site_fract_z
Si Si1 0.164067 0.319807 0.027611
Si Si2 0.922984 0.088235 0.675522
Si Si3 0.604285 0.187332 0.874475
Si Si4 0.543279 0.279233 0.153902
Si Si5 0.080019 0.850403 0.718646
Si Si6 0.956468 0.418428 0.890164
Si Si7 0.663913 0.084438 0.464172
Si Si8 0.916715 0.918353 0.048946
O O1 0.250000 0.335313 0.990329
O O2 0.111076 0.292461 0.929618
O O3 0.162216 0.256611 0.120165
O O4 0.129072 0.393814 0.081770
O O5 0.886221 0.138245 0.768698
O O6 0.882580 0.110128 0.566669
O O7 0.008790 0.113008 0.659564
O O8 0.916133 0.000000 0.702792
O O9 0.518831 0.219934 0.890552
O O10 0.629742 0.136834 0.974078
O O11 0.574766 0.239389 0.261003
O O12 0.500752 0.357136 0.181929
O O13 0.149004 0.863790 0.638528
O O14 0.089252 0.891333 0.830589
O O15 0.955095 0.500000 0.833927
O O16 0.000000 0.423771 0.000000
O O17 0.750000 0.092498 0.497132
O O18 0.642878 0.000000 0.433088
O O19 0.879884 0.000000 0.045159
O O20 0.000000 0.922215 0.000000
#
# Coordination Sequence:
#
# PCOD8206181 Si02
#       8
#     8   8   8   8   8   8   8   8
#     4  10  18  27  41  64  96 127 154 184 225 277
#     4  10  19  31  51  68  82 114 164 213 245 275
#     4  10  17  30  45  66  91 121 155 200 238 281
#     4   9  17  29  46  65  93 121 152 186 232 279
#     4  11  19  30  49  70  89 116 157 203 237 284
#     4   8  15  28  46  65  89 122 154 182 216 264
#     4  10  22  37  47  60  90 126 158 200 252 292
#     4  11  17  24  43  69  90 115 150 197 243 274
#
# _framework density 16.017797999999999
#
# number of rings (size 3 to 8) (size 9 to 14) (size 15 to 20)
#    0.000    2.125    3.750    3.000    0.000    2.250 
#    0.000    0.000    0.000    1.125    0.000    0.000 
#    0.000   18.000    0.000    2.625    0.000    0.625 
#
# Total GULP energy -792883.037010 kJ/mol
# GULP energy per Si atom -12388.797453 kJ/mol
# Density = 1.598134 g / cm^3
# Si number density = 16.017798 Si / 1000 Ang^3
#
#
#
# Elastic Constant Matrix: (Units=GPa)
#
#
# Indices 1 2 3 4 5 6 
#
# 1 58.0097 28.7502 27.0618 0.0000 0.0000 0.0000
# 2 28.7502 122.5610 38.3969 0.0000 0.0000 0.0000
# 3 27.0618 38.3969 74.4876 0.0000 0.0000 0.0000
# 4 0.0000 0.0000 0.0000 14.2574 0.0000 0.0000
# 5 0.0000 0.0000 0.0000 0.0000 8.5812 0.0000
# 6 0.0000 0.0000 0.0000 0.0000 0.0000 12.7244
#
#
#
# Elastic Compliance Matrix: (Units=1/GPa)
#
#
# Indices 1 2 3 4 5 6 
#
# 1 0.021717 -0.003128 -0.006278 0.000000 0.000000 0.000000
# 2 -0.003128 0.010181 -0.004112 0.000000 0.000000 0.000000
# 3 -0.006278 -0.004112 0.017825 0.000000 0.000000 0.000000
# 4 0.000000 0.000000 0.000000 0.070139 0.000000 0.000000
# 5 0.000000 0.000000 0.000000 0.000000 0.116533 0.000000
# 6 0.000000 0.000000 0.000000 0.000000 0.000000 0.078589
#
#
# Mechanical properties :
#
#
# Convention : Reuss Voigt Hill
#
# Bulk Modulus (GPa) = 44.07394 49.27513 46.67453
# Shear Modulus (GPa) = 14.30275 17.83589 16.06932
#
# Velocity S-wave (km/s) = 2.99143 3.34054 3.17080
# Velocity P-wave (km/s) = 6.28545 6.76080 6.52746
#
# Compressibility (1/GPa) = 0.02268915
#
# Stress axis : x y z
#
# Youngs Moduli (GPa) = 46.04651 98.22142 56.09978
#
# Poissons Ratio (x) = 0.30720 0.35218
# Poissons Ratio (y) = 0.14402 0.23067
# Poissons Ratio (z) = 0.28907 0.40387
#
# Static dielectric constant tensor:
#      x y z
#    x 2.926320 0.000000 0.000000 
#    y 0.000000 3.528900 0.000000 
#    z 0.000000 0.000000 2.865520 
# 
# 
# High freq. dielectric constant tensor:
#      x y z
#    x 1.595880 0.000000 0.000000 
#    y 0.000000 1.611520 0.000000 
#    z 0.000000 0.000000 1.584450 
# 
# From -- ./inp_files/17693.got.cif
#   From: 2010.03.12/outbox.cif.g09.slc.cpg/sg51_9_cif.got.tgz:17693.got - 2010.04.16 13:43:02.
