data_PCOD8206515
_publ_section_title
;
Structure prediction by ZEFSAII (Michael W. Deem and Ramdas Pophale) SiO2 
 PCOD8206515
Probable space group: P M M A
;
_chemical_formula_sum "Si O2"
_cell_formula_units_Z 56
_cell_length_a 17.587231
_cell_length_b 9.101044
_cell_length_c 18.582965
_cell_angle_alpha 90.000000
_cell_angle_beta 90.000000
_cell_angle_gamma 90.000000
_cell_volume 2974.429576
_symmetry_space_group_name_H-M "P M M A"
_symmetry_group_IT_number 51
_symmetry_cell_setting 'orthorhombic'
loop_
_space_group_symop_operation_xyz
x,y,z
1/2-x,-y,z
1/2+x,-y,-z
-x,y,-z
-x,-y,-z
1/2+x,y,-z
1/2-x,y,z
x,-y,z
loop_
_atom_site_type_symbol
_atom_site_label
_atom_site_fract_x
_atom_site_fract_y
_atom_site_fract_z
Si Si1 0.538677 0.826125 0.673267
Si Si2 0.892931 0.174691 0.413323
Si Si3 0.664607 0.325913 0.934551
Si Si4 0.104393 0.328416 0.916359
Si Si5 0.462669 0.673806 0.173599
Si Si6 0.750000 0.173939 0.325415
Si Si7 0.750000 0.668858 0.177758
Si Si8 0.335452 0.174295 0.435298
O O1 0.471684 0.768668 0.620706
O O2 0.532169 0.749347 0.749623
O O3 0.618113 0.780090 0.635947
O O4 0.532925 0.000000 0.684965
O O5 0.824412 0.236332 0.364810
O O6 0.880027 0.234798 0.494337
O O7 0.893356 0.000000 0.414585
O O8 0.750000 0.259880 0.928355
O O9 0.670334 0.500000 0.944025
O O10 0.617701 0.284644 0.863046
O O11 0.620429 0.260551 0.004430
O O12 0.090395 0.500000 0.925630
O O13 0.176614 0.292513 0.868158
O O14 0.029516 0.262630 0.877961
O O15 0.471470 0.500000 0.184662
O O16 0.750000 0.224720 0.244443
O O17 0.750000 0.000000 0.327841
O O18 0.750000 0.500000 0.202939
O O19 0.250000 0.240254 0.430803
O O20 0.330567 0.000000 0.441458
#
# Coordination Sequence:
#
# PCOD8206515 Si02
#       8
#     8   8   8   8   8   4   4   8
#     4  10  20  32  49  73  99 127 158 196 241 285
#     4   9  16  29  48  71  96 122 158 200 237 275
#     4   9  16  29  50  74  95 120 162 208 239 269
#     4   9  16  29  48  71  96 122 158 200 237 275
#     4  10  20  32  49  73  99 127 158 196 241 285
#     4  10  18  28  46  70  97 126 152 188 237 284
#     4  10  18  28  46  70  97 126 152 188 237 284
#     4   9  16  29  50  74  95 120 162 208 239 269
#
# _framework density 18.827138999999999
#
# number of rings (size 3 to 8) (size 9 to 14) (size 15 to 20)
#    0.000    2.571    1.429    1.714    0.000    4.000 
#    0.000    0.000    0.000    5.143    0.000    0.000 
#    0.000    0.000    0.000    0.000    0.000    0.000 
#
# Total GULP energy -694165.777400 kJ/mol
# GULP energy per Si atom -12395.817454 kJ/mol
# Density = 1.878429 g / cm^3
# Si number density = 18.827139 Si / 1000 Ang^3
#
#
#
# Elastic Constant Matrix: (Units=GPa)
#
#
# Indices 1 2 3 4 5 6 
#
# 1 160.7895 18.6301 81.7051 0.0000 0.0000 0.0000
# 2 18.6301 11.7699 19.8081 0.0000 0.0000 0.0000
# 3 81.7051 19.8081 112.0129 0.0000 0.0000 0.0000
# 4 0.0000 0.0000 0.0000 27.6099 0.0000 0.0000
# 5 0.0000 0.0000 0.0000 0.0000 57.5389 0.0000
# 6 0.0000 0.0000 0.0000 0.0000 0.0000 6.8910
#
#
#
# Elastic Compliance Matrix: (Units=1/GPa)
#
#
# Indices 1 2 3 4 5 6 
#
# 1 0.010093 -0.005105 -0.006459 0.000000 0.000000 0.000000
# 2 -0.005105 0.123543 -0.018123 0.000000 0.000000 0.000000
# 3 -0.006459 -0.018123 0.016844 0.000000 0.000000 0.000000
# 4 0.000000 0.000000 0.000000 0.036219 0.000000 0.000000
# 5 0.000000 0.000000 0.000000 0.000000 0.017380 0.000000
# 6 0.000000 0.000000 0.000000 0.000000 0.000000 0.145117
#
#
# Mechanical properties :
#
#
# Convention : Reuss Voigt Hill
#
# Bulk Modulus (GPa) = 10.97637 58.31766 34.64702
# Shear Modulus (GPa) = 11.39108 29.36991 20.38049
#
# Velocity S-wave (km/s) = 2.46241 3.95394 3.29372
# Velocity P-wave (km/s) = 3.73194 7.20329 5.73650
#
# Compressibility (1/GPa) = 0.09110477
#
# Stress axis : x y z
#
# Youngs Moduli (GPa) = 99.07666 8.09434 59.36795
#
# Poissons Ratio (x) = 0.04132 0.38348
# Poissons Ratio (y) = 0.50580 1.07594
# Poissons Ratio (z) = 0.63998 0.14670
#
# Static dielectric constant tensor:
#      x y z
#    x 3.801730 0.000000 0.000000 
#    y 0.000000 2.779250 0.000000 
#    z 0.000000 0.000000 3.524920 
# 
# 
# High freq. dielectric constant tensor:
#      x y z
#    x 1.751590 0.000000 0.000000 
#    y 0.000000 1.652740 0.000000 
#    z 0.000000 0.000000 1.743500 
# 
# From -- ./inp_files/33582.got.cif
#   From: 2010.03.12/outbox.cif.g09.slc.cpg/sg51_17_cif.got.tgz:33582.got - 2010.04.16 13:43:02.
