data_PCOD8206602
_publ_section_title
;
Structure prediction by ZEFSAII (Michael W. Deem and Ramdas Pophale) SiO2 
 PCOD8206602
Probable space group: P M M A
;
_chemical_formula_sum "Si O2"
_cell_formula_units_Z 64
_cell_length_a 8.914529
_cell_length_b 23.332604
_cell_length_c 19.059213
_cell_angle_alpha 90.000000
_cell_angle_beta 90.000000
_cell_angle_gamma 90.000000
_cell_volume 3964.300580
_symmetry_space_group_name_H-M "P M M A"
_symmetry_group_IT_number 51
_symmetry_cell_setting 'orthorhombic'
loop_
_space_group_symop_operation_xyz
x,y,z
1/2-x,-y,z
1/2+x,-y,-z
-x,y,-z
-x,-y,-z
1/2+x,y,-z
1/2-x,y,z
x,-y,z
loop_
_atom_site_type_symbol
_atom_site_label
_atom_site_fract_x
_atom_site_fract_y
_atom_site_fract_z
Si Si1 0.421832 0.340698 0.154825
Si Si2 0.572281 0.830097 0.201771
Si Si3 0.427635 0.063535 0.710136
Si Si4 0.573748 0.254936 0.428435
Si Si5 0.426787 0.225837 0.074846
Si Si6 0.925329 0.121462 0.429690
Si Si7 0.074413 0.434805 0.928001
Si Si8 0.574187 0.730355 0.711967
O O1 0.250000 0.357651 0.142750
O O2 0.467638 0.288452 0.104058
O O3 0.522123 0.395585 0.136578
O O4 0.451391 0.322933 0.235297
O O5 0.750000 0.821355 0.196148
O O6 0.528119 0.894063 0.226612
O O7 0.495840 0.821630 0.126501
O O8 0.510372 0.785975 0.259102
O O9 0.250000 0.061608 0.703105
O O10 0.492770 0.087170 0.636514
O O11 0.492729 0.000000 0.725381
O O12 0.500000 0.278660 0.500000
O O13 0.750000 0.267851 0.429214
O O14 0.536099 0.188108 0.419739
O O15 0.495993 0.287177 0.362884
O O16 0.250000 0.216450 0.070547
O O17 0.500000 0.216992 0.000000
O O18 0.750000 0.111871 0.436984
O O19 0.000000 0.096871 0.500000
O O20 0.250000 0.428901 0.937673
O O21 0.025997 0.500000 0.911566
O O22 0.000000 0.412987 0.000000
O O23 0.750000 0.744617 0.705463
#
# Coordination Sequence:
#
# PCOD8206602 Si02
#       8
#     8   8   8   8   8   8   8   8
#     4   9  19  32  47  69  96 125 158 193 231 269
#     4  10  18  31  49  68  89 117 150 184 230 283
#     4   9  17  30  47  65  87 115 149 188 227 274
#     4  10  18  29  45  67  92 123 157 190 232 282
#     4  10  20  33  49  72  96 119 147 186 232 277
#     4   9  17  29  43  63  87 115 149 184 221 267
#     4  10  20  32  47  68  96 132 169 200 230 265
#     4  10  19  31  47  68  94 123 155 195 236 277
#
# _framework density 16.144082999999998
#
# number of rings (size 3 to 8) (size 9 to 14) (size 15 to 20)
#    0.000    2.375    1.250    3.000    0.000    5.500 
#    0.000    0.000    0.000    3.375    0.000    0.000 
#    0.000    0.500    0.000    1.625    0.000    2.375 
#
# Total GULP energy -793617.305442 kJ/mol
# GULP energy per Si atom -12400.270398 kJ/mol
# Density = 1.610734 g / cm^3
# Si number density = 16.144083 Si / 1000 Ang^3
#
#
#
# Elastic Constant Matrix: (Units=GPa)
#
#
# Indices 1 2 3 4 5 6 
#
# 1 69.5690 34.9987 50.6250 0.0000 0.0000 0.0000
# 2 34.9987 73.3046 50.7344 0.0000 0.0000 0.0000
# 3 50.6250 50.7344 142.1043 0.0000 0.0000 0.0000
# 4 0.0000 0.0000 0.0000 23.5527 0.0000 0.0000
# 5 0.0000 0.0000 0.0000 0.0000 32.4237 0.0000
# 6 0.0000 0.0000 0.0000 0.0000 0.0000 17.0228
#
#
#
# Elastic Compliance Matrix: (Units=1/GPa)
#
#
# Indices 1 2 3 4 5 6 
#
# 1 0.021578 -0.006617 -0.005325 0.000000 0.000000 0.000000
# 2 -0.006617 0.020148 -0.004836 0.000000 0.000000 0.000000
# 3 -0.005325 -0.004836 0.010661 0.000000 0.000000 0.000000
# 4 0.000000 0.000000 0.000000 0.042458 0.000000 0.000000
# 5 0.000000 0.000000 0.000000 0.000000 0.030842 0.000000
# 6 0.000000 0.000000 0.000000 0.000000 0.000000 0.058745
#
#
# Mechanical properties :
#
#
# Convention : Reuss Voigt Hill
#
# Bulk Modulus (GPa) = 53.10368 61.96601 57.53485
# Shear Modulus (GPa) = 22.29525 24.50782 23.40153
#
# Velocity S-wave (km/s) = 3.72024 3.90047 3.81142
# Velocity P-wave (km/s) = 7.17067 7.66494 7.42192
#
# Compressibility (1/GPa) = 0.01883109
#
# Stress axis : x y z
#
# Youngs Moduli (GPa) = 46.34382 49.63304 93.80321
#
# Poissons Ratio (x) = 0.32841 0.49948
# Poissons Ratio (y) = 0.30665 0.45363
# Poissons Ratio (z) = 0.24677 0.24002
#
# Static dielectric constant tensor:
#      x y z
#    x 3.027430 0.000000 0.000000 
#    y 0.000000 2.920140 0.000000 
#    z 0.000000 0.000000 3.131820 
# 
# 
# High freq. dielectric constant tensor:
#      x y z
#    x 1.623930 0.000000 0.000000 
#    y 0.000000 1.584390 0.000000 
#    z 0.000000 0.000000 1.622860 
# 
# From -- ./inp_files/28596.got.cif
#   From: 2010.03.12/outbox.cif.g09.slc.cpg/sg51_15_cif.got.tgz:28596.got - 2010.04.16 13:43:02.
