data_PCOD8206318
_publ_section_title
;
Structure prediction by ZEFSAII (Michael W. Deem and Ramdas Pophale) SiO2 
 PCOD8206318
Probable space group: P M M A
;
_chemical_formula_sum "Si O2"
_cell_formula_units_Z 60
_cell_length_a 8.949714
_cell_length_b 24.079014
_cell_length_c 18.662059
_cell_angle_alpha 90.000000
_cell_angle_beta 90.000000
_cell_angle_gamma 90.000000
_cell_volume 4021.679102
_symmetry_space_group_name_H-M "P M M A"
_symmetry_group_IT_number 51
_symmetry_cell_setting 'orthorhombic'
loop_
_space_group_symop_operation_xyz
x,y,z
1/2-x,-y,z
1/2+x,-y,-z
-x,y,-z
-x,-y,-z
1/2+x,y,-z
1/2-x,y,z
x,-y,z
loop_
_atom_site_type_symbol
_atom_site_label
_atom_site_fract_x
_atom_site_fract_y
_atom_site_fract_z
Si Si1 0.578070 0.000000 0.425588
Si Si2 0.927023 0.668248 0.077898
Si Si3 0.424648 0.775501 0.833231
Si Si4 0.425158 0.833857 0.291071
Si Si5 0.074957 0.439761 0.076977
Si Si6 0.578134 0.061702 0.802140
Si Si7 0.926146 0.878923 0.422392
Si Si8 0.424557 0.118552 0.924235
O O1 0.500000 0.000000 0.500000
O O2 0.537452 0.940847 0.388523
O O3 0.750000 0.000000 0.444062
O O4 0.750000 0.664002 0.068139
O O5 0.971854 0.717338 0.131731
O O6 0.992534 0.612004 0.115491
O O7 0.000000 0.678516 0.000000
O O8 0.250000 0.778222 0.815720
O O9 0.512538 0.784116 0.758589
O O10 0.471527 0.822775 0.889581
O O11 0.250000 0.825524 0.301505
O O12 0.468442 0.892926 0.256204
O O13 0.504140 0.833383 0.368644
O O14 0.250000 0.426686 0.069139
O O15 0.051055 0.500000 0.115923
O O16 0.000000 0.443495 0.000000
O O17 0.750000 0.069660 0.824069
O O18 0.480021 0.068987 0.873406
O O19 0.548156 0.000000 0.770698
O O20 0.750000 0.868655 0.429390
O O21 0.000000 0.871259 0.500000
O O22 0.250000 0.113579 0.935124
O O23 0.500000 0.112483 0.000000
#
# Coordination Sequence:
#
# PCOD8206318 Si02
#       8
#     4   8   8   8   8   8   8   8
#     4   8  16  28  42  62  84 106 127 152 187 228
#     4  10  18  27  42  62  83 110 144 182 221 255
#     4   9  19  33  45  60  82 107 137 172 209 250
#     4  10  20  32  48  66  83 107 133 164 206 247
#     4   9  16  25  37  55  81 111 142 177 215 252
#     4   9  19  34  47  60  78 100 127 159 198 247
#     4  10  19  32  48  67  89 110 134 162 195 240
#     4  10  19  31  46  61  77  98 126 164 207 249
#
# _framework density 14.919143
#
# number of rings (size 3 to 8) (size 9 to 14) (size 15 to 20)
#    0.000    2.533    0.000    3.200    0.933    4.000 
#    0.000    0.000    0.000    0.000    0.000    0.000 
#    0.000    0.000    0.000    0.000    0.000    0.667 
#
# Total GULP energy -743537.196167 kJ/mol
# GULP energy per Si atom -12392.286603 kJ/mol
# Density = 1.488519 g / cm^3
# Si number density = 14.919143 Si / 1000 Ang^3
#
#
#
# Elastic Constant Matrix: (Units=GPa)
#
#
# Indices 1 2 3 4 5 6 
#
# 1 65.8476 33.0300 36.9075 0.0000 0.0000 0.0000
# 2 33.0300 90.7585 31.7056 0.0000 0.0000 0.0000
# 3 36.9075 31.7056 71.9807 0.0000 0.0000 0.0000
# 4 0.0000 0.0000 0.0000 12.1979 0.0000 0.0000
# 5 0.0000 0.0000 0.0000 0.0000 22.1512 0.0000
# 6 0.0000 0.0000 0.0000 0.0000 0.0000 21.9541
#
#
#
# Elastic Compliance Matrix: (Units=1/GPa)
#
#
# Indices 1 2 3 4 5 6 
#
# 1 0.023116 -0.005049 -0.009629 0.000000 0.000000 0.000000
# 2 -0.005049 0.014125 -0.003633 0.000000 0.000000 0.000000
# 3 -0.009629 -0.003633 0.020430 0.000000 0.000000 0.000000
# 4 0.000000 0.000000 0.000000 0.081981 0.000000 0.000000
# 5 0.000000 0.000000 0.000000 0.000000 0.045144 0.000000
# 6 0.000000 0.000000 0.000000 0.000000 0.000000 0.045550
#
#
# Mechanical properties :
#
#
# Convention : Reuss Voigt Hill
#
# Bulk Modulus (GPa) = 47.50633 47.98589 47.74611
# Shear Modulus (GPa) = 18.24928 19.72354 18.98641
#
# Velocity S-wave (km/s) = 3.50124 3.63992 3.57125
# Velocity P-wave (km/s) = 6.94669 7.06393 7.00556
#
# Compressibility (1/GPa) = 0.02104983
#
# Stress axis : x y z
#
# Youngs Moduli (GPa) = 43.25995 70.79724 48.94826
#
# Poissons Ratio (x) = 0.35746 0.47130
# Poissons Ratio (y) = 0.21842 0.17782
# Poissons Ratio (z) = 0.41653 0.25719
#
# Static dielectric constant tensor:
#      x y z
#    x 2.951630 0.000000 0.000000 
#    y 0.000000 3.044980 0.000000 
#    z 0.000000 0.000000 2.620000 
# 
# 
# High freq. dielectric constant tensor:
#      x y z
#    x 1.588150 0.000000 0.000000 
#    y 0.000000 1.550490 0.000000 
#    z 0.000000 0.000000 1.535810 
# 
# From -- ./inp_files/28583.got.cif
#   From: 2010.03.12/outbox.cif.g09.slc.cpg/sg51_15_cif.got.tgz:28583.got - 2010.04.16 13:43:02.
