data_PCOD8206317
_publ_section_title
;
Structure prediction by ZEFSAII (Michael W. Deem and Ramdas Pophale) SiO2 
 PCOD8206317
Probable space group: P M M A
;
_chemical_formula_sum "Si O2"
_cell_formula_units_Z 64
_cell_length_a 28.627606
_cell_length_b 9.494663
_cell_length_c 15.682671
_cell_angle_alpha 90.000000
_cell_angle_beta 90.000000
_cell_angle_gamma 90.000000
_cell_volume 4262.698516
_symmetry_space_group_name_H-M "P M M A"
_symmetry_group_IT_number 51
_symmetry_cell_setting 'orthorhombic'
loop_
_space_group_symop_operation_xyz
x,y,z
1/2-x,-y,z
1/2+x,-y,-z
-x,y,-z
-x,-y,-z
1/2+x,y,-z
1/2-x,y,z
x,-y,z
loop_
_atom_site_type_symbol
_atom_site_label
_atom_site_fract_x
_atom_site_fract_y
_atom_site_fract_z
Si Si1 0.801962 0.838837 0.913460
Si Si2 0.698388 0.661977 0.079335
Si Si3 0.554456 0.836602 0.001864
Si Si4 0.549866 0.332078 0.316187
Si Si5 0.395199 0.837674 0.173050
Si Si6 0.444697 0.653790 0.501834
Si Si7 0.102534 0.335451 0.848910
Si Si8 0.944034 0.331578 0.682853
O O1 0.750000 0.803300 0.878246
O O2 0.840003 0.809065 0.840510
O O3 0.805454 0.000000 0.943501
O O4 0.814387 0.748383 0.995681
O O5 0.750000 0.703465 0.115143
O O6 0.697576 0.500000 0.051530
O O7 0.658510 0.691540 0.149858
O O8 0.577940 0.744837 0.074680
O O9 0.563849 0.000000 0.022235
O O10 0.500000 0.800997 0.000000
O O11 0.576385 0.794224 0.911281
O O12 0.551149 0.500000 0.324506
O O13 0.567660 0.268037 0.408108
O O14 0.583501 0.276926 0.241217
O O15 0.496992 0.284229 0.295535
O O16 0.409618 0.739419 0.250604
O O17 0.405111 0.000000 0.196299
O O18 0.500000 0.634950 0.500000
O O19 0.420902 0.500000 0.502880
O O20 0.429735 0.726530 0.412270
O O21 0.090481 0.500000 0.858934
O O22 0.939065 0.500000 0.687466
#
# Coordination Sequence:
#
# PCOD8206317 Si02
#       8
#     8   8   8   8   8   8   8   8
#     4   9  17  30  46  59  73 101 142 178 204 238
#     4   9  17  28  41  59  82 104 130 170 214 244
#     4  10  20  31  40  54  83 118 142 161 195 241
#     4   8  14  25  41  62  84 105 136 173 202 234
#     4  10  19  29  40  58  83 109 134 165 205 243
#     4   7  11  22  40  60  80 102 132 171 205 231
#     4  10  18  27  42  62  81 106 138 170 202 239
#     4   9  16  26  43  63  81 106 139 170 200 239
#
# _framework density 15.013965000000001
#
# number of rings (size 3 to 8) (size 9 to 14) (size 15 to 20)
#    0.000    3.000    1.250    2.250    0.000    1.250 
#    0.000    0.000    0.000    4.125    0.000    0.875 
#    0.000    3.000    0.000    0.000    0.000    0.000 
#
# Total GULP energy -792937.167600 kJ/mol
# GULP energy per Si atom -12389.643244 kJ/mol
# Density = 1.497979 g / cm^3
# Si number density = 15.013965 Si / 1000 Ang^3
#
#
#
# Elastic Constant Matrix: (Units=GPa)
#
#
# Indices 1 2 3 4 5 6 
#
# 1 91.5743 27.0186 62.9863 0.0000 0.0000 0.0000
# 2 27.0186 29.4547 36.2278 0.0000 0.0000 0.0000
# 3 62.9863 36.2278 128.9002 0.0000 0.0000 0.0000
# 4 0.0000 0.0000 0.0000 -1.1182 0.0000 0.0000
# 5 0.0000 0.0000 0.0000 0.0000 9.8061 0.0000
# 6 0.0000 0.0000 0.0000 0.0000 0.0000 13.5964
#
#
#
# Elastic Compliance Matrix: (Units=1/GPa)
#
#
# Indices 1 2 3 4 5 6 
#
# 1 0.017764 -0.008587 -0.006267 0.000000 0.000000 0.000000
# 2 -0.008587 0.056037 -0.011554 0.000000 0.000000 0.000000
# 3 -0.006267 -0.011554 0.014067 0.000000 0.000000 0.000000
# 4 0.000000 0.000000 0.000000 -0.894298 0.000000 0.000000
# 5 0.000000 0.000000 0.000000 0.000000 0.101978 0.000000
# 6 0.000000 0.000000 0.000000 0.000000 0.000000 0.073549
#
#
# Mechanical properties :
#
#
# Convention : Reuss Voigt Hill
#
# Bulk Modulus (GPa) = 28.52732 55.82163 42.17447
# Shear Modulus (GPa) = -8.82764 12.70329 1.93783
#
# Velocity S-wave (km/s) = -2.42742 2.91193 1.13731
# Velocity P-wave (km/s) = 3.34444 6.96895 5.46588
#
# Compressibility (1/GPa) = 0.03505412
#
# Stress axis : x y z
#
# Youngs Moduli (GPa) = 56.29321 17.84524 71.08614
#
# Poissons Ratio (x) = 0.15323 0.44550
# Poissons Ratio (y) = 0.48338 0.82130
# Poissons Ratio (z) = 0.35279 0.20618
#
# Static dielectric constant tensor:
#      x y z
#    x 3.033040 0.000000 0.000000 
#    y 0.000000 2.689190 0.000000 
#    z 0.000000 0.000000 3.097270 
# 
# 
# High freq. dielectric constant tensor:
#      x y z
#    x 1.563150 0.000000 0.000000 
#    y 0.000000 1.551520 0.000000 
#    z 0.000000 0.000000 1.566550 
# 
# From -- ./inp_files/26575.got.cif
#   From: 2010.03.12/outbox.cif.g09.slc.cpg/sg51_14_cif.got.tgz:26575.got - 2010.04.16 13:43:02.
