data_PCOD8206983
_publ_section_title
;
Structure prediction by ZEFSAII (Michael W. Deem and Ramdas Pophale) SiO2 
 PCOD8206983
Probable space group: P M M A
;
_chemical_formula_sum "Si O2"
_cell_formula_units_Z 48
_cell_length_a 17.440842
_cell_length_b 11.765504
_cell_length_c 13.745227
_cell_angle_alpha 90.000000
_cell_angle_beta 90.000000
_cell_angle_gamma 90.000000
_cell_volume 2820.524653
_symmetry_space_group_name_H-M "P M M A"
_symmetry_group_IT_number 51
_symmetry_cell_setting 'orthorhombic'
loop_
_space_group_symop_operation_xyz
x,y,z
1/2-x,-y,z
1/2+x,-y,-z
-x,y,-z
-x,-y,-z
1/2+x,y,-z
1/2-x,y,z
x,-y,z
loop_
_atom_site_type_symbol
_atom_site_label
_atom_site_fract_x
_atom_site_fract_y
_atom_site_fract_z
Si Si1 0.884914 0.131566 0.384606
Si Si2 0.048109 0.870483 0.298388
Si Si3 0.663431 0.262761 0.200717
Si Si4 0.535111 0.132110 0.102103
Si Si5 0.159139 0.500000 0.502966
Si Si6 0.839895 0.739766 0.576874
Si Si7 0.341169 0.500000 0.720937
O O1 0.836861 0.194277 0.301572
O O2 0.859907 0.178403 0.488017
O O3 0.975464 0.149721 0.368584
O O4 0.863204 0.000000 0.379093
O O5 0.025828 0.842853 0.187219
O O6 0.115806 0.785182 0.328294
O O7 0.077152 0.000000 0.307980
O O8 0.750000 0.267054 0.160790
O O9 0.612031 0.203992 0.118539
O O10 0.630722 0.389094 0.220930
O O11 0.558399 0.000000 0.102227
O O12 0.500000 0.170607 0.000000
O O13 0.250000 0.500000 0.511735
O O14 0.131418 0.611995 0.445759
O O15 0.123643 0.500000 0.611790
O O16 0.750000 0.742843 0.599536
O O17 0.250000 0.500000 0.712058
#
# Coordination Sequence:
#
# PCOD8206983 Si02
#       7
#     8   8   8   8   4   8   4
#     4  10  19  30  46  70 103 134 158 197 250 295
#     4   9  19  34  49  69  99 130 161 200 249 298
#     4  10  18  30  52  78 101 127 167 210 246 294
#     4   9  19  37  57  74  99 132 160 201 265 314
#     4   9  18  32  46  66 101 141 170 201 244 280
#     4  11  20  31  48  69  98 135 172 201 231 286
#     4   9  16  30  48  71 105 136 161 203 258 288
#
# _framework density 17.01811
#
# number of rings (size 3 to 8) (size 9 to 14) (size 15 to 20)
#    0.000    2.333    1.667    3.000    0.000    4.667 
#    0.000    6.250    0.000    3.000    0.000    3.500 
#    0.000    0.000    0.000    0.000    0.000    0.000 
#
# Total GULP energy -595258.678639 kJ/mol
# GULP energy per Si atom -12401.222472 kJ/mol
# Density = 1.697938 g / cm^3
# Si number density = 17.018110 Si / 1000 Ang^3
#
#
#
# Elastic Constant Matrix: (Units=GPa)
#
#
# Indices 1 2 3 4 5 6 
#
# 1 76.2039 51.6620 48.9667 0.0000 0.0000 0.0000
# 2 51.6620 124.4351 48.7491 0.0000 0.0000 0.0000
# 3 48.9667 48.7491 89.3399 0.0000 0.0000 0.0000
# 4 0.0000 0.0000 0.0000 19.3688 0.0000 0.0000
# 5 0.0000 0.0000 0.0000 0.0000 21.6632 0.0000
# 6 0.0000 0.0000 0.0000 0.0000 0.0000 16.6366
#
#
#
# Elastic Compliance Matrix: (Units=1/GPa)
#
#
# Indices 1 2 3 4 5 6 
#
# 1 0.023252 -0.005928 -0.009510 0.000000 0.000000 0.000000
# 2 -0.005928 0.011733 -0.003153 0.000000 0.000000 0.000000
# 3 -0.009510 -0.003153 0.018126 0.000000 0.000000 0.000000
# 4 0.000000 0.000000 0.000000 0.051629 0.000000 0.000000
# 5 0.000000 0.000000 0.000000 0.000000 0.046161 0.000000
# 6 0.000000 0.000000 0.000000 0.000000 0.000000 0.060109
#
#
# Mechanical properties :
#
#
# Convention : Reuss Voigt Hill
#
# Bulk Modulus (GPa) = 62.77712 65.41495 64.09603
# Shear Modulus (GPa) = 19.72375 20.90712 20.31543
#
# Velocity S-wave (km/s) = 3.40808 3.50883 3.45882
# Velocity P-wave (km/s) = 7.24260 7.41200 7.32779
#
# Compressibility (1/GPa) = 0.01592937
#
# Stress axis : x y z
#
# Youngs Moduli (GPa) = 43.00633 85.23184 55.16987
#
# Poissons Ratio (x) = 0.50527 0.52465
# Poissons Ratio (y) = 0.25495 0.17394
# Poissons Ratio (z) = 0.40898 0.26872
#
# Static dielectric constant tensor:
#      x y z
#    x 3.010940 0.000000 0.000000 
#    y 0.000000 3.399150 0.000000 
#    z 0.000000 0.000000 3.006540 
# 
# 
# High freq. dielectric constant tensor:
#      x y z
#    x 1.639670 0.000000 0.000000 
#    y 0.000000 1.666900 0.000000 
#    z 0.000000 0.000000 1.629960 
# 
# From -- ./inp_files/24070.got.cif
#   From: 2010.03.12/outbox.cif.g09.slc.cpg/sg51_13_cif.got.tgz:24070.got - 2010.04.16 13:43:02.
