data_PCOD8206559
_publ_section_title
;
Structure prediction by ZEFSAII (Michael W. Deem and Ramdas Pophale) SiO2 
 PCOD8206559
Probable space group: P M M A
;
_chemical_formula_sum "Si O2"
_cell_formula_units_Z 64
_cell_length_a 9.004341
_cell_length_b 21.383172
_cell_length_c 18.502400
_cell_angle_alpha 90.000000
_cell_angle_beta 90.000000
_cell_angle_gamma 90.000000
_cell_volume 3562.477488
_symmetry_space_group_name_H-M "P M M A"
_symmetry_group_IT_number 51
_symmetry_cell_setting 'orthorhombic'
loop_
_space_group_symop_operation_xyz
x,y,z
1/2-x,-y,z
1/2+x,-y,-z
-x,y,-z
-x,-y,-z
1/2+x,y,-z
1/2-x,y,z
x,-y,z
loop_
_atom_site_type_symbol
_atom_site_label
_atom_site_fract_x
_atom_site_fract_y
_atom_site_fract_z
Si Si1 0.580945 0.569437 0.149861
Si Si2 0.924459 0.305193 0.074843
Si Si3 0.574206 0.838752 0.313184
Si Si4 0.925886 0.750074 0.787089
Si Si5 0.423416 0.619802 0.283868
Si Si6 0.910715 0.752344 0.435152
Si Si7 0.078215 0.926378 0.425147
Si Si8 0.916309 0.605110 0.429973
O O1 0.750000 0.578916 0.177045
O O2 0.557776 0.500000 0.116608
O O3 0.543384 0.621251 0.089590
O O4 0.473263 0.576361 0.218034
O O5 0.750000 0.290776 0.071693
O O6 0.998841 0.262811 0.136080
O O7 0.000000 0.286526 0.000000
O O8 0.750000 0.849550 0.300239
O O9 0.493008 0.817225 0.239260
O O10 0.530511 0.777379 0.359589
O O11 0.503320 0.897841 0.354330
O O12 0.750000 0.756386 0.796770
O O13 0.965817 0.691921 0.733548
O O14 0.250000 0.612833 0.296501
O O15 0.500066 0.591700 0.355443
O O16 0.750000 0.781417 0.446236
O O17 0.910729 0.678766 0.439428
O O18 0.000000 0.783215 0.500000
O O19 0.250000 0.905334 0.426962
O O20 0.000000 0.905186 0.500000
O O21 0.063130 0.000000 0.415266
O O22 0.750000 0.577042 0.426737
O O23 0.000000 0.575897 0.500000
#
# Coordination Sequence:
#
# PCOD8206559 Si02
#       8
#     8   8   8   8   8   8   8   8
#     4   9  19  35  54  75  99 131 168 203 242 291
#     4  10  20  35  55  78 107 138 167 200 243 297
#     4  11  20  31  48  71  98 130 170 215 260 305
#     4  10  20  33  50  73 101 132 167 204 249 303
#     4  10  19  31  48  70  96 126 160 203 252 300
#     4   9  18  27  38  59  88 120 154 194 241 289
#     4  10  21  36  51  69  98 139 186 231 272 312
#     4  10  18  29  43  62  90 121 155 195 242 295
#
# _framework density 17.965026000000002
#
# number of rings (size 3 to 8) (size 9 to 14) (size 15 to 20)
#    0.000    2.125    1.250    2.625    0.000    5.250 
#    0.000    0.000    0.000    0.375    0.000    0.000 
#    0.000    0.500    0.000    1.875    0.000    2.875 
#
# Total GULP energy -793154.693586 kJ/mol
# GULP energy per Si atom -12393.042087 kJ/mol
# Density = 1.792414 g / cm^3
# Si number density = 17.965026 Si / 1000 Ang^3
#
#
#
# Elastic Constant Matrix: (Units=GPa)
#
#
# Indices 1 2 3 4 5 6 
#
# 1 95.9661 29.4122 50.0387 0.0000 0.0000 0.0000
# 2 29.4122 53.1453 25.2137 0.0000 0.0000 0.0000
# 3 50.0387 25.2137 101.1830 0.0000 0.0000 0.0000
# 4 0.0000 0.0000 0.0000 18.5603 0.0000 0.0000
# 5 0.0000 0.0000 0.0000 0.0000 33.0975 0.0000
# 6 0.0000 0.0000 0.0000 0.0000 0.0000 21.2863
#
#
#
# Elastic Compliance Matrix: (Units=1/GPa)
#
#
# Indices 1 2 3 4 5 6 
#
# 1 0.015362 -0.005554 -0.006213 0.000000 0.000000 0.000000
# 2 -0.005554 0.023347 -0.003071 0.000000 0.000000 0.000000
# 3 -0.006213 -0.003071 0.013721 0.000000 0.000000 0.000000
# 4 0.000000 0.000000 0.000000 0.053879 0.000000 0.000000
# 5 0.000000 0.000000 0.000000 0.000000 0.030214 0.000000
# 6 0.000000 0.000000 0.000000 0.000000 0.000000 0.046978
#
#
# Mechanical properties :
#
#
# Convention : Reuss Voigt Hill
#
# Bulk Modulus (GPa) = 43.94923 51.06930 47.50927
# Shear Modulus (GPa) = 22.64873 24.29748 23.47310
#
# Velocity S-wave (km/s) = 3.55450 3.68161 3.61861
# Velocity P-wave (km/s) = 6.43140 6.82357 6.63038
#
# Compressibility (1/GPa) = 0.02275353
#
# Stress axis : x y z
#
# Youngs Moduli (GPa) = 65.09430 42.83158 72.88089
#
# Poissons Ratio (x) = 0.23790 0.45282
# Poissons Ratio (y) = 0.36155 0.22382
# Poissons Ratio (z) = 0.40444 0.13154
#
# Static dielectric constant tensor:
#      x y z
#    x 3.523260 0.000000 0.000000 
#    y 0.000000 3.032430 0.000000 
#    z 0.000000 0.000000 3.180860 
# 
# 
# High freq. dielectric constant tensor:
#      x y z
#    x 1.711850 0.000000 0.000000 
#    y 0.000000 1.663200 0.000000 
#    z 0.000000 0.000000 1.677340 
# 
# From -- ./inp_files/28462.got.cif
#   From: 2010.03.12/outbox.cif.g09.slc.cpg/sg51_15_cif.got.tgz:28462.got - 2010.04.16 13:43:02.
