data_PCOD8206167
_publ_section_title
;
Structure prediction by ZEFSAII (Michael W. Deem and Ramdas Pophale) SiO2 
 PCOD8206167
Probable space group: P M M A
;
_chemical_formula_sum "Si O2"
_cell_formula_units_Z 64
_cell_length_a 15.560971
_cell_length_b 14.519050
_cell_length_c 18.650533
_cell_angle_alpha 90.000000
_cell_angle_beta 90.000000
_cell_angle_gamma 90.000000
_cell_volume 4213.724544
_symmetry_space_group_name_H-M "P M M A"
_symmetry_group_IT_number 51
_symmetry_cell_setting 'orthorhombic'
loop_
_space_group_symop_operation_xyz
x,y,z
1/2-x,-y,z
1/2+x,-y,-z
-x,y,-z
-x,-y,-z
1/2+x,y,-z
1/2-x,y,z
x,-y,z
loop_
_atom_site_type_symbol
_atom_site_label
_atom_site_fract_x
_atom_site_fract_y
_atom_site_fract_z
Si Si1 0.414074 0.103080 0.822330
Si Si2 0.345484 0.890757 0.552744
Si Si3 0.478115 0.890331 0.668990
Si Si4 0.155707 0.279537 0.895820
Si Si5 0.845030 0.109610 0.608780
Si Si6 0.656147 0.726961 0.934147
Si Si7 0.503373 0.603731 0.914363
Si Si8 0.557340 0.899214 0.934854
O O1 0.437599 0.142376 0.743979
O O2 0.354397 0.177131 0.862749
O O3 0.502865 0.092509 0.863486
O O4 0.370543 0.000000 0.818921
O O5 0.250000 0.860110 0.578175
O O6 0.417075 0.849445 0.606314
O O7 0.362449 0.854918 0.472160
O O8 0.352106 0.000000 0.553842
O O9 0.576360 0.853406 0.658290
O O10 0.479415 0.000000 0.666654
O O11 0.250000 0.316198 0.870706
O O12 0.078161 0.348393 0.874594
O O13 0.153613 0.278848 0.980856
O O14 0.750000 0.144477 0.635115
O O15 0.844450 0.000000 0.608783
O O16 0.750000 0.701628 0.904104
O O17 0.589091 0.660069 0.894038
O O18 0.636051 0.833121 0.916233
O O19 0.509523 0.500000 0.884615
O O20 0.500000 0.603262 0.000000
O O21 0.592082 0.000000 0.958484
O O22 0.500000 0.856719 0.000000
#
# Coordination Sequence:
#
# PCOD8206167 Si02
#       8
#     8   8   8   8   8   8   8   8
#     4  10  19  29  41  57  80 112 145 178 216 249
#     4   8  13  21  34  51  71  95 126 165 206 245
#     4   9  16  24  35  52  75 101 132 170 210 248
#     4  10  19  30  45  63  82 105 135 169 210 258
#     4   8  13  22  36  52  69  94 129 168 207 245
#     4  10  18  29  46  65  82 102 133 172 215 256
#     4   9  17  31  48  65  85 102 122 163 217 264
#     4  10  17  29  45  55  75 110 146 183 214 242
#
# _framework density 15.188464
#
# number of rings (size 3 to 8) (size 9 to 14) (size 15 to 20)
#    0.000    2.750    2.500    1.500    0.000    3.000 
#    0.000    5.625    0.000    2.250    0.000    0.000 
#    0.000    0.000    0.000    0.000    0.000    2.500 
#
# Total GULP energy -792844.903180 kJ/mol
# GULP energy per Si atom -12388.201612 kJ/mol
# Density = 1.515389 g / cm^3
# Si number density = 15.188464 Si / 1000 Ang^3
#
#
#
# Elastic Constant Matrix: (Units=GPa)
#
#
# Indices 1 2 3 4 5 6 
#
# 1 124.3086 44.6548 17.1530 0.0000 0.0000 0.0000
# 2 44.6548 69.6363 5.0343 0.0000 0.0000 0.0000
# 3 17.1530 5.0343 31.0896 0.0000 0.0000 0.0000
# 4 0.0000 0.0000 0.0000 2.8107 0.0000 0.0000
# 5 0.0000 0.0000 0.0000 0.0000 10.8597 0.0000
# 6 0.0000 0.0000 0.0000 0.0000 0.0000 5.1838
#
#
#
# Elastic Compliance Matrix: (Units=1/GPa)
#
#
# Indices 1 2 3 4 5 6 
#
# 1 0.011190 -0.006809 -0.005071 0.000000 0.000000 0.000000
# 2 -0.006809 0.018674 0.000733 0.000000 0.000000 0.000000
# 3 -0.005071 0.000733 0.034844 0.000000 0.000000 0.000000
# 4 0.000000 0.000000 0.000000 0.355784 0.000000 0.000000
# 5 0.000000 0.000000 0.000000 0.000000 0.092083 0.000000
# 6 0.000000 0.000000 0.000000 0.000000 0.000000 0.192910
#
#
# Mechanical properties :
#
#
# Convention : Reuss Voigt Hill
#
# Bulk Modulus (GPa) = 23.57749 39.85764 31.71756
# Shear Modulus (GPa) = 6.73928 14.31698 10.52813
#
# Velocity S-wave (km/s) = 2.10873 3.07355 2.63566
# Velocity P-wave (km/s) = 4.63530 6.23655 5.49457
#
# Compressibility (1/GPa) = 0.04241334
#
# Stress axis : x y z
#
# Youngs Moduli (GPa) = 89.36259 53.55081 28.69896
#
# Poissons Ratio (x) = 0.36464 0.14554
# Poissons Ratio (y) = 0.60850 -0.02104
# Poissons Ratio (z) = 0.45320 -0.03926
#
# Static dielectric constant tensor:
#      x y z
#    x 3.287400 0.000000 0.000000 
#    y 0.000000 2.651880 0.000000 
#    z 0.000000 0.000000 2.773600 
# 
# 
# High freq. dielectric constant tensor:
#      x y z
#    x 1.592980 0.000000 0.000000 
#    y 0.000000 1.523660 0.000000 
#    z 0.000000 0.000000 1.547490 
# 
# From -- ./inp_files/29986.got.cif
#   From: 2010.03.12/outbox.cif.g09.slc.cpg/sg51_15_cif.got.tgz:29986.got - 2010.04.16 13:43:02.
