data_PCOD8206025
_publ_section_title
;
Structure prediction by ZEFSAII (Michael W. Deem and Ramdas Pophale) SiO2 
 PCOD8206025
Probable space group: P M M A
;
_chemical_formula_sum "Si O2"
_cell_formula_units_Z 48
_cell_length_a 20.134462
_cell_length_b 8.552037
_cell_length_c 15.474069
_cell_angle_alpha 90.000000
_cell_angle_beta 90.000000
_cell_angle_gamma 90.000000
_cell_volume 2664.490216
_symmetry_space_group_name_H-M "P M M A"
_symmetry_group_IT_number 51
_symmetry_cell_setting 'orthorhombic'
loop_
_space_group_symop_operation_xyz
x,y,z
1/2-x,-y,z
1/2+x,-y,-z
-x,y,-z
-x,-y,-z
1/2+x,y,-z
1/2-x,y,z
x,-y,z
loop_
_atom_site_type_symbol
_atom_site_label
_atom_site_fract_x
_atom_site_fract_y
_atom_site_fract_z
Si Si1 0.584286 0.181691 0.435596
Si Si2 0.442809 0.318149 0.397557
Si Si3 0.952825 0.184105 0.775674
Si Si4 0.826314 0.183700 0.082964
Si Si5 0.898565 0.184775 0.250772
Si Si6 0.567768 0.683035 0.956166
O O1 0.507137 0.211434 0.414004
O O2 0.606590 0.278102 0.521556
O O3 0.622900 0.238875 0.348066
O O4 0.596856 0.000000 0.453707
O O5 0.460832 0.500000 0.398778
O O6 0.413525 0.267018 0.304337
O O7 0.919173 0.232302 0.865330
O O8 0.028646 0.248782 0.775869
O O9 0.947593 0.000000 0.763617
O O10 0.750000 0.224761 0.066343
O O11 0.845098 0.240325 0.180025
O O12 0.840782 0.000000 0.071864
O O13 0.869527 0.279757 0.015521
O O14 0.904097 0.000000 0.252098
O O15 0.562242 0.500000 0.939681
O O16 0.500000 0.747289 0.000000
#
# Coordination Sequence:
#
# PCOD8206025 Si02
#       6
#     8   8   8   8   8   8
#     4   9  15  25  40  60  90 129 166 195 238 296
#     4  10  17  25  38  63  97 125 156 201 250 296
#     4  10  18  30  49  69  95 130 168 207 252 304
#     4  10  20  35  54  75 100 134 175 214 253 303
#     4   8  15  27  45  69  94 125 163 206 246 290
#     4  11  22  34  50  75 103 133 169 213 263 314
#
# _framework density 18.014703000000001
#
# number of rings (size 3 to 8) (size 9 to 14) (size 15 to 20)
#    0.000    2.333    1.667    5.000    0.000    1.000 
#    0.000    0.833    0.000    0.000    0.000    1.167 
#    0.000    6.667    0.000    0.000    0.000    0.000 
#
# Total GULP energy -594841.149497 kJ/mol
# GULP energy per Si atom -12392.523948 kJ/mol
# Density = 1.797370 g / cm^3
# Si number density = 18.014703 Si / 1000 Ang^3
#
#
#
# Elastic Constant Matrix: (Units=GPa)
#
#
# Indices 1 2 3 4 5 6 
#
# 1 48.9732 11.8215 33.0695 0.0000 0.0000 0.0000
# 2 11.8215 57.3003 35.2110 0.0000 0.0000 0.0000
# 3 33.0695 35.2110 170.7092 0.0000 0.0000 0.0000
# 4 0.0000 0.0000 0.0000 23.3862 0.0000 0.0000
# 5 0.0000 0.0000 0.0000 0.0000 15.8559 0.0000
# 6 0.0000 0.0000 0.0000 0.0000 0.0000 11.8818
#
#
#
# Elastic Compliance Matrix: (Units=1/GPa)
#
#
# Indices 1 2 3 4 5 6 
#
# 1 0.023771 -0.002376 -0.004115 0.000000 0.000000 0.000000
# 2 -0.002376 0.020222 -0.003711 0.000000 0.000000 0.000000
# 3 -0.004115 -0.003711 0.007420 0.000000 0.000000 0.000000
# 4 0.000000 0.000000 0.000000 0.042760 0.000000 0.000000
# 5 0.000000 0.000000 0.000000 0.000000 0.063068 0.000000
# 6 0.000000 0.000000 0.000000 0.000000 0.000000 0.084162
#
#
# Mechanical properties :
#
#
# Convention : Reuss Voigt Hill
#
# Bulk Modulus (GPa) = 32.24630 48.57632 40.41131
# Shear Modulus (GPa) = 18.37257 23.35017 20.86137
#
# Velocity S-wave (km/s) = 3.19700 3.60415 3.40666
# Velocity P-wave (km/s) = 5.61841 6.65907 6.16075
#
# Compressibility (1/GPa) = 0.03101131
#
# Stress axis : x y z
#
# Youngs Moduli (GPa) = 42.06730 49.45017 134.76206
#
# Poissons Ratio (x) = 0.11747 0.55454
# Poissons Ratio (y) = 0.09993 0.50009
# Poissons Ratio (z) = 0.17311 0.18351
#
# Static dielectric constant tensor:
#      x y z
#    x 2.801240 0.000000 0.000000 
#    y 0.000000 3.123320 0.000000 
#    z 0.000000 0.000000 4.194380 
# 
# 
# High freq. dielectric constant tensor:
#      x y z
#    x 1.615410 0.000000 0.000000 
#    y 0.000000 1.689950 0.000000 
#    z 0.000000 0.000000 1.730140 
# 
# From -- ./inp_files/25508.got.cif
#   From: 2010.03.12/outbox.cif.g09.slc.cpg/sg51_13_cif.got.tgz:25508.got - 2010.04.16 13:43:02.
