data_PCOD8206135
_publ_section_title
;
Structure prediction by ZEFSAII (Michael W. Deem and Ramdas Pophale) SiO2 
 PCOD8206135
Probable space group: P M M A
;
_chemical_formula_sum "Si O2"
_cell_formula_units_Z 64
_cell_length_a 8.803813
_cell_length_b 14.536047
_cell_length_c 28.149125
_cell_angle_alpha 90.000000
_cell_angle_beta 90.000000
_cell_angle_gamma 90.000000
_cell_volume 3602.317827
_symmetry_space_group_name_H-M "P M M A"
_symmetry_group_IT_number 51
_symmetry_cell_setting 'orthorhombic'
loop_
_space_group_symop_operation_xyz
x,y,z
1/2-x,-y,z
1/2+x,-y,-z
-x,y,-z
-x,-y,-z
1/2+x,y,-z
1/2-x,y,z
x,-y,z
loop_
_atom_site_type_symbol
_atom_site_label
_atom_site_fract_x
_atom_site_fract_y
_atom_site_fract_z
Si Si1 0.929036 0.104951 0.950281
Si Si2 0.575404 0.893089 0.784343
Si Si3 0.069988 0.398944 0.277216
Si Si4 0.571301 0.394076 0.829320
Si Si5 0.070175 0.715886 0.365867
Si Si6 0.429974 0.900169 0.322346
Si Si7 0.428114 0.780660 0.866351
Si Si8 0.428785 0.604435 0.549735
O O1 0.750000 0.114950 0.953753
O O2 0.989284 0.171849 0.910050
O O3 0.976531 0.000000 0.938239
O O4 0.000000 0.136371 0.000000
O O5 0.750000 0.859956 0.789728
O O6 0.513816 0.876585 0.730853
O O7 0.470544 0.833050 0.818173
O O8 0.562154 0.000000 0.798328
O O9 0.250000 0.402553 0.278816
O O10 0.003360 0.500000 0.288294
O O11 0.020665 0.367965 0.224539
O O12 0.008655 0.331250 0.317712
O O13 0.750000 0.379141 0.836219
O O14 0.527834 0.500000 0.840647
O O15 0.480931 0.325836 0.864029
O O16 0.250000 0.702844 0.372190
O O17 0.022179 0.822979 0.360609
O O18 0.987028 0.674042 0.410779
O O19 0.250000 0.905055 0.318727
O O20 0.494212 0.000000 0.338826
O O21 0.250000 0.785020 0.874769
O O22 0.500000 0.635259 0.500000
O O23 0.250000 0.612556 0.545330
O O24 0.478804 0.500000 0.562482
#
# Coordination Sequence:
#
# PCOD8206135 Si02
#       8
#     8   8   8   8   8   8   8   8
#     4  10  21  38  59  81 105 132 164 205 252 302
#     4   9  17  31  51  73  99 134 176 216 248 284
#     4   8  14  25  44  71  98 125 162 204 243 287
#     4   9  18  34  54  73  97 134 179 220 251 285
#     4  10  17  27  49  75  98 127 161 198 241 291
#     4   8  15  28  47  72 100 131 169 209 244 280
#     4  12  23  32  48  75 107 140 171 206 251 304
#     4  10  21  36  52  71  96 123 152 191 240 293
#
# _framework density 17.766338999999999
#
# number of rings (size 3 to 8) (size 9 to 14) (size 15 to 20)
#    0.000    2.500    0.000    4.875    0.000    6.000 
#    0.000    2.500    0.000    2.625    0.000    0.000 
#    0.000    0.000    0.000    0.000    0.000    0.000 
#
# Total GULP energy -793427.506932 kJ/mol
# GULP energy per Si atom -12397.304796 kJ/mol
# Density = 1.772590 g / cm^3
# Si number density = 17.766339 Si / 1000 Ang^3
#
#
#
# Elastic Constant Matrix: (Units=GPa)
#
#
# Indices 1 2 3 4 5 6 
#
# 1 48.6763 31.8263 30.2314 0.0000 0.0000 0.0000
# 2 31.8263 113.7700 75.9066 0.0000 0.0000 0.0000
# 3 30.2314 75.9066 106.3106 0.0000 0.0000 0.0000
# 4 0.0000 0.0000 0.0000 18.4511 0.0000 0.0000
# 5 0.0000 0.0000 0.0000 0.0000 26.1807 0.0000
# 6 0.0000 0.0000 0.0000 0.0000 0.0000 19.1669
#
#
#
# Elastic Compliance Matrix: (Units=1/GPa)
#
#
# Indices 1 2 3 4 5 6 
#
# 1 0.026097 -0.004486 -0.004218 0.000000 0.000000 0.000000
# 2 -0.004486 0.017558 -0.011261 0.000000 0.000000 0.000000
# 3 -0.004218 -0.011261 0.018646 0.000000 0.000000 0.000000
# 4 0.000000 0.000000 0.000000 0.054197 0.000000 0.000000
# 5 0.000000 0.000000 0.000000 0.000000 0.038196 0.000000
# 6 0.000000 0.000000 0.000000 0.000000 0.000000 0.052173
#
#
# Mechanical properties :
#
#
# Convention : Reuss Voigt Hill
#
# Bulk Modulus (GPa) = 44.70074 60.52060 52.61067
# Shear Modulus (GPa) = 19.66544 21.47925 20.57235
#
# Velocity S-wave (km/s) = 3.33061 3.48082 3.40654
# Velocity P-wave (km/s) = 6.32500 7.09179 6.71934
#
# Compressibility (1/GPa) = 0.02237099
#
# Stress axis : x y z
#
# Youngs Moduli (GPa) = 38.31903 56.95544 53.63098
#
# Poissons Ratio (x) = 0.25551 0.22621
# Poissons Ratio (y) = 0.17191 0.60391
# Poissons Ratio (z) = 0.16163 0.64135
#
# Static dielectric constant tensor:
#      x y z
#    x 2.952610 0.000000 0.000000 
#    y 0.000000 3.640970 0.000000 
#    z 0.000000 0.000000 3.325980 
# 
# 
# High freq. dielectric constant tensor:
#      x y z
#    x 1.659750 0.000000 0.000000 
#    y 0.000000 1.693490 0.000000 
#    z 0.000000 0.000000 1.670910 
# 
# From -- ./inp_files/34894.got.cif
#   From: 2010.03.12/outbox.cif.g09.slc.cpg/sg51_18_cif.got.tgz:34894.got - 2010.04.16 13:43:02.
