data_PCOD8206097
_publ_section_title
;
Structure prediction by ZEFSAII (Michael W. Deem and Ramdas Pophale) SiO2 
 PCOD8206097
Probable space group: P M M A
;
_chemical_formula_sum "Si O2"
_cell_formula_units_Z 64
_cell_length_a 26.219208
_cell_length_b 13.130174
_cell_length_c 11.826128
_cell_angle_alpha 90.000000
_cell_angle_beta 90.000000
_cell_angle_gamma 90.000000
_cell_volume 4071.295503
_symmetry_space_group_name_H-M "P M M A"
_symmetry_group_IT_number 51
_symmetry_cell_setting 'orthorhombic'
loop_
_space_group_symop_operation_xyz
x,y,z
1/2-x,-y,z
1/2+x,-y,-z
-x,y,-z
-x,-y,-z
1/2+x,y,-z
1/2-x,y,z
x,-y,z
loop_
_atom_site_type_symbol
_atom_site_label
_atom_site_fract_x
_atom_site_fract_y
_atom_site_fract_z
Si Si1 0.189902 0.250896 0.275236
Si Si2 0.807102 0.615420 0.938859
Si Si3 0.874459 0.384477 0.572965
Si Si4 0.598121 0.117933 0.755654
Si Si5 0.071784 0.618795 0.653106
Si Si6 0.103786 0.384259 0.901323
Si Si7 0.034814 0.703656 0.301770
Si Si8 0.952890 0.765957 0.936686
O O1 0.250000 0.226492 0.282125
O O2 0.173869 0.313998 0.163613
O O3 0.172614 0.315552 0.384584
O O4 0.157051 0.146905 0.270551
O O5 0.750000 0.645092 0.972500
O O6 0.811099 0.500000 0.893547
O O7 0.838769 0.630382 0.053544
O O8 0.854985 0.500000 0.571298
O O9 0.890546 0.348265 0.447425
O O10 0.923962 0.377345 0.653746
O O11 0.558878 0.182597 0.675449
O O12 0.585056 0.147182 0.886970
O O13 0.589721 0.000000 0.731808
O O14 0.056638 0.500000 0.643543
O O15 0.101609 0.642670 0.768875
O O16 0.019981 0.685227 0.640927
O O17 0.084866 0.500000 0.921894
O O18 0.070132 0.306248 0.969514
O O19 0.028585 0.691898 0.166045
O O20 0.000000 0.821351 0.000000
#
# Coordination Sequence:
#
# PCOD8206097 Si02
#       8
#     8   8   8   8   8   8   8   8
#     4  10  19  32  51  71  93 120 156 199 246 285
#     4   9  16  27  45  67  91 119 149 184 228 279
#     4  10  19  31  46  68  97 130 164 196 227 269
#     4   9  19  33  49  72  96 118 151 197 248 295
#     4  10  19  29  45  68  97 134 167 190 219 269
#     4  10  17  27  42  66  98 128 157 187 224 272
#     4   9  18  30  47  66  93 126 161 196 235 277
#     4  10  18  30  45  71  97 126 154 190 234 288
#
# _framework density 15.719811999999999
#
# number of rings (size 3 to 8) (size 9 to 14) (size 15 to 20)
#    0.750    1.625    2.500    1.125    0.000    4.500 
#    0.000    0.625    0.000    8.250    0.000    0.000 
#    0.000    0.000    0.000    0.000    0.000    0.000 
#
# Total GULP energy -793001.841392 kJ/mol
# GULP energy per Si atom -12390.653772 kJ/mol
# Density = 1.568403 g / cm^3
# Si number density = 15.719812 Si / 1000 Ang^3
#
#
#
# Elastic Constant Matrix: (Units=GPa)
#
#
# Indices 1 2 3 4 5 6 
#
# 1 83.7344 37.7969 33.0663 0.0000 0.0000 0.0000
# 2 37.7969 72.5807 25.5449 0.0000 0.0000 0.0000
# 3 33.0663 25.5449 69.9831 0.0000 0.0000 0.0000
# 4 0.0000 0.0000 0.0000 5.8198 0.0000 0.0000
# 5 0.0000 0.0000 0.0000 0.0000 23.0404 0.0000
# 6 0.0000 0.0000 0.0000 0.0000 0.0000 16.4131
#
#
#
# Elastic Compliance Matrix: (Units=1/GPa)
#
#
# Indices 1 2 3 4 5 6 
#
# 1 0.017347 -0.007055 -0.005621 0.000000 0.000000 0.000000
# 2 -0.007055 0.018678 -0.003484 0.000000 0.000000 0.000000
# 3 -0.005621 -0.003484 0.018217 0.000000 0.000000 0.000000
# 4 0.000000 0.000000 0.000000 0.171828 0.000000 0.000000
# 5 0.000000 0.000000 0.000000 0.000000 0.043402 0.000000
# 6 0.000000 0.000000 0.000000 0.000000 0.000000 0.060927
#
#
# Mechanical properties :
#
#
# Convention : Reuss Voigt Hill
#
# Bulk Modulus (GPa) = 45.61855 46.56828 46.09342
# Shear Modulus (GPa) = 13.51252 17.71398 15.61325
#
# Velocity S-wave (km/s) = 2.93505 3.36051 3.15496
# Velocity P-wave (km/s) = 6.36936 6.68922 6.53125
#
# Compressibility (1/GPa) = 0.02192091
#
# Stress axis : x y z
#
# Youngs Moduli (GPa) = 57.64731 53.53858 54.89429
#
# Poissons Ratio (x) = 0.37773 0.30856
# Poissons Ratio (y) = 0.40671 0.19127
# Poissons Ratio (z) = 0.32403 0.18654
#
# Static dielectric constant tensor:
#      x y z
#    x 3.046480 0.000000 0.000000 
#    y 0.000000 2.670210 0.000000 
#    z 0.000000 0.000000 3.018530 
# 
# 
# High freq. dielectric constant tensor:
#      x y z
#    x 1.601980 0.000000 0.000000 
#    y 0.000000 1.568300 0.000000 
#    z 0.000000 0.000000 1.596360 
# 
# From -- ./inp_files/19239.got.cif
#   From: 2010.03.12/outbox.cif.g09.slc.cpg/sg51_10_cif.got.tgz:19239.got - 2010.04.16 13:43:02.
