data_PCOD8206347
_publ_section_title
;
Structure prediction by ZEFSAII (Michael W. Deem and Ramdas Pophale) SiO2 
 PCOD8206347
Probable space group: P M M A
;
_chemical_formula_sum "Si O2"
_cell_formula_units_Z 52
_cell_length_a 8.881237
_cell_length_b 17.761259
_cell_length_c 18.746370
_cell_angle_alpha 90.000000
_cell_angle_beta 90.000000
_cell_angle_gamma 90.000000
_cell_volume 2957.088970
_symmetry_space_group_name_H-M "P M M A"
_symmetry_group_IT_number 51
_symmetry_cell_setting 'orthorhombic'
loop_
_space_group_symop_operation_xyz
x,y,z
1/2-x,-y,z
1/2+x,-y,-z
-x,y,-z
-x,-y,-z
1/2+x,y,-z
1/2-x,y,z
x,-y,z
loop_
_atom_site_type_symbol
_atom_site_label
_atom_site_fract_x
_atom_site_fract_y
_atom_site_fract_z
Si Si1 0.072181 0.138177 0.069988
Si Si2 0.069758 0.500000 0.422387
Si Si3 0.916547 0.778407 0.276453
Si Si4 0.070209 0.619884 0.678787
Si Si5 0.080534 0.718218 0.883361
Si Si6 0.572706 0.083212 0.777065
Si Si7 0.421697 0.415712 0.173864
O O1 0.250000 0.134388 0.063606
O O2 0.014138 0.097578 0.142144
O O3 0.015755 0.224290 0.069530
O O4 0.000000 0.098241 0.000000
O O5 0.250000 0.500000 0.424423
O O6 0.000000 0.500000 0.500000
O O7 0.011488 0.575770 0.384468
O O8 0.750000 0.803266 0.299497
O O9 0.972566 0.709477 0.326933
O O10 0.917596 0.745381 0.197621
O O11 0.016154 0.854164 0.279317
O O12 0.250000 0.609102 0.674572
O O13 0.012845 0.585623 0.752580
O O14 0.250000 0.712268 0.913799
O O15 0.999006 0.637285 0.885538
O O16 0.750000 0.088413 0.777221
O O17 0.517603 0.000000 0.753286
O O18 0.250000 0.389166 0.187931
O O19 0.425816 0.500000 0.143037
#
# Coordination Sequence:
#
# PCOD8206347 Si02
#       7
#     8   4   8   8   8   8   8
#     4  10  19  31  46  62  84 115 152 191 232 287
#     4  12  24  36  50  72 104 142 177 206 239 274
#     4   8  16  29  46  68  91 120 155 194 239 283
#     4  10  19  32  49  69  97 130 167 204 237 277
#     4   9  17  29  44  62  84 111 147 190 236 283
#     4   9  18  31  46  67  95 124 154 193 241 289
#     4  10  18  27  43  68  93 116 148 190 235 283
#
# _framework density 17.584862999999999
#
# number of rings (size 3 to 8) (size 9 to 14) (size 15 to 20)
#    0.000    2.462    0.769    3.462    0.000    6.462 
#    0.000    0.000    0.000    0.462    0.000    0.000 
#    0.000    0.615    0.000    2.000    0.000    2.923 
#
# Total GULP energy -644477.059004 kJ/mol
# GULP energy per Si atom -12393.789596 kJ/mol
# Density = 1.754484 g / cm^3
# Si number density = 17.584863 Si / 1000 Ang^3
#
#
#
# Elastic Constant Matrix: (Units=GPa)
#
#
# Indices 1 2 3 4 5 6 
#
# 1 88.8133 44.9106 16.9271 0.0000 0.0000 0.0000
# 2 44.9106 137.1786 28.1294 0.0000 0.0000 0.0000
# 3 16.9271 28.1294 37.6943 0.0000 0.0000 0.0000
# 4 0.0000 0.0000 0.0000 12.7593 0.0000 0.0000
# 5 0.0000 0.0000 0.0000 0.0000 21.7238 0.0000
# 6 0.0000 0.0000 0.0000 0.0000 0.0000 27.4609
#
#
#
# Elastic Compliance Matrix: (Units=1/GPa)
#
#
# Indices 1 2 3 4 5 6 
#
# 1 0.013842 -0.003846 -0.003346 0.000000 0.000000 0.000000
# 2 -0.003846 0.009675 -0.005493 0.000000 0.000000 0.000000
# 3 -0.003346 -0.005493 0.032131 0.000000 0.000000 0.000000
# 4 0.000000 0.000000 0.000000 0.078374 0.000000 0.000000
# 5 0.000000 0.000000 0.000000 0.000000 0.046032 0.000000
# 6 0.000000 0.000000 0.000000 0.000000 0.000000 0.036415
#
#
# Mechanical properties :
#
#
# Convention : Reuss Voigt Hill
#
# Bulk Modulus (GPa) = 33.02682 49.29115 41.15899
# Shear Modulus (GPa) = 19.84656 23.97008 21.90832
#
# Velocity S-wave (km/s) = 3.36313 3.69604 3.53351
# Velocity P-wave (km/s) = 5.82263 6.80482 6.33279
#
# Compressibility (1/GPa) = 0.03027842
#
# Stress axis : x y z
#
# Youngs Moduli (GPa) = 72.24440 103.35741 31.12245
#
# Poissons Ratio (x) = 0.39746 0.10414
# Poissons Ratio (y) = 0.27782 0.17096
# Poissons Ratio (z) = 0.24174 0.56777
#
# Static dielectric constant tensor:
#      x y z
#    x 3.386880 0.000000 0.000000 
#    y 0.000000 3.611400 0.000000 
#    z 0.000000 0.000000 2.934310 
# 
# 
# High freq. dielectric constant tensor:
#      x y z
#    x 1.690340 0.000000 0.000000 
#    y 0.000000 1.684930 0.000000 
#    z 0.000000 0.000000 1.616980 
# 
# From -- ./inp_files/27966.got.cif
#   From: 2010.03.12/outbox.cif.g09.slc.cpg/sg51_14_cif.got.tgz:27966.got - 2010.04.16 13:43:02.
