data_PCOD8206660
_publ_section_title
;
Structure prediction by ZEFSAII (Michael W. Deem and Ramdas Pophale) SiO2 
 PCOD8206660
Probable space group: P M M A
;
_chemical_formula_sum "Si O2"
_cell_formula_units_Z 56
_cell_length_a 8.955665
_cell_length_b 19.013925
_cell_length_c 18.858699
_cell_angle_alpha 90.000000
_cell_angle_beta 90.000000
_cell_angle_gamma 90.000000
_cell_volume 3211.303445
_symmetry_space_group_name_H-M "P M M A"
_symmetry_group_IT_number 51
_symmetry_cell_setting 'orthorhombic'
loop_
_space_group_symop_operation_xyz
x,y,z
1/2-x,-y,z
1/2+x,-y,-z
-x,y,-z
-x,-y,-z
1/2+x,y,-z
1/2-x,y,z
x,-y,z
loop_
_atom_site_type_symbol
_atom_site_label
_atom_site_fract_x
_atom_site_fract_y
_atom_site_fract_z
Si Si1 0.573761 0.289618 0.287128
Si Si2 0.927969 0.577811 0.207774
Si Si3 0.075521 0.075804 0.424029
Si Si4 0.926129 0.787973 0.424046
Si Si5 0.076633 0.338150 0.926828
Si Si6 0.924776 0.080816 0.925930
Si Si7 0.424555 0.799993 0.843216
O O1 0.750000 0.290081 0.275946
O O2 0.512334 0.367485 0.267772
O O3 0.531071 0.273247 0.368542
O O4 0.514707 0.230049 0.232280
O O5 0.750000 0.574842 0.209665
O O6 0.995306 0.500000 0.221629
O O7 0.982503 0.606667 0.131795
O O8 0.250000 0.093238 0.432321
O O9 0.000000 0.070455 0.500000
O O10 0.991454 0.140850 0.386938
O O11 0.053317 0.000000 0.384685
O O12 0.750000 0.795447 0.434344
O O13 0.000000 0.771231 0.500000
O O14 0.250000 0.349031 0.938035
O O15 0.041991 0.258651 0.902757
O O16 0.000000 0.356369 0.000000
O O17 0.750000 0.093595 0.934282
O O18 0.986860 0.129205 0.862611
O O19 0.961414 0.000000 0.906469
O O20 0.000000 0.102305 0.000000
O O21 0.250000 0.818443 0.839571
#
# Coordination Sequence:
#
# PCOD8206660 Si02
#       7
#     8   8   8   8   8   8   8
#     4   8  16  30  47  68  91 117 151 188 225 270
#     4   8  14  27  47  68  90 118 151 184 217 256
#     4   9  16  26  41  62  88 116 145 177 214 258
#     4  10  18  29  47  69  93 119 150 189 230 273
#     4   9  17  27  42  67  94 118 146 181 219 259
#     4  10  20  32  46  66  91 120 157 198 235 270
#     4   9  17  31  48  64  87 118 153 192 230 270
#
# _framework density 17.438402
#
# number of rings (size 3 to 8) (size 9 to 14) (size 15 to 20)
#    0.000    3.000    0.000    4.286    0.000    3.714 
#    0.000    2.143    0.000    6.429    0.000    0.000 
#    0.000    0.000    0.000    0.000    0.000    0.571 
#
# Total GULP energy -693859.902121 kJ/mol
# GULP energy per Si atom -12390.355395 kJ/mol
# Density = 1.739871 g / cm^3
# Si number density = 17.438402 Si / 1000 Ang^3
#
#
#
# Elastic Constant Matrix: (Units=GPa)
#
#
# Indices 1 2 3 4 5 6 
#
# 1 57.3005 41.5799 35.6224 0.0000 0.0000 0.0000
# 2 41.5799 135.6313 69.5119 0.0000 0.0000 0.0000
# 3 35.6224 69.5119 101.9336 0.0000 0.0000 0.0000
# 4 0.0000 0.0000 0.0000 20.9345 0.0000 0.0000
# 5 0.0000 0.0000 0.0000 0.0000 19.8526 0.0000
# 6 0.0000 0.0000 0.0000 0.0000 0.0000 14.8257
#
#
#
# Elastic Compliance Matrix: (Units=1/GPa)
#
#
# Indices 1 2 3 4 5 6 
#
# 1 0.024117 -0.004726 -0.005206 0.000000 0.000000 0.000000
# 2 -0.004726 0.012260 -0.006709 0.000000 0.000000 0.000000
# 3 -0.005206 -0.006709 0.016205 0.000000 0.000000 0.000000
# 4 0.000000 0.000000 0.000000 0.047768 0.000000 0.000000
# 5 0.000000 0.000000 0.000000 0.000000 0.050371 0.000000
# 6 0.000000 0.000000 0.000000 0.000000 0.000000 0.067450
#
#
# Mechanical properties :
#
#
# Convention : Reuss Voigt Hill
#
# Bulk Modulus (GPa) = 51.81005 65.36598 58.58801
# Shear Modulus (GPa) = 19.38840 20.99930 20.19385
#
# Velocity S-wave (km/s) = 3.33802 3.47392 3.40665
# Velocity P-wave (km/s) = 6.68067 7.32503 7.01026
#
# Compressibility (1/GPa) = 0.01930127
#
# Stress axis : x y z
#
# Youngs Moduli (GPa) = 41.46423 81.56531 61.71060
#
# Poissons Ratio (x) = 0.38544 0.32124
# Poissons Ratio (y) = 0.19594 0.41402
# Poissons Ratio (z) = 0.21585 0.54723
#
# Static dielectric constant tensor:
#      x y z
#    x 2.976660 0.000000 0.000000 
#    y 0.000000 3.775880 0.000000 
#    z 0.000000 0.000000 3.051220 
# 
# 
# High freq. dielectric constant tensor:
#      x y z
#    x 1.651390 0.000000 0.000000 
#    y 0.000000 1.675410 0.000000 
#    z 0.000000 0.000000 1.649310 
# 
# From -- ./inp_files/32254.got.cif
#   From: 2010.03.12/outbox.cif.g09.slc.cpg/sg51_17_cif.got.tgz:32254.got - 2010.04.16 13:43:02.
