data_PCOD8206754
_publ_section_title
;
Structure prediction by ZEFSAII (Michael W. Deem and Ramdas Pophale) SiO2 
 PCOD8206754
Probable space group: P M M A
;
_chemical_formula_sum "Si O2"
_cell_formula_units_Z 64
_cell_length_a 14.262169
_cell_length_b 17.228798
_cell_length_c 14.635352
_cell_angle_alpha 90.000000
_cell_angle_beta 90.000000
_cell_angle_gamma 90.000000
_cell_volume 3596.199114
_symmetry_space_group_name_H-M "P M M A"
_symmetry_group_IT_number 51
_symmetry_cell_setting 'orthorhombic'
loop_
_space_group_symop_operation_xyz
x,y,z
1/2-x,-y,z
1/2+x,-y,-z
-x,y,-z
-x,-y,-z
1/2+x,y,-z
1/2-x,y,z
x,-y,z
loop_
_atom_site_type_symbol
_atom_site_label
_atom_site_fract_x
_atom_site_fract_y
_atom_site_fract_z
Si Si1 0.142038 0.086188 0.715010
Si Si2 0.645077 0.412263 0.297498
Si Si3 0.360068 0.911530 0.324674
Si Si4 0.481456 0.352794 0.862323
Si Si5 0.066543 0.710780 0.578439
Si Si6 0.358725 0.590077 0.022251
Si Si7 0.142908 0.131611 0.520930
Si Si8 0.003028 0.204593 0.246156
O O1 0.250000 0.111463 0.717206
O O2 0.102403 0.088246 0.610662
O O3 0.086836 0.149764 0.773628
O O4 0.126935 0.000000 0.755057
O O5 0.750000 0.398691 0.256996
O O6 0.633096 0.500000 0.331237
O O7 0.566347 0.394900 0.222835
O O8 0.632531 0.357798 0.385517
O O9 0.250000 0.894368 0.322673
O O10 0.404191 0.896863 0.426308
O O11 0.406926 0.851909 0.253059
O O12 0.382504 0.000000 0.295477
O O13 0.579448 0.395967 0.886442
O O14 0.507910 0.263492 0.839194
O O15 0.406057 0.356535 0.944521
O O16 0.130594 0.776410 0.532026
O O17 0.005912 0.746305 0.661029
O O18 0.000000 0.675833 0.500000
O O19 0.250000 0.613747 0.038304
O O20 0.365730 0.500000 0.993001
O O21 0.250000 0.107857 0.512704
#
# Coordination Sequence:
#
# PCOD8206754 Si02
#       8
#     8   8   8   8   8   8   8   8
#     4   9  17  28  43  66  96 130 171 220 268 305
#     4  10  20  33  51  73  99 136 179 219 257 302
#     4  10  19  30  45  66  93 131 177 219 257 296
#     4  10  20  34  55  81 111 136 160 197 249 309
#     4  10  18  30  44  65  95 132 180 222 264 301
#     4  10  20  36  61  89 112 131 154 192 247 311
#     4   9  16  27  43  62  89 125 170 222 269 305
#     4  10  20  31  46  70 101 137 169 205 253 301
#
# _framework density 17.796567
#
# number of rings (size 3 to 8) (size 9 to 14) (size 15 to 20)
#    0.000    2.250    1.250    3.000    0.000    6.750 
#    0.000    1.875    0.000    0.000    0.000   14.000 
#    0.000   12.000    0.000    0.000    0.000    0.000 
#
# Total GULP energy -793255.119827 kJ/mol
# GULP energy per Si atom -12394.611247 kJ/mol
# Density = 1.775606 g / cm^3
# Si number density = 17.796567 Si / 1000 Ang^3
#
#
#
# Elastic Constant Matrix: (Units=GPa)
#
#
# Indices 1 2 3 4 5 6 
#
# 1 86.1885 42.9561 28.9526 0.0000 0.0000 0.0000
# 2 42.9561 117.2902 38.3916 0.0000 0.0000 0.0000
# 3 28.9526 38.3916 47.8637 0.0000 0.0000 0.0000
# 4 0.0000 0.0000 0.0000 26.5618 0.0000 0.0000
# 5 0.0000 0.0000 0.0000 0.0000 21.8545 0.0000
# 6 0.0000 0.0000 0.0000 0.0000 0.0000 31.1435
#
#
#
# Elastic Compliance Matrix: (Units=1/GPa)
#
#
# Indices 1 2 3 4 5 6 
#
# 1 0.015583 -0.003555 -0.006574 0.000000 0.000000 0.000000
# 2 -0.003555 0.012372 -0.007773 0.000000 0.000000 0.000000
# 3 -0.006574 -0.007773 0.031105 0.000000 0.000000 0.000000
# 4 0.000000 0.000000 0.000000 0.037648 0.000000 0.000000
# 5 0.000000 0.000000 0.000000 0.000000 0.045757 0.000000
# 6 0.000000 0.000000 0.000000 0.000000 0.000000 0.032109
#
#
# Mechanical properties :
#
#
# Convention : Reuss Voigt Hill
#
# Bulk Modulus (GPa) = 43.00367 52.43811 47.72089
# Shear Modulus (GPa) = 22.92198 25.31478 24.11838
#
# Velocity S-wave (km/s) = 3.59276 3.77563 3.68533
# Velocity P-wave (km/s) = 6.43639 6.96681 6.70685
#
# Compressibility (1/GPa) = 0.02325383
#
# Stress axis : x y z
#
# Youngs Moduli (GPa) = 64.17327 80.82613 32.14961
#
# Poissons Ratio (x) = 0.28734 0.21137
# Poissons Ratio (y) = 0.22814 0.24991
# Poissons Ratio (z) = 0.42191 0.62829
#
# Static dielectric constant tensor:
#      x y z
#    x 3.373790 0.000000 0.000000 
#    y 0.000000 3.393410 0.000000 
#    z 0.000000 0.000000 3.061320 
# 
# 
# High freq. dielectric constant tensor:
#      x y z
#    x 1.694950 0.000000 0.000000 
#    y 0.000000 1.690280 0.000000 
#    z 0.000000 0.000000 1.642080 
# 
# From -- ./inp_files/24443.got.cif
#   From: 2010.03.12/outbox.cif.g09.slc.cpg/sg51_13_cif.got.tgz:24443.got - 2010.04.16 13:43:02.
