data_PCOD8206720
_publ_section_title
;
Structure prediction by ZEFSAII (Michael W. Deem and Ramdas Pophale) SiO2 
 PCOD8206720
Probable space group: P M M A
;
_chemical_formula_sum "Si O2"
_cell_formula_units_Z 48
_cell_length_a 25.202718
_cell_length_b 9.009192
_cell_length_c 11.957773
_cell_angle_alpha 90.000000
_cell_angle_beta 90.000000
_cell_angle_gamma 90.000000
_cell_volume 2715.085606
_symmetry_space_group_name_H-M "P M M A"
_symmetry_group_IT_number 51
_symmetry_cell_setting 'orthorhombic'
loop_
_space_group_symop_operation_xyz
x,y,z
1/2-x,-y,z
1/2+x,-y,-z
-x,y,-z
-x,-y,-z
1/2+x,y,-z
1/2-x,y,z
x,-y,z
loop_
_atom_site_type_symbol
_atom_site_label
_atom_site_fract_x
_atom_site_fract_y
_atom_site_fract_z
Si Si1 0.439964 0.676571 0.501634
Si Si2 0.896538 0.324102 0.263016
Si Si3 0.188500 0.827123 0.879456
Si Si4 0.998281 0.676513 0.125148
Si Si5 0.810308 0.325602 0.891167
Si Si6 0.097020 0.323733 0.265554
O O1 0.500000 0.739901 0.500000
O O2 0.443077 0.500000 0.502308
O O3 0.408918 0.731455 0.611417
O O4 0.408151 0.735528 0.392636
O O5 0.888652 0.500000 0.257998
O O6 0.843029 0.245626 0.222853
O O7 0.944423 0.270870 0.183882
O O8 0.250000 0.794525 0.856604
O O9 0.175909 0.000000 0.885801
O O10 0.170605 0.754638 0.996344
O O11 0.001120 0.500000 0.123404
O O12 0.048389 0.740939 0.192951
O O13 0.000000 0.741577 0.000000
O O14 0.750000 0.282727 0.859936
O O15 0.816657 0.500000 0.912872
O O16 0.847373 0.271614 0.788801
O O17 0.093650 0.500000 0.266313
#
# Coordination Sequence:
#
# PCOD8206720 Si02
#       6
#     8   8   8   8   8   8
#     4   9  15  26  44  72 104 133 163 197 238 285
#     4  10  18  29  49  75  99 126 165 205 239 281
#     4  10  21  36  52  69  94 129 163 198 247 301
#     4   9  15  22  38  68  99 124 154 193 236 282
#     4   9  17  30  50  74  97 123 159 203 246 287
#     4   9  15  25  43  70 103 131 158 195 240 288
#
# _framework density 17.678999999999998
#
# number of rings (size 3 to 8) (size 9 to 14) (size 15 to 20)
#    0.000    2.667    1.667    1.500    0.000    3.667 
#    0.000    0.833    0.000    9.000    0.000    2.333 
#    0.000    0.000    0.000    0.000    0.000    0.000 
#
# Total GULP energy -595120.886578 kJ/mol
# GULP energy per Si atom -12398.351804 kJ/mol
# Density = 1.763876 g / cm^3
# Si number density = 17.679000 Si / 1000 Ang^3
#
#
#
# Elastic Constant Matrix: (Units=GPa)
#
#
# Indices 1 2 3 4 5 6 
#
# 1 110.6850 27.9630 85.2411 0.0000 0.0000 0.0000
# 2 27.9630 25.5448 28.0964 0.0000 0.0000 0.0000
# 3 85.2411 28.0964 184.6583 0.0000 0.0000 0.0000
# 4 0.0000 0.0000 0.0000 3.3771 0.0000 0.0000
# 5 0.0000 0.0000 0.0000 0.0000 34.0899 0.0000
# 6 0.0000 0.0000 0.0000 0.0000 0.0000 11.4194
#
#
#
# Elastic Compliance Matrix: (Units=1/GPa)
#
#
# Indices 1 2 3 4 5 6 
#
# 1 0.016456 -0.011600 -0.005831 0.000000 0.000000 0.000000
# 2 -0.011600 0.055192 -0.003043 0.000000 0.000000 0.000000
# 3 -0.005831 -0.003043 0.008570 0.000000 0.000000 0.000000
# 4 0.000000 0.000000 0.000000 0.296114 0.000000 0.000000
# 5 0.000000 0.000000 0.000000 0.000000 0.029334 0.000000
# 6 0.000000 0.000000 0.000000 0.000000 0.000000 0.087570
#
#
# Mechanical properties :
#
#
# Convention : Reuss Voigt Hill
#
# Bulk Modulus (GPa) = 25.46495 67.05432 46.25964
# Shear Modulus (GPa) = 9.13618 21.74979 15.44298
#
# Velocity S-wave (km/s) = 2.27575 3.51131 2.95875
# Velocity P-wave (km/s) = 4.61960 7.37904 6.15593
#
# Compressibility (1/GPa) = 0.03926966
#
# Stress axis : x y z
#
# Youngs Moduli (GPa) = 60.76758 18.11858 116.68247
#
# Poissons Ratio (x) = 0.21018 0.68042
# Poissons Ratio (y) = 0.70491 0.35505
# Poissons Ratio (z) = 0.35436 0.05513
#
# Static dielectric constant tensor:
#      x y z
#    x 3.355850 0.000000 0.000000 
#    y 0.000000 2.727910 0.000000 
#    z 0.000000 0.000000 3.550200 
# 
# 
# High freq. dielectric constant tensor:
#      x y z
#    x 1.686630 0.000000 0.000000 
#    y 0.000000 1.624190 0.000000 
#    z 0.000000 0.000000 1.691020 
# 
# From -- ./inp_files/18594.got.cif
#   From: 2010.03.12/outbox.cif.g09.slc.cpg/sg51_10_cif.got.tgz:18594.got - 2010.04.16 13:43:02.
