data_PCOD8206530
_publ_section_title
;
Structure prediction by ZEFSAII (Michael W. Deem and Ramdas Pophale) SiO2 
 PCOD8206530
Probable space group: P M M A
;
_chemical_formula_sum "Si O2"
_cell_formula_units_Z 48
_cell_length_a 20.933449
_cell_length_b 9.004989
_cell_length_c 14.177860
_cell_angle_alpha 90.000000
_cell_angle_beta 90.000000
_cell_angle_gamma 90.000000
_cell_volume 2672.604276
_symmetry_space_group_name_H-M "P M M A"
_symmetry_group_IT_number 51
_symmetry_cell_setting 'orthorhombic'
loop_
_space_group_symop_operation_xyz
x,y,z
1/2-x,-y,z
1/2+x,-y,-z
-x,y,-z
-x,-y,-z
1/2+x,y,-z
1/2-x,y,z
x,-y,z
loop_
_atom_site_type_symbol
_atom_site_label
_atom_site_fract_x
_atom_site_fract_y
_atom_site_fract_z
Si Si1 0.927457 0.335568 0.535159
Si Si2 0.406103 0.829588 0.638486
Si Si3 0.475981 0.674389 0.270315
Si Si4 0.324196 0.326345 0.989926
Si Si5 0.554961 0.823968 0.925643
Si Si6 0.324255 0.839294 0.808497
O O1 0.898983 0.500000 0.520754
O O2 0.888980 0.221136 0.468478
O O3 0.923755 0.293394 0.646501
O O4 0.000000 0.330078 0.500000
O O5 0.456902 0.723440 0.687726
O O6 0.343799 0.804091 0.701807
O O7 0.429658 0.000000 0.636464
O O8 0.477622 0.500000 0.245374
O O9 0.462906 0.769716 0.178105
O O10 0.250000 0.278989 0.011028
O O11 0.332718 0.500000 0.005800
O O12 0.374492 0.241732 0.055657
O O13 0.344775 0.286436 0.882851
O O14 0.559968 0.000000 0.926340
O O15 0.500000 0.771013 0.000000
O O16 0.250000 0.853309 0.807701
O O17 0.354059 0.000000 0.839944
#
# Coordination Sequence:
#
# PCOD8206530 Si02
#       6
#     8   8   8   8   8   8
#     4   8  16  30  46  66  93 125 157 190 237 295
#     4  10  18  28  47  73  98 126 161 200 243 293
#     4  10  20  33  49  70  98 130 162 201 249 296
#     4  10  21  36  54  76 101 133 173 210 248 301
#     4  11  23  36  52  77 106 134 168 211 257 303
#     4   9  18  32  48  68  97 130 161 196 240 289
#
# _framework density 17.96001
#
# number of rings (size 3 to 8) (size 9 to 14) (size 15 to 20)
#    0.000    2.333    0.000    4.000    0.000   11.333 
#    0.000    0.000    0.000    1.000    0.000    4.667 
#    0.000    0.000    0.000    0.000    0.000    0.000 
#
# Total GULP energy -594704.393078 kJ/mol
# GULP energy per Si atom -12389.674856 kJ/mol
# Density = 1.791913 g / cm^3
# Si number density = 17.960010 Si / 1000 Ang^3
#
#
#
# Elastic Constant Matrix: (Units=GPa)
#
#
# Indices 1 2 3 4 5 6 
#
# 1 29.5145 31.5391 28.8192 0.0000 0.0000 0.0000
# 2 31.5391 69.4516 38.6511 0.0000 0.0000 0.0000
# 3 28.8192 38.6511 119.3677 0.0000 0.0000 0.0000
# 4 0.0000 0.0000 0.0000 42.8346 0.0000 0.0000
# 5 0.0000 0.0000 0.0000 0.0000 24.3798 0.0000
# 6 0.0000 0.0000 0.0000 0.0000 0.0000 19.9037
#
#
#
# Elastic Compliance Matrix: (Units=1/GPa)
#
#
# Indices 1 2 3 4 5 6 
#
# 1 0.071969 -0.028071 -0.008286 0.000000 0.000000 0.000000
# 2 -0.028071 0.028512 -0.002455 0.000000 0.000000 0.000000
# 3 -0.008286 -0.002455 0.011173 0.000000 0.000000 0.000000
# 4 0.000000 0.000000 0.000000 0.023346 0.000000 0.000000
# 5 0.000000 0.000000 0.000000 0.000000 0.041018 0.000000
# 6 0.000000 0.000000 0.000000 0.000000 0.000000 0.050242
#
#
# Mechanical properties :
#
#
# Convention : Reuss Voigt Hill
#
# Bulk Modulus (GPa) = 29.38586 46.26139 37.82363
# Shear Modulus (GPa) = 15.86154 25.37858 20.62006
#
# Velocity S-wave (km/s) = 2.97502 3.76315 3.39205
# Velocity P-wave (km/s) = 5.31021 6.68548 6.03713
#
# Compressibility (1/GPa) = 0.03402997
#
# Stress axis : x y z
#
# Youngs Moduli (GPa) = 13.89479 35.07257 89.50151
#
# Poissons Ratio (x) = 0.98452 0.74164
# Poissons Ratio (y) = 0.39004 0.21973
# Poissons Ratio (z) = 0.11514 0.08610
#
# Static dielectric constant tensor:
#      x y z
#    x 3.151040 0.000000 0.000000 
#    y 0.000000 3.666080 0.000000 
#    z 0.000000 0.000000 4.568120 
# 
# 
# High freq. dielectric constant tensor:
#      x y z
#    x 1.657620 0.000000 0.000000 
#    y 0.000000 1.705930 0.000000 
#    z 0.000000 0.000000 1.701330 
# 
# From -- ./inp_files/18553.got.cif
#   From: 2010.03.12/outbox.cif.g09.slc.cpg/sg51_10_cif.got.tgz:18553.got - 2010.04.16 13:43:02.
