data_PCOD8206095
_publ_section_title
;
Structure prediction by ZEFSAII (Michael W. Deem and Ramdas Pophale) SiO2 
 PCOD8206095
Probable space group: P M M A
;
_chemical_formula_sum "Si O2"
_cell_formula_units_Z 64
_cell_length_a 29.689353
_cell_length_b 9.234481
_cell_length_c 15.165516
_cell_angle_alpha 90.000000
_cell_angle_beta 90.000000
_cell_angle_gamma 90.000000
_cell_volume 4157.865314
_symmetry_space_group_name_H-M "P M M A"
_symmetry_group_IT_number 51
_symmetry_cell_setting 'orthorhombic'
loop_
_space_group_symop_operation_xyz
x,y,z
1/2-x,-y,z
1/2+x,-y,-z
-x,y,-z
-x,-y,-z
1/2+x,y,-z
1/2-x,y,z
x,-y,z
loop_
_atom_site_type_symbol
_atom_site_label
_atom_site_fract_x
_atom_site_fract_y
_atom_site_fract_z
Si Si1 0.605945 0.671637 0.965543
Si Si2 0.700439 0.329247 0.022626
Si Si3 0.561392 0.669844 0.146373
Si Si4 0.700016 0.164320 0.200175
Si Si5 0.612542 0.168767 0.300175
Si Si6 0.933956 0.670811 0.443871
Si Si7 0.530299 0.671185 0.625564
Si Si8 0.540444 0.670008 0.818819
O O1 0.600449 0.500000 0.964231
O O2 0.658963 0.717588 0.958909
O O3 0.578693 0.739138 0.882711
O O4 0.584529 0.728069 0.057038
O O5 0.750000 0.276250 0.987752
O O6 0.700544 0.500000 0.033411
O O7 0.689875 0.267220 0.118388
O O8 0.570544 0.500000 0.162216
O O9 0.580745 0.756591 0.228572
O O10 0.508266 0.702148 0.139492
O O11 0.750000 0.192797 0.238368
O O12 0.664754 0.196834 0.277384
O O13 0.695005 0.000000 0.165900
O O14 0.605621 0.241251 0.395899
O O15 0.600653 0.000000 0.304065
O O16 0.926409 0.500000 0.431503
O O17 0.934659 0.713249 0.547895
O O18 0.980479 0.724528 0.399674
O O19 0.527416 0.500000 0.633105
O O20 0.544977 0.737976 0.720135
O O21 0.548724 0.500000 0.812055
#
# Coordination Sequence:
#
# PCOD8206095 Si02
#       8
#     8   8   8   8   8   8   8   8
#     4   9  16  24  38  63  87 109 140 174 207 240
#     4   9  16  26  41  62  85 106 133 173 214 245
#     4  10  17  27  42  60  84 115 145 172 199 238
#     4   9  18  31  44  58  80 111 143 172 203 249
#     4  11  20  28  42  64  87 111 139 172 213 256
#     4   9  16  28  45  63  82 107 140 176 209 245
#     4   8  14  25  43  64  82 105 142 178 204 237
#     4   9  15  24  41  63  84 109 145 180 200 232
#
# _framework density 15.392515
#
# number of rings (size 3 to 8) (size 9 to 14) (size 15 to 20)
#    0.000    2.750    2.500    1.500    0.000    2.000 
#    0.000    1.250    0.000    2.250    0.000    0.875 
#    0.000    3.000    0.000    0.000    0.000    0.000 
#
# Total GULP energy -793082.592363 kJ/mol
# GULP energy per Si atom -12391.915506 kJ/mol
# Density = 1.535748 g / cm^3
# Si number density = 15.392515 Si / 1000 Ang^3
#
#
#
# Elastic Constant Matrix: (Units=GPa)
#
#
# Indices 1 2 3 4 5 6 
#
# 1 106.6653 26.4103 55.2008 0.0000 0.0000 0.0000
# 2 26.4103 25.6932 18.2294 0.0000 0.0000 0.0000
# 3 55.2008 18.2294 96.2555 0.0000 0.0000 0.0000
# 4 0.0000 0.0000 0.0000 4.3271 0.0000 0.0000
# 5 0.0000 0.0000 0.0000 0.0000 20.7115 0.0000
# 6 0.0000 0.0000 0.0000 0.0000 0.0000 14.3471
#
#
#
# Elastic Compliance Matrix: (Units=1/GPa)
#
#
# Indices 1 2 3 4 5 6 
#
# 1 0.015733 -0.011287 -0.006885 0.000000 0.000000 0.000000
# 2 -0.011287 0.053060 -0.003576 0.000000 0.000000 0.000000
# 3 -0.006885 -0.003576 0.015015 0.000000 0.000000 0.000000
# 4 0.000000 0.000000 0.000000 0.231104 0.000000 0.000000
# 5 0.000000 0.000000 0.000000 0.000000 0.048282 0.000000
# 6 0.000000 0.000000 0.000000 0.000000 0.000000 0.069700
#
#
# Mechanical properties :
#
#
# Convention : Reuss Voigt Hill
#
# Bulk Modulus (GPa) = 24.80669 47.58833 36.19751
# Shear Modulus (GPa) = 10.20769 16.46204 13.33487
#
# Velocity S-wave (km/s) = 2.57798 3.27384 2.94653
# Velocity P-wave (km/s) = 5.00124 6.72862 5.92819
#
# Compressibility (1/GPa) = 0.04031171
#
# Stress axis : x y z
#
# Youngs Moduli (GPa) = 63.56134 18.84665 66.60192
#
# Poissons Ratio (x) = 0.21272 0.45855
# Poissons Ratio (y) = 0.71742 0.23816
# Poissons Ratio (z) = 0.43761 0.06739
#
# Static dielectric constant tensor:
#      x y z
#    x 3.179990 0.000000 0.000000 
#    y 0.000000 2.660230 0.000000 
#    z 0.000000 0.000000 3.176620 
# 
# 
# High freq. dielectric constant tensor:
#      x y z
#    x 1.583400 0.000000 0.000000 
#    y 0.000000 1.555660 0.000000 
#    z 0.000000 0.000000 1.575030 
# 
# From -- ./inp_files/26637.got.cif
#   From: 2010.03.12/outbox.cif.g09.slc.cpg/sg51_14_cif.got.tgz:26637.got - 2010.04.16 13:43:02.
