data_PCOD8206173
_publ_section_title
;
Structure prediction by ZEFSAII (Michael W. Deem and Ramdas Pophale) SiO2 
 PCOD8206173
Probable space group: P M M A
;
_chemical_formula_sum "Si O2"
_cell_formula_units_Z 64
_cell_length_a 19.859761
_cell_length_b 9.094823
_cell_length_c 19.861944
_cell_angle_alpha 90.000000
_cell_angle_beta 90.000000
_cell_angle_gamma 90.000000
_cell_volume 3587.484408
_symmetry_space_group_name_H-M "P M M A"
_symmetry_group_IT_number 51
_symmetry_cell_setting 'orthorhombic'
loop_
_space_group_symop_operation_xyz
x,y,z
1/2-x,-y,z
1/2+x,-y,-z
-x,y,-z
-x,-y,-z
1/2+x,y,-z
1/2-x,y,z
x,-y,z
loop_
_atom_site_type_symbol
_atom_site_label
_atom_site_fract_x
_atom_site_fract_y
_atom_site_fract_z
Si Si1 0.326713 0.673259 0.961978
Si Si2 0.966511 0.174227 0.651844
Si Si3 0.913303 0.173522 0.150202
Si Si4 0.442631 0.826188 0.198878
Si Si5 0.174290 0.166873 0.723329
Si Si6 0.326480 0.171137 0.101291
Si Si7 0.604246 0.327015 0.385942
Si Si8 0.924866 0.663307 0.528886
O O1 0.250000 0.714153 0.940766
O O2 0.337137 0.500000 0.963682
O O3 0.380400 0.742478 0.911736
O O4 0.342741 0.736476 0.035218
O O5 0.939591 0.231262 0.724155
O O6 0.916180 0.228263 0.592436
O O7 0.039714 0.240862 0.641144
O O8 0.971657 0.000000 0.648831
O O9 0.874471 0.219948 0.217617
O O10 0.990304 0.227147 0.159541
O O11 0.907374 0.000000 0.136758
O O12 0.376302 0.771150 0.159770
O O13 0.445098 0.000000 0.201674
O O14 0.250000 0.180927 0.750358
O O15 0.166579 0.272210 0.658640
O O16 0.157229 0.000000 0.702038
O O17 0.250000 0.197546 0.125960
O O18 0.339213 0.000000 0.084986
O O19 0.591346 0.500000 0.377494
O O20 0.620746 0.289890 0.464555
O O21 0.906117 0.500000 0.554067
O O22 0.000000 0.666217 0.500000
#
# Coordination Sequence:
#
# PCOD8206173 Si02
#       8
#     8   8   8   8   8   8   8   8
#     4  10  21  36  52  73 103 134 167 209 249 291
#     4  10  17  29  49  73 100 129 164 208 256 297
#     4  10  19  34  53  73 101 134 168 206 251 303
#     4   9  18  32  52  78 105 130 162 209 257 301
#     4  10  20  33  50  72  99 134 174 213 253 301
#     4   9  18  35  58  78  96 127 169 205 246 305
#     4  10  19  31  47  68  99 134 169 209 252 299
#     4   8  16  29  44  67  97 128 163 202 245 295
#
# _framework density 17.839798999999999
#
# number of rings (size 3 to 8) (size 9 to 14) (size 15 to 20)
#    0.000    2.500    1.250    2.250    0.000    5.250 
#    0.000    4.375    0.000    0.750    0.000    1.750 
#    0.000    0.000    0.000    0.000    0.000    0.000 
#
# Total GULP energy -793383.500989 kJ/mol
# GULP energy per Si atom -12396.617203 kJ/mol
# Density = 1.779920 g / cm^3
# Si number density = 17.839799 Si / 1000 Ang^3
#
#
#
# Elastic Constant Matrix: (Units=GPa)
#
#
# Indices 1 2 3 4 5 6 
#
# 1 90.2530 31.4265 69.5590 0.0000 0.0000 0.0000
# 2 31.4265 63.7911 55.5710 0.0000 0.0000 0.0000
# 3 69.5590 55.5710 143.5123 0.0000 0.0000 0.0000
# 4 0.0000 0.0000 0.0000 4.1141 0.0000 0.0000
# 5 0.0000 0.0000 0.0000 0.0000 21.9784 0.0000
# 6 0.0000 0.0000 0.0000 0.0000 0.0000 15.8573
#
#
#
# Elastic Compliance Matrix: (Units=1/GPa)
#
#
# Indices 1 2 3 4 5 6 
#
# 1 0.017838 -0.001895 -0.007912 0.000000 0.000000 0.000000
# 2 -0.001895 0.023857 -0.008319 0.000000 0.000000 0.000000
# 3 -0.007912 -0.008319 0.014024 0.000000 0.000000 0.000000
# 4 0.000000 0.000000 0.000000 0.243065 0.000000 0.000000
# 5 0.000000 0.000000 0.000000 0.000000 0.045499 0.000000
# 6 0.000000 0.000000 0.000000 0.000000 0.000000 0.063062
#
#
# Mechanical properties :
#
#
# Convention : Reuss Voigt Hill
#
# Bulk Modulus (GPa) = 51.37144 67.85216 59.61180
# Shear Modulus (GPa) = 11.10895 17.78996 14.44946
#
# Velocity S-wave (km/s) = 2.49812 3.16128 2.84906
# Velocity P-wave (km/s) = 6.09748 7.17229 6.65661
#
# Compressibility (1/GPa) = 0.01946607
#
# Stress axis : x y z
#
# Youngs Moduli (GPa) = 56.06115 41.91594 71.30501
#
# Poissons Ratio (x) = 0.07945 0.56415
# Poissons Ratio (y) = 0.10626 0.59321
# Poissons Ratio (z) = 0.44355 0.34871
#
# Static dielectric constant tensor:
#      x y z
#    x 3.244200 0.000000 0.000000 
#    y 0.000000 3.231480 0.000000 
#    z 0.000000 0.000000 3.658350 
# 
# 
# High freq. dielectric constant tensor:
#      x y z
#    x 1.664200 0.000000 0.000000 
#    y 0.000000 1.678980 0.000000 
#    z 0.000000 0.000000 1.697880 
# 
# From -- ./inp_files/34181.got.cif
#   From: 2010.03.12/outbox.cif.g09.slc.cpg/sg51_18_cif.got.tgz:34181.got - 2010.04.16 13:43:02.
