data_PCOD8206203
_publ_section_title
;
Structure prediction by ZEFSAII (Michael W. Deem and Ramdas Pophale) SiO2 
 PCOD8206203
Probable space group: P M M A
;
_chemical_formula_sum "Si O2"
_cell_formula_units_Z 64
_cell_length_a 31.069585
_cell_length_b 8.510795
_cell_length_c 12.065940
_cell_angle_alpha 90.000000
_cell_angle_beta 90.000000
_cell_angle_gamma 90.000000
_cell_volume 3190.558732
_symmetry_space_group_name_H-M "P M M A"
_symmetry_group_IT_number 51
_symmetry_cell_setting 'orthorhombic'
loop_
_space_group_symop_operation_xyz
x,y,z
1/2-x,-y,z
1/2+x,-y,-z
-x,y,-z
-x,-y,-z
1/2+x,y,-z
1/2-x,y,z
x,-y,z
loop_
_atom_site_type_symbol
_atom_site_label
_atom_site_fract_x
_atom_site_fract_y
_atom_site_fract_z
Si Si1 0.876567 0.186549 0.627398
Si Si2 0.043984 0.682971 0.762621
Si Si3 0.544959 0.184067 0.779319
Si Si4 0.202460 0.187160 0.231170
Si Si5 0.578338 0.318249 0.998195
Si Si6 0.377598 0.813088 0.622905
Si Si7 0.297816 0.186924 0.766077
Si Si8 0.670873 0.183605 0.000763
O O1 0.918202 0.244222 0.695255
O O2 0.833362 0.254963 0.684898
O O3 0.878845 0.250782 0.502480
O O4 0.874742 0.000000 0.625095
O O5 0.035863 0.500000 0.744503
O O6 0.083217 0.737102 0.687608
O O7 0.001243 0.776742 0.725662
O O8 0.053115 0.724193 0.890267
O O9 0.548094 0.278014 0.894528
O O10 0.549869 0.000000 0.802002
O O11 0.250000 0.240488 0.270721
O O12 0.198842 0.000000 0.228194
O O13 0.194083 0.255126 0.107666
O O14 0.591742 0.500000 0.996472
O O15 0.620343 0.211759 0.991485
O O16 0.332658 0.754285 0.676586
O O17 0.381870 0.000000 0.629490
O O18 0.250000 0.245665 0.732067
O O19 0.309859 0.258694 0.886786
O O20 0.298964 0.000000 0.771553
O O21 0.679653 0.000000 0.004241
#
# Coordination Sequence:
#
# PCOD8206203 Si02
#       8
#     8   8   8   8   8   8   8   8
#     4   9  19  34  53  82 113 142 184 233 273 317
#     4  11  24  40  57  81 113 144 182 229 279 333
#     4  11  22  38  60  84 112 144 182 226 277 335
#     4   9  16  28  51  83 116 145 176 224 281 327
#     4  11  22  36  56  82 113 145 177 224 279 331
#     4  10  20  36  58  81 110 148 189 230 273 321
#     4   9  17  29  51  85 116 141 179 231 276 319
#     4  10  17  30  54  82 111 145 185 225 272 331
#
# _framework density 20.059182
#
# number of rings (size 3 to 8) (size 9 to 14) (size 15 to 20)
#    0.000    2.000    2.500    1.875    0.000    5.500 
#    0.000    6.250    0.000    2.625    0.000    0.000 
#    0.000    0.000    0.000    0.000    0.000    0.000 
#
# Total GULP energy -793611.507442 kJ/mol
# GULP energy per Si atom -12400.179804 kJ/mol
# Density = 2.001353 g / cm^3
# Si number density = 20.059182 Si / 1000 Ang^3
#
#
#
# Elastic Constant Matrix: (Units=GPa)
#
#
# Indices 1 2 3 4 5 6 
#
# 1 177.4249 12.3370 80.8518 0.0000 0.0000 0.0000
# 2 12.3370 16.1760 24.9169 0.0000 0.0000 0.0000
# 3 80.8518 24.9169 165.5080 0.0000 0.0000 0.0000
# 4 0.0000 0.0000 0.0000 11.8677 0.0000 0.0000
# 5 0.0000 0.0000 0.0000 0.0000 1.5031 0.0000
# 6 0.0000 0.0000 0.0000 0.0000 0.0000 4.5835
#
#
#
# Elastic Compliance Matrix: (Units=1/GPa)
#
#
# Indices 1 2 3 4 5 6 
#
# 1 0.007250 -0.000096 -0.003527 0.000000 0.000000 0.000000
# 2 -0.000096 0.080486 -0.012070 0.000000 0.000000 0.000000
# 3 -0.003527 -0.012070 0.009582 0.000000 0.000000 0.000000
# 4 0.000000 0.000000 0.000000 0.084262 0.000000 0.000000
# 5 0.000000 0.000000 0.000000 0.000000 0.665302 0.000000
# 6 0.000000 0.000000 0.000000 0.000000 0.000000 0.218176
#
#
# Mechanical properties :
#
#
# Convention : Reuss Voigt Hill
#
# Bulk Modulus (GPa) = 15.16734 66.14670 40.65702
# Shear Modulus (GPa) = 4.47058 19.65773 12.06416
#
# Velocity S-wave (km/s) = 1.49450 3.13387 2.45506
# Velocity P-wave (km/s) = 3.24896 6.79281 5.32438
#
# Compressibility (1/GPa) = 0.06593115
#
# Stress axis : x y z
#
# Youngs Moduli (GPa) = 137.92599 12.42458 104.35968
#
# Poissons Ratio (x) = 0.00120 0.36811
# Poissons Ratio (y) = 0.01327 1.25962
# Poissons Ratio (z) = 0.48651 0.14996
#
# Static dielectric constant tensor:
#      x y z
#    x 3.793710 0.000000 0.000000 
#    y 0.000000 3.147930 0.000000 
#    z 0.000000 0.000000 3.873130 
# 
# 
# High freq. dielectric constant tensor:
#      x y z
#    x 1.798670 0.000000 0.000000 
#    y 0.000000 1.735290 0.000000 
#    z 0.000000 0.000000 1.783780 
# 
# From -- ./inp_files/19641.got.cif
#   From: 2010.03.12/outbox.cif.g09.slc.cpg/sg51_10_cif.got.tgz:19641.got - 2010.04.16 13:43:02.
