data_PCOD8206018
_publ_section_title
;
Structure prediction by ZEFSAII (Michael W. Deem and Ramdas Pophale) SiO2 
 PCOD8206018
Probable space group: P M M A
;
_chemical_formula_sum "Si O2"
_cell_formula_units_Z 48
_cell_length_a 8.885191
_cell_length_b 20.678351
_cell_length_c 20.544134
_cell_angle_alpha 90.000000
_cell_angle_beta 90.000000
_cell_angle_gamma 90.000000
_cell_volume 3774.596301
_symmetry_space_group_name_H-M "P M M A"
_symmetry_group_IT_number 51
_symmetry_cell_setting 'orthorhombic'
loop_
_space_group_symop_operation_xyz
x,y,z
1/2-x,-y,z
1/2+x,-y,-z
-x,y,-z
-x,-y,-z
1/2+x,y,-z
1/2-x,y,z
x,-y,z
loop_
_atom_site_type_symbol
_atom_site_label
_atom_site_fract_x
_atom_site_fract_y
_atom_site_fract_z
Si Si1 0.919251 0.922872 0.935576
Si Si2 0.580810 0.076993 0.192694
Si Si3 0.925604 0.429736 0.570204
Si Si4 0.429619 0.694753 0.571909
Si Si5 0.074337 0.073196 0.322810
Si Si6 0.071807 0.823491 0.429955
O O1 0.750000 0.897062 0.936348
O O2 0.997957 0.894824 0.870907
O O3 0.925277 0.000000 0.935310
O O4 0.000000 0.895619 0.000000
O O5 0.750000 0.102894 0.191026
O O6 0.504372 0.102382 0.258722
O O7 0.573183 0.000000 0.191310
O O8 0.750000 0.412937 0.562722
O O9 0.946710 0.500000 0.605560
O O10 0.000000 0.435361 0.500000
O O11 0.009649 0.370601 0.608264
O O12 0.500000 0.693307 0.500000
O O13 0.250000 0.696458 0.571379
O O14 0.496381 0.760101 0.603839
O O15 0.250000 0.075077 0.308364
O O16 0.030980 0.115840 0.384907
O O17 0.019908 0.000000 0.337298
O O18 0.250000 0.813034 0.437331
O O19 0.000000 0.837843 0.500000
#
# Coordination Sequence:
#
# PCOD8206018 Si02
#       6
#     8   8   8   8   8   8
#     4   9  15  22  33  49  69  90 109 128 151 184
#     4   9  16  25  37  52  68  85 105 130 161 198
#     4   9  15  22  33  49  68  87 105 124 148 182
#     4  10  17  25  37  50  66  85 105 129 158 195
#     4   9  18  31  43  53  65  83 107 137 176 218
#     4  10  19  30  42  53  66  83 106 138 176 217
#
# _framework density 12.716592
#
# number of rings (size 3 to 8) (size 9 to 14) (size 15 to 20)
#    0.000    2.667    0.000    5.500    0.000    6.667 
#    0.000    0.000    0.000    0.000    0.000    0.000 
#    0.000    0.000    0.000    0.000    0.000    0.000 
#
# Total GULP energy -594787.735180 kJ/mol
# GULP energy per Si atom -12391.411150 kJ/mol
# Density = 1.268765 g / cm^3
# Si number density = 12.716592 Si / 1000 Ang^3
#
#
#
# Elastic Constant Matrix: (Units=GPa)
#
#
# Indices 1 2 3 4 5 6 
#
# 1 99.8559 39.4941 42.7917 0.0000 0.0000 0.0000
# 2 39.4941 68.5180 33.9601 0.0000 0.0000 0.0000
# 3 42.7917 33.9601 70.4272 0.0000 0.0000 0.0000
# 4 0.0000 0.0000 0.0000 0.2967 0.0000 0.0000
# 5 0.0000 0.0000 0.0000 0.0000 19.1109 0.0000
# 6 0.0000 0.0000 0.0000 0.0000 0.0000 15.6934
#
#
#
# Elastic Compliance Matrix: (Units=1/GPa)
#
#
# Indices 1 2 3 4 5 6 
#
# 1 0.014918 -0.005396 -0.006462 0.000000 0.000000 0.000000
# 2 -0.005396 0.021130 -0.006910 0.000000 0.000000 0.000000
# 3 -0.006462 -0.006910 0.021458 0.000000 0.000000 0.000000
# 4 0.000000 0.000000 0.000000 3.370750 0.000000 0.000000
# 5 0.000000 0.000000 0.000000 0.000000 0.052326 0.000000
# 6 0.000000 0.000000 0.000000 0.000000 0.000000 0.063721
#
#
# Mechanical properties :
#
#
# Convention : Reuss Voigt Hill
#
# Bulk Modulus (GPa) = 50.07850 52.36586 51.22218
# Shear Modulus (GPa) = 1.39334 15.19055 8.29194
#
# Velocity S-wave (km/s) = 1.04789 3.45997 2.55631
# Velocity P-wave (km/s) = 6.39766 7.56508 7.00573
#
# Compressibility (1/GPa) = 0.01996865
#
# Stress axis : x y z
#
# Youngs Moduli (GPa) = 67.03395 47.32632 46.60327
#
# Poissons Ratio (x) = 0.25536 0.30116
# Poissons Ratio (y) = 0.36170 0.32205
# Poissons Ratio (z) = 0.43319 0.32704
#
# Static dielectric constant tensor:
#      x y z
#    x 2.757600 0.000000 0.000000 
#    y 0.000000 3.059320 0.000000 
#    z 0.000000 0.000000 2.363570 
# 
# 
# High freq. dielectric constant tensor:
#      x y z
#    x 1.504600 0.000000 0.000000 
#    y 0.000000 1.452470 0.000000 
#    z 0.000000 0.000000 1.439620 
# 
# From -- ./inp_files/28109.got.cif
#   From: 2010.03.12/outbox.cif.g09.slc.cpg/sg51_15_cif.got.tgz:28109.got - 2010.04.16 13:43:02.
