data_PCOD8206268
_publ_section_title
;
Structure prediction by ZEFSAII (Michael W. Deem and Ramdas Pophale) SiO2 
 PCOD8206268
Probable space group: P M M A
;
_chemical_formula_sum "Si O2"
_cell_formula_units_Z 32
_cell_length_a 17.233941
_cell_length_b 10.290548
_cell_length_c 10.199979
_cell_angle_alpha 90.000000
_cell_angle_beta 90.000000
_cell_angle_gamma 90.000000
_cell_volume 1808.932586
_symmetry_space_group_name_H-M "P M M A"
_symmetry_group_IT_number 51
_symmetry_cell_setting 'orthorhombic'
loop_
_space_group_symop_operation_xyz
x,y,z
1/2-x,-y,z
1/2+x,-y,-z
-x,y,-z
-x,-y,-z
1/2+x,y,-z
1/2-x,y,z
x,-y,z
loop_
_atom_site_type_symbol
_atom_site_label
_atom_site_fract_x
_atom_site_fract_y
_atom_site_fract_z
Si Si1 0.954828 0.500000 0.365561
Si Si2 0.339760 0.733159 0.017780
Si Si3 0.837245 0.000000 0.274655
Si Si4 0.561921 0.500000 0.886067
Si Si5 0.662187 0.716974 0.293124
Si Si6 0.409197 0.000000 0.996436
O O1 0.899963 0.373995 0.362290
O O2 0.000000 0.500000 0.500000
O O3 0.018372 0.500000 0.251830
O O4 0.250000 0.723308 0.054710
O O5 0.384704 0.626550 0.102163
O O6 0.352912 0.712874 0.862812
O O7 0.372402 0.872726 0.063623
O O8 0.849064 0.136006 0.352567
O O9 0.895972 0.000000 0.157153
O O10 0.750000 0.000000 0.214269
O O11 0.500000 0.500000 0.000000
O O12 0.750000 0.668772 0.322122
O O13 0.500000 0.000000 0.000000
#
# Coordination Sequence:
#
# PCOD8206268 Si02
#       6
#     4   8   4   4   8   4
#     4  12  25  37  51  81 114 144 182 229 281 321
#     4  10  19  33  54  82 112 147 180 221 272 328
#     4   8  16  30  53  82 106 134 182 229 261 312
#     4  12  21  35  55  81 108 137 188 229 268 317
#     4   9  17  34  58  80 106 142 184 223 270 326
#     4  10  18  26  48  84 119 140 166 221 281 323
#
# _framework density 17.689990000000002
#
# number of rings (size 3 to 8) (size 9 to 14) (size 15 to 20)
#    0.000    2.000    2.500    4.125    3.500    2.000 
#    0.000    3.125    0.000    0.000    0.000    3.500 
#    0.000    0.000    0.000    0.000    0.000    0.000 
#
# Total GULP energy -396625.148355 kJ/mol
# GULP energy per Si atom -12394.535886 kJ/mol
# Density = 1.764973 g / cm^3
# Si number density = 17.689990 Si / 1000 Ang^3
#
#
#
# Elastic Constant Matrix: (Units=GPa)
#
#
# Indices 1 2 3 4 5 6 
#
# 1 152.8886 92.4506 53.0691 0.0000 0.0000 0.0000
# 2 92.4506 177.6193 43.3615 0.0000 0.0000 0.0000
# 3 53.0691 43.3615 66.0990 0.0000 0.0000 0.0000
# 4 0.0000 0.0000 0.0000 5.4806 0.0000 0.0000
# 5 0.0000 0.0000 0.0000 0.0000 25.5207 0.0000
# 6 0.0000 0.0000 0.0000 0.0000 0.0000 28.7375
#
#
#
# Elastic Compliance Matrix: (Units=1/GPa)
#
#
# Indices 1 2 3 4 5 6 
#
# 1 0.011362 -0.004390 -0.006242 0.000000 0.000000 0.000000
# 2 -0.004390 0.008400 -0.001986 0.000000 0.000000 0.000000
# 3 -0.006242 -0.001986 0.021443 0.000000 0.000000 0.000000
# 4 0.000000 0.000000 0.000000 0.182463 0.000000 0.000000
# 5 0.000000 0.000000 0.000000 0.000000 0.039184 0.000000
# 6 0.000000 0.000000 0.000000 0.000000 0.000000 0.034798
#
#
# Mechanical properties :
#
#
# Convention : Reuss Voigt Hill
#
# Bulk Modulus (GPa) = 62.62162 86.04102 74.33132
# Shear Modulus (GPa) = 15.23416 25.79613 20.51515
#
# Velocity S-wave (km/s) = 2.93776 3.82282 3.40914
# Velocity P-wave (km/s) = 6.85446 8.26009 7.58989
#
# Compressibility (1/GPa) = 0.01596893
#
# Stress axis : x y z
#
# Youngs Moduli (GPa) = 88.01148 119.05072 46.63445
#
# Poissons Ratio (x) = 0.52264 0.29111
# Poissons Ratio (y) = 0.38637 0.09260
# Poissons Ratio (z) = 0.54941 0.23640
#
# Static dielectric constant tensor:
#      x y z
#    x 3.378990 0.000000 0.000000 
#    y 0.000000 3.883120 0.000000 
#    z 0.000000 0.000000 2.572500 
# 
# 
# High freq. dielectric constant tensor:
#      x y z
#    x 1.702950 0.000000 0.000000 
#    y 0.000000 1.712460 0.000000 
#    z 0.000000 0.000000 1.606240 
# 
# From -- ./inp_files/7666.got.cif
#   From: 2010.03.12/outbox.cif.g09.slc.cpg/sg51_4_cif.got.tgz:7666.got - 2010.04.16 13:43:02.
