data_PCOD8206306
_publ_section_title
;
Structure prediction by ZEFSAII (Michael W. Deem and Ramdas Pophale) SiO2 
 PCOD8206306
Probable space group: P M M A
;
_chemical_formula_sum "Si O2"
_cell_formula_units_Z 48
_cell_length_a 8.990831
_cell_length_b 24.158217
_cell_length_c 13.463287
_cell_angle_alpha 90.000000
_cell_angle_beta 90.000000
_cell_angle_gamma 90.000000
_cell_volume 2924.258872
_symmetry_space_group_name_H-M "P M M A"
_symmetry_group_IT_number 51
_symmetry_cell_setting 'orthorhombic'
loop_
_space_group_symop_operation_xyz
x,y,z
1/2-x,-y,z
1/2+x,-y,-z
-x,y,-z
-x,-y,-z
1/2+x,y,-z
1/2-x,y,z
x,-y,z
loop_
_atom_site_type_symbol
_atom_site_label
_atom_site_fract_x
_atom_site_fract_y
_atom_site_fract_z
Si Si1 0.423275 0.563206 0.301357
Si Si2 0.424398 0.939894 0.106794
Si Si3 0.075439 0.166244 0.893447
Si Si4 0.078017 0.281659 0.801591
Si Si5 0.423321 0.379741 0.098951
Si Si6 0.076151 0.337862 0.599450
O O1 0.250000 0.573711 0.321931
O O2 0.468826 0.500000 0.320383
O O3 0.462660 0.578404 0.187863
O O4 0.516570 0.600790 0.376422
O O5 0.250000 0.927913 0.095797
O O6 0.503852 0.888001 0.161469
O O7 0.450436 0.000000 0.159871
O O8 0.500000 0.942194 0.000000
O O9 0.250000 0.157175 0.909129
O O10 0.041914 0.217637 0.821339
O O11 0.000000 0.176809 0.000000
O O12 0.250000 0.295590 0.821704
O O13 0.035120 0.295563 0.687983
O O14 0.982331 0.318439 0.876733
O O15 0.250000 0.375490 0.078969
O O16 0.500000 0.403217 0.000000
O O17 0.250000 0.341916 0.581054
O O18 0.000000 0.314764 0.500000
#
# Coordination Sequence:
#
# PCOD8206306 Si02
#       6
#     8   8   8   8   8   8
#     4   9  19  35  51  68  90 115 146 181 215 257
#     4   9  16  25  37  55  82 117 154 187 216 247
#     4  10  18  27  41  62  88 119 152 183 215 250
#     4   9  19  33  47  65  89 115 146 184 220 260
#     4  10  19  30  46  66  89 119 150 180 216 257
#     4  10  20  35  53  71  90 112 140 176 222 271
#
# _framework density 16.414415999999999
#
# number of rings (size 3 to 8) (size 9 to 14) (size 15 to 20)
#    0.000    2.500    0.000    3.500    0.000    6.000 
#    0.000    0.000    0.000    0.000    0.000    0.000 
#    0.000    0.667    0.000    1.500    0.000    3.000 
#
# Total GULP energy -595057.919812 kJ/mol
# GULP energy per Si atom -12397.039996 kJ/mol
# Density = 1.637706 g / cm^3
# Si number density = 16.414416 Si / 1000 Ang^3
#
#
#
# Elastic Constant Matrix: (Units=GPa)
#
#
# Indices 1 2 3 4 5 6 
#
# 1 79.3248 41.1504 31.6826 0.0000 0.0000 0.0000
# 2 41.1504 116.6317 29.0788 0.0000 0.0000 0.0000
# 3 31.6826 29.0788 70.6019 0.0000 0.0000 0.0000
# 4 0.0000 0.0000 0.0000 13.2567 0.0000 0.0000
# 5 0.0000 0.0000 0.0000 0.0000 25.2975 0.0000
# 6 0.0000 0.0000 0.0000 0.0000 0.0000 26.5663
#
#
#
# Elastic Compliance Matrix: (Units=1/GPa)
#
#
# Indices 1 2 3 4 5 6 
#
# 1 0.017373 -0.004665 -0.005875 0.000000 0.000000 0.000000
# 2 -0.004665 0.010808 -0.002358 0.000000 0.000000 0.000000
# 3 -0.005875 -0.002358 0.017771 0.000000 0.000000 0.000000
# 4 0.000000 0.000000 0.000000 0.075434 0.000000 0.000000
# 5 0.000000 0.000000 0.000000 0.000000 0.039530 0.000000
# 6 0.000000 0.000000 0.000000 0.000000 0.000000 0.037642
#
#
# Mechanical properties :
#
#
# Convention : Reuss Voigt Hill
#
# Bulk Modulus (GPa) = 49.61124 52.26468 50.93796
# Shear Modulus (GPa) = 21.63839 24.00054 22.81946
#
# Velocity S-wave (km/s) = 3.63472 3.82797 3.73260
# Velocity P-wave (km/s) = 6.92132 7.17270 7.04813
#
# Compressibility (1/GPa) = 0.02015672
#
# Stress axis : x y z
#
# Youngs Moduli (GPa) = 57.56162 92.52608 56.27013
#
# Poissons Ratio (x) = 0.43162 0.33057
# Poissons Ratio (y) = 0.26851 0.13269
# Poissons Ratio (z) = 0.33816 0.21818
#
# Static dielectric constant tensor:
#      x y z
#    x 3.213590 0.000000 0.000000 
#    y 0.000000 3.507950 0.000000 
#    z 0.000000 0.000000 2.888260 
# 
# 
# High freq. dielectric constant tensor:
#      x y z
#    x 1.646660 0.000000 0.000000 
#    y 0.000000 1.632080 0.000000 
#    z 0.000000 0.000000 1.593400 
# 
# From -- ./inp_files/14538.got.cif
#   From: 2010.03.12/outbox.cif.g09.slc.cpg/sg51_8_cif.got.tgz:14538.got - 2010.04.16 13:43:02.
