data_PCOD8206796
_publ_section_title
;
Structure prediction by ZEFSAII (Michael W. Deem and Ramdas Pophale) SiO2 
 PCOD8206796
Probable space group: P M M A
;
_chemical_formula_sum "Si O2"
_cell_formula_units_Z 64
_cell_length_a 8.834301
_cell_length_b 23.673030
_cell_length_c 18.915241
_cell_angle_alpha 90.000000
_cell_angle_beta 90.000000
_cell_angle_gamma 90.000000
_cell_volume 3955.832734
_symmetry_space_group_name_H-M "P M M A"
_symmetry_group_IT_number 51
_symmetry_cell_setting 'orthorhombic'
loop_
_space_group_symop_operation_xyz
x,y,z
1/2-x,-y,z
1/2+x,-y,-z
-x,y,-z
-x,-y,-z
1/2+x,y,-z
1/2-x,y,z
x,-y,z
loop_
_atom_site_type_symbol
_atom_site_label
_atom_site_fract_x
_atom_site_fract_y
_atom_site_fract_z
Si Si1 0.572738 0.732630 0.210210
Si Si2 0.574369 0.064554 0.215935
Si Si3 0.070749 0.754954 0.071982
Si Si4 0.072277 0.562626 0.573793
Si Si5 0.425685 0.165084 0.285992
Si Si6 0.074789 0.774237 0.427750
Si Si7 0.927049 0.672894 0.350235
Si Si8 0.072347 0.123116 0.929390
O O1 0.750000 0.733033 0.194045
O O2 0.483591 0.717034 0.138390
O O3 0.525770 0.794611 0.236714
O O4 0.527233 0.686368 0.269336
O O5 0.750000 0.074037 0.233547
O O6 0.475136 0.101077 0.270505
O O7 0.539938 0.081169 0.135060
O O8 0.525782 0.000000 0.226652
O O9 0.250000 0.754727 0.066156
O O10 0.009788 0.817813 0.085439
O O11 0.000000 0.729639 0.000000
O O12 0.250000 0.562590 0.562125
O O13 0.015998 0.500000 0.597235
O O14 0.025867 0.608228 0.633427
O O15 0.000000 0.580995 0.500000
O O16 0.250000 0.174528 0.267295
O O17 0.457701 0.178658 0.368086
O O18 0.250000 0.765987 0.441950
O O19 0.000000 0.795644 0.500000
O O20 0.011292 0.713682 0.404517
O O21 0.750000 0.683486 0.361365
O O22 0.250000 0.134259 0.940717
O O23 0.000000 0.095506 0.000000
#
# Coordination Sequence:
#
# PCOD8206796 Si02
#       8
#     8   8   8   8   8   8   8   8
#     4  10  18  30  47  67  92 121 152 188 230 274
#     4  10  21  35  50  67  89 118 150 184 224 272
#     4  11  20  30  46  67  92 121 153 185 224 273
#     4   9  17  29  44  64  93 130 168 200 228 263
#     4  10  20  33  49  69  90 114 147 185 225 273
#     4  10  20  32  48  71  95 118 147 186 231 276
#     4   9  18  30  46  68  95 127 159 193 231 268
#     4  10  19  31  47  66  90 119 150 183 219 261
#
# _framework density 16.178640999999999
#
# number of rings (size 3 to 8) (size 9 to 14) (size 15 to 20)
#    0.000    2.125    1.250    3.750    0.000    4.500 
#    0.000    0.000    0.000    0.375    0.000    0.000 
#    0.000    0.500    0.000    0.875    0.000    1.250 
#
# Total GULP energy -793607.751504 kJ/mol
# GULP energy per Si atom -12400.121117 kJ/mol
# Density = 1.614182 g / cm^3
# Si number density = 16.178641 Si / 1000 Ang^3
#
#
#
# Elastic Constant Matrix: (Units=GPa)
#
#
# Indices 1 2 3 4 5 6 
#
# 1 78.1064 32.6125 51.5817 0.0000 0.0000 0.0000
# 2 32.6125 90.0622 56.5681 0.0000 0.0000 0.0000
# 3 51.5817 56.5681 124.3802 0.0000 0.0000 0.0000
# 4 0.0000 0.0000 0.0000 21.3083 0.0000 0.0000
# 5 0.0000 0.0000 0.0000 0.0000 30.0860 0.0000
# 6 0.0000 0.0000 0.0000 0.0000 0.0000 15.6630
#
#
#
# Elastic Compliance Matrix: (Units=1/GPa)
#
#
# Indices 1 2 3 4 5 6 
#
# 1 0.018046 -0.002568 -0.006316 0.000000 0.000000 0.000000
# 2 -0.002568 0.015909 -0.006171 0.000000 0.000000 0.000000
# 3 -0.006316 -0.006171 0.013466 0.000000 0.000000 0.000000
# 4 0.000000 0.000000 0.000000 0.046930 0.000000 0.000000
# 5 0.000000 0.000000 0.000000 0.000000 0.033238 0.000000
# 6 0.000000 0.000000 0.000000 0.000000 0.000000 0.063845
#
#
# Mechanical properties :
#
#
# Convention : Reuss Voigt Hill
#
# Bulk Modulus (GPa) = 57.76291 63.78592 60.77441
# Shear Modulus (GPa) = 21.99607 23.53058 22.76333
#
# Velocity S-wave (km/s) = 3.69124 3.81783 3.75507
# Velocity P-wave (km/s) = 7.34491 7.67763 7.51311
#
# Compressibility (1/GPa) = 0.01731215
#
# Stress axis : x y z
#
# Youngs Moduli (GPa) = 55.41279 62.85790 74.26289
#
# Poissons Ratio (x) = 0.16139 0.46907
# Poissons Ratio (y) = 0.14227 0.45825
# Poissons Ratio (z) = 0.35000 0.38787
#
# Static dielectric constant tensor:
#      x y z
#    x 3.135680 0.000000 0.000000 
#    y 0.000000 2.942960 0.000000 
#    z 0.000000 0.000000 3.480830 
# 
# 
# High freq. dielectric constant tensor:
#      x y z
#    x 1.634070 0.000000 0.000000 
#    y 0.000000 1.584160 0.000000 
#    z 0.000000 0.000000 1.623980 
# 
# From -- ./inp_files/28649.got.cif
#   From: 2010.03.12/outbox.cif.g09.slc.cpg/sg51_15_cif.got.tgz:28649.got - 2010.04.16 13:43:02.
