data_PCOD8206589
_publ_section_title
;
Structure prediction by ZEFSAII (Michael W. Deem and Ramdas Pophale) SiO2 
 PCOD8206589
Probable space group: P M M A
;
_chemical_formula_sum "Si O2"
_cell_formula_units_Z 64
_cell_length_a 9.410547
_cell_length_b 18.125256
_cell_length_c 21.800685
_cell_angle_alpha 90.000000
_cell_angle_beta 90.000000
_cell_angle_gamma 90.000000
_cell_volume 3718.511741
_symmetry_space_group_name_H-M "P M M A"
_symmetry_group_IT_number 51
_symmetry_cell_setting 'orthorhombic'
loop_
_space_group_symop_operation_xyz
x,y,z
1/2-x,-y,z
1/2+x,-y,-z
-x,y,-z
-x,-y,-z
1/2+x,y,-z
1/2-x,y,z
x,-y,z
loop_
_atom_site_type_symbol
_atom_site_label
_atom_site_fract_x
_atom_site_fract_y
_atom_site_fract_z
Si Si1 0.083788 0.791577 0.267590
Si Si2 0.086618 0.670393 0.177481
Si Si3 0.583849 0.415057 0.938847
Si Si4 0.085168 0.875104 0.440181
Si Si5 0.088936 0.419335 0.592885
Si Si6 0.090236 0.715677 0.392331
Si Si7 0.402303 0.581610 0.736894
Si Si8 0.586022 0.083444 0.321471
O O1 0.250000 0.812196 0.277701
O O2 0.060196 0.755001 0.199768
O O3 0.035195 0.737067 0.323484
O O4 0.986314 0.864433 0.269965
O O5 0.250000 0.651717 0.172751
O O6 0.022651 0.642803 0.112461
O O7 0.031350 0.623338 0.233541
O O8 0.750000 0.402788 0.951711
O O9 0.554520 0.500000 0.918654
O O10 0.500000 0.394989 0.000000
O O11 0.250000 0.901463 0.442826
O O12 0.077948 0.786909 0.435325
O O13 0.000000 0.901525 0.500000
O O14 0.005792 0.912123 0.383179
O O15 0.250000 0.405361 0.571353
O O16 0.037283 0.500000 0.567252
O O17 0.075059 0.422204 0.665222
O O18 0.995309 0.349425 0.572657
O O19 0.250000 0.686780 0.387002
O O20 0.250000 0.620020 0.752168
O O21 0.400550 0.500000 0.764691
O O22 0.750000 0.107612 0.333238
O O23 0.580622 0.000000 0.296503
#
# Coordination Sequence:
#
# PCOD8206589 Si02
#       8
#     8   8   8   8   8   8   8   8
#     4   9  18  31  47  70  97 123 154 192 236 286
#     4  10  18  29  45  65  90 121 161 204 243 285
#     4   9  18  31  45  62  89 129 174 215 251 285
#     4  10  21  36  54  76  99 124 159 196 232 276
#     4   9  17  27  39  59  87 117 149 185 229 279
#     4   9  17  30  46  66  91 118 150 190 235 282
#     4   9  17  26  36  57  88 118 150 189 233 278
#     4  10  21  36  54  76 102 131 158 184 222 276
#
# _framework density 17.211188
#
# number of rings (size 3 to 8) (size 9 to 14) (size 15 to 20)
#    0.000    2.625    1.250    2.625    0.000    5.750 
#    0.000    2.500    0.000    0.375    0.000    0.000 
#    0.000    0.500    0.000    1.125    0.000    2.000 
#
# Total GULP energy -792936.667341 kJ/mol
# GULP energy per Si atom -12389.635427 kJ/mol
# Density = 1.717201 g / cm^3
# Si number density = 17.211188 Si / 1000 Ang^3
#
#
#
# Elastic Constant Matrix: (Units=GPa)
#
#
# Indices 1 2 3 4 5 6 
#
# 1 68.5084 41.2808 30.6495 0.0000 0.0000 0.0000
# 2 41.2808 76.0013 19.0809 0.0000 0.0000 0.0000
# 3 30.6495 19.0809 63.1645 0.0000 0.0000 0.0000
# 4 0.0000 0.0000 0.0000 14.5284 0.0000 0.0000
# 5 0.0000 0.0000 0.0000 0.0000 21.6067 0.0000
# 6 0.0000 0.0000 0.0000 0.0000 0.0000 27.0099
#
#
#
# Elastic Compliance Matrix: (Units=1/GPa)
#
#
# Indices 1 2 3 4 5 6 
#
# 1 0.025617 -0.011679 -0.008902 0.000000 0.000000 0.000000
# 2 -0.011679 0.019562 -0.000242 0.000000 0.000000 0.000000
# 3 -0.008902 -0.000242 0.020224 0.000000 0.000000 0.000000
# 4 0.000000 0.000000 0.000000 0.068831 0.000000 0.000000
# 5 0.000000 0.000000 0.000000 0.000000 0.046282 0.000000
# 6 0.000000 0.000000 0.000000 0.000000 0.000000 0.037024
#
#
# Mechanical properties :
#
#
# Convention : Reuss Voigt Hill
#
# Bulk Modulus (GPa) = 42.09377 43.29961 42.69669
# Shear Modulus (GPa) = 18.71923 20.40654 19.56288
#
# Velocity S-wave (km/s) = 3.30149 3.44707 3.37506
# Velocity P-wave (km/s) = 6.24847 6.40746 6.32846
#
# Compressibility (1/GPa) = 0.02375649
#
# Stress axis : x y z
#
# Youngs Moduli (GPa) = 39.03694 51.11936 49.44511
#
# Poissons Ratio (x) = 0.59702 0.44016
# Poissons Ratio (y) = 0.45591 0.01198
# Poissons Ratio (z) = 0.34751 0.01239
#
# Static dielectric constant tensor:
#      x y z
#    x 3.337210 0.000000 0.000000 
#    y 0.000000 3.308640 0.000000 
#    z 0.000000 0.000000 2.982360 
# 
# 
# High freq. dielectric constant tensor:
#      x y z
#    x 1.670330 0.000000 0.000000 
#    y 0.000000 1.650640 0.000000 
#    z 0.000000 0.000000 1.625470 
# 
# From -- ./inp_files/35148.got.cif
#   From: 2010.03.12/outbox.cif.g09.slc.cpg/sg51_18_cif.got.tgz:35148.got - 2010.04.16 13:43:02.
