data_PCOD8206409
_publ_section_title
;
Structure prediction by ZEFSAII (Michael W. Deem and Ramdas Pophale) SiO2 
 PCOD8206409
Probable space group: P M M A
;
_chemical_formula_sum "Si O2"
_cell_formula_units_Z 64
_cell_length_a 8.935040
_cell_length_b 18.560962
_cell_length_c 26.625168
_cell_angle_alpha 90.000000
_cell_angle_beta 90.000000
_cell_angle_gamma 90.000000
_cell_volume 4415.596083
_symmetry_space_group_name_H-M "P M M A"
_symmetry_group_IT_number 51
_symmetry_cell_setting 'orthorhombic'
loop_
_space_group_symop_operation_xyz
x,y,z
1/2-x,-y,z
1/2+x,-y,-z
-x,y,-z
-x,-y,-z
1/2+x,y,-z
1/2-x,y,z
x,-y,z
loop_
_atom_site_type_symbol
_atom_site_label
_atom_site_fract_x
_atom_site_fract_y
_atom_site_fract_z
Si Si1 0.924808 0.418111 0.154677
Si Si2 0.424349 0.078669 0.853404
Si Si3 0.080173 0.655733 0.739865
Si Si4 0.425475 0.707229 0.106051
Si Si5 0.081781 0.585760 0.549125
Si Si6 0.574599 0.417912 0.649830
Si Si7 0.572338 0.170096 0.051079
Si Si8 0.922073 0.782461 0.195649
O O1 0.750000 0.410864 0.143335
O O2 0.980363 0.500000 0.152201
O O3 0.961280 0.388135 0.210088
O O4 0.013523 0.374343 0.111602
O O5 0.250000 0.065913 0.859376
O O6 0.482192 0.117016 0.904244
O O7 0.455483 0.131288 0.805048
O O8 0.502061 0.000000 0.845712
O O9 0.250000 0.638732 0.723200
O O10 0.059640 0.742157 0.750710
O O11 0.969962 0.632853 0.695842
O O12 0.250000 0.706458 0.095075
O O13 0.509134 0.749490 0.061252
O O14 0.461177 0.746857 0.158054
O O15 0.250000 0.615460 0.549518
O O16 0.077806 0.500000 0.547208
O O17 0.000000 0.617665 0.500000
O O18 0.000483 0.612909 0.599406
O O19 0.750000 0.414344 0.641622
O O20 0.522171 0.500000 0.660753
O O21 0.750000 0.173032 0.046225
O O22 0.500000 0.139989 0.000000
O O23 0.750000 0.769492 0.176227
#
# Coordination Sequence:
#
# PCOD8206409 Si02
#       8
#     8   8   8   8   8   8   8   8
#     4   9  17  29  44  60  79 103 129 159 197 238
#     4   8  14  26  45  66  85 105 129 157 187 221
#     4   9  16  26  39  55  76 103 132 160 194 234
#     4  10  18  28  43  61  80 102 129 158 188 226
#     4   9  16  26  39  52  68  94 129 168 208 248
#     4  10  19  27  35  51  75 101 132 172 212 243
#     4  10  19  31  46  63  83 105 129 155 186 225
#     4   8  15  28  43  58  79 106 133 159 189 230
#
# _framework density 14.494078999999999
#
# number of rings (size 3 to 8) (size 9 to 14) (size 15 to 20)
#    0.000    2.875    0.000    4.125    0.000    5.250 
#    0.000    0.000    0.000    9.375    0.000    0.000 
#    0.000    0.000    0.000    0.000    0.000    0.625 
#
# Total GULP energy -793076.294648 kJ/mol
# GULP energy per Si atom -12391.817104 kJ/mol
# Density = 1.446109 g / cm^3
# Si number density = 14.494079 Si / 1000 Ang^3
#
#
#
# Elastic Constant Matrix: (Units=GPa)
#
#
# Indices 1 2 3 4 5 6 
#
# 1 63.4948 26.3273 26.2173 0.0000 0.0000 0.0000
# 2 26.3273 102.7495 39.7362 0.0000 0.0000 0.0000
# 3 26.2173 39.7362 59.1150 0.0000 0.0000 0.0000
# 4 0.0000 0.0000 0.0000 10.1483 0.0000 0.0000
# 5 0.0000 0.0000 0.0000 0.0000 24.3662 0.0000
# 6 0.0000 0.0000 0.0000 0.0000 0.0000 9.8428
#
#
#
# Elastic Compliance Matrix: (Units=1/GPa)
#
#
# Indices 1 2 3 4 5 6 
#
# 1 0.019658 -0.002250 -0.007205 0.000000 0.000000 0.000000
# 2 -0.002250 0.013409 -0.008015 0.000000 0.000000 0.000000
# 3 -0.007205 -0.008015 0.025499 0.000000 0.000000 0.000000
# 4 0.000000 0.000000 0.000000 0.098538 0.000000 0.000000
# 5 0.000000 0.000000 0.000000 0.000000 0.041040 0.000000
# 6 0.000000 0.000000 0.000000 0.000000 0.000000 0.101597
#
#
# Mechanical properties :
#
#
# Convention : Reuss Voigt Hill
#
# Bulk Modulus (GPa) = 42.32994 45.54678 43.93836
# Shear Modulus (GPa) = 14.59607 17.74336 16.16971
#
# Velocity S-wave (km/s) = 3.17683 3.50262 3.34370
# Velocity P-wave (km/s) = 6.53641 6.91740 6.72960
#
# Compressibility (1/GPa) = 0.02362394
#
# Stress axis : x y z
#
# Youngs Moduli (GPa) = 50.87107 74.57861 39.21652
#
# Poissons Ratio (x) = 0.16782 0.28257
# Poissons Ratio (y) = 0.11447 0.31433
# Poissons Ratio (z) = 0.36655 0.59776
#
# Static dielectric constant tensor:
#      x y z
#    x 2.741280 0.000000 0.000000 
#    y 0.000000 2.998780 0.000000 
#    z 0.000000 0.000000 2.691820 
# 
# 
# High freq. dielectric constant tensor:
#      x y z
#    x 1.552500 0.000000 0.000000 
#    y 0.000000 1.528400 0.000000 
#    z 0.000000 0.000000 1.524950 
# 
# From -- ./inp_files/36406.got.cif
#   From: 2010.03.12/outbox.cif.g09.slc.cpg/sg51_19_cif.got.tgz:36406.got - 2010.04.16 13:43:02.
