data_PCOD8206294
_publ_section_title
;
Structure prediction by ZEFSAII (Michael W. Deem and Ramdas Pophale) SiO2 
 PCOD8206294
Probable space group: P M M A
;
_chemical_formula_sum "Si O2"
_cell_formula_units_Z 64
_cell_length_a 26.106041
_cell_length_b 9.190312
_cell_length_c 18.542170
_cell_angle_alpha 90.000000
_cell_angle_beta 90.000000
_cell_angle_gamma 90.000000
_cell_volume 4448.686783
_symmetry_space_group_name_H-M "P M M A"
_symmetry_group_IT_number 51
_symmetry_cell_setting 'orthorhombic'
loop_
_space_group_symop_operation_xyz
x,y,z
1/2-x,-y,z
1/2+x,-y,-z
-x,y,-z
-x,-y,-z
1/2+x,y,-z
1/2-x,y,z
x,-y,z
loop_
_atom_site_type_symbol
_atom_site_label
_atom_site_fract_x
_atom_site_fract_y
_atom_site_fract_z
Si Si1 0.993813 0.172795 0.324535
Si Si2 0.447856 0.664327 0.044115
Si Si3 0.190688 0.668498 0.838992
Si Si4 0.106803 0.827919 0.590998
Si Si5 0.191184 0.332752 0.674678
Si Si6 0.604617 0.829578 0.077046
Si Si7 0.002092 0.829300 0.836935
Si Si8 0.549142 0.172329 0.541678
O O1 0.042555 0.224885 0.374766
O O2 0.940519 0.227042 0.359611
O O3 0.999918 0.235057 0.244123
O O4 0.992191 0.000000 0.319723
O O5 0.428890 0.500000 0.058681
O O6 0.457813 0.745750 0.119496
O O7 0.500000 0.664868 0.000000
O O8 0.404860 0.750595 0.999282
O O9 0.250000 0.692803 0.858901
O O10 0.175628 0.500000 0.849842
O O11 0.180446 0.716757 0.756641
O O12 0.157054 0.769185 0.890345
O O13 0.158980 0.759399 0.618250
O O14 0.098222 0.778623 0.506413
O O15 0.111988 0.000000 0.596463
O O16 0.250000 0.306238 0.654926
O O17 0.176160 0.500000 0.665813
O O18 0.558364 0.796169 0.131920
O O19 0.610340 0.000000 0.062335
O O20 0.989838 0.000000 0.841059
O O21 0.500000 0.233273 0.500000
O O22 0.547391 0.000000 0.541689
#
# Coordination Sequence:
#
# PCOD8206294 Si02
#       8
#     8   8   8   8   8   8   8   8
#     4   8  13  22  37  57  80 104 128 156 194 235
#     4   9  17  28  40  54  75 104 134 160 189 229
#     4   9  18  31  43  55  75 104 135 163 191 227
#     4   9  15  24  40  59  76  99 134 167 191 221
#     4   9  18  30  40  52  75 106 134 160 194 231
#     4  10  18  27  41  60  80 101 128 163 198 228
#     4   9  16  25  38  57  80 104 131 162 194 229
#     4   7  11  20  35  55  77 100 126 156 189 228
#
# _framework density 14.386267999999999
#
# number of rings (size 3 to 8) (size 9 to 14) (size 15 to 20)
#    0.000    3.250    0.000    3.750    0.000    4.000 
#    0.000    1.875    0.000    4.125    0.000    0.000 
#    0.000    1.000    0.000    9.250    0.000    3.125 
#
# Total GULP energy -792951.954799 kJ/mol
# GULP energy per Si atom -12389.874294 kJ/mol
# Density = 1.435352 g / cm^3
# Si number density = 14.386268 Si / 1000 Ang^3
#
#
#
# Elastic Constant Matrix: (Units=GPa)
#
#
# Indices 1 2 3 4 5 6 
#
# 1 58.9943 32.7622 43.4932 0.0000 0.0000 0.0000
# 2 32.7622 51.6640 36.1437 0.0000 0.0000 0.0000
# 3 43.4932 36.1437 105.1978 0.0000 0.0000 0.0000
# 4 0.0000 0.0000 0.0000 15.5329 0.0000 0.0000
# 5 0.0000 0.0000 0.0000 0.0000 27.7731 0.0000
# 6 0.0000 0.0000 0.0000 0.0000 0.0000 19.7673
#
#
#
# Elastic Compliance Matrix: (Units=1/GPa)
#
#
# Indices 1 2 3 4 5 6 
#
# 1 0.030375 -0.013791 -0.007820 0.000000 0.000000 0.000000
# 2 -0.013791 0.031742 -0.005204 0.000000 0.000000 0.000000
# 3 -0.007820 -0.005204 0.014527 0.000000 0.000000 0.000000
# 4 0.000000 0.000000 0.000000 0.064379 0.000000 0.000000
# 5 0.000000 0.000000 0.000000 0.000000 0.036006 0.000000
# 6 0.000000 0.000000 0.000000 0.000000 0.000000 0.050589
#
#
# Mechanical properties :
#
#
# Convention : Reuss Voigt Hill
#
# Bulk Modulus (GPa) = 43.45243 48.96158 46.20700
# Shear Modulus (GPa) = 17.30588 19.51180 18.40884
#
# Velocity S-wave (km/s) = 3.47211 3.68677 3.58105
# Velocity P-wave (km/s) = 6.80762 7.22706 7.02048
#
# Compressibility (1/GPa) = 0.02301367
#
# Stress axis : x y z
#
# Youngs Moduli (GPa) = 32.92205 31.50394 68.83758
#
# Poissons Ratio (x) = 0.43448 0.53830
# Poissons Ratio (y) = 0.45403 0.35823
# Poissons Ratio (z) = 0.25745 0.16395
#
# Static dielectric constant tensor:
#      x y z
#    x 2.588950 0.000000 0.000000 
#    y 0.000000 2.639360 0.000000 
#    z 0.000000 0.000000 3.062940 
# 
# 
# High freq. dielectric constant tensor:
#      x y z
#    x 1.515420 0.000000 0.000000 
#    y 0.000000 1.534520 0.000000 
#    z 0.000000 0.000000 1.545570 
# 
# From -- ./inp_files/34219.got.cif
#   From: 2010.03.12/outbox.cif.g09.slc.cpg/sg51_18_cif.got.tgz:34219.got - 2010.04.16 13:43:02.
