data_PCOD8206089
_publ_section_title
;
Structure prediction by ZEFSAII (Michael W. Deem and Ramdas Pophale) SiO2 
 PCOD8206089
Probable space group: P M M A
;
_chemical_formula_sum "Si O2"
_cell_formula_units_Z 64
_cell_length_a 14.614533
_cell_length_b 8.919165
_cell_length_c 27.976085
_cell_angle_alpha 90.000000
_cell_angle_beta 90.000000
_cell_angle_gamma 90.000000
_cell_volume 3646.666768
_symmetry_space_group_name_H-M "P M M A"
_symmetry_group_IT_number 51
_symmetry_cell_setting 'orthorhombic'
loop_
_space_group_symop_operation_xyz
x,y,z
1/2-x,-y,z
1/2+x,-y,-z
-x,y,-z
-x,-y,-z
1/2+x,y,-z
1/2-x,y,z
x,-y,z
loop_
_atom_site_type_symbol
_atom_site_label
_atom_site_fract_x
_atom_site_fract_y
_atom_site_fract_z
Si Si1 0.145527 0.175612 0.296928
Si Si2 0.645567 0.323543 0.803432
Si Si3 0.459719 0.823035 0.111582
Si Si4 0.899196 0.333630 0.979843
Si Si5 0.535542 0.322138 0.618972
Si Si6 0.145891 0.674428 0.470595
Si Si7 0.349273 0.828378 0.929272
Si Si8 0.649656 0.322398 0.423916
O O1 0.250000 0.211757 0.312177
O O2 0.120818 0.256675 0.247813
O O3 0.076154 0.237115 0.336077
O O4 0.130202 0.000000 0.290051
O O5 0.750000 0.282372 0.817595
O O6 0.630823 0.500000 0.801624
O O7 0.574672 0.253875 0.840507
O O8 0.396902 0.766571 0.067838
O O9 0.566312 0.773184 0.103759
O O10 0.449010 0.000000 0.116505
O O11 0.861865 0.500000 0.967575
O O12 0.838492 0.260400 0.021112
O O13 0.000000 0.343176 0.000000
O O14 0.551126 0.500000 0.625205
O O15 0.582660 0.256901 0.570907
O O16 0.427886 0.279300 0.614565
O O17 0.250000 0.706018 0.455795
O O18 0.123592 0.500000 0.472637
O O19 0.125557 0.743671 0.523197
O O20 0.250000 0.810546 0.902870
O O21 0.369120 0.000000 0.942941
O O22 0.750000 0.262760 0.407134
O O23 0.654404 0.500000 0.429692
#
# Coordination Sequence:
#
# PCOD8206089 Si02
#       8
#     8   8   8   8   8   8   8   8
#     4  10  21  36  52  71  96 122 148 185 238 296
#     4  10  21  37  56  76  97 121 152 193 239 286
#     4  10  19  32  52  75 100 131 164 198 239 288
#     4   9  17  29  45  67  96 129 166 206 241 273
#     4  10  17  26  46  72  95 123 160 199 236 276
#     4   8  13  21  36  63  97 127 157 195 235 275
#     4   9  18  32  49  71 101 136 170 201 235 278
#     4   8  14  24  39  64  98 131 162 197 234 271
#
# _framework density 17.550273000000001
#
# number of rings (size 3 to 8) (size 9 to 14) (size 15 to 20)
#    0.000    2.750    0.000    3.000    0.000    6.250 
#    0.000    0.000    0.000    2.625    0.000    1.750 
#    0.000    0.000    0.000    0.000    0.000    0.000 
#
# Total GULP energy -793189.924319 kJ/mol
# GULP energy per Si atom -12393.592567 kJ/mol
# Density = 1.751033 g / cm^3
# Si number density = 17.550273 Si / 1000 Ang^3
#
#
#
# Elastic Constant Matrix: (Units=GPa)
#
#
# Indices 1 2 3 4 5 6 
#
# 1 101.4034 38.2666 73.7667 0.0000 0.0000 0.0000
# 2 38.2666 63.5539 44.6349 0.0000 0.0000 0.0000
# 3 73.7667 44.6349 112.3610 0.0000 0.0000 0.0000
# 4 0.0000 0.0000 0.0000 -5.0275 0.0000 0.0000
# 5 0.0000 0.0000 0.0000 0.0000 26.0984 0.0000
# 6 0.0000 0.0000 0.0000 0.0000 0.0000 16.3082
#
#
#
# Elastic Compliance Matrix: (Units=1/GPa)
#
#
# Indices 1 2 3 4 5 6 
#
# 1 0.019523 -0.003819 -0.011300 0.000000 0.000000 0.000000
# 2 -0.003819 0.022570 -0.006459 0.000000 0.000000 0.000000
# 3 -0.011300 -0.006459 0.018884 0.000000 0.000000 0.000000
# 4 0.000000 0.000000 0.000000 -0.198908 0.000000 0.000000
# 5 0.000000 0.000000 0.000000 0.000000 0.038316 0.000000
# 6 0.000000 0.000000 0.000000 0.000000 0.000000 0.061319
#
#
# Mechanical properties :
#
#
# Convention : Reuss Voigt Hill
#
# Bulk Modulus (GPa) = 56.11039 65.62830 60.86935
# Shear Modulus (GPa) = 462.89518 15.51917 239.20717
#
# Velocity S-wave (km/s) = 16.25812 2.97689 11.68735
# Velocity P-wave (km/s) = 19.60806 7.02079 14.72697
#
# Compressibility (1/GPa) = 0.01782201
#
# Stress axis : x y z
#
# Youngs Moduli (GPa) = 51.22119 44.30638 52.95372
#
# Poissons Ratio (x) = 0.16920 0.59839
# Poissons Ratio (y) = 0.19560 0.34202
# Poissons Ratio (z) = 0.57881 0.28617
#
# Static dielectric constant tensor:
#      x y z
#    x 3.441400 0.000000 0.000000 
#    y 0.000000 3.119580 0.000000 
#    z 0.000000 0.000000 2.850260 
# 
# 
# High freq. dielectric constant tensor:
#      x y z
#    x 1.680640 0.000000 0.000000 
#    y 0.000000 1.657080 0.000000 
#    z 0.000000 0.000000 1.657770 
# 
# From -- ./inp_files/35816.got.cif
#   From: 2010.03.12/outbox.cif.g09.slc.cpg/sg51_18_cif.got.tgz:35816.got - 2010.04.16 13:43:02.
