data_PCOD8206738
_publ_section_title
;
Structure prediction by ZEFSAII (Michael W. Deem and Ramdas Pophale) SiO2 
 PCOD8206738
Probable space group: P M M A
;
_chemical_formula_sum "Si O2"
_cell_formula_units_Z 48
_cell_length_a 18.266877
_cell_length_b 9.184321
_cell_length_c 15.535133
_cell_angle_alpha 90.000000
_cell_angle_beta 90.000000
_cell_angle_gamma 90.000000
_cell_volume 2606.311585
_symmetry_space_group_name_H-M "P M M A"
_symmetry_group_IT_number 51
_symmetry_cell_setting 'orthorhombic'
loop_
_space_group_symop_operation_xyz
x,y,z
1/2-x,-y,z
1/2+x,-y,-z
-x,y,-z
-x,-y,-z
1/2+x,y,-z
1/2-x,y,z
x,-y,z
loop_
_atom_site_type_symbol
_atom_site_label
_atom_site_fract_x
_atom_site_fract_y
_atom_site_fract_z
Si Si1 0.578674 0.830185 0.323284
Si Si2 0.083757 0.327493 0.995362
Si Si3 0.332239 0.672940 0.163438
Si Si4 0.426589 0.672497 0.324807
Si Si5 0.413307 0.160594 0.490107
Si Si6 0.833830 0.169492 0.155306
O O1 0.506144 0.737274 0.305920
O O2 0.615976 0.789367 0.415666
O O3 0.637987 0.794437 0.250849
O O4 0.555853 0.000000 0.323857
O O5 0.089852 0.500000 0.988106
O O6 0.119213 0.260516 0.911204
O O7 0.125387 0.267726 0.079675
O O8 0.000000 0.276285 0.000000
O O9 0.250000 0.736745 0.163312
O O10 0.330479 0.500000 0.161087
O O11 0.373457 0.726425 0.248879
O O12 0.433294 0.500000 0.328711
O O13 0.391363 0.727903 0.414712
O O14 0.500000 0.155719 0.500000
O O15 0.383100 0.000000 0.466093
O O16 0.750000 0.219522 0.149538
O O17 0.842750 0.000000 0.133876
#
# Coordination Sequence:
#
# PCOD8206738 Si02
#       6
#     8   8   8   8   8   8
#     4   9  18  33  51  70  98 134 164 196 245 299
#     4  10  20  35  56  79 100 127 167 209 248 297
#     4   9  18  32  48  68  99 135 161 188 240 301
#     4  10  18  29  50  76  97 123 166 212 243 279
#     4   8  15  29  48  70  97 129 162 197 244 296
#     4  10  21  36  53  75 103 134 168 206 250 299
#
# _framework density 18.416830999999998
#
# number of rings (size 3 to 8) (size 9 to 14) (size 15 to 20)
#    0.000    2.667    0.000    3.000    0.000    6.333 
#    0.000    2.500    0.000    5.000    0.000    0.000 
#    0.000    0.000    0.000    0.000    0.000    0.000 
#
# Total GULP energy -595102.734254 kJ/mol
# GULP energy per Si atom -12397.973630 kJ/mol
# Density = 1.837491 g / cm^3
# Si number density = 18.416831 Si / 1000 Ang^3
#
#
#
# Elastic Constant Matrix: (Units=GPa)
#
#
# Indices 1 2 3 4 5 6 
#
# 1 108.0883 33.1861 62.7629 0.0000 0.0000 0.0000
# 2 33.1861 45.8717 39.5878 0.0000 0.0000 0.0000
# 3 62.7629 39.5878 154.4792 0.0000 0.0000 0.0000
# 4 0.0000 0.0000 0.0000 28.7941 0.0000 0.0000
# 5 0.0000 0.0000 0.0000 0.0000 13.0136 0.0000
# 6 0.0000 0.0000 0.0000 0.0000 0.0000 4.9885
#
#
#
# Elastic Compliance Matrix: (Units=1/GPa)
#
#
# Indices 1 2 3 4 5 6 
#
# 1 0.013441 -0.006434 -0.003812 0.000000 0.000000 0.000000
# 2 -0.006434 0.031070 -0.005348 0.000000 0.000000 0.000000
# 3 -0.003812 -0.005348 0.009393 0.000000 0.000000 0.000000
# 4 0.000000 0.000000 0.000000 0.034729 0.000000 0.000000
# 5 0.000000 0.000000 0.000000 0.000000 0.076842 0.000000
# 6 0.000000 0.000000 0.000000 0.000000 0.000000 0.200460
#
#
# Mechanical properties :
#
#
# Convention : Reuss Voigt Hill
#
# Bulk Modulus (GPa) = 44.02324 64.39030 54.20677
# Shear Modulus (GPa) = 12.35498 20.88607 16.62053
#
# Velocity S-wave (km/s) = 2.59289 3.37126 3.00736
# Velocity P-wave (km/s) = 5.73758 7.08467 6.44641
#
# Compressibility (1/GPa) = 0.02271527
#
# Stress axis : x y z
#
# Youngs Moduli (GPa) = 74.40185 32.18525 106.46599
#
# Poissons Ratio (x) = 0.20708 0.40584
# Poissons Ratio (y) = 0.47869 0.56940
# Poissons Ratio (z) = 0.28361 0.17213
#
# Static dielectric constant tensor:
#      x y z
#    x 3.415870 0.000000 0.000000 
#    y 0.000000 3.177110 0.000000 
#    z 0.000000 0.000000 3.905630 
# 
# 
# High freq. dielectric constant tensor:
#      x y z
#    x 1.695410 0.000000 0.000000 
#    y 0.000000 1.691850 0.000000 
#    z 0.000000 0.000000 1.736410 
# 
# From -- ./inp_files/24785.got.cif
#   From: 2010.03.12/outbox.cif.g09.slc.cpg/sg51_13_cif.got.tgz:24785.got - 2010.04.16 13:43:02.
