data_PCOD8206618
_publ_section_title
;
Structure prediction by ZEFSAII (Michael W. Deem and Ramdas Pophale) SiO2 
 PCOD8206618
Probable space group: P M M A
;
_chemical_formula_sum "Si O2"
_cell_formula_units_Z 64
_cell_length_a 9.398497
_cell_length_b 17.915358
_cell_length_c 23.142559
_cell_angle_alpha 90.000000
_cell_angle_beta 90.000000
_cell_angle_gamma 90.000000
_cell_volume 3896.684803
_symmetry_space_group_name_H-M "P M M A"
_symmetry_group_IT_number 51
_symmetry_cell_setting 'orthorhombic'
loop_
_space_group_symop_operation_xyz
x,y,z
1/2-x,-y,z
1/2+x,-y,-z
-x,y,-z
-x,-y,-z
1/2+x,y,-z
1/2-x,y,z
x,-y,z
loop_
_atom_site_type_symbol
_atom_site_label
_atom_site_fract_x
_atom_site_fract_y
_atom_site_fract_z
Si Si1 0.906921 0.115197 0.552109
Si Si2 0.591082 0.413803 0.739805
Si Si3 0.585386 0.914059 0.680650
Si Si4 0.906977 0.801382 0.247143
Si Si5 0.413721 0.584615 0.943503
Si Si6 0.589950 0.671697 0.340624
Si Si7 0.408187 0.711434 0.448871
Si Si8 0.415082 0.673152 0.830697
O O1 0.750000 0.077539 0.551071
O O2 0.976506 0.100866 0.615790
O O3 0.889943 0.201772 0.538681
O O4 0.000000 0.079052 0.500000
O O5 0.750000 0.380467 0.729879
O O6 0.601431 0.500000 0.751932
O O7 0.492472 0.400255 0.683710
O O8 0.521281 0.378219 0.795587
O O9 0.750000 0.890813 0.680529
O O10 0.512613 0.865625 0.731250
O O11 0.562108 0.000000 0.697331
O O12 0.750000 0.837639 0.243280
O O13 0.907155 0.733902 0.291865
O O14 0.946831 0.761198 0.185343
O O15 0.250000 0.586101 0.961005
O O16 0.454274 0.500000 0.922097
O O17 0.445195 0.649724 0.896668
O O18 0.500000 0.607264 0.000000
O O19 0.750000 0.650570 0.360469
O O20 0.498085 0.703807 0.391783
O O21 0.500000 0.673159 0.500000
O O22 0.250000 0.674843 0.444641
O O23 0.250000 0.655619 0.814414
#
# Coordination Sequence:
#
# PCOD8206618 Si02
#       8
#     8   8   8   8   8   8   8   8
#     4   9  18  30  44  63  86 114 146 183 225 274
#     4  10  20  31  45  68  94 119 150 189 230 272
#     4  10  20  33  47  64  90 122 152 186 235 289
#     4   9  18  31  47  67  89 114 153 195 230 271
#     4   9  17  29  46  69 101 138 170 197 227 265
#     4  10  19  31  48  67  87 114 147 185 229 277
#     4  10  18  29  46  66  87 111 142 184 228 273
#     4   9  18  32  49  69  94 128 163 198 233 267
#
# _framework density 16.424216999999999
#
# number of rings (size 3 to 8) (size 9 to 14) (size 15 to 20)
#    0.000    2.500    1.250    2.250    0.000    5.500 
#    0.000    1.250    0.000    0.375    0.000    0.000 
#    0.000    0.500    0.000    1.125    0.000    2.000 
#
# Total GULP energy -792992.673783 kJ/mol
# GULP energy per Si atom -12390.510528 kJ/mol
# Density = 1.638683 g / cm^3
# Si number density = 16.424217 Si / 1000 Ang^3
#
#
#
# Elastic Constant Matrix: (Units=GPa)
#
#
# Indices 1 2 3 4 5 6 
#
# 1 102.4853 35.2354 41.6360 0.0000 0.0000 0.0000
# 2 35.2354 56.5025 37.9734 0.0000 0.0000 0.0000
# 3 41.6360 37.9734 81.4414 0.0000 0.0000 0.0000
# 4 0.0000 0.0000 0.0000 14.2318 0.0000 0.0000
# 5 0.0000 0.0000 0.0000 0.0000 21.1684 0.0000
# 6 0.0000 0.0000 0.0000 0.0000 0.0000 2.8363
#
#
#
# Elastic Compliance Matrix: (Units=1/GPa)
#
#
# Indices 1 2 3 4 5 6 
#
# 1 0.013378 -0.005456 -0.004296 0.000000 0.000000 0.000000
# 2 -0.005456 0.028000 -0.010266 0.000000 0.000000 0.000000
# 3 -0.004296 -0.010266 0.019262 0.000000 0.000000 0.000000
# 4 0.000000 0.000000 0.000000 0.070265 0.000000 0.000000
# 5 0.000000 0.000000 0.000000 0.000000 0.047240 0.000000
# 6 0.000000 0.000000 0.000000 0.000000 0.000000 0.352574
#
#
# Mechanical properties :
#
#
# Convention : Reuss Voigt Hill
#
# Bulk Modulus (GPa) = 48.53272 52.23543 50.38407
# Shear Modulus (GPa) = 8.65615 16.01960 12.33787
#
# Velocity S-wave (km/s) = 2.29822 3.12647 2.74378
# Velocity P-wave (km/s) = 6.05442 6.70120 6.38600
#
# Compressibility (1/GPa) = 0.02060465
#
# Stress axis : x y z
#
# Youngs Moduli (GPa) = 74.74699 35.71378 51.91637
#
# Poissons Ratio (x) = 0.19485 0.22302
# Poissons Ratio (y) = 0.40781 0.53299
# Poissons Ratio (z) = 0.32109 0.36665
#
# Static dielectric constant tensor:
#      x y z
#    x 3.514680 0.000000 0.000000 
#    y 0.000000 2.895530 0.000000 
#    z 0.000000 0.000000 3.117280 
# 
# 
# High freq. dielectric constant tensor:
#      x y z
#    x 1.644660 0.000000 0.000000 
#    y 0.000000 1.599990 0.000000 
#    z 0.000000 0.000000 1.609340 
# 
# From -- ./inp_files/35113.got.cif
#   From: 2010.03.12/outbox.cif.g09.slc.cpg/sg51_18_cif.got.tgz:35113.got - 2010.04.16 13:43:02.
