data_PCOD8206263
_publ_section_title
;
Structure prediction by ZEFSAII (Michael W. Deem and Ramdas Pophale) SiO2 
 PCOD8206263
Probable space group: P M M A
;
_chemical_formula_sum "Si O2"
_cell_formula_units_Z 56
_cell_length_a 18.350137
_cell_length_b 13.363024
_cell_length_c 14.126646
_cell_angle_alpha 90.000000
_cell_angle_beta 90.000000
_cell_angle_gamma 90.000000
_cell_volume 3464.041782
_symmetry_space_group_name_H-M "P M M A"
_symmetry_group_IT_number 51
_symmetry_cell_setting 'orthorhombic'
loop_
_space_group_symop_operation_xyz
x,y,z
1/2-x,-y,z
1/2+x,-y,-z
-x,y,-z
-x,-y,-z
1/2+x,y,-z
1/2-x,y,z
x,-y,z
loop_
_atom_site_type_symbol
_atom_site_label
_atom_site_fract_x
_atom_site_fract_y
_atom_site_fract_z
Si Si1 0.330839 0.114754 0.022600
Si Si2 0.834205 0.203747 0.779210
Si Si3 0.472773 0.293536 0.603884
Si Si4 0.666882 0.382963 0.465549
Si Si5 0.537711 0.115899 0.092331
Si Si6 0.975764 0.116262 0.712239
Si Si7 0.611427 0.615119 0.674273
O O1 0.250000 0.139639 0.990129
O O2 0.354250 0.183772 0.111001
O O3 0.340393 0.000000 0.057333
O O4 0.376766 0.133876 0.926934
O O5 0.750000 0.173111 0.759549
O O6 0.888660 0.137255 0.713860
O O7 0.847982 0.320136 0.755090
O O8 0.500000 0.317887 0.500000
O O9 0.387467 0.324958 0.607052
O O10 0.483899 0.176401 0.628421
O O11 0.524835 0.359099 0.673081
O O12 0.750000 0.349831 0.444033
O O13 0.655805 0.500000 0.447584
O O14 0.648669 0.357122 0.574290
O O15 0.511596 0.161821 0.191333
O O16 0.515327 0.000000 0.097781
O O17 0.500000 0.164893 0.000000
O O18 0.991674 0.000000 0.695097
O O19 0.622948 0.500000 0.701091
#
# Coordination Sequence:
#
# PCOD8206263 Si02
#       7
#     8   8   8   8   8   8   8
#     4   9  16  26  41  62  88 113 139 178 222 260
#     4  10  18  26  40  65  92 115 141 176 222 273
#     4   9  18  31  46  66  92 121 151 184 219 263
#     4   9  16  28  48  69  87 111 146 189 232 264
#     4   9  15  26  43  61  82 110 145 183 219 252
#     4  10  19  30  45  65  88 121 156 183 219 263
#     4   9  17  29  45  66  92 117 142 179 227 275
#
# _framework density 16.166086
#
# number of rings (size 3 to 8) (size 9 to 14) (size 15 to 20)
#    0.000    2.714    1.429    1.286    0.000    3.714 
#    0.000    0.714    0.000    1.286    0.000    9.000 
#    0.000    0.000    0.000    0.000    0.000    0.000 
#
# Total GULP energy -693953.868517 kJ/mol
# GULP energy per Si atom -12392.033366 kJ/mol
# Density = 1.612929 g / cm^3
# Si number density = 16.166086 Si / 1000 Ang^3
#
#
#
# Elastic Constant Matrix: (Units=GPa)
#
#
# Indices 1 2 3 4 5 6 
#
# 1 108.9989 28.1737 20.1224 0.0000 0.0000 0.0000
# 2 28.1737 64.1961 16.2693 0.0000 0.0000 0.0000
# 3 20.1224 16.2693 23.9693 0.0000 0.0000 0.0000
# 4 0.0000 0.0000 0.0000 14.7484 0.0000 0.0000
# 5 0.0000 0.0000 0.0000 0.0000 22.4866 0.0000
# 6 0.0000 0.0000 0.0000 0.0000 0.0000 20.1500
#
#
#
# Elastic Compliance Matrix: (Units=1/GPa)
#
#
# Indices 1 2 3 4 5 6 
#
# 1 0.011345 -0.003098 -0.007421 0.000000 0.000000 0.000000
# 2 -0.003098 0.019660 -0.010743 0.000000 0.000000 0.000000
# 3 -0.007421 -0.010743 0.055242 0.000000 0.000000 0.000000
# 4 0.000000 0.000000 0.000000 0.067804 0.000000 0.000000
# 5 0.000000 0.000000 0.000000 0.000000 0.044471 0.000000
# 6 0.000000 0.000000 0.000000 0.000000 0.000000 0.049628
#
#
# Mechanical properties :
#
#
# Convention : Reuss Voigt Hill
#
# Bulk Modulus (GPa) = 22.87201 36.25500 29.56351
# Shear Modulus (GPa) = 16.38005 20.31693 18.34849
#
# Velocity S-wave (km/s) = 3.18659 3.54893 3.37263
# Velocity P-wave (km/s) = 5.26479 6.26646 5.78733
#
# Compressibility (1/GPa) = 0.04372156
#
# Stress axis : x y z
#
# Youngs Moduli (GPa) = 88.14210 50.86565 18.10210
#
# Poissons Ratio (x) = 0.15760 0.13434
# Poissons Ratio (y) = 0.27309 0.19447
# Poissons Ratio (z) = 0.65414 0.54645
#
# Static dielectric constant tensor:
#      x y z
#    x 3.360100 0.000000 0.000000 
#    y 0.000000 2.862720 0.000000 
#    z 0.000000 0.000000 2.912570 
# 
# 
# High freq. dielectric constant tensor:
#      x y z
#    x 1.635780 0.000000 0.000000 
#    y 0.000000 1.593840 0.000000 
#    z 0.000000 0.000000 1.589130 
# 
# From -- ./inp_files/25281.got.cif
#   From: 2010.03.12/outbox.cif.g09.slc.cpg/sg51_13_cif.got.tgz:25281.got - 2010.04.16 13:43:02.
