data_PCOD8206391
_publ_section_title
;
Structure prediction by ZEFSAII (Michael W. Deem and Ramdas Pophale) SiO2 
 PCOD8206391
Probable space group: P M M A
;
_chemical_formula_sum "Si O2"
_cell_formula_units_Z 64
_cell_length_a 8.508107
_cell_length_b 18.462651
_cell_length_c 26.464839
_cell_angle_alpha 90.000000
_cell_angle_beta 90.000000
_cell_angle_gamma 90.000000
_cell_volume 4157.155403
_symmetry_space_group_name_H-M "P M M A"
_symmetry_group_IT_number 51
_symmetry_cell_setting 'orthorhombic'
loop_
_space_group_symop_operation_xyz
x,y,z
1/2-x,-y,z
1/2+x,-y,-z
-x,y,-z
-x,-y,-z
1/2+x,y,-z
1/2-x,y,z
x,-y,z
loop_
_atom_site_type_symbol
_atom_site_label
_atom_site_fract_x
_atom_site_fract_y
_atom_site_fract_z
Si Si1 0.063295 0.080153 0.744977
Si Si2 0.433819 0.416189 0.945912
Si Si3 0.934391 0.417831 0.248098
Si Si4 0.935153 0.167071 0.352338
Si Si5 0.433042 0.287115 0.293963
Si Si6 0.434914 0.083052 0.445715
Si Si7 0.568484 0.785772 0.197667
Si Si8 0.431711 0.656378 0.150591
O O1 0.250000 0.076055 0.742403
O O2 0.002353 0.113699 0.692086
O O3 0.013703 0.130683 0.792977
O O4 0.990150 0.000000 0.752219
O O5 0.250000 0.400233 0.943687
O O6 0.471628 0.500000 0.935073
O O7 0.522302 0.368014 0.905060
O O8 0.500000 0.392640 0.000000
O O9 0.750000 0.412889 0.257541
O O10 0.994647 0.500000 0.251857
O O11 0.024640 0.372600 0.292233
O O12 0.970553 0.388191 0.191976
O O13 0.750000 0.177938 0.349969
O O14 0.018941 0.245979 0.345692
O O15 0.982404 0.134615 0.405706
O O16 0.250000 0.275865 0.281875
O O17 0.544473 0.253208 0.251176
O O18 0.500000 0.106193 0.500000
O O19 0.250000 0.094932 0.444133
O O20 0.480633 0.000000 0.433846
O O21 0.750000 0.782061 0.181850
O O22 0.468061 0.742872 0.155470
O O23 0.250000 0.641835 0.160590
#
# Coordination Sequence:
#
# PCOD8206391 Si02
#       8
#     8   8   8   8   8   8   8   8
#     4   8  14  24  40  62  84 108 140 175 210 249
#     4  10  20  33  47  63  84 109 139 175 212 249
#     4  10  19  30  44  62  85 113 145 179 214 254
#     4  10  18  29  45  62  84 115 148 179 214 256
#     4  10  18  28  42  60  84 111 141 177 214 254
#     4  10  20  32  45  63  87 114 146 183 220 256
#     4   9  16  27  42  59  82 111 142 176 212 251
#     4  11  20  29  43  61  84 114 146 177 210 250
#
# _framework density 15.395141000000001
#
# number of rings (size 3 to 8) (size 9 to 14) (size 15 to 20)
#    0.000    2.250    0.000    7.125    0.000    4.500 
#    0.000    0.000    0.000    7.500    0.000    0.000 
#    0.000    1.000    0.000    3.250    0.000    4.875 
#
# Total GULP energy -793316.426480 kJ/mol
# GULP energy per Si atom -12395.569164 kJ/mol
# Density = 1.536010 g / cm^3
# Si number density = 15.395141 Si / 1000 Ang^3
#
#
#
# Elastic Constant Matrix: (Units=GPa)
#
#
# Indices 1 2 3 4 5 6 
#
# 1 55.0815 27.8216 22.6417 0.0000 0.0000 0.0000
# 2 27.8216 111.1845 53.0831 0.0000 0.0000 0.0000
# 3 22.6417 53.0831 75.7532 0.0000 0.0000 0.0000
# 4 0.0000 0.0000 0.0000 31.3418 0.0000 0.0000
# 5 0.0000 0.0000 0.0000 0.0000 23.0803 0.0000
# 6 0.0000 0.0000 0.0000 0.0000 0.0000 17.7701
#
#
#
# Elastic Compliance Matrix: (Units=1/GPa)
#
#
# Indices 1 2 3 4 5 6 
#
# 1 0.021560 -0.003484 -0.004003 0.000000 0.000000 0.000000
# 2 -0.003484 0.014079 -0.008824 0.000000 0.000000 0.000000
# 3 -0.004003 -0.008824 0.020581 0.000000 0.000000 0.000000
# 4 0.000000 0.000000 0.000000 0.031906 0.000000 0.000000
# 5 0.000000 0.000000 0.000000 0.000000 0.043327 0.000000
# 6 0.000000 0.000000 0.000000 0.000000 0.000000 0.056274
#
#
# Mechanical properties :
#
#
# Convention : Reuss Voigt Hill
#
# Bulk Modulus (GPa) = 42.37708 49.90134 46.13921
# Shear Modulus (GPa) = 21.90921 23.66997 22.78959
#
# Velocity S-wave (km/s) = 3.77653 3.92535 3.85165
# Velocity P-wave (km/s) = 6.82658 7.28207 7.05800
#
# Compressibility (1/GPa) = 0.02359766
#
# Stress axis : x y z
#
# Youngs Moduli (GPa) = 46.38216 71.02871 48.58943
#
# Poissons Ratio (x) = 0.24746 0.19449
# Poissons Ratio (y) = 0.16159 0.42876
# Poissons Ratio (z) = 0.18565 0.62677
#
# Static dielectric constant tensor:
#      x y z
#    x 2.922730 0.000000 0.000000 
#    y 0.000000 3.387480 0.000000 
#    z 0.000000 0.000000 2.793950 
# 
# 
# High freq. dielectric constant tensor:
#      x y z
#    x 1.599360 0.000000 0.000000 
#    y 0.000000 1.583610 0.000000 
#    z 0.000000 0.000000 1.552680 
# 
# From -- ./inp_files/36471.got.cif
#   From: 2010.03.12/outbox.cif.g09.slc.cpg/sg51_19_cif.got.tgz:36471.got - 2010.04.16 13:43:02.
