data_PCOD8206408
_publ_section_title
;
Structure prediction by ZEFSAII (Michael W. Deem and Ramdas Pophale) SiO2 
 PCOD8206408
Probable space group: P M M A
;
_chemical_formula_sum "Si O2"
_cell_formula_units_Z 64
_cell_length_a 9.418747
_cell_length_b 14.256443
_cell_length_c 30.933509
_cell_angle_alpha 90.000000
_cell_angle_beta 90.000000
_cell_angle_gamma 90.000000
_cell_volume 4153.684455
_symmetry_space_group_name_H-M "P M M A"
_symmetry_group_IT_number 51
_symmetry_cell_setting 'orthorhombic'
loop_
_space_group_symop_operation_xyz
x,y,z
1/2-x,-y,z
1/2+x,-y,-z
-x,y,-z
-x,-y,-z
1/2+x,y,-z
1/2-x,y,z
x,-y,z
loop_
_atom_site_type_symbol
_atom_site_label
_atom_site_fract_x
_atom_site_fract_y
_atom_site_fract_z
Si Si1 0.586727 0.108954 0.207130
Si Si2 0.583344 0.793152 0.717540
Si Si3 0.415426 0.109139 0.042790
Si Si4 0.087847 0.604173 0.842832
Si Si5 0.913258 0.206221 0.117126
Si Si6 0.414544 0.396169 0.242109
Si Si7 0.080919 0.104660 0.366742
Si Si8 0.407654 0.888215 0.461014
O O1 0.750000 0.127232 0.219372
O O2 0.490993 0.147308 0.245463
O O3 0.547023 0.160927 0.162908
O O4 0.554194 0.000000 0.200338
O O5 0.750000 0.813515 0.721671
O O6 0.548877 0.682217 0.721994
O O7 0.525959 0.825629 0.670661
O O8 0.250000 0.133698 0.036658
O O9 0.478890 0.167992 0.081934
O O10 0.437845 0.000000 0.053141
O O11 0.500000 0.138513 0.000000
O O12 0.250000 0.609072 0.827106
O O13 0.050412 0.500000 0.860852
O O14 0.061939 0.681357 0.880023
O O15 0.995538 0.629795 0.801417
O O16 0.750000 0.182393 0.104521
O O17 0.250000 0.393193 0.230054
O O18 0.458036 0.500000 0.259358
O O19 0.250000 0.101828 0.368764
O O20 0.026961 0.139807 0.413980
O O21 0.023019 0.000000 0.356629
O O22 0.500000 0.845162 0.500000
O O23 0.250000 0.846573 0.466350
O O24 0.402930 0.000000 0.463754
#
# Coordination Sequence:
#
# PCOD8206408 Si02
#       8
#     8   8   8   8   8   8   8   8
#     4  10  20  31  42  61  91 122 148 178 216 252
#     4  10  18  28  43  60  82 115 151 180 209 255
#     4  10  21  36  54  75  97 121 150 183 219 260
#     4   9  17  30  49  70  90 116 150 183 216 258
#     4  10  19  32  50  70  94 121 149 182 220 259
#     4   9  17  28  42  62  87 112 141 183 227 256
#     4   8  14  24  37  54  77 107 141 174 209 251
#     4   8  13  22  36  52  71  96 129 170 212 252
#
# _framework density 15.408007
#
# number of rings (size 3 to 8) (size 9 to 14) (size 15 to 20)
#    0.000    2.750    1.250    1.875    0.000    3.000 
#    0.000    0.625    0.000    2.625    0.000    0.000 
#    0.000    0.500    0.000    0.375    0.000    0.750 
#
# Total GULP energy -793305.396703 kJ/mol
# GULP energy per Si atom -12395.396823 kJ/mol
# Density = 1.537294 g / cm^3
# Si number density = 15.408007 Si / 1000 Ang^3
#
#
#
# Elastic Constant Matrix: (Units=GPa)
#
#
# Indices 1 2 3 4 5 6 
#
# 1 54.3077 34.2901 49.9327 0.0000 0.0000 0.0000
# 2 34.2901 82.2635 53.8927 0.0000 0.0000 0.0000
# 3 49.9327 53.8927 116.3509 0.0000 0.0000 0.0000
# 4 0.0000 0.0000 0.0000 8.2961 0.0000 0.0000
# 5 0.0000 0.0000 0.0000 0.0000 23.4650 0.0000
# 6 0.0000 0.0000 0.0000 0.0000 0.0000 17.6921
#
#
#
# Elastic Compliance Matrix: (Units=1/GPa)
#
#
# Indices 1 2 3 4 5 6 
#
# 1 0.032568 -0.006344 -0.011038 0.000000 0.000000 0.000000
# 2 -0.006344 0.018688 -0.005933 0.000000 0.000000 0.000000
# 3 -0.011038 -0.005933 0.016080 0.000000 0.000000 0.000000
# 4 0.000000 0.000000 0.000000 0.120539 0.000000 0.000000
# 5 0.000000 0.000000 0.000000 0.000000 0.042617 0.000000
# 6 0.000000 0.000000 0.000000 0.000000 0.000000 0.056523
#
#
# Mechanical properties :
#
#
# Convention : Reuss Voigt Hill
#
# Bulk Modulus (GPa) = 48.29863 58.79479 53.54671
# Shear Modulus (GPa) = 14.68227 17.54442 16.11334
#
# Velocity S-wave (km/s) = 3.09025 3.37806 3.23736
# Velocity P-wave (km/s) = 6.64435 7.31139 6.98584
#
# Compressibility (1/GPa) = 0.02070452
#
# Stress axis : x y z
#
# Youngs Moduli (GPa) = 30.70462 53.51170 62.18846
#
# Poissons Ratio (x) = 0.33948 0.68646
# Poissons Ratio (y) = 0.19479 0.36898
# Poissons Ratio (z) = 0.33893 0.31750
#
# Static dielectric constant tensor:
#      x y z
#    x 3.361480 0.000000 0.000000 
#    y 0.000000 3.076180 0.000000 
#    z 0.000000 0.000000 3.018630 
# 
# 
# High freq. dielectric constant tensor:
#      x y z
#    x 1.583380 0.000000 0.000000 
#    y 0.000000 1.576560 0.000000 
#    z 0.000000 0.000000 1.577120 
# 
# From -- ./inp_files/37627.got.cif
#   From: 2010.03.12/outbox.cif.g09.slc.cpg/sg51_19_cif.got.tgz:37627.got - 2010.04.16 13:43:02.
