data_PCOD8206745
_publ_section_title
;
Structure prediction by ZEFSAII (Michael W. Deem and Ramdas Pophale) SiO2 
 PCOD8206745
Probable space group: P M M A
;
_chemical_formula_sum "Si O2"
_cell_formula_units_Z 64
_cell_length_a 14.438972
_cell_length_b 9.486290
_cell_length_c 24.986542
_cell_angle_alpha 90.000000
_cell_angle_beta 90.000000
_cell_angle_gamma 90.000000
_cell_volume 3422.463519
_symmetry_space_group_name_H-M "P M M A"
_symmetry_group_IT_number 51
_symmetry_cell_setting 'orthorhombic'
loop_
_space_group_symop_operation_xyz
x,y,z
1/2-x,-y,z
1/2+x,-y,-z
-x,y,-z
-x,-y,-z
1/2+x,y,-z
1/2-x,y,z
x,-y,z
loop_
_atom_site_type_symbol
_atom_site_label
_atom_site_fract_x
_atom_site_fract_y
_atom_site_fract_z
Si Si1 0.142295 0.164639 0.223425
Si Si2 0.851665 0.667280 0.091389
Si Si3 0.894010 0.341403 0.484253
Si Si4 0.853653 0.665377 0.972897
Si Si5 0.543136 0.332766 0.869411
Si Si6 0.851091 0.842369 0.580034
Si Si7 0.356335 0.335463 0.635697
Si Si8 0.479742 0.833708 0.325536
O O1 0.250000 0.203981 0.232491
O O2 0.100974 0.253290 0.175089
O O3 0.083156 0.207620 0.275241
O O4 0.131534 0.000000 0.210489
O O5 0.750000 0.721978 0.111248
O O6 0.848127 0.500000 0.086448
O O7 0.933609 0.709364 0.132666
O O8 0.873660 0.729413 0.031957
O O9 0.855375 0.500000 0.487818
O O10 0.839879 0.247564 0.526486
O O11 0.875199 0.282852 0.424836
O O12 0.000000 0.333202 0.500000
O O13 0.750000 0.704402 0.954786
O O14 0.867799 0.500000 0.976867
O O15 0.922248 0.722435 0.927327
O O16 0.558240 0.500000 0.861911
O O17 0.750000 0.844276 0.608086
O O18 0.924808 0.780243 0.621877
O O19 0.881377 0.000000 0.563761
O O20 0.250000 0.305558 0.651584
O O21 0.380662 0.500000 0.641303
O O22 0.422364 0.248300 0.675983
O O23 0.498559 0.000000 0.327154
#
# Coordination Sequence:
#
# PCOD8206745 Si02
#       8
#     8   8   8   8   8   8   8   8
#     4  10  22  40  58  75 100 134 167 205 262 322
#     4   8  14  25  43  71 107 143 174 206 251 304
#     4  10  19  33  53  77 108 143 171 198 242 307
#     4   8  13  22  40  70 106 138 169 209 256 303
#     4  10  18  29  50  79 106 133 172 220 258 296
#     4  10  20  33  52  78 104 131 168 214 258 298
#     4  10  21  37  56  79 109 141 171 207 253 303
#     4  10  21  38  58  76  98 131 175 219 256 300
#
# _framework density 18.69998
#
# number of rings (size 3 to 8) (size 9 to 14) (size 15 to 20)
#    0.000    2.500    1.250    2.250    0.000    6.000 
#    0.000    0.625    0.000    6.375    0.000    1.750 
#    0.000    0.000    0.000    0.000    0.000    0.000 
#
# Total GULP energy -793196.102225 kJ/mol
# GULP energy per Si atom -12393.689097 kJ/mol
# Density = 1.865742 g / cm^3
# Si number density = 18.699980 Si / 1000 Ang^3
#
#
#
# Elastic Constant Matrix: (Units=GPa)
#
#
# Indices 1 2 3 4 5 6 
#
# 1 133.5301 38.9241 59.5725 0.0000 0.0000 0.0000
# 2 38.9241 38.8628 33.0655 0.0000 0.0000 0.0000
# 3 59.5725 33.0655 72.4832 0.0000 0.0000 0.0000
# 4 0.0000 0.0000 0.0000 17.6315 0.0000 0.0000
# 5 0.0000 0.0000 0.0000 0.0000 31.9369 0.0000
# 6 0.0000 0.0000 0.0000 0.0000 0.0000 20.8077
#
#
#
# Elastic Compliance Matrix: (Units=1/GPa)
#
#
# Indices 1 2 3 4 5 6 
#
# 1 0.012696 -0.006273 -0.007573 0.000000 0.000000 0.000000
# 2 -0.006273 0.045153 -0.015443 0.000000 0.000000 0.000000
# 3 -0.007573 -0.015443 0.027065 0.000000 0.000000 0.000000
# 4 0.000000 0.000000 0.000000 0.056717 0.000000 0.000000
# 5 0.000000 0.000000 0.000000 0.000000 0.031312 0.000000
# 6 0.000000 0.000000 0.000000 0.000000 0.000000 0.048059
#
#
# Mechanical properties :
#
#
# Convention : Reuss Voigt Hill
#
# Bulk Modulus (GPa) = 37.96879 56.44447 47.20663
# Shear Modulus (GPa) = 17.33953 21.62947 19.48450
#
# Velocity S-wave (km/s) = 3.04838 3.40466 3.23143
# Velocity P-wave (km/s) = 5.72175 6.76057 6.26274
#
# Compressibility (1/GPa) = 0.02633742
#
# Stress axis : x y z
#
# Youngs Moduli (GPa) = 78.76434 22.14684 36.94772
#
# Poissons Ratio (x) = 0.13892 0.27981
# Poissons Ratio (y) = 0.49406 0.57057
# Poissons Ratio (z) = 0.59650 0.34201
#
# Static dielectric constant tensor:
#      x y z
#    x 3.720420 0.000000 0.000000 
#    y 0.000000 3.080100 0.000000 
#    z 0.000000 0.000000 3.165400 
# 
# 
# High freq. dielectric constant tensor:
#      x y z
#    x 1.746390 0.000000 0.000000 
#    y 0.000000 1.683430 0.000000 
#    z 0.000000 0.000000 1.707890 
# 
# From -- ./inp_files/35759.got.cif
#   From: 2010.03.12/outbox.cif.g09.slc.cpg/sg51_18_cif.got.tgz:35759.got - 2010.04.16 13:43:02.
