data_PCOD8206584
_publ_section_title
;
Structure prediction by ZEFSAII (Michael W. Deem and Ramdas Pophale) SiO2 
 PCOD8206584
Probable space group: P M M A
;
_chemical_formula_sum "Si O2"
_cell_formula_units_Z 64
_cell_length_a 9.324603
_cell_length_b 14.218129
_cell_length_c 30.898306
_cell_angle_alpha 90.000000
_cell_angle_beta 90.000000
_cell_angle_gamma 90.000000
_cell_volume 4096.448230
_symmetry_space_group_name_H-M "P M M A"
_symmetry_group_IT_number 51
_symmetry_cell_setting 'orthorhombic'
loop_
_space_group_symop_operation_xyz
x,y,z
1/2-x,-y,z
1/2+x,-y,-z
-x,y,-z
-x,-y,-z
1/2+x,y,-z
1/2-x,y,z
x,-y,z
loop_
_atom_site_type_symbol
_atom_site_label
_atom_site_fract_x
_atom_site_fract_y
_atom_site_fract_z
Si Si1 0.417330 0.391586 0.957919
Si Si2 0.912234 0.388043 0.459093
Si Si3 0.584084 0.106618 0.845629
Si Si4 0.919248 0.722656 0.125548
Si Si5 0.416062 0.390839 0.375554
Si Si6 0.084296 0.609024 0.790198
Si Si7 0.919464 0.297114 0.713412
Si Si8 0.420003 0.101829 0.252362
O O1 0.250000 0.376983 0.966242
O O2 0.454734 0.500000 0.948887
O O3 0.471116 0.333716 0.916521
O O4 0.500000 0.353793 0.000000
O O5 0.750000 0.348837 0.460291
O O6 0.911981 0.500000 0.460882
O O7 0.000000 0.347484 0.500000
O O8 0.989585 0.353564 0.415445
O O9 0.750000 0.135180 0.848540
O O10 0.493029 0.175422 0.875976
O O11 0.526378 0.117842 0.796575
O O12 0.560660 0.000000 0.861792
O O13 0.750000 0.735944 0.125380
O O14 0.969942 0.666340 0.168103
O O15 0.250000 0.374499 0.387231
O O16 0.445941 0.500000 0.365676
O O17 0.464472 0.331349 0.334030
O O18 0.250000 0.630601 0.780289
O O19 0.059621 0.500000 0.800433
O O20 0.993324 0.637101 0.748533
O O21 0.750000 0.306286 0.720441
O O22 0.972780 0.188700 0.718138
O O23 0.250000 0.097558 0.251751
O O24 0.478359 0.000000 0.269584
#
# Coordination Sequence:
#
# PCOD8206584 Si02
#       8
#     8   8   8   8   8   8   8   8
#     4   9  18  33  51  70  93 120 149 182 222 267
#     4   9  16  26  41  59  79 107 144 184 222 259
#     4   9  17  30  48  69  92 117 147 185 226 265
#     4  10  19  31  48  69  92 118 148 182 221 265
#     4   9  17  27  38  56  84 116 148 181 216 254
#     4  10  20  31  42  60  89 122 150 177 213 258
#     4  10  18  29  45  63  86 118 154 187 217 255
#     4   8  14  26  44  64  86 113 146 185 226 261
#
# _framework density 15.623290000000001
#
# number of rings (size 3 to 8) (size 9 to 14) (size 15 to 20)
#    0.000    2.750    1.250    1.875    0.000    5.000 
#    0.000    1.250    0.000    3.000    0.000    0.000 
#    0.000    0.500    0.000    0.875    0.000    1.250 
#
# Total GULP energy -793494.385342 kJ/mol
# GULP energy per Si atom -12398.349771 kJ/mol
# Density = 1.558773 g / cm^3
# Si number density = 15.623290 Si / 1000 Ang^3
#
#
#
# Elastic Constant Matrix: (Units=GPa)
#
#
# Indices 1 2 3 4 5 6 
#
# 1 50.1590 30.6688 50.7959 0.0000 0.0000 0.0000
# 2 30.6688 82.0679 51.8227 0.0000 0.0000 0.0000
# 3 50.7959 51.8227 121.4565 0.0000 0.0000 0.0000
# 4 0.0000 0.0000 0.0000 12.3999 0.0000 0.0000
# 5 0.0000 0.0000 0.0000 0.0000 26.6873 0.0000
# 6 0.0000 0.0000 0.0000 0.0000 0.0000 20.2186
#
#
#
# Elastic Compliance Matrix: (Units=1/GPa)
#
#
# Indices 1 2 3 4 5 6 
#
# 1 0.036277 -0.005443 -0.012850 0.000000 0.000000 0.000000
# 2 -0.005443 0.017495 -0.005189 0.000000 0.000000 0.000000
# 3 -0.012850 -0.005189 0.015821 0.000000 0.000000 0.000000
# 4 0.000000 0.000000 0.000000 0.080646 0.000000 0.000000
# 5 0.000000 0.000000 0.000000 0.000000 0.037471 0.000000
# 6 0.000000 0.000000 0.000000 0.000000 0.000000 0.049459
#
#
# Mechanical properties :
#
#
# Convention : Reuss Voigt Hill
#
# Bulk Modulus (GPa) = 44.18538 57.80646 50.99592
# Shear Modulus (GPa) = 17.14230 19.88757 18.51493
#
# Velocity S-wave (km/s) = 3.31604 3.57170 3.44624
# Velocity P-wave (km/s) = 6.55779 7.35459 6.96759
#
# Compressibility (1/GPa) = 0.02263192
#
# Stress axis : x y z
#
# Youngs Moduli (GPa) = 27.56536 57.15793 63.20578
#
# Poissons Ratio (x) = 0.31109 0.81218
# Poissons Ratio (y) = 0.15003 0.32795
# Poissons Ratio (z) = 0.35421 0.29657
#
# Static dielectric constant tensor:
#      x y z
#    x 2.871370 0.000000 0.000000 
#    y 0.000000 3.047870 0.000000 
#    z 0.000000 0.000000 2.969780 
# 
# 
# High freq. dielectric constant tensor:
#      x y z
#    x 1.589480 0.000000 0.000000 
#    y 0.000000 1.581660 0.000000 
#    z 0.000000 0.000000 1.588430 
# 
# From -- ./inp_files/37578.got.cif
#   From: 2010.03.12/outbox.cif.g09.slc.cpg/sg51_19_cif.got.tgz:37578.got - 2010.04.16 13:43:02.
