data_PCOD8206585
_publ_section_title
;
Structure prediction by ZEFSAII (Michael W. Deem and Ramdas Pophale) SiO2 
 PCOD8206585
Probable space group: P M M A
;
_chemical_formula_sum "Si O2"
_cell_formula_units_Z 64
_cell_length_a 30.343902
_cell_length_b 9.495960
_cell_length_c 14.432628
_cell_angle_alpha 90.000000
_cell_angle_beta 90.000000
_cell_angle_gamma 90.000000
_cell_volume 4158.682085
_symmetry_space_group_name_H-M "P M M A"
_symmetry_group_IT_number 51
_symmetry_cell_setting 'orthorhombic'
loop_
_space_group_symop_operation_xyz
x,y,z
1/2-x,-y,z
1/2+x,-y,-z
-x,y,-z
-x,-y,-z
1/2+x,y,-z
1/2-x,y,z
x,-y,z
loop_
_atom_site_type_symbol
_atom_site_label
_atom_site_fract_x
_atom_site_fract_y
_atom_site_fract_z
Si Si1 0.932503 0.340296 0.746449
Si Si2 0.545993 0.161147 0.041563
Si Si3 0.299296 0.336448 0.153812
Si Si4 0.888954 0.163710 0.585245
Si Si5 0.615323 0.656979 0.937470
Si Si6 0.958757 0.834605 0.441811
Si Si7 0.201158 0.162582 0.336736
Si Si8 0.483210 0.162114 0.758805
O O1 0.943398 0.500000 0.715746
O O2 0.911689 0.257124 0.662214
O O3 0.899543 0.338681 0.831565
O O4 0.975976 0.261545 0.780230
O O5 0.548721 0.176706 0.152721
O O6 0.549892 0.000000 0.009430
O O7 0.500000 0.222828 0.000000
O O8 0.588458 0.239868 0.002765
O O9 0.250000 0.301172 0.118718
O O10 0.304289 0.500000 0.180693
O O11 0.333002 0.298513 0.069927
O O12 0.310660 0.249980 0.245844
O O13 0.911675 0.206987 0.487611
O O14 0.836136 0.192885 0.584640
O O15 0.898709 0.000000 0.607383
O O16 0.609887 0.500000 0.978669
O O17 0.959206 0.783250 0.334999
O O18 0.000000 0.768653 0.500000
O O19 0.964665 0.000000 0.442646
O O20 0.250000 0.202808 0.375415
O O21 0.199841 0.000000 0.307339
O O22 0.498995 0.000000 0.748349
#
# Coordination Sequence:
#
# PCOD8206585 Si02
#       8
#     8   8   8   8   8   8   8   8
#     4  11  20  28  42  66  93 118 148 181 218 255
#     4  10  20  31  46  66  86 114 153 189 220 257
#     4   9  17  30  46  64  89 119 148 177 214 264
#     4  10  18  29  45  63  86 120 150 176 211 257
#     4  10  20  31  44  65  91 120 149 178 217 264
#     4   9  16  27  46  66  83 112 152 181 209 254
#     4   9  17  27  41  64  90 113 141 178 217 254
#     4  10  19  33  47  62  87 117 153 188 217 257
#
# _framework density 15.389491
#
# number of rings (size 3 to 8) (size 9 to 14) (size 15 to 20)
#    0.000    2.250    3.750    0.375    0.000    1.750 
#    0.000    1.250    0.000    0.000    0.000    0.875 
#    0.000    3.000    0.000    0.000    0.000    0.000 
#
# Total GULP energy -793170.796145 kJ/mol
# GULP energy per Si atom -12393.293690 kJ/mol
# Density = 1.535446 g / cm^3
# Si number density = 15.389491 Si / 1000 Ang^3
#
#
#
# Elastic Constant Matrix: (Units=GPa)
#
#
# Indices 1 2 3 4 5 6 
#
# 1 113.5912 35.4496 44.8879 0.0000 0.0000 0.0000
# 2 35.4496 48.8929 21.9240 0.0000 0.0000 0.0000
# 3 44.8879 21.9240 80.7239 0.0000 0.0000 0.0000
# 4 0.0000 0.0000 0.0000 4.1560 0.0000 0.0000
# 5 0.0000 0.0000 0.0000 0.0000 22.3351 0.0000
# 6 0.0000 0.0000 0.0000 0.0000 0.0000 18.5242
#
#
#
# Elastic Compliance Matrix: (Units=1/GPa)
#
#
# Indices 1 2 3 4 5 6 
#
# 1 0.013152 -0.007124 -0.005379 0.000000 0.000000 0.000000
# 2 -0.007124 0.027148 -0.003412 0.000000 0.000000 0.000000
# 3 -0.005379 -0.003412 0.016305 0.000000 0.000000 0.000000
# 4 0.000000 0.000000 0.000000 0.240618 0.000000 0.000000
# 5 0.000000 0.000000 0.000000 0.000000 0.044773 0.000000
# 6 0.000000 0.000000 0.000000 0.000000 0.000000 0.053983
#
#
# Mechanical properties :
#
#
# Convention : Reuss Voigt Hill
#
# Bulk Modulus (GPa) = 40.36060 49.74789 45.05424
# Shear Modulus (GPa) = 11.46611 18.39949 14.93280
#
# Velocity S-wave (km/s) = 2.73254 3.46148 3.11838
# Velocity P-wave (km/s) = 6.01986 6.95499 6.50425
#
# Compressibility (1/GPa) = 0.02477664
#
# Stress axis : x y z
#
# Youngs Moduli (GPa) = 76.03223 36.83509 61.32932
#
# Poissons Ratio (x) = 0.26242 0.32987
# Poissons Ratio (y) = 0.54167 0.20924
# Poissons Ratio (z) = 0.40895 0.12567
#
# Static dielectric constant tensor:
#      x y z
#    x 3.204280 0.000000 0.000000 
#    y 0.000000 2.948460 0.000000 
#    z 0.000000 0.000000 2.881250 
# 
# 
# High freq. dielectric constant tensor:
#      x y z
#    x 1.586930 0.000000 0.000000 
#    y 0.000000 1.583210 0.000000 
#    z 0.000000 0.000000 1.560970 
# 
# From -- ./inp_files/26721.got.cif
#   From: 2010.03.12/outbox.cif.g09.slc.cpg/sg51_14_cif.got.tgz:26721.got - 2010.04.16 13:43:02.
