data_PCOD8206005
_publ_section_title
;
Structure prediction by ZEFSAII (Michael W. Deem and Ramdas Pophale) SiO2 
 PCOD8206005
Probable space group: P M M A
;
_chemical_formula_sum "Si O2"
_cell_formula_units_Z 56
_cell_length_a 20.191130
_cell_length_b 9.131279
_cell_length_c 17.927314
_cell_angle_alpha 90.000000
_cell_angle_beta 90.000000
_cell_angle_gamma 90.000000
_cell_volume 3305.273965
_symmetry_space_group_name_H-M "P M M A"
_symmetry_group_IT_number 51
_symmetry_cell_setting 'orthorhombic'
loop_
_space_group_symop_operation_xyz
x,y,z
1/2-x,-y,z
1/2+x,-y,-z
-x,y,-z
-x,-y,-z
1/2+x,y,-z
1/2-x,y,z
x,-y,z
loop_
_atom_site_type_symbol
_atom_site_label
_atom_site_fract_x
_atom_site_fract_y
_atom_site_fract_z
Si Si1 0.046809 0.668999 0.343595
Si Si2 0.540365 0.666422 0.818728
Si Si3 0.611299 0.671980 0.215218
Si Si4 0.067504 0.827594 0.036917
Si Si5 0.325696 0.168422 0.918254
Si Si6 0.920506 0.337558 0.501424
Si Si7 0.588522 0.172348 0.360321
O O1 0.019473 0.500000 0.348922
O O2 0.077865 0.690911 0.261023
O O3 0.099003 0.697441 0.411487
O O4 0.987693 0.783649 0.352266
O O5 0.546082 0.500000 0.845541
O O6 0.463471 0.710889 0.809356
O O7 0.576218 0.764177 0.880342
O O8 0.622039 0.500000 0.224632
O O9 0.661381 0.733458 0.153927
O O10 0.629112 0.749705 0.293806
O O11 0.064512 0.000000 0.045124
O O12 0.129183 0.776402 0.986748
O O13 0.000000 0.766651 0.000000
O O14 0.250000 0.187179 0.943308
O O15 0.342646 0.000000 0.898691
O O16 0.896449 0.500000 0.479577
O O17 0.886947 0.226532 0.442438
O O18 0.000000 0.327569 0.500000
O O19 0.598470 0.000000 0.354485
#
# Coordination Sequence:
#
# PCOD8206005 Si02
#       7
#     8   8   8   8   8   8   8
#     4   8  15  26  37  54  83 118 151 185 228 273
#     4   9  17  28  44  66  89 117 154 193 230 271
#     4  10  19  31  46  64  88 118 155 191 228 274
#     4  10  19  31  48  69  92 118 153 191 232 283
#     4  10  21  36  51  68  93 122 151 190 239 282
#     4   8  13  23  36  50  78 117 151 182 222 270
#     4  10  17  23  36  58  84 114 151 188 223 266
#
# _framework density 16.942619000000001
#
# number of rings (size 3 to 8) (size 9 to 14) (size 15 to 20)
#    0.000    2.714    1.429    3.429    0.000    6.000 
#    0.000    0.000    0.000    0.000    0.000    0.000 
#    0.000    1.143    0.000    9.143    0.000    5.000 
#
# Total GULP energy -693971.664269 kJ/mol
# GULP energy per Si atom -12392.351148 kJ/mol
# Density = 1.690406 g / cm^3
# Si number density = 16.942619 Si / 1000 Ang^3
#
#
#
# Elastic Constant Matrix: (Units=GPa)
#
#
# Indices 1 2 3 4 5 6 
#
# 1 45.0750 23.9415 38.9625 0.0000 0.0000 0.0000
# 2 23.9415 79.6990 57.5205 0.0000 0.0000 0.0000
# 3 38.9625 57.5205 165.0615 0.0000 0.0000 0.0000
# 4 0.0000 0.0000 0.0000 31.9853 0.0000 0.0000
# 5 0.0000 0.0000 0.0000 0.0000 12.4174 0.0000
# 6 0.0000 0.0000 0.0000 0.0000 0.0000 11.1488
#
#
#
# Elastic Compliance Matrix: (Units=1/GPa)
#
#
# Indices 1 2 3 4 5 6 
#
# 1 0.029345 -0.005098 -0.005150 0.000000 0.000000 0.000000
# 2 -0.005098 0.017649 -0.004947 0.000000 0.000000 0.000000
# 3 -0.005150 -0.004947 0.008998 0.000000 0.000000 0.000000
# 4 0.000000 0.000000 0.000000 0.031264 0.000000 0.000000
# 5 0.000000 0.000000 0.000000 0.000000 0.080532 0.000000
# 6 0.000000 0.000000 0.000000 0.000000 0.000000 0.089696
#
#
# Mechanical properties :
#
#
# Convention : Reuss Voigt Hill
#
# Bulk Modulus (GPa) = 39.06050 58.96494 49.01272
# Shear Modulus (GPa) = 16.86863 22.40436 19.63650
#
# Velocity S-wave (km/s) = 3.15879 3.64038 3.40810
# Velocity P-wave (km/s) = 6.03395 7.24901 6.66921
#
# Compressibility (1/GPa) = 0.02560131
#
# Stress axis : x y z
#
# Youngs Moduli (GPa) = 34.07741 56.66055 111.13657
#
# Poissons Ratio (x) = 0.28886 0.57238
# Poissons Ratio (y) = 0.17373 0.54978
# Poissons Ratio (z) = 0.17551 0.28029
#
# Static dielectric constant tensor:
#      x y z
#    x 2.569460 0.000000 0.000000 
#    y 0.000000 3.072490 0.000000 
#    z 0.000000 0.000000 3.737190 
# 
# 
# High freq. dielectric constant tensor:
#      x y z
#    x 1.568960 0.000000 0.000000 
#    y 0.000000 1.651540 0.000000 
#    z 0.000000 0.000000 1.679150 
# 
# From -- ./inp_files/30411.got.cif
#   From: 2010.03.12/outbox.cif.g09.slc.cpg/sg51_16_cif.got.tgz:30411.got - 2010.04.16 13:43:02.
