data_PCOD8206011
_publ_section_title
;
Structure prediction by ZEFSAII (Michael W. Deem and Ramdas Pophale) SiO2 
 PCOD8206011
Probable space group: P M M A
;
_chemical_formula_sum "Si O2"
_cell_formula_units_Z 56
_cell_length_a 24.920070
_cell_length_b 9.224994
_cell_length_c 16.244682
_cell_angle_alpha 90.000000
_cell_angle_beta 90.000000
_cell_angle_gamma 90.000000
_cell_volume 3734.449272
_symmetry_space_group_name_H-M "P M M A"
_symmetry_group_IT_number 51
_symmetry_cell_setting 'orthorhombic'
loop_
_space_group_symop_operation_xyz
x,y,z
1/2-x,-y,z
1/2+x,-y,-z
-x,y,-z
-x,-y,-z
1/2+x,y,-z
1/2-x,y,z
x,-y,z
loop_
_atom_site_type_symbol
_atom_site_label
_atom_site_fract_x
_atom_site_fract_y
_atom_site_fract_z
Si Si1 0.404931 0.669309 0.381709
Si Si2 0.310411 0.333835 0.265122
Si Si3 0.506778 0.827883 0.312635
Si Si4 0.309986 0.828410 0.099518
Si Si5 0.055563 0.660542 0.548924
Si Si6 0.416135 0.827837 0.017782
Si Si7 0.512898 0.827919 0.127779
O O1 0.420569 0.500000 0.371384
O O2 0.347963 0.707107 0.341724
O O3 0.449303 0.765067 0.336577
O O4 0.400738 0.707381 0.479578
O O5 0.250000 0.303522 0.294826
O O6 0.318334 0.500000 0.238081
O O7 0.325443 0.235729 0.187679
O O8 0.553304 0.770349 0.374174
O O9 0.520367 0.771585 0.220699
O O10 0.504818 0.000000 0.318503
O O11 0.250000 0.777594 0.071642
O O12 0.355208 0.772881 0.034806
O O13 0.311890 0.000000 0.108355
O O14 0.067981 0.500000 0.583597
O O15 0.000000 0.661441 0.500000
O O16 0.456726 0.771032 0.088975
O O17 0.416905 0.000000 0.018530
O O18 0.437316 0.772009 0.928819
O O19 0.511992 0.000000 0.127716
#
# Coordination Sequence:
#
# PCOD8206011 Si02
#       7
#     8   8   8   8   8   8   8
#     4   9  17  28  40  54  76 105 129 150 183 226
#     4   9  17  28  41  57  77 101 128 155 184 221
#     4  10  17  24  38  60  79  96 125 160 190 220
#     4   9  16  25  39  59  79  98 123 156 190 223
#     4   8  15  27  39  52  74 102 126 148 181 225
#     4   8  13  23  36  51  75 102 125 149 181 221
#     4   8  14  22  34  53  75 100 126 152 182 216
#
# _framework density 14.995518000000001
#
# number of rings (size 3 to 8) (size 9 to 14) (size 15 to 20)
#    0.000    3.286    0.000    3.000    0.000    4.286 
#    0.000    0.000    0.000    1.714    0.000    8.000 
#    0.000    1.143    0.000    0.000    0.000    0.000 
#
# Total GULP energy -693852.879333 kJ/mol
# GULP energy per Si atom -12390.229988 kJ/mol
# Density = 1.496139 g / cm^3
# Si number density = 14.995518 Si / 1000 Ang^3
#
#
#
# Elastic Constant Matrix: (Units=GPa)
#
#
# Indices 1 2 3 4 5 6 
#
# 1 95.7255 22.6474 64.5006 0.0000 0.0000 0.0000
# 2 22.6474 32.1752 34.0734 0.0000 0.0000 0.0000
# 3 64.5006 34.0734 129.9757 0.0000 0.0000 0.0000
# 4 0.0000 0.0000 0.0000 10.9192 0.0000 0.0000
# 5 0.0000 0.0000 0.0000 0.0000 27.1611 0.0000
# 6 0.0000 0.0000 0.0000 0.0000 0.0000 12.1859
#
#
#
# Elastic Compliance Matrix: (Units=1/GPa)
#
#
# Indices 1 2 3 4 5 6 
#
# 1 0.016051 -0.003963 -0.006927 0.000000 0.000000 0.000000
# 2 -0.003963 0.044002 -0.009569 0.000000 0.000000 0.000000
# 3 -0.006927 -0.009569 0.013640 0.000000 0.000000 0.000000
# 4 0.000000 0.000000 0.000000 0.091582 0.000000 0.000000
# 5 0.000000 0.000000 0.000000 0.000000 0.036817 0.000000
# 6 0.000000 0.000000 0.000000 0.000000 0.000000 0.082062
#
#
# Mechanical properties :
#
#
# Convention : Reuss Voigt Hill
#
# Bulk Modulus (GPa) = 30.50938 55.59103 43.05020
# Shear Modulus (GPa) = 14.88110 19.16358 17.02234
#
# Velocity S-wave (km/s) = 3.15361 3.57873 3.37287
# Velocity P-wave (km/s) = 5.80088 7.36401 6.62868
#
# Compressibility (1/GPa) = 0.03277681
#
# Stress axis : x y z
#
# Youngs Moduli (GPa) = 62.30027 22.72602 73.31624
#
# Poissons Ratio (x) = 0.09006 0.50783
# Poissons Ratio (y) = 0.24689 0.70154
# Poissons Ratio (z) = 0.43153 0.21746
#
# Static dielectric constant tensor:
#      x y z
#    x 3.041270 0.000000 0.000000 
#    y 0.000000 2.694720 0.000000 
#    z 0.000000 0.000000 3.205640 
# 
# 
# High freq. dielectric constant tensor:
#      x y z
#    x 1.552780 0.000000 0.000000 
#    y 0.000000 1.552180 0.000000 
#    z 0.000000 0.000000 1.568070 
# 
# From -- ./inp_files/30766.got.cif
#   From: 2010.03.12/outbox.cif.g09.slc.cpg/sg51_16_cif.got.tgz:30766.got - 2010.04.16 13:43:02.
