data_PCOD8206736
_publ_section_title
;
Structure prediction by ZEFSAII (Michael W. Deem and Ramdas Pophale) SiO2 
 PCOD8206736
Probable space group: P M M A
;
_chemical_formula_sum "Si O2"
_cell_formula_units_Z 64
_cell_length_a 18.633967
_cell_length_b 13.688265
_cell_length_c 13.876187
_cell_angle_alpha 90.000000
_cell_angle_beta 90.000000
_cell_angle_gamma 90.000000
_cell_volume 3539.352926
_symmetry_space_group_name_H-M "P M M A"
_symmetry_group_IT_number 51
_symmetry_cell_setting 'orthorhombic'
loop_
_space_group_symop_operation_xyz
x,y,z
1/2-x,-y,z
1/2+x,-y,-z
-x,y,-z
-x,-y,-z
1/2+x,y,-z
1/2-x,y,z
x,-y,z
loop_
_atom_site_type_symbol
_atom_site_label
_atom_site_fract_x
_atom_site_fract_y
_atom_site_fract_z
Si Si1 0.167419 0.384817 0.321569
Si Si2 0.571322 0.248941 0.546639
Si Si3 0.832718 0.219640 0.027703
Si Si4 0.891732 0.110274 0.203883
Si Si5 0.827859 0.886070 0.839719
Si Si6 0.664709 0.607389 0.896095
Si Si7 0.833640 0.887676 0.412086
Si Si8 0.545181 0.888556 0.713200
O O1 0.250000 0.353927 0.339408
O O2 0.158338 0.500000 0.338303
O O3 0.116902 0.330356 0.397983
O O4 0.143133 0.358511 0.211945
O O5 0.500000 0.298651 0.500000
O O6 0.622344 0.190770 0.473354
O O7 0.534795 0.170051 0.616175
O O8 0.750000 0.233679 0.055363
O O9 0.874108 0.191391 0.124175
O O10 0.844545 0.133027 0.951274
O O11 0.864263 0.317943 0.977444
O O12 0.847381 0.134549 0.299897
O O13 0.976108 0.119782 0.219941
O O14 0.872378 0.000000 0.169129
O O15 0.750000 0.839012 0.813129
O O16 0.887525 0.840838 0.769901
O O17 0.825867 0.000000 0.823259
O O18 0.750000 0.603619 0.900107
O O19 0.632787 0.500000 0.918692
O O20 0.750000 0.873619 0.435449
O O21 0.857360 0.000000 0.435168
O O22 0.560247 0.000000 0.684901
#
# Coordination Sequence:
#
# PCOD8206736 Si02
#       8
#     8   8   8   8   8   8   8   8
#     4   9  19  37  60  84 108 134 170 220 274 327
#     4  12  22  34  55  79 107 140 179 221 276 325
#     4  10  18  29  50  76 102 134 175 220 260 305
#     4  10  20  34  50  71 105 149 187 215 253 304
#     4   9  18  31  47  72 103 131 165 213 265 312
#     4   8  15  30  53  80 106 131 163 208 265 322
#     4  10  21  36  54  77 106 144 190 230 260 305
#     4  10  21  35  51  73 108 146 177 216 265 318
#
# _framework density 18.082401999999998
#
# number of rings (size 3 to 8) (size 9 to 14) (size 15 to 20)
#    0.000    2.250    1.250    3.000    0.000    4.500 
#    0.000    3.125    0.000    1.500    0.000    4.375 
#    0.000    0.000    0.000    0.000    0.000    0.000 
#
# Total GULP energy -793251.934112 kJ/mol
# GULP energy per Si atom -12394.561470 kJ/mol
# Density = 1.804125 g / cm^3
# Si number density = 18.082402 Si / 1000 Ang^3
#
#
#
# Elastic Constant Matrix: (Units=GPa)
#
#
# Indices 1 2 3 4 5 6 
#
# 1 68.3588 39.5384 43.3988 0.0000 0.0000 0.0000
# 2 39.5384 85.2859 60.2598 0.0000 0.0000 0.0000
# 3 43.3988 60.2598 108.9580 0.0000 0.0000 0.0000
# 4 0.0000 0.0000 0.0000 32.1780 0.0000 0.0000
# 5 0.0000 0.0000 0.0000 0.0000 26.6614 0.0000
# 6 0.0000 0.0000 0.0000 0.0000 0.0000 19.3580
#
#
#
# Elastic Compliance Matrix: (Units=1/GPa)
#
#
# Indices 1 2 3 4 5 6 
#
# 1 0.021539 -0.006441 -0.005017 0.000000 0.000000 0.000000
# 2 -0.006441 0.021172 -0.009144 0.000000 0.000000 0.000000
# 3 -0.005017 -0.009144 0.016233 0.000000 0.000000 0.000000
# 4 0.000000 0.000000 0.000000 0.031077 0.000000 0.000000
# 5 0.000000 0.000000 0.000000 0.000000 0.037507 0.000000
# 6 0.000000 0.000000 0.000000 0.000000 0.000000 0.051658
#
#
# Mechanical properties :
#
#
# Convention : Reuss Voigt Hill
#
# Bulk Modulus (GPa) = 56.36660 60.99965 58.68313
# Shear Modulus (GPa) = 22.09417 23.59986 22.84701
#
# Velocity S-wave (km/s) = 3.49930 3.61658 3.55842
# Velocity P-wave (km/s) = 6.89685 7.15870 7.02900
#
# Compressibility (1/GPa) = 0.01774100
#
# Stress axis : x y z
#
# Youngs Moduli (GPa) = 46.42703 47.23269 61.60173
#
# Poissons Ratio (x) = 0.30420 0.30907
# Poissons Ratio (y) = 0.29901 0.56328
# Poissons Ratio (z) = 0.23294 0.43189
#
# Static dielectric constant tensor:
#      x y z
#    x 3.388580 0.000000 0.000000 
#    y 0.000000 3.403900 0.000000 
#    z 0.000000 0.000000 3.269280 
# 
# 
# High freq. dielectric constant tensor:
#      x y z
#    x 1.692210 0.000000 0.000000 
#    y 0.000000 1.690240 0.000000 
#    z 0.000000 0.000000 1.695940 
# 
# From -- ./inp_files/17584.got.cif
#   From: 2010.03.12/outbox.cif.g09.slc.cpg/sg51_9_cif.got.tgz:17584.got - 2010.04.16 13:43:02.
