data_PCOD8206379
_publ_section_title
;
Structure prediction by ZEFSAII (Michael W. Deem and Ramdas Pophale) SiO2 
 PCOD8206379
Probable space group: P M M A
;
_chemical_formula_sum "Si O2"
_cell_formula_units_Z 52
_cell_length_a 9.429124
_cell_length_b 22.575763
_cell_length_c 14.776670
_cell_angle_alpha 90.000000
_cell_angle_beta 90.000000
_cell_angle_gamma 90.000000
_cell_volume 3145.504848
_symmetry_space_group_name_H-M "P M M A"
_symmetry_group_IT_number 51
_symmetry_cell_setting 'orthorhombic'
loop_
_space_group_symop_operation_xyz
x,y,z
1/2-x,-y,z
1/2+x,-y,-z
-x,y,-z
-x,-y,-z
1/2+x,y,-z
1/2-x,y,z
x,-y,z
loop_
_atom_site_type_symbol
_atom_site_label
_atom_site_fract_x
_atom_site_fract_y
_atom_site_fract_z
Si Si1 0.917059 0.892336 0.781305
Si Si2 0.084485 0.210528 0.089531
Si Si3 0.586612 0.431954 0.754051
Si Si4 0.086235 0.345188 0.086840
Si Si5 0.413696 0.930167 0.412451
Si Si6 0.408675 0.429769 0.581896
Si Si7 0.419097 0.000000 0.094535
O O1 0.750000 0.899237 0.772598
O O2 0.962162 0.829397 0.824809
O O3 0.976516 0.898974 0.678693
O O4 0.971578 0.943313 0.848517
O O5 0.250000 0.201398 0.067964
O O6 0.048859 0.278131 0.116139
O O7 0.000000 0.190958 0.000000
O O8 0.750000 0.422650 0.725346
O O9 0.559122 0.500000 0.781703
O O10 0.541261 0.390143 0.835522
O O11 0.487032 0.411300 0.673042
O O12 0.250000 0.351292 0.062218
O O13 0.000000 0.365195 0.000000
O O14 0.500000 0.907439 0.500000
O O15 0.250000 0.913471 0.428621
O O16 0.432926 0.000000 0.398644
O O17 0.500000 0.402479 0.500000
O O18 0.250000 0.402953 0.580758
O O19 0.401223 0.500000 0.572138
O O20 0.250000 0.000000 0.077400
O O21 0.500000 0.000000 0.000000
#
# Coordination Sequence:
#
# PCOD8206379 Si02
#       7
#     8   8   8   8   8   8   4
#     4   9  16  28  46  64  86 117 146 172 212 261
#     4   9  17  30  47  65  85 114 149 180 213 258
#     4   9  17  29  44  63  88 116 146 183 226 268
#     4   9  18  31  46  64  86 114 149 185 220 262
#     4   9  16  28  45  64  86 113 144 177 211 251
#     4   9  16  26  42  65  91 117 144 175 214 262
#     4  10  18  28  41  62  90 116 141 172 211 254
#
# _framework density 16.531527000000001
#
# number of rings (size 3 to 8) (size 9 to 14) (size 15 to 20)
#    0.000    2.923    0.769    0.923    0.000    2.769 
#    0.000    1.538    0.000    0.923    0.000    2.154 
#    0.000    0.000    0.000    0.000    0.000    0.000 
#
# Total GULP energy -644655.673524 kJ/mol
# GULP energy per Si atom -12397.224491 kJ/mol
# Density = 1.649390 g / cm^3
# Si number density = 16.531527 Si / 1000 Ang^3
#
#
#
# Elastic Constant Matrix: (Units=GPa)
#
#
# Indices 1 2 3 4 5 6 
#
# 1 69.1541 34.1450 70.8245 0.0000 0.0000 0.0000
# 2 34.1450 66.8897 69.3425 0.0000 0.0000 0.0000
# 3 70.8245 69.3425 173.9840 0.0000 0.0000 0.0000
# 4 0.0000 0.0000 0.0000 15.8647 0.0000 0.0000
# 5 0.0000 0.0000 0.0000 0.0000 32.5579 0.0000
# 6 0.0000 0.0000 0.0000 0.0000 0.0000 11.9809
#
#
#
# Elastic Compliance Matrix: (Units=1/GPa)
#
#
# Indices 1 2 3 4 5 6 
#
# 1 0.025361 -0.003823 -0.008800 0.000000 0.000000 0.000000
# 2 -0.003823 0.026052 -0.008827 0.000000 0.000000 0.000000
# 3 -0.008800 -0.008827 0.012848 0.000000 0.000000 0.000000
# 4 0.000000 0.000000 0.000000 0.063033 0.000000 0.000000
# 5 0.000000 0.000000 0.000000 0.000000 0.030714 0.000000
# 6 0.000000 0.000000 0.000000 0.000000 0.000000 0.083466
#
#
# Mechanical properties :
#
#
# Convention : Reuss Voigt Hill
#
# Bulk Modulus (GPa) = 46.81502 73.18354 59.99928
# Shear Modulus (GPa) = 17.15296 21.12842 19.14069
#
# Velocity S-wave (km/s) = 3.22466 3.57889 3.40638
# Velocity P-wave (km/s) = 6.49959 7.83856 7.20027
#
# Compressibility (1/GPa) = 0.02136067
#
# Stress axis : x y z
#
# Youngs Moduli (GPa) = 39.43118 38.38441 77.83353
#
# Poissons Ratio (x) = 0.14675 0.68493
# Poissons Ratio (y) = 0.15075 0.68704
# Poissons Ratio (z) = 0.34699 0.33882
#
# Static dielectric constant tensor:
#      x y z
#    x 3.053450 0.000000 0.000000 
#    y 0.000000 2.969550 0.000000 
#    z 0.000000 0.000000 3.238780 
# 
# 
# High freq. dielectric constant tensor:
#      x y z
#    x 1.623820 0.000000 0.000000 
#    y 0.000000 1.609550 0.000000 
#    z 0.000000 0.000000 1.641710 
# 
# From -- ./inp_files/21558.got.cif
#   From: 2010.03.12/outbox.cif.g09.slc.cpg/sg51_11_cif.got.tgz:21558.got - 2010.04.16 13:43:02.
