data_PCOD8206226
_publ_section_title
;
Structure prediction by ZEFSAII (Michael W. Deem and Ramdas Pophale) SiO2 
 PCOD8206226
Probable space group: P M M A
;
_chemical_formula_sum "Si O2"
_cell_formula_units_Z 64
_cell_length_a 22.665648
_cell_length_b 14.858685
_cell_length_c 9.065878
_cell_angle_alpha 90.000000
_cell_angle_beta 90.000000
_cell_angle_gamma 90.000000
_cell_volume 3053.222022
_symmetry_space_group_name_H-M "P M M A"
_symmetry_group_IT_number 51
_symmetry_cell_setting 'orthorhombic'
loop_
_space_group_symop_operation_xyz
x,y,z
1/2-x,-y,z
1/2+x,-y,-z
-x,y,-z
-x,-y,-z
1/2+x,y,-z
1/2-x,y,z
x,-y,z
loop_
_atom_site_type_symbol
_atom_site_label
_atom_site_fract_x
_atom_site_fract_y
_atom_site_fract_z
Si Si1 0.021830 0.397321 0.836974
Si Si2 0.314912 0.598906 0.115179
Si Si3 0.401011 0.099674 0.737220
Si Si4 0.507817 0.223022 0.674102
Si Si5 0.346477 0.339213 0.824365
Si Si6 0.138079 0.230266 0.249959
Si Si7 0.316128 0.227076 0.568760
Si Si8 0.819308 0.150883 0.031855
O O1 0.003466 0.500000 0.797220
O O2 0.995949 0.327906 0.717943
O O3 0.091469 0.388053 0.829083
O O4 0.000000 0.371206 0.000000
O O5 0.250000 0.619064 0.182055
O O6 0.337034 0.500000 0.162611
O O7 0.306769 0.602381 0.936092
O O8 0.362546 0.671398 0.171157
O O9 0.459893 0.161051 0.759067
O O10 0.360461 0.147985 0.615244
O O11 0.419743 0.000000 0.680581
O O12 0.363123 0.080674 0.888160
O O13 0.500000 0.212773 0.500000
O O14 0.573077 0.191895 0.720130
O O15 0.344435 0.238937 0.888213
O O16 0.325997 0.323327 0.654705
O O17 0.175316 0.244622 0.396924
O O18 0.170623 0.157994 0.143822
O O19 0.250000 0.193285 0.599646
O O20 0.750000 0.131994 0.062728
#
# Coordination Sequence:
#
# PCOD8206226 Si02
#       8
#     8   8   8   8   8   8   8   8
#     4  11  22  36  61  93 126 168 217 263 312 372
#     4  10  20  35  57  89 127 169 219 270 320 379
#     4  11  24  44  69  96 124 167 215 261 320 386
#     4  12  24  44  63  92 133 175 217 262 318 378
#     4  10  17  34  55  85 123 160 207 253 306 371
#     4  11  22  39  64  90 131 172 211 259 327 385
#     4  11  21  39  66  94 124 163 208 260 326 387
#     4  10  20  38  66  96 126 164 207 261 325 387
#
# _framework density 20.961463999999999
#
# number of rings (size 3 to 8) (size 9 to 14) (size 15 to 20)
#    0.000    1.250    3.750    6.000    0.000    3.000 
#    0.000    4.375    0.000    4.500    0.000    0.000 
#    0.000    0.000    0.000    0.000    0.000    0.000 
#
# Total GULP energy -792850.740226 kJ/mol
# GULP energy per Si atom -12388.292816 kJ/mol
# Density = 2.091376 g / cm^3
# Si number density = 20.961464 Si / 1000 Ang^3
#
#
#
# Elastic Constant Matrix: (Units=GPa)
#
#
# Indices 1 2 3 4 5 6 
#
# 1 117.3047 26.3591 33.1236 0.0000 0.0000 0.0000
# 2 26.3591 85.4829 18.5436 0.0000 0.0000 0.0000
# 3 33.1236 18.5436 118.6288 0.0000 0.0000 0.0000
# 4 0.0000 0.0000 0.0000 12.8689 0.0000 0.0000
# 5 0.0000 0.0000 0.0000 0.0000 32.8071 0.0000
# 6 0.0000 0.0000 0.0000 0.0000 0.0000 9.0320
#
#
#
# Elastic Compliance Matrix: (Units=1/GPa)
#
#
# Indices 1 2 3 4 5 6 
#
# 1 0.009744 -0.002499 -0.002330 0.000000 0.000000 0.000000
# 2 -0.002499 0.012750 -0.001295 0.000000 0.000000 0.000000
# 3 -0.002330 -0.001295 0.009283 0.000000 0.000000 0.000000
# 4 0.000000 0.000000 0.000000 0.077707 0.000000 0.000000
# 5 0.000000 0.000000 0.000000 0.000000 0.030481 0.000000
# 6 0.000000 0.000000 0.000000 0.000000 0.000000 0.110717
#
#
# Mechanical properties :
#
#
# Convention : Reuss Voigt Hill
#
# Bulk Modulus (GPa) = 51.20899 53.05211 52.13055
# Shear Modulus (GPa) = 18.55696 27.16760 22.86228
#
# Velocity S-wave (km/s) = 2.97861 3.60401 3.30613
# Velocity P-wave (km/s) = 6.02599 6.53321 6.28472
#
# Compressibility (1/GPa) = 0.01952782
#
# Stress axis : x y z
#
# Youngs Moduli (GPa) = 102.62325 78.43228 107.72685
#
# Poissons Ratio (x) = 0.19602 0.25102
# Poissons Ratio (y) = 0.25648 0.13952
# Poissons Ratio (z) = 0.23913 0.10158
#
# Static dielectric constant tensor:
#      x y z
#    x 3.860790 0.000000 0.000000 
#    y 0.000000 3.721540 0.000000 
#    z 0.000000 0.000000 4.109020 
# 
# 
# High freq. dielectric constant tensor:
#      x y z
#    x 1.831840 0.000000 0.000000 
#    y 0.000000 1.796010 0.000000 
#    z 0.000000 0.000000 1.815600 
# 
# From -- ./inp_files/11902.got.cif
#   From: 2010.03.12/outbox.cif.g09.slc.cpg/sg51_6_cif.got.tgz:11902.got - 2010.04.16 13:43:02.
