data_PCOD8206156
_publ_section_title
;
Structure prediction by ZEFSAII (Michael W. Deem and Ramdas Pophale) SiO2 
 PCOD8206156
Probable space group: P M M A
;
_chemical_formula_sum "Si O2"
_cell_formula_units_Z 64
_cell_length_a 9.016747
_cell_length_b 14.567086
_cell_length_c 31.212946
_cell_angle_alpha 90.000000
_cell_angle_beta 90.000000
_cell_angle_gamma 90.000000
_cell_volume 4099.749572
_symmetry_space_group_name_H-M "P M M A"
_symmetry_group_IT_number 51
_symmetry_cell_setting 'orthorhombic'
loop_
_space_group_symop_operation_xyz
x,y,z
1/2-x,-y,z
1/2+x,-y,-z
-x,y,-z
-x,-y,-z
1/2+x,y,-z
1/2-x,y,z
x,-y,z
loop_
_atom_site_type_symbol
_atom_site_label
_atom_site_fract_x
_atom_site_fract_y
_atom_site_fract_z
Si Si1 0.917041 0.609127 0.625964
Si Si2 0.073938 0.286650 0.043329
Si Si3 0.425969 0.397055 0.125820
Si Si4 0.924471 0.606074 0.288029
Si Si5 0.574259 0.100054 0.822471
Si Si6 0.917490 0.609494 0.457821
Si Si7 0.574142 0.291106 0.789456
Si Si8 0.425955 0.899783 0.081547
O O1 0.750000 0.647996 0.627281
O O2 0.915934 0.500000 0.623864
O O3 0.003933 0.642405 0.667994
O O4 0.998967 0.648534 0.583989
O O5 0.250000 0.292335 0.038746
O O6 0.016173 0.348687 0.082628
O O7 0.016670 0.182206 0.051351
O O8 0.000000 0.323922 0.000000
O O9 0.250000 0.398518 0.125155
O O10 0.490984 0.500000 0.127897
O O11 0.479982 0.341575 0.167386
O O12 0.750000 0.620143 0.291337
O O13 0.966183 0.500000 0.279792
O O14 0.989181 0.665928 0.250028
O O15 0.750000 0.102431 0.825700
O O16 0.523496 0.184242 0.792409
O O17 0.510364 0.113730 0.870431
O O18 0.521982 0.000000 0.804285
O O19 0.750000 0.647046 0.457827
O O20 0.918237 0.500000 0.457473
O O21 0.000000 0.646930 0.500000
O O22 0.750000 0.302212 0.782708
O O23 0.250000 0.894159 0.083975
O O24 0.476495 0.000000 0.063646
#
# Coordination Sequence:
#
# PCOD8206156 Si02
#       8
#     8   8   8   8   8   8   8   8
#     4   9  16  26  39  54  74 103 142 186 225 260
#     4  10  19  31  45  62  82 105 131 159 194 237
#     4   9  17  29  45  63  81 102 132 169 202 233
#     4  10  20  31  41  57  84 115 142 172 215 260
#     4   8  13  23  43  69  89 103 126 162 200 240
#     4   9  15  22  33  50  73 103 141 185 230 271
#     4  10  17  28  48  69  83 101 134 172 206 243
#     4   8  13  24  43  64  84 104 126 154 191 236
#
# _framework density 15.610709999999999
#
# number of rings (size 3 to 8) (size 9 to 14) (size 15 to 20)
#    0.000    2.875    1.250    2.250    0.000    4.750 
#    0.000    0.625    0.000    1.125    0.000    1.750 
#    0.000    0.000    0.000    0.000    0.000    0.625 
#
# Total GULP energy -793230.024963 kJ/mol
# GULP energy per Si atom -12394.219140 kJ/mol
# Density = 1.557518 g / cm^3
# Si number density = 15.610710 Si / 1000 Ang^3
#
#
#
# Elastic Constant Matrix: (Units=GPa)
#
#
# Indices 1 2 3 4 5 6 
#
# 1 58.3829 24.6588 46.8761 0.0000 0.0000 0.0000
# 2 24.6588 84.0831 49.8318 0.0000 0.0000 0.0000
# 3 46.8761 49.8318 138.1248 0.0000 0.0000 0.0000
# 4 0.0000 0.0000 0.0000 6.4163 0.0000 0.0000
# 5 0.0000 0.0000 0.0000 0.0000 26.5249 0.0000
# 6 0.0000 0.0000 0.0000 0.0000 0.0000 8.7199
#
#
#
# Elastic Compliance Matrix: (Units=1/GPa)
#
#
# Indices 1 2 3 4 5 6 
#
# 1 0.024058 -0.002819 -0.007147 0.000000 0.000000 0.000000
# 2 -0.002819 0.015458 -0.004620 0.000000 0.000000 0.000000
# 3 -0.007147 -0.004620 0.011332 0.000000 0.000000 0.000000
# 4 0.000000 0.000000 0.000000 0.155852 0.000000 0.000000
# 5 0.000000 0.000000 0.000000 0.000000 0.037700 0.000000
# 6 0.000000 0.000000 0.000000 0.000000 0.000000 0.114681
#
#
# Mechanical properties :
#
#
# Convention : Reuss Voigt Hill
#
# Bulk Modulus (GPa) = 46.13758 58.14713 52.14235
# Shear Modulus (GPa) = 12.64287 18.94716 15.79502
#
# Velocity S-wave (km/s) = 2.84893 3.48764 3.18434
# Velocity P-wave (km/s) = 6.35934 7.31760 6.85523
#
# Compressibility (1/GPa) = 0.02167431
#
# Stress axis : x y z
#
# Youngs Moduli (GPa) = 41.56642 64.69208 88.24372
#
# Poissons Ratio (x) = 0.18240 0.63072
# Poissons Ratio (y) = 0.11719 0.40768
# Poissons Ratio (z) = 0.29709 0.29887
#
# Static dielectric constant tensor:
#      x y z
#    x 2.772390 0.000000 0.000000 
#    y 0.000000 3.028970 0.000000 
#    z 0.000000 0.000000 3.001620 
# 
# 
# High freq. dielectric constant tensor:
#      x y z
#    x 1.572560 0.000000 0.000000 
#    y 0.000000 1.564690 0.000000 
#    z 0.000000 0.000000 1.594870 
# 
# From -- ./inp_files/37581.got.cif
#   From: 2010.03.12/outbox.cif.g09.slc.cpg/sg51_19_cif.got.tgz:37581.got - 2010.04.16 13:43:02.
