data_PCOD8206818
_publ_section_title
;
Structure prediction by ZEFSAII (Michael W. Deem and Ramdas Pophale) SiO2 
 PCOD8206818
Probable space group: P M M A
;
_chemical_formula_sum "Si O2"
_cell_formula_units_Z 56
_cell_length_a 8.869211
_cell_length_b 18.731241
_cell_length_c 18.956439
_cell_angle_alpha 90.000000
_cell_angle_beta 90.000000
_cell_angle_gamma 90.000000
_cell_volume 3149.258399
_symmetry_space_group_name_H-M "P M M A"
_symmetry_group_IT_number 51
_symmetry_cell_setting 'orthorhombic'
loop_
_space_group_symop_operation_xyz
x,y,z
1/2-x,-y,z
1/2+x,-y,-z
-x,y,-z
-x,-y,-z
1/2+x,y,-z
1/2-x,y,z
x,-y,z
loop_
_atom_site_type_symbol
_atom_site_label
_atom_site_fract_x
_atom_site_fract_y
_atom_site_fract_z
Si Si1 0.928876 0.643038 0.428101
Si Si2 0.072434 0.203384 0.429826
Si Si3 0.421310 0.152674 0.280979
Si Si4 0.571933 0.214406 0.075116
Si Si5 0.423369 0.706571 0.196080
Si Si6 0.423435 0.418940 0.294950
Si Si7 0.427777 0.921297 0.840392
O O1 0.750000 0.645778 0.435222
O O2 0.000000 0.611260 0.500000
O O3 0.992869 0.721711 0.414454
O O4 0.974609 0.592448 0.363620
O O5 0.250000 0.216630 0.440060
O O6 0.040967 0.150551 0.364235
O O7 0.000000 0.168185 0.500000
O O8 0.250000 0.129988 0.266767
O O9 0.451136 0.232889 0.254518
O O10 0.524097 0.096395 0.239593
O O11 0.750000 0.213156 0.067586
O O12 0.524164 0.278244 0.127248
O O13 0.509021 0.138677 0.105822
O O14 0.500000 0.228760 0.000000
O O15 0.250000 0.703957 0.171791
O O16 0.475587 0.631939 0.230653
O O17 0.250000 0.401320 0.314539
O O18 0.443038 0.500000 0.268892
O O19 0.250000 0.920525 0.842675
O O20 0.489109 0.000000 0.861790
#
# Coordination Sequence:
#
# PCOD8206818 Si02
#       7
#     8   8   8   8   8   8   8
#     4  11  21  32  48  69  99 135 173 215 261 308
#     4  10  18  30  47  71  99 128 168 216 262 305
#     4   9  17  30  50  72  98 130 167 209 250 297
#     4  10  20  34  54  80 106 135 167 199 242 290
#     4   9  17  33  53  74 101 130 164 206 249 298
#     4  10  20  35  54  74 100 135 171 211 260 309
#     4   9  19  34  51  75 107 137 166 200 240 292
#
# _framework density 17.781963999999999
#
# number of rings (size 3 to 8) (size 9 to 14) (size 15 to 20)
#    0.000    2.286    1.429    3.000    0.000    3.429 
#    0.000    0.000    0.000    0.857    0.000    0.000 
#    0.000    0.000    0.000    0.000    0.000    0.000 
#
# Total GULP energy -694360.651913 kJ/mol
# GULP energy per Si atom -12399.297356 kJ/mol
# Density = 1.774149 g / cm^3
# Si number density = 17.781964 Si / 1000 Ang^3
#
#
#
# Elastic Constant Matrix: (Units=GPa)
#
#
# Indices 1 2 3 4 5 6 
#
# 1 73.4287 28.0195 42.8578 0.0000 0.0000 0.0000
# 2 28.0195 73.6744 46.8349 0.0000 0.0000 0.0000
# 3 42.8578 46.8349 129.0197 0.0000 0.0000 0.0000
# 4 0.0000 0.0000 0.0000 17.6124 0.0000 0.0000
# 5 0.0000 0.0000 0.0000 0.0000 31.2642 0.0000
# 6 0.0000 0.0000 0.0000 0.0000 0.0000 19.5915
#
#
#
# Elastic Compliance Matrix: (Units=1/GPa)
#
#
# Indices 1 2 3 4 5 6 
#
# 1 0.017714 -0.003895 -0.004470 0.000000 0.000000 0.000000
# 2 -0.003895 0.018502 -0.005422 0.000000 0.000000 0.000000
# 3 -0.004470 -0.005422 0.011204 0.000000 0.000000 0.000000
# 4 0.000000 0.000000 0.000000 0.056778 0.000000 0.000000
# 5 0.000000 0.000000 0.000000 0.000000 0.031985 0.000000
# 6 0.000000 0.000000 0.000000 0.000000 0.000000 0.051043
#
#
# Mechanical properties :
#
#
# Convention : Reuss Voigt Hill
#
# Bulk Modulus (GPa) = 50.39252 56.83859 53.61556
# Shear Modulus (GPa) = 22.58190 24.25432 23.41811
#
# Velocity S-wave (km/s) = 3.56748 3.69722 3.63293
# Velocity P-wave (km/s) = 6.73571 7.08939 6.91482
#
# Compressibility (1/GPa) = 0.01984421
#
# Stress axis : x y z
#
# Youngs Moduli (GPa) = 56.45189 54.04936 89.25355
#
# Poissons Ratio (x) = 0.21053 0.39899
# Poissons Ratio (y) = 0.21989 0.48396
# Poissons Ratio (z) = 0.25236 0.29307
#
# Static dielectric constant tensor:
#      x y z
#    x 3.276840 0.000000 0.000000 
#    y 0.000000 3.218210 0.000000 
#    z 0.000000 0.000000 3.384460 
# 
# 
# High freq. dielectric constant tensor:
#      x y z
#    x 1.688470 0.000000 0.000000 
#    y 0.000000 1.660130 0.000000 
#    z 0.000000 0.000000 1.684470 
# 
# From -- ./inp_files/32263.got.cif
#   From: 2010.03.12/outbox.cif.g09.slc.cpg/sg51_17_cif.got.tgz:32263.got - 2010.04.16 13:43:02.
