data_PCOD8206029
_publ_section_title
;
Structure prediction by ZEFSAII (Michael W. Deem and Ramdas Pophale) SiO2 
 PCOD8206029
Probable space group: P M M A
;
_chemical_formula_sum "Si O2"
_cell_formula_units_Z 48
_cell_length_a 8.860541
_cell_length_b 24.443097
_cell_length_c 13.741574
_cell_angle_alpha 90.000000
_cell_angle_beta 90.000000
_cell_angle_gamma 90.000000
_cell_volume 2976.137223
_symmetry_space_group_name_H-M "P M M A"
_symmetry_group_IT_number 51
_symmetry_cell_setting 'orthorhombic'
loop_
_space_group_symop_operation_xyz
x,y,z
1/2-x,-y,z
1/2+x,-y,-z
-x,y,-z
-x,-y,-z
1/2+x,y,-z
1/2-x,y,z
x,-y,z
loop_
_atom_site_type_symbol
_atom_site_label
_atom_site_fract_x
_atom_site_fract_y
_atom_site_fract_z
Si Si1 0.571106 0.167034 0.101249
Si Si2 0.928082 0.117734 0.399227
Si Si3 0.073421 0.559333 0.394796
Si Si4 0.429247 0.939846 0.793624
Si Si5 0.928817 0.775653 0.293300
Si Si6 0.929681 0.666269 0.393177
O O1 0.750000 0.167941 0.091772
O O2 0.513232 0.105931 0.130084
O O3 0.515343 0.209686 0.184218
O O4 0.500000 0.185598 0.000000
O O5 0.750000 0.117072 0.411303
O O6 0.981055 0.075692 0.315493
O O7 0.986003 0.178402 0.369299
O O8 0.000000 0.098907 0.500000
O O9 0.250000 0.572199 0.404874
O O10 0.048258 0.500000 0.342060
O O11 0.000000 0.555578 0.500000
O O12 0.991103 0.610351 0.341436
O O13 0.250000 0.940354 0.796301
O O14 0.494559 0.000000 0.820700
O O15 0.750000 0.776949 0.293168
O O16 0.988118 0.716368 0.326609
O O17 0.750000 0.664755 0.400897
O O18 0.000000 0.672816 0.500000
#
# Coordination Sequence:
#
# PCOD8206029 Si02
#       6
#     8   8   8   8   8   8
#     4   9  17  31  48  63  80 102 130 164 204 248
#     4   9  16  27  42  58  79 108 138 165 196 234
#     4   9  16  25  36  52  78 111 143 172 200 229
#     4   8  15  28  44  60  80 108 136 159 193 246
#     4   8  16  29  42  57  80 109 135 161 199 248
#     4  10  17  25  39  58  81 110 142 171 198 230
#
# _framework density 16.128288000000001
#
# number of rings (size 3 to 8) (size 9 to 14) (size 15 to 20)
#    0.000    3.167    0.000    4.500    0.000    1.667 
#    0.000    5.833    0.000    1.000    0.000    0.000 
#    0.000    0.667    0.000    1.500    0.000    3.000 
#
# Total GULP energy -594673.419936 kJ/mol
# GULP energy per Si atom -12389.029582 kJ/mol
# Density = 1.609158 g / cm^3
# Si number density = 16.128288 Si / 1000 Ang^3
#
#
#
# Elastic Constant Matrix: (Units=GPa)
#
#
# Indices 1 2 3 4 5 6 
#
# 1 40.8663 26.4909 17.0461 0.0000 0.0000 0.0000
# 2 26.4909 134.7808 34.0073 0.0000 0.0000 0.0000
# 3 17.0461 34.0073 78.8920 0.0000 0.0000 0.0000
# 4 0.0000 0.0000 0.0000 15.9670 0.0000 0.0000
# 5 0.0000 0.0000 0.0000 0.0000 21.6903 0.0000
# 6 0.0000 0.0000 0.0000 0.0000 0.0000 15.8244
#
#
#
# Elastic Compliance Matrix: (Units=1/GPa)
#
#
# Indices 1 2 3 4 5 6 
#
# 1 0.029298 -0.004669 -0.004318 0.000000 0.000000 0.000000
# 2 -0.004669 0.009069 -0.002900 0.000000 0.000000 0.000000
# 3 -0.004318 -0.002900 0.014859 0.000000 0.000000 0.000000
# 4 0.000000 0.000000 0.000000 0.062629 0.000000 0.000000
# 5 0.000000 0.000000 0.000000 0.000000 0.046104 0.000000
# 6 0.000000 0.000000 0.000000 0.000000 0.000000 0.063193
#
#
# Mechanical properties :
#
#
# Convention : Reuss Voigt Hill
#
# Bulk Modulus (GPa) = 33.95460 45.51420 39.73440
# Shear Modulus (GPa) = 19.32422 22.49601 20.91011
#
# Velocity S-wave (km/s) = 3.46520 3.73878 3.60458
# Velocity P-wave (km/s) = 6.09169 6.84977 6.48182
#
# Compressibility (1/GPa) = 0.02945109
#
# Stress axis : x y z
#
# Youngs Moduli (GPa) = 34.13244 110.26624 67.30040
#
# Poissons Ratio (x) = 0.51483 0.29058
# Poissons Ratio (y) = 0.15936 0.19520
# Poissons Ratio (z) = 0.14737 0.31982
#
# Static dielectric constant tensor:
#      x y z
#    x 2.780540 0.000000 0.000000 
#    y 0.000000 3.883510 0.000000 
#    z 0.000000 0.000000 2.891010 
# 
# 
# High freq. dielectric constant tensor:
#      x y z
#    x 1.597910 0.000000 0.000000 
#    y 0.000000 1.628940 0.000000 
#    z 0.000000 0.000000 1.581240 
# 
# From -- ./inp_files/21994.got.cif
#   From: 2010.03.12/outbox.cif.g09.slc.cpg/sg51_11_cif.got.tgz:21994.got - 2010.04.16 13:43:02.
