data_PCOD8206174
_publ_section_title
;
Structure prediction by ZEFSAII (Michael W. Deem and Ramdas Pophale) SiO2 
 PCOD8206174
Probable space group: P M M A
;
_chemical_formula_sum "Si O2"
_cell_formula_units_Z 64
_cell_length_a 19.100903
_cell_length_b 9.025005
_cell_length_c 21.471167
_cell_angle_alpha 90.000000
_cell_angle_beta 90.000000
_cell_angle_gamma 90.000000
_cell_volume 3701.323121
_symmetry_space_group_name_H-M "P M M A"
_symmetry_group_IT_number 51
_symmetry_cell_setting 'orthorhombic'
loop_
_space_group_symop_operation_xyz
x,y,z
1/2-x,-y,z
1/2+x,-y,-z
-x,y,-z
-x,-y,-z
1/2+x,y,-z
1/2-x,y,z
x,-y,z
loop_
_atom_site_type_symbol
_atom_site_label
_atom_site_fract_x
_atom_site_fract_y
_atom_site_fract_z
Si Si1 0.629577 0.837440 0.269700
Si Si2 0.027480 0.834234 0.317266
Si Si3 0.079303 0.326422 0.981468
Si Si4 0.325855 0.325836 0.615396
Si Si5 0.327828 0.675158 0.095426
Si Si6 0.930189 0.825287 0.144420
Si Si7 0.526745 0.324292 0.432717
Si Si8 0.434161 0.324727 0.199024
O O1 0.549130 0.840478 0.289113
O O2 0.671561 0.723243 0.312416
O O3 0.629700 0.792823 0.196788
O O4 0.663054 0.000000 0.279447
O O5 0.075322 0.746795 0.267532
O O6 0.025717 0.748549 0.382977
O O7 0.057296 0.000000 0.327626
O O8 0.090447 0.500000 0.968399
O O9 0.100160 0.234293 0.920319
O O10 0.128735 0.264882 0.036402
O O11 0.000000 0.292174 0.000000
O O12 0.250000 0.273635 0.587488
O O13 0.329734 0.500000 0.614920
O O14 0.392828 0.264995 0.576574
O O15 0.250000 0.744724 0.095230
O O16 0.324339 0.500000 0.089644
O O17 0.365094 0.718022 0.160144
O O18 0.000528 0.737449 0.160604
O O19 0.946924 0.000000 0.141540
O O20 0.500000 0.273415 0.500000
O O21 0.523061 0.500000 0.424325
O O22 0.444256 0.500000 0.206302
#
# Coordination Sequence:
#
# PCOD8206174 Si02
#       8
#     8   8   8   8   8   8   8   8
#     4   8  16  29  43  63  91 121 152 186 228 281
#     4   9  17  29  46  71  99 123 152 192 238 280
#     4  10  18  31  49  71  93 121 163 203 241 290
#     4   9  17  29  46  69  95 122 156 199 241 278
#     4   9  18  32  49  69  94 122 156 202 252 298
#     4  10  19  30  46  70  96 121 154 197 243 284
#     4   9  17  30  49  73 100 131 166 199 232 276
#     4  10  17  29  50  72  93 119 156 199 242 286
#
# _framework density 17.291114
#
# number of rings (size 3 to 8) (size 9 to 14) (size 15 to 20)
#    0.000    2.750    1.250    1.875    0.000    4.250 
#    0.000    0.625    0.000    6.375    0.000    3.500 
#    0.000    0.000    0.000    0.000    0.000    0.000 
#
# Total GULP energy -793208.710989 kJ/mol
# GULP energy per Si atom -12393.886109 kJ/mol
# Density = 1.725176 g / cm^3
# Si number density = 17.291114 Si / 1000 Ang^3
#
#
#
# Elastic Constant Matrix: (Units=GPa)
#
#
# Indices 1 2 3 4 5 6 
#
# 1 92.5774 25.2575 57.5048 0.0000 0.0000 0.0000
# 2 25.2575 49.5686 43.0755 0.0000 0.0000 0.0000
# 3 57.5048 43.0755 152.4865 0.0000 0.0000 0.0000
# 4 0.0000 0.0000 0.0000 20.5705 0.0000 0.0000
# 5 0.0000 0.0000 0.0000 0.0000 17.4011 0.0000
# 6 0.0000 0.0000 0.0000 0.0000 0.0000 6.1318
#
#
#
# Elastic Compliance Matrix: (Units=1/GPa)
#
#
# Indices 1 2 3 4 5 6 
#
# 1 0.014552 -0.003507 -0.004497 0.000000 0.000000 0.000000
# 2 -0.003507 0.027583 -0.006469 0.000000 0.000000 0.000000
# 3 -0.004497 -0.006469 0.010081 0.000000 0.000000 0.000000
# 4 0.000000 0.000000 0.000000 0.048613 0.000000 0.000000
# 5 0.000000 0.000000 0.000000 0.000000 0.057468 0.000000
# 6 0.000000 0.000000 0.000000 0.000000 0.000000 0.163085
#
#
# Mechanical properties :
#
#
# Convention : Reuss Voigt Hill
#
# Bulk Modulus (GPa) = 42.97454 60.70091 51.83772
# Shear Modulus (GPa) = 13.96316 20.07366 17.01841
#
# Velocity S-wave (km/s) = 2.84480 3.41093 3.14065
# Velocity P-wave (km/s) = 5.97478 7.11998 6.57237
#
# Compressibility (1/GPa) = 0.02326959
#
# Stress axis : x y z
#
# Youngs Moduli (GPa) = 68.71948 36.25440 99.19293
#
# Poissons Ratio (x) = 0.12714 0.44608
# Poissons Ratio (y) = 0.24099 0.64171
# Poissons Ratio (z) = 0.30904 0.23454
#
# Static dielectric constant tensor:
#      x y z
#    x 3.259230 0.000000 0.000000 
#    y 0.000000 3.165360 0.000000 
#    z 0.000000 0.000000 3.392620 
# 
# 
# High freq. dielectric constant tensor:
#      x y z
#    x 1.636380 0.000000 0.000000 
#    y 0.000000 1.658420 0.000000 
#    z 0.000000 0.000000 1.666730 
# 
# From -- ./inp_files/34121.got.cif
#   From: 2010.03.12/outbox.cif.g09.slc.cpg/sg51_18_cif.got.tgz:34121.got - 2010.04.16 13:43:02.
