data_PCOD8206689
_publ_section_title
;
Structure prediction by ZEFSAII (Michael W. Deem and Ramdas Pophale) SiO2 
 PCOD8206689
Probable space group: P M M A
;
_chemical_formula_sum "Si O2"
_cell_formula_units_Z 48
_cell_length_a 20.542585
_cell_length_b 9.454125
_cell_length_c 13.842057
_cell_angle_alpha 90.000000
_cell_angle_beta 90.000000
_cell_angle_gamma 90.000000
_cell_volume 2688.295878
_symmetry_space_group_name_H-M "P M M A"
_symmetry_group_IT_number 51
_symmetry_cell_setting 'orthorhombic'
loop_
_space_group_symop_operation_xyz
x,y,z
1/2-x,-y,z
1/2+x,-y,-z
-x,y,-z
-x,-y,-z
1/2+x,y,-z
1/2-x,y,z
x,-y,z
loop_
_atom_site_type_symbol
_atom_site_label
_atom_site_fract_x
_atom_site_fract_y
_atom_site_fract_z
Si Si1 0.445093 0.666227 0.575176
Si Si2 0.323842 0.835956 0.506486
Si Si3 0.175234 0.843863 0.282594
Si Si4 0.573395 0.841019 0.038280
Si Si5 0.538917 0.343718 0.205820
Si Si6 0.105485 0.342718 0.131529
O O1 0.500000 0.722498 0.500000
O O2 0.434660 0.500000 0.559603
O O3 0.375783 0.741661 0.562799
O O4 0.468764 0.704462 0.683163
O O5 0.250000 0.795003 0.537763
O O6 0.333253 0.804940 0.393921
O O7 0.336701 0.000000 0.529677
O O8 0.250000 0.845525 0.252661
O O9 0.140111 0.723543 0.223255
O O10 0.145180 0.000000 0.261621
O O11 0.580598 0.768571 0.143827
O O12 0.601045 0.000000 0.046313
O O13 0.500000 0.844326 0.000000
O O14 0.617531 0.752655 0.963227
O O15 0.571694 0.500000 0.201428
O O16 0.469872 0.352737 0.155024
O O17 0.133483 0.500000 0.112611
#
# Coordination Sequence:
#
# PCOD8206689 Si02
#       6
#     8   8   8   8   8   8
#     4  10  20  33  50  75 105 133 165 207 251 294
#     4   9  19  35  52  71  98 133 171 207 245 294
#     4   9  18  32  48  67  94 126 158 195 238 283
#     4   9  17  29  46  68  93 122 156 191 231 285
#     4   9  18  31  46  68  99 129 157 195 241 285
#     4  10  18  29  48  71  96 125 155 191 238 289
#
# _framework density 17.855177999999999
#
# number of rings (size 3 to 8) (size 9 to 14) (size 15 to 20)
#    0.000    2.667    0.000    3.000    0.000    6.333 
#    0.000    1.667    0.000    1.000    0.000    4.667 
#    0.000    0.000    0.000    0.000    0.000    0.000 
#
# Total GULP energy -595041.333121 kJ/mol
# GULP energy per Si atom -12396.694440 kJ/mol
# Density = 1.781454 g / cm^3
# Si number density = 17.855178 Si / 1000 Ang^3
#
#
#
# Elastic Constant Matrix: (Units=GPa)
#
#
# Indices 1 2 3 4 5 6 
#
# 1 39.1805 24.1570 16.0759 0.0000 0.0000 0.0000
# 2 24.1570 109.9563 51.3476 0.0000 0.0000 0.0000
# 3 16.0759 51.3476 88.6640 0.0000 0.0000 0.0000
# 4 0.0000 0.0000 0.0000 32.2365 0.0000 0.0000
# 5 0.0000 0.0000 0.0000 0.0000 18.8040 0.0000
# 6 0.0000 0.0000 0.0000 0.0000 0.0000 26.0371
#
#
#
# Elastic Compliance Matrix: (Units=1/GPa)
#
#
# Indices 1 2 3 4 5 6 
#
# 1 0.029835 -0.005522 -0.002212 0.000000 0.000000 0.000000
# 2 -0.005522 0.013488 -0.006810 0.000000 0.000000 0.000000
# 3 -0.002212 -0.006810 0.015623 0.000000 0.000000 0.000000
# 4 0.000000 0.000000 0.000000 0.031021 0.000000 0.000000
# 5 0.000000 0.000000 0.000000 0.000000 0.053180 0.000000
# 6 0.000000 0.000000 0.000000 0.000000 0.000000 0.038407
#
#
# Mechanical properties :
#
#
# Convention : Reuss Voigt Hill
#
# Bulk Modulus (GPa) = 33.49046 46.77352 40.13199
# Shear Modulus (GPa) = 22.66613 25.16354 23.91483
#
# Velocity S-wave (km/s) = 3.56679 3.75815 3.66372
# Velocity P-wave (km/s) = 5.97997 6.71450 6.35786
#
# Compressibility (1/GPa) = 0.02985925
#
# Stress axis : x y z
#
# Youngs Moduli (GPa) = 33.51782 74.14129 64.00680
#
# Poissons Ratio (x) = 0.40940 0.14156
# Poissons Ratio (y) = 0.18508 0.43588
# Poissons Ratio (z) = 0.07413 0.50490
#
# Static dielectric constant tensor:
#      x y z
#    x 3.184810 0.000000 0.000000 
#    y 0.000000 3.527510 0.000000 
#    z 0.000000 0.000000 3.311380 
# 
# 
# High freq. dielectric constant tensor:
#      x y z
#    x 1.649010 0.000000 0.000000 
#    y 0.000000 1.700180 0.000000 
#    z 0.000000 0.000000 1.690370 
# 
# From -- ./inp_files/24733.got.cif
#   From: 2010.03.12/outbox.cif.g09.slc.cpg/sg51_13_cif.got.tgz:24733.got - 2010.04.16 13:43:02.
