data_PCOD8206364
_publ_section_title
;
Structure prediction by ZEFSAII (Michael W. Deem and Ramdas Pophale) SiO2 
 PCOD8206364
Probable space group: P M M A
;
_chemical_formula_sum "Si O2"
_cell_formula_units_Z 64
_cell_length_a 14.927871
_cell_length_b 24.172693
_cell_length_c 9.635644
_cell_angle_alpha 90.000000
_cell_angle_beta 90.000000
_cell_angle_gamma 90.000000
_cell_volume 3476.991716
_symmetry_space_group_name_H-M "P M M A"
_symmetry_group_IT_number 51
_symmetry_cell_setting 'orthorhombic'
loop_
_space_group_symop_operation_xyz
x,y,z
1/2-x,-y,z
1/2+x,-y,-z
-x,y,-z
-x,-y,-z
1/2+x,y,-z
1/2-x,y,z
x,-y,z
loop_
_atom_site_type_symbol
_atom_site_label
_atom_site_fract_x
_atom_site_fract_y
_atom_site_fract_z
Si Si1 0.855066 0.124663 0.659969
Si Si2 0.999048 0.563834 0.215736
Si Si3 0.652761 0.750337 0.662985
Si Si4 0.999967 0.324507 0.341793
Si Si5 0.355024 0.124443 0.660413
Si Si6 0.499853 0.934572 0.159715
Si Si7 0.150268 0.563812 0.002457
Si Si8 0.847246 0.249503 0.335456
O O1 0.750000 0.114594 0.686359
O O2 0.881768 0.187904 0.695185
O O3 0.879022 0.111088 0.499826
O O4 0.910938 0.086192 0.762521
O O5 0.008727 0.500000 0.267442
O O6 0.998552 0.608691 0.338048
O O7 0.903780 0.572163 0.140168
O O8 0.083918 0.583489 0.124259
O O9 0.750000 0.740681 0.732037
O O10 0.587097 0.703848 0.727926
O O11 0.662119 0.743136 0.499181
O O12 0.000000 0.305845 0.500000
O O13 0.913487 0.295780 0.270717
O O14 0.250000 0.114195 0.686739
O O15 0.411016 0.085839 0.762508
O O16 0.381482 0.187659 0.696377
O O17 0.499396 0.000000 0.165496
O O18 0.500000 0.913775 0.000000
O O19 0.250000 0.592490 0.001286
O O20 0.166640 0.500000 0.027657
O O21 0.750000 0.259278 0.266322
#
# Coordination Sequence:
#
# PCOD8206364 Si02
#       8
#     8   8   8   8   8   8   8   8
#     4   9  18  35  60  83 100 127 175 230 268 296
#     4   9  18  30  45  69  94 121 163 201 236 291
#     4   8  15  29  50  75  97 121 161 207 249 292
#     4  10  18  27  45  72 102 133 155 185 240 299
#     4   9  18  35  60  83 100 127 175 230 268 296
#     4  11  24  37  50  75 112 151 179 201 246 316
#     4   8  15  31  52  65  77 110 161 209 242 269
#     4   8  15  29  50  75  97 121 161 207 249 292
#
# _framework density 18.406718000000001
#
# number of rings (size 3 to 8) (size 9 to 14) (size 15 to 20)
#    0.000    3.000    0.000    3.375    0.000    5.250 
#    0.000    2.500   11.000    0.000    0.000    7.000 
#    0.000    0.000    0.000    0.000    0.000    0.000 
#
# Total GULP energy -792849.665617 kJ/mol
# GULP energy per Si atom -12388.276025 kJ/mol
# Density = 1.836482 g / cm^3
# Si number density = 18.406718 Si / 1000 Ang^3
#
#
#
# Elastic Constant Matrix: (Units=GPa)
#
#
# Indices 1 2 3 4 5 6 
#
# 1 125.9771 51.4808 38.2834 0.0000 0.0000 0.0000
# 2 51.4808 104.3241 38.7274 0.0000 0.0000 0.0000
# 3 38.2834 38.7274 59.8346 0.0000 0.0000 0.0000
# 4 0.0000 0.0000 0.0000 11.4898 0.0000 0.0000
# 5 0.0000 0.0000 0.0000 0.0000 11.6066 0.0000
# 6 0.0000 0.0000 0.0000 0.0000 0.0000 14.2592
#
#
#
# Elastic Compliance Matrix: (Units=1/GPa)
#
#
# Indices 1 2 3 4 5 6 
#
# 1 0.010812 -0.003643 -0.004560 0.000000 0.000000 0.000000
# 2 -0.003643 0.013844 -0.006630 0.000000 0.000000 0.000000
# 3 -0.004560 -0.006630 0.023922 0.000000 0.000000 0.000000
# 4 0.000000 0.000000 0.000000 0.087033 0.000000 0.000000
# 5 0.000000 0.000000 0.000000 0.000000 0.086158 0.000000
# 6 0.000000 0.000000 0.000000 0.000000 0.000000 0.070130
#
#
# Mechanical properties :
#
#
# Convention : Reuss Voigt Hill
#
# Bulk Modulus (GPa) = 52.87503 60.79101 56.83302
# Shear Modulus (GPa) = 15.24996 18.24740 16.74868
#
# Velocity S-wave (km/s) = 2.88149 3.15198 3.01976
# Velocity P-wave (km/s) = 6.31339 6.80771 6.56520
#
# Compressibility (1/GPa) = 0.01891252
#
# Stress axis : x y z
#
# Youngs Moduli (GPa) = 92.48655 72.23223 41.80313
#
# Poissons Ratio (x) = 0.26312 0.19063
# Poissons Ratio (y) = 0.33690 0.27715
# Poissons Ratio (z) = 0.42176 0.47889
#
# Static dielectric constant tensor:
#      x y z
#    x 4.125600 0.000000 0.000000 
#    y 0.000000 3.219140 0.000000 
#    z 0.000000 0.000000 2.960110 
# 
# 
# High freq. dielectric constant tensor:
#      x y z
#    x 1.733510 0.000000 0.000000 
#    y 0.000000 1.705740 0.000000 
#    z 0.000000 0.000000 1.663010 
# 
# From -- ./inp_files/8739.got.cif
#   From: 2010.03.12/outbox.cif.g09.slc.cpg/sg51_5_cif.got.tgz:8739.got - 2010.04.16 13:43:02.
