data_PCOD8206613
_publ_section_title
;
Structure prediction by ZEFSAII (Michael W. Deem and Ramdas Pophale) SiO2 
 PCOD8206613
Probable space group: P M M A
;
_chemical_formula_sum "Si O2"
_cell_formula_units_Z 64
_cell_length_a 9.371811
_cell_length_b 18.060816
_cell_length_c 22.505206
_cell_angle_alpha 90.000000
_cell_angle_beta 90.000000
_cell_angle_gamma 90.000000
_cell_volume 3809.288647
_symmetry_space_group_name_H-M "P M M A"
_symmetry_group_IT_number 51
_symmetry_cell_setting 'orthorhombic'
loop_
_space_group_symop_operation_xyz
x,y,z
1/2-x,-y,z
1/2+x,-y,-z
-x,y,-z
-x,-y,-z
1/2+x,y,-z
1/2-x,y,z
x,-y,z
loop_
_atom_site_type_symbol
_atom_site_label
_atom_site_fract_x
_atom_site_fract_y
_atom_site_fract_z
Si Si1 0.084959 0.414448 0.813738
Si Si2 0.917926 0.084149 0.439816
Si Si3 0.588311 0.193935 0.337178
Si Si4 0.592202 0.180470 0.840001
Si Si5 0.593686 0.609302 0.052932
Si Si6 0.593368 0.779977 0.051672
Si Si7 0.907922 0.917993 0.229582
Si Si8 0.089240 0.700732 0.262768
O O1 0.250000 0.387908 0.811075
O O2 0.069677 0.500000 0.795771
O O3 0.025693 0.402661 0.881224
O O4 0.995395 0.368304 0.765446
O O5 0.750000 0.091487 0.451041
O O6 0.969735 0.147051 0.393370
O O7 0.000000 0.101952 0.500000
O O8 0.953527 0.000000 0.417812
O O9 0.750000 0.222020 0.348145
O O10 0.584055 0.136779 0.283908
O O11 0.491089 0.265733 0.321163
O O12 0.750000 0.166715 0.866489
O O13 0.488576 0.216869 0.886988
O O14 0.524573 0.102566 0.820055
O O15 0.599242 0.234989 0.785016
O O16 0.750000 0.571102 0.052729
O O17 0.612727 0.694538 0.036559
O O18 0.500000 0.572337 0.000000
O O19 0.750000 0.817740 0.055511
O O20 0.500000 0.819272 0.000000
O O21 0.750000 0.913887 0.200693
O O22 0.941571 0.000000 0.253097
O O23 0.250000 0.675676 0.280779
#
# Coordination Sequence:
#
# PCOD8206613 Si02
#       8
#     8   8   8   8   8   8   8   8
#     4  10  20  34  50  67  91 124 158 192 236 291
#     4   9  17  29  46  71 104 141 176 206 236 273
#     4   9  17  30  49  69  94 129 166 200 232 269
#     4  10  19  30  45  65  88 114 144 182 228 276
#     4   9  18  30  45  65  88 115 148 186 228 278
#     4  10  18  29  46  65  85 109 141 183 226 272
#     4   9  17  29  46  67  89 116 151 189 228 270
#     4  10  20  32  47  68  93 119 155 198 239 279
#
# _framework density 16.801036
#
# number of rings (size 3 to 8) (size 9 to 14) (size 15 to 20)
#    0.000    2.500    1.250    1.500    0.000    4.750 
#    0.000    0.000    0.000    2.625    0.000    0.000 
#    0.000    0.500    0.000    1.625    0.000    2.000 
#
# Total GULP energy -793106.985912 kJ/mol
# GULP energy per Si atom -12392.296655 kJ/mol
# Density = 1.676280 g / cm^3
# Si number density = 16.801036 Si / 1000 Ang^3
#
#
#
# Elastic Constant Matrix: (Units=GPa)
#
#
# Indices 1 2 3 4 5 6 
#
# 1 108.7460 36.1179 44.6912 0.0000 0.0000 0.0000
# 2 36.1179 60.8326 30.0767 0.0000 0.0000 0.0000
# 3 44.6912 30.0767 71.9014 0.0000 0.0000 0.0000
# 4 0.0000 0.0000 0.0000 8.3426 0.0000 0.0000
# 5 0.0000 0.0000 0.0000 0.0000 26.3078 0.0000
# 6 0.0000 0.0000 0.0000 0.0000 0.0000 578.3887
#
#
#
# Elastic Compliance Matrix: (Units=1/GPa)
#
#
# Indices 1 2 3 4 5 6 
#
# 1 0.013391 -0.004835 -0.006301 0.000000 0.000000 0.000000
# 2 -0.004835 0.022471 -0.006394 0.000000 0.000000 0.000000
# 3 -0.006301 -0.006394 0.020499 0.000000 0.000000 0.000000
# 4 0.000000 0.000000 0.000000 0.119866 0.000000 0.000000
# 5 0.000000 0.000000 0.000000 0.000000 0.038012 0.000000
# 6 0.000000 0.000000 0.000000 0.000000 0.000000 0.001729
#
#
# Mechanical properties :
#
#
# Convention : Reuss Voigt Hill
#
# Bulk Modulus (GPa) = 46.94774 51.47239 49.21007
# Shear Modulus (GPa) = 19.37021 131.31410 75.34216
#
# Velocity S-wave (km/s) = 3.39915 8.85031 6.70381
# Velocity P-wave (km/s) = 6.58860 11.62499 9.44854
#
# Compressibility (1/GPa) = 0.02130028
#
# Stress axis : x y z
#
# Youngs Moduli (GPa) = 74.67616 44.50209 48.78310
#
# Poissons Ratio (x) = 0.21519 0.30737
# Poissons Ratio (y) = 0.36110 0.31192
# Poissons Ratio (z) = 0.47051 0.28455
#
# Static dielectric constant tensor:
#      x y z
#    x 3.619720 0.000000 0.000000 
#    y 0.000000 2.976760 0.000000 
#    z 0.000000 0.000000 2.984070 
# 
# 
# High freq. dielectric constant tensor:
#      x y z
#    x 1.655950 0.000000 0.000000 
#    y 0.000000 1.621510 0.000000 
#    z 0.000000 0.000000 1.616940 
# 
# From -- ./inp_files/32344.got.cif
#   From: 2010.03.12/outbox.cif.g09.slc.cpg/sg51_17_cif.got.tgz:32344.got - 2010.04.16 13:43:02.
