data_PCOD8206239
_publ_section_title
;
Structure prediction by ZEFSAII (Michael W. Deem and Ramdas Pophale) SiO2 
 PCOD8206239
Probable space group: P M M A
;
_chemical_formula_sum "Si O2"
_cell_formula_units_Z 64
_cell_length_a 9.462541
_cell_length_b 26.487138
_cell_length_c 18.132690
_cell_angle_alpha 90.000000
_cell_angle_beta 90.000000
_cell_angle_gamma 90.000000
_cell_volume 4544.698169
_symmetry_space_group_name_H-M "P M M A"
_symmetry_group_IT_number 51
_symmetry_cell_setting 'orthorhombic'
loop_
_space_group_symop_operation_xyz
x,y,z
1/2-x,-y,z
1/2+x,-y,-z
-x,y,-z
-x,-y,-z
1/2+x,y,-z
1/2-x,y,z
x,-y,z
loop_
_atom_site_type_symbol
_atom_site_label
_atom_site_fract_x
_atom_site_fract_y
_atom_site_fract_z
Si Si1 0.905346 0.195565 0.786999
Si Si2 0.583069 0.650216 0.834180
Si Si3 0.591238 0.702941 0.693402
Si Si4 0.083912 0.246001 0.575859
Si Si5 0.412259 0.147668 0.672171
Si Si6 0.913990 0.057171 0.427245
Si Si7 0.583191 0.255438 0.926119
Si Si8 0.085242 0.557044 0.073004
O O1 0.750000 0.171094 0.788290
O O2 0.902321 0.246248 0.739873
O O3 0.952813 0.209800 0.869768
O O4 0.008093 0.155054 0.749501
O O5 0.750000 0.656966 0.831750
O O6 0.531134 0.659837 0.749810
O O7 0.525264 0.691893 0.891773
O O8 0.537270 0.594519 0.861360
O O9 0.750000 0.690031 0.664052
O O10 0.482299 0.709066 0.625738
O O11 0.250000 0.256521 0.563052
O O12 0.057637 0.192314 0.614364
O O13 0.000000 0.245106 0.500000
O O14 0.250000 0.145454 0.693715
O O15 0.463880 0.095013 0.636852
O O16 0.750000 0.065875 0.446053
O O17 0.000000 0.070472 0.500000
O O18 0.943612 0.000000 0.400764
O O19 0.750000 0.258361 0.942211
O O20 0.500000 0.243429 0.000000
O O21 0.250000 0.564054 0.054582
O O22 0.051490 0.500000 0.098834
O O23 0.000000 0.571261 0.000000
#
# Coordination Sequence:
#
# PCOD8206239 Si02
#       8
#     8   8   8   8   8   8   8   8
#     4   8  15  26  38  52  71  96 124 153 184 219
#     4   8  14  25  39  53  72 100 130 156 184 219
#     4   8  14  26  40  51  68  96 126 154 184 216
#     4  10  18  26  37  55  77  98 123 152 181 216
#     4   9  17  27  39  55  74  98 127 155 181 211
#     4   9  17  28  40  55  76 100 126 155 183 211
#     4   9  16  25  37  54  75  99 127 155 184 219
#     4   9  16  25  37  54  76 101 129 159 187 215
#
# _framework density 14.082343
#
# number of rings (size 3 to 8) (size 9 to 14) (size 15 to 20)
#    0.000    3.250    0.000    2.625    0.000    1.500 
#    0.000    2.500    0.000    0.000    0.000    0.000 
#    0.000    1.000    0.000    2.000    0.000    3.000 
#
# Total GULP energy -793193.516800 kJ/mol
# GULP energy per Si atom -12393.648700 kJ/mol
# Density = 1.405029 g / cm^3
# Si number density = 14.082343 Si / 1000 Ang^3
#
#
#
# Elastic Constant Matrix: (Units=GPa)
#
#
# Indices 1 2 3 4 5 6 
#
# 1 57.7636 34.4589 49.7655 0.0000 0.0000 0.0000
# 2 34.4589 75.1562 48.4144 0.0000 0.0000 0.0000
# 3 49.7655 48.4144 91.3517 0.0000 0.0000 0.0000
# 4 0.0000 0.0000 0.0000 24.3360 0.0000 0.0000
# 5 0.0000 0.0000 0.0000 0.0000 26.3561 0.0000
# 6 0.0000 0.0000 0.0000 0.0000 0.0000 13.9992
#
#
#
# Elastic Compliance Matrix: (Units=1/GPa)
#
#
# Indices 1 2 3 4 5 6 
#
# 1 0.034092 -0.005568 -0.015621 0.000000 0.000000 0.000000
# 2 -0.005568 0.021112 -0.008156 0.000000 0.000000 0.000000
# 3 -0.015621 -0.008156 0.023779 0.000000 0.000000 0.000000
# 4 0.000000 0.000000 0.000000 0.041091 0.000000 0.000000
# 5 0.000000 0.000000 0.000000 0.000000 0.037942 0.000000
# 6 0.000000 0.000000 0.000000 0.000000 0.000000 0.071432
#
#
# Mechanical properties :
#
#
# Convention : Reuss Voigt Hill
#
# Bulk Modulus (GPa) = 49.27781 54.39437 51.83609
# Shear Modulus (GPa) = 16.95469 19.04710 18.00090
#
# Velocity S-wave (km/s) = 3.47359 3.68170 3.57915
# Velocity P-wave (km/s) = 7.15237 7.53545 7.34640
#
# Compressibility (1/GPa) = 0.02029311
#
# Stress axis : x y z
#
# Youngs Moduli (GPa) = 29.33253 47.36550 42.05387
#
# Poissons Ratio (x) = 0.26374 0.65693
# Poissons Ratio (y) = 0.16333 0.34298
# Poissons Ratio (z) = 0.45821 0.38630
#
# Static dielectric constant tensor:
#      x y z
#    x 2.839270 0.000000 0.000000 
#    y 0.000000 2.752280 0.000000 
#    z 0.000000 0.000000 2.825670 
# 
# 
# High freq. dielectric constant tensor:
#      x y z
#    x 1.533070 0.000000 0.000000 
#    y 0.000000 1.508210 0.000000 
#    z 0.000000 0.000000 1.525000 
# 
# From -- ./inp_files/28674.got.cif
#   From: 2010.03.12/outbox.cif.g09.slc.cpg/sg51_15_cif.got.tgz:28674.got - 2010.04.16 13:43:02.
