data_PCOD8206070
_publ_section_title
;
Structure prediction by ZEFSAII (Michael W. Deem and Ramdas Pophale) SiO2 
 PCOD8206070
Probable space group: P M M A
;
_chemical_formula_sum "Si O2"
_cell_formula_units_Z 56
_cell_length_a 22.359547
_cell_length_b 9.273474
_cell_length_c 17.393653
_cell_angle_alpha 90.000000
_cell_angle_beta 90.000000
_cell_angle_gamma 90.000000
_cell_volume 3606.585738
_symmetry_space_group_name_H-M "P M M A"
_symmetry_group_IT_number 51
_symmetry_cell_setting 'orthorhombic'
loop_
_space_group_symop_operation_xyz
x,y,z
1/2-x,-y,z
1/2+x,-y,-z
-x,y,-z
-x,-y,-z
1/2+x,y,-z
1/2-x,y,z
x,-y,z
loop_
_atom_site_type_symbol
_atom_site_label
_atom_site_fract_x
_atom_site_fract_y
_atom_site_fract_z
Si Si1 0.099350 0.333355 0.383722
Si Si2 0.477401 0.332693 0.835110
Si Si3 0.068504 0.163053 0.525140
Si Si4 0.680221 0.666932 0.756857
Si Si5 0.933497 0.158863 0.032694
Si Si6 0.598674 0.170525 0.868930
Si Si7 0.965916 0.336219 0.337071
O O1 0.104833 0.500000 0.406172
O O2 0.109007 0.243008 0.461789
O O3 0.149916 0.286541 0.323263
O O4 0.035781 0.297836 0.345181
O O5 0.491019 0.500000 0.851896
O O6 0.429733 0.273174 0.897724
O O7 0.539040 0.245741 0.837513
O O8 0.447616 0.311775 0.751493
O O9 0.075195 0.236749 0.608684
O O10 0.000000 0.174586 0.500000
O O11 0.090952 0.000000 0.531798
O O12 0.750000 0.696176 0.748765
O O13 0.665639 0.500000 0.774890
O O14 0.655813 0.764657 0.825963
O O15 0.915999 0.000000 0.064037
O O16 0.891792 0.202254 0.960225
O O17 0.000000 0.155062 0.000000
O O18 0.593038 0.000000 0.853695
O O19 0.954597 0.500000 0.362938
#
# Coordination Sequence:
#
# PCOD8206070 Si02
#       7
#     8   8   8   8   8   8   8
#     4   9  16  29  43  56  80 112 140 173 216 253
#     4  10  17  26  42  64  86 112 146 177 209 253
#     4   9  17  26  38  59  81 106 141 174 205 248
#     4  10  20  33  48  65  84 110 149 189 219 251
#     4   8  16  28  39  57  83 113 143 172 211 255
#     4  10  19  30  43  58  84 116 145 178 217 258
#     4   9  16  26  40  59  84 113 141 169 208 254
#
# _framework density 15.527151
#
# number of rings (size 3 to 8) (size 9 to 14) (size 15 to 20)
#    0.000    2.714    1.429    2.143    0.000    6.857 
#    0.000    0.000    0.000    0.000    0.000    0.000 
#    0.000    1.143    0.000   10.286    0.000    6.000 
#
# Total GULP energy -694238.368282 kJ/mol
# GULP energy per Si atom -12397.113719 kJ/mol
# Density = 1.549181 g / cm^3
# Si number density = 15.527151 Si / 1000 Ang^3
#
#
#
# Elastic Constant Matrix: (Units=GPa)
#
#
# Indices 1 2 3 4 5 6 
#
# 1 42.5697 31.7869 41.1996 0.0000 0.0000 0.0000
# 2 31.7869 101.7635 76.0290 0.0000 0.0000 0.0000
# 3 41.1996 76.0290 131.4037 0.0000 0.0000 0.0000
# 4 0.0000 0.0000 0.0000 24.9302 0.0000 0.0000
# 5 0.0000 0.0000 0.0000 0.0000 15.9435 0.0000
# 6 0.0000 0.0000 0.0000 0.0000 0.0000 9.5907
#
#
#
# Elastic Compliance Matrix: (Units=1/GPa)
#
#
# Indices 1 2 3 4 5 6 
#
# 1 0.035016 -0.004818 -0.008191 0.000000 0.000000 0.000000
# 2 -0.004818 0.017972 -0.008888 0.000000 0.000000 0.000000
# 3 -0.008191 -0.008888 0.015321 0.000000 0.000000 0.000000
# 4 0.000000 0.000000 0.000000 0.040112 0.000000 0.000000
# 5 0.000000 0.000000 0.000000 0.000000 0.062722 0.000000
# 6 0.000000 0.000000 0.000000 0.000000 0.000000 0.104268
#
#
# Mechanical properties :
#
#
# Convention : Reuss Voigt Hill
#
# Bulk Modulus (GPa) = 40.79147 63.75200 52.27173
# Shear Modulus (GPa) = 15.27302 18.54096 16.90699
#
# Velocity S-wave (km/s) = 3.13969 3.45932 3.30338
# Velocity P-wave (km/s) = 6.28265 7.55668 6.94892
#
# Compressibility (1/GPa) = 0.02451493
#
# Stress axis : x y z
#
# Youngs Moduli (GPa) = 28.55838 55.64284 65.27117
#
# Poissons Ratio (x) = 0.26808 0.53465
# Poissons Ratio (y) = 0.13759 0.58011
# Poissons Ratio (z) = 0.23393 0.49454
#
# Static dielectric constant tensor:
#      x y z
#    x 2.474440 0.000000 0.000000 
#    y 0.000000 3.076990 0.000000 
#    z 0.000000 0.000000 3.263420 
# 
# 
# High freq. dielectric constant tensor:
#      x y z
#    x 1.522800 0.000000 0.000000 
#    y 0.000000 1.605560 0.000000 
#    z 0.000000 0.000000 1.606390 
# 
# From -- ./inp_files/30461.got.cif
#   From: 2010.03.12/outbox.cif.g09.slc.cpg/sg51_16_cif.got.tgz:30461.got - 2010.04.16 13:43:02.
