data_PCOD8206355
_publ_section_title
;
Structure prediction by ZEFSAII (Michael W. Deem and Ramdas Pophale) SiO2 
 PCOD8206355
Probable space group: P M M A
;
_chemical_formula_sum "Si O2"
_cell_formula_units_Z 56
_cell_length_a 26.424680
_cell_length_b 9.007200
_cell_length_c 14.608578
_cell_angle_alpha 90.000000
_cell_angle_beta 90.000000
_cell_angle_gamma 90.000000
_cell_volume 3477.022385
_symmetry_space_group_name_H-M "P M M A"
_symmetry_group_IT_number 51
_symmetry_cell_setting 'orthorhombic'
loop_
_space_group_symop_operation_xyz
x,y,z
1/2-x,-y,z
1/2+x,-y,-z
-x,y,-z
-x,-y,-z
1/2+x,y,-z
1/2-x,y,z
x,-y,z
loop_
_atom_site_type_symbol
_atom_site_label
_atom_site_fract_x
_atom_site_fract_y
_atom_site_fract_z
Si Si1 0.890228 0.824262 0.017619
Si Si2 0.955529 0.329815 0.873131
Si Si3 0.541030 0.674947 0.377104
Si Si4 0.430518 0.669230 0.818668
Si Si5 0.070411 0.325215 0.426951
Si Si6 0.805895 0.824828 0.879051
Si Si7 0.886040 0.175588 0.733343
O O1 0.890549 0.764528 0.121815
O O2 0.896153 0.000000 0.016497
O O3 0.937503 0.754153 0.963942
O O4 0.838375 0.773344 0.967310
O O5 0.937055 0.500000 0.876585
O O6 0.933330 0.251352 0.783443
O O7 0.015632 0.320921 0.868280
O O8 0.535326 0.500000 0.364689
O O9 0.565976 0.738841 0.284007
O O10 0.484310 0.734869 0.393414
O O11 0.576090 0.712750 0.464945
O O12 0.411156 0.500000 0.815174
O O13 0.076480 0.500000 0.410041
O O14 0.113894 0.237657 0.370653
O O15 0.750000 0.750867 0.881689
O O16 0.834351 0.777708 0.785291
O O17 0.800428 0.000000 0.881467
O O18 0.893291 0.000000 0.734614
#
# Coordination Sequence:
#
# PCOD8206355 Si02
#       7
#     8   8   8   8   8   8   8
#     4  10  20  30  43  65  88 110 141 185 229 261
#     4  10  18  29  44  60  84 122 156 177 203 253
#     4   8  15  27  44  62  83 120 162 182 194 241
#     4  10  18  29  43  61  86 121 156 178 203 252
#     4   9  15  28  46  62  85 119 155 182 206 248
#     4   8  16  32  49  63  83 113 145 176 219 277
#     4  10  18  27  44  69  92 112 142 186 230 263
#
# _framework density 16.105734999999999
#
# number of rings (size 3 to 8) (size 9 to 14) (size 15 to 20)
#    0.000    2.714    1.429    3.429    0.000    2.857 
#    0.000    2.143    0.000   15.429    0.000    1.000 
#    0.000    8.000    0.000    0.000    0.000    0.000 
#
# Total GULP energy -694039.486160 kJ/mol
# GULP energy per Si atom -12393.562253 kJ/mol
# Density = 1.606908 g / cm^3
# Si number density = 16.105735 Si / 1000 Ang^3
#
#
#
# Elastic Constant Matrix: (Units=GPa)
#
#
# Indices 1 2 3 4 5 6 
#
# 1 68.5303 24.9999 50.9586 0.0000 0.0000 0.0000
# 2 24.9999 60.4361 38.5539 0.0000 0.0000 0.0000
# 3 50.9586 38.5539 143.6903 0.0000 0.0000 0.0000
# 4 0.0000 0.0000 0.0000 24.1604 0.0000 0.0000
# 5 0.0000 0.0000 0.0000 0.0000 13.0741 0.0000
# 6 0.0000 0.0000 0.0000 0.0000 0.0000 5.7414
#
#
#
# Elastic Compliance Matrix: (Units=1/GPa)
#
#
# Indices 1 2 3 4 5 6 
#
# 1 0.020878 -0.004721 -0.006138 0.000000 0.000000 0.000000
# 2 -0.004721 0.021031 -0.003969 0.000000 0.000000 0.000000
# 3 -0.006138 -0.003969 0.010201 0.000000 0.000000 0.000000
# 4 0.000000 0.000000 0.000000 0.041390 0.000000 0.000000
# 5 0.000000 0.000000 0.000000 0.000000 0.076487 0.000000
# 6 0.000000 0.000000 0.000000 0.000000 0.000000 0.174173
#
#
# Mechanical properties :
#
#
# Convention : Reuss Voigt Hill
#
# Bulk Modulus (GPa) = 44.53240 55.74239 50.13740
# Shear Modulus (GPa) = 13.11305 19.13815 16.12560
#
# Velocity S-wave (km/s) = 2.85649 3.45089 3.16766
# Velocity P-wave (km/s) = 6.21204 7.11081 6.67656
#
# Compressibility (1/GPa) = 0.02245556
#
# Stress axis : x y z
#
# Youngs Moduli (GPa) = 47.89689 47.54887 98.03099
#
# Poissons Ratio (x) = 0.22448 0.60167
# Poissons Ratio (y) = 0.22613 0.38904
# Poissons Ratio (z) = 0.29397 0.18870
#
# Static dielectric constant tensor:
#      x y z
#    x 2.886820 0.000000 0.000000 
#    y 0.000000 2.874770 0.000000 
#    z 0.000000 0.000000 3.379540 
# 
# 
# High freq. dielectric constant tensor:
#      x y z
#    x 1.568650 0.000000 0.000000 
#    y 0.000000 1.602120 0.000000 
#    z 0.000000 0.000000 1.629280 
# 
# From -- ./inp_files/26497.got.cif
#   From: 2010.03.12/outbox.cif.g09.slc.cpg/sg51_14_cif.got.tgz:26497.got - 2010.04.16 13:43:02.
