data_PCOD8206488
_publ_section_title
;
Structure prediction by ZEFSAII (Michael W. Deem and Ramdas Pophale) SiO2 
 PCOD8206488
Probable space group: P M M A
;
_chemical_formula_sum "Si O2"
_cell_formula_units_Z 64
_cell_length_a 23.620009
_cell_length_b 9.014496
_cell_length_c 18.073169
_cell_angle_alpha 90.000000
_cell_angle_beta 90.000000
_cell_angle_gamma 90.000000
_cell_volume 3848.183904
_symmetry_space_group_name_H-M "P M M A"
_symmetry_group_IT_number 51
_symmetry_cell_setting 'orthorhombic'
loop_
_space_group_symop_operation_xyz
x,y,z
1/2-x,-y,z
1/2+x,-y,-z
-x,y,-z
-x,-y,-z
1/2+x,y,-z
1/2-x,y,z
x,-y,z
loop_
_atom_site_type_symbol
_atom_site_label
_atom_site_fract_x
_atom_site_fract_y
_atom_site_fract_z
Si Si1 0.620378 0.824337 0.855950
Si Si2 0.815108 0.675242 0.723768
Si Si3 0.817160 0.833539 0.574246
Si Si4 0.618433 0.176530 0.139418
Si Si5 0.815365 0.825522 0.282262
Si Si6 0.313097 0.823530 0.999969
Si Si7 0.999321 0.824007 0.916287
Si Si8 0.182630 0.333120 0.569276
O O1 0.643474 0.740627 0.784893
O O2 0.556001 0.773427 0.871191
O O3 0.625427 0.000000 0.843235
O O4 0.656785 0.770096 0.925637
O O5 0.750000 0.721214 0.740623
O O6 0.821582 0.500000 0.720192
O O7 0.835812 0.741344 0.645907
O O8 0.750000 0.838264 0.568361
O O9 0.842392 0.754431 0.501293
O O10 0.841831 0.000000 0.579440
O O11 0.645857 0.235493 0.215371
O O12 0.654095 0.241167 0.070748
O O13 0.553866 0.232237 0.129854
O O14 0.621474 0.000000 0.138514
O O15 0.750000 0.785984 0.264889
O O16 0.837811 0.746221 0.355950
O O17 0.822553 0.000000 0.293980
O O18 0.250000 0.758233 0.999337
O O19 0.312691 0.000000 0.996593
O O20 0.000106 0.000000 0.923228
O O21 0.000000 0.758353 0.000000
O O22 0.250000 0.332987 0.565788
O O23 0.158788 0.500000 0.567948
#
# Coordination Sequence:
#
# PCOD8206488 Si02
#       8
#     8   8   8   8   8   8   8   8
#     4  10  18  28  45  67  90 117 153 196 236 273
#     4  10  20  32  45  64  94 127 154 183 224 275
#     4   9  16  27  45  68  93 120 151 185 219 261
#     4   9  15  24  39  61  89 118 150 191 237 276
#     4   9  16  25  39  62  91 120 152 191 230 269
#     4   9  15  22  36  61  90 116 145 186 234 277
#     4   9  15  26  43  65  90 116 151 199 245 277
#     4   9  16  26  41  62  91 125 154 179 216 270
#
# _framework density 16.631222000000001
#
# number of rings (size 3 to 8) (size 9 to 14) (size 15 to 20)
#    0.000    2.750    1.250    1.875    0.000    5.750 
#    0.000    0.000    0.000    1.875    0.000    2.625 
#    0.000    7.000    0.000    0.000    0.000    0.000 
#
# Total GULP energy -793437.638290 kJ/mol
# GULP energy per Si atom -12397.463098 kJ/mol
# Density = 1.659337 g / cm^3
# Si number density = 16.631222 Si / 1000 Ang^3
#
#
#
# Elastic Constant Matrix: (Units=GPa)
#
#
# Indices 1 2 3 4 5 6 
#
# 1 104.5594 26.3638 69.6737 0.0000 0.0000 0.0000
# 2 26.3638 54.4208 49.3110 0.0000 0.0000 0.0000
# 3 69.6737 49.3110 170.3686 0.0000 0.0000 0.0000
# 4 0.0000 0.0000 0.0000 1.4076 0.0000 0.0000
# 5 0.0000 0.0000 0.0000 0.0000 7.3302 0.0000
# 6 0.0000 0.0000 0.0000 0.0000 0.0000 8.4219
#
#
#
# Elastic Compliance Matrix: (Units=1/GPa)
#
#
# Indices 1 2 3 4 5 6 
#
# 1 0.013314 -0.002055 -0.004850 0.000000 0.000000 0.000000
# 2 -0.002055 0.025225 -0.006461 0.000000 0.000000 0.000000
# 3 -0.004850 -0.006461 0.009723 0.000000 0.000000 0.000000
# 4 0.000000 0.000000 0.000000 0.710427 0.000000 0.000000
# 5 0.000000 0.000000 0.000000 0.000000 0.136422 0.000000
# 6 0.000000 0.000000 0.000000 0.000000 0.000000 0.118739
#
#
# Mechanical properties :
#
#
# Convention : Reuss Voigt Hill
#
# Bulk Modulus (GPa) = 46.44611 68.89399 57.67005
# Shear Modulus (GPa) = 4.77209 15.69862 10.23536
#
# Velocity S-wave (km/s) = 1.69576 3.07567 2.48348
# Velocity P-wave (km/s) = 5.64108 7.35713 6.55550
#
# Compressibility (1/GPa) = 0.02153033
#
# Stress axis : x y z
#
# Youngs Moduli (GPa) = 75.10905 39.64337 102.84909
#
# Poissons Ratio (x) = 0.08148 0.49882
# Poissons Ratio (y) = 0.15437 0.66446
# Poissons Ratio (z) = 0.36428 0.25612
#
# Static dielectric constant tensor:
#      x y z
#    x 3.019640 0.000000 0.000000 
#    y 0.000000 2.827240 0.000000 
#    z 0.000000 0.000000 3.275940 
# 
# 
# High freq. dielectric constant tensor:
#      x y z
#    x 1.605420 0.000000 0.000000 
#    y 0.000000 1.607400 0.000000 
#    z 0.000000 0.000000 1.651920 
# 
# From -- ./inp_files/30812.got.cif
#   From: 2010.03.12/outbox.cif.g09.slc.cpg/sg51_16_cif.got.tgz:30812.got - 2010.04.16 13:43:02.
