data_PCOD8206614
_publ_section_title
;
Structure prediction by ZEFSAII (Michael W. Deem and Ramdas Pophale) SiO2 
 PCOD8206614
Probable space group: P M M A
;
_chemical_formula_sum "Si O2"
_cell_formula_units_Z 64
_cell_length_a 9.187600
_cell_length_b 18.179871
_cell_length_c 22.244555
_cell_angle_alpha 90.000000
_cell_angle_beta 90.000000
_cell_angle_gamma 90.000000
_cell_volume 3715.494292
_symmetry_space_group_name_H-M "P M M A"
_symmetry_group_IT_number 51
_symmetry_cell_setting 'orthorhombic'
loop_
_space_group_symop_operation_xyz
x,y,z
1/2-x,-y,z
1/2+x,-y,-z
-x,y,-z
-x,-y,-z
1/2+x,y,-z
1/2-x,y,z
x,-y,z
loop_
_atom_site_type_symbol
_atom_site_label
_atom_site_fract_x
_atom_site_fract_y
_atom_site_fract_z
Si Si1 0.421716 0.916531 0.936606
Si Si2 0.581485 0.584893 0.689354
Si Si3 0.091858 0.777641 0.446934
Si Si4 0.909672 0.818175 0.336201
Si Si5 0.416745 0.810765 0.154695
Si Si6 0.090974 0.608043 0.445168
Si Si7 0.414366 0.701539 0.768602
Si Si8 0.410923 0.919130 0.265319
O O1 0.250000 0.900954 0.943212
O O2 0.491577 0.852865 0.895931
O O3 0.446863 0.000000 0.911219
O O4 0.500000 0.909709 0.000000
O O5 0.750000 0.610776 0.691098
O O6 0.564936 0.500000 0.707889
O O7 0.519250 0.596380 0.621167
O O8 0.492987 0.631384 0.738727
O O9 0.250000 0.815898 0.443348
O O10 0.110672 0.692634 0.461810
O O11 0.000000 0.816703 0.500000
O O12 0.012641 0.781163 0.384063
O O13 0.750000 0.831000 0.363746
O O14 0.903387 0.765427 0.279691
O O15 0.974979 0.896432 0.316599
O O16 0.250000 0.794554 0.133612
O O17 0.494868 0.733762 0.174159
O O18 0.415371 0.864455 0.210505
O O19 0.250000 0.569945 0.443824
O O20 0.000000 0.571144 0.500000
O O21 0.250000 0.679435 0.789004
O O22 0.250000 0.918275 0.294220
O O23 0.453353 0.000000 0.242078
#
# Coordination Sequence:
#
# PCOD8206614 Si02
#       8
#     8   8   8   8   8   8   8   8
#     4  10  20  33  50  75 110 149 185 217 249 287
#     4  10  20  34  50  68  94 128 163 201 250 305
#     4  10  18  29  46  65  86 111 144 187 233 283
#     4  10  19  30  46  67  89 115 148 189 235 282
#     4  10  19  32  52  74 100 134 172 210 247 285
#     4   9  18  30  45  65  89 118 153 193 239 293
#     4  10  20  33  49  70  96 124 162 205 247 293
#     4   9  18  31  47  68  93 122 155 191 234 283
#
# _framework density 17.225163999999999
#
# number of rings (size 3 to 8) (size 9 to 14) (size 15 to 20)
#    0.000    2.250    1.250    2.250    0.000    4.500 
#    0.000    0.000    0.000    0.375    0.000    0.000 
#    0.000    0.500    0.000    1.875    0.000    2.875 
#
# Total GULP energy -793098.065198 kJ/mol
# GULP energy per Si atom -12392.157269 kJ/mol
# Density = 1.718596 g / cm^3
# Si number density = 17.225164 Si / 1000 Ang^3
#
#
#
# Elastic Constant Matrix: (Units=GPa)
#
#
# Indices 1 2 3 4 5 6 
#
# 1 136.9595 38.2671 47.6647 0.0000 0.0000 0.0000
# 2 38.2671 64.9615 27.9068 0.0000 0.0000 0.0000
# 3 47.6647 27.9068 60.8595 0.0000 0.0000 0.0000
# 4 0.0000 0.0000 0.0000 3.1404 0.0000 0.0000
# 5 0.0000 0.0000 0.0000 0.0000 29.7560 0.0000
# 6 0.0000 0.0000 0.0000 0.0000 0.0000 8.5434
#
#
#
# Elastic Compliance Matrix: (Units=1/GPa)
#
#
# Indices 1 2 3 4 5 6 
#
# 1 0.010586 -0.003330 -0.006764 0.000000 0.000000 0.000000
# 2 -0.003330 0.020218 -0.006662 0.000000 0.000000 0.000000
# 3 -0.006764 -0.006662 0.024784 0.000000 0.000000 0.000000
# 4 0.000000 0.000000 0.000000 0.318431 0.000000 0.000000
# 5 0.000000 0.000000 0.000000 0.000000 0.033607 0.000000
# 6 0.000000 0.000000 0.000000 0.000000 0.000000 0.117050
#
#
# Mechanical properties :
#
#
# Convention : Reuss Voigt Hill
#
# Bulk Modulus (GPa) = 45.30161 54.49529 49.89845
# Shear Modulus (GPa) = 8.84102 18.21741 13.52921
#
# Velocity S-wave (km/s) = 2.26799 3.25561 2.80560
# Velocity P-wave (km/s) = 5.76325 6.77036 6.28700
#
# Compressibility (1/GPa) = 0.02207427
#
# Stress axis : x y z
#
# Youngs Moduli (GPa) = 94.46619 49.46189 40.34925
#
# Poissons Ratio (x) = 0.16472 0.27291
# Poissons Ratio (y) = 0.31459 0.26883
# Poissons Ratio (z) = 0.63894 0.32954
#
# Static dielectric constant tensor:
#      x y z
#    x 3.749070 0.000000 0.000000 
#    y 0.000000 3.046970 0.000000 
#    z 0.000000 0.000000 3.011780 
# 
# 
# High freq. dielectric constant tensor:
#      x y z
#    x 1.681650 0.000000 0.000000 
#    y 0.000000 1.638750 0.000000 
#    z 0.000000 0.000000 1.633560 
# 
# From -- ./inp_files/32345.got.cif
#   From: 2010.03.12/outbox.cif.g09.slc.cpg/sg51_17_cif.got.tgz:32345.got - 2010.04.16 13:43:02.
