data_PCOD8206069
_publ_section_title
;
Structure prediction by ZEFSAII (Michael W. Deem and Ramdas Pophale) SiO2 
 PCOD8206069
Probable space group: P M M A
;
_chemical_formula_sum "Si O2"
_cell_formula_units_Z 64
_cell_length_a 21.899844
_cell_length_b 9.298231
_cell_length_c 19.274705
_cell_angle_alpha 90.000000
_cell_angle_beta 90.000000
_cell_angle_gamma 90.000000
_cell_volume 3924.904486
_symmetry_space_group_name_H-M "P M M A"
_symmetry_group_IT_number 51
_symmetry_cell_setting 'orthorhombic'
loop_
_space_group_symop_operation_xyz
x,y,z
1/2-x,-y,z
1/2+x,-y,-z
-x,y,-z
-x,-y,-z
1/2+x,y,-z
1/2-x,y,z
x,-y,z
loop_
_atom_site_type_symbol
_atom_site_label
_atom_site_fract_x
_atom_site_fract_y
_atom_site_fract_z
Si Si1 0.319495 0.830508 0.538667
Si Si2 0.597759 0.664473 0.089195
Si Si3 0.999158 0.833926 0.676457
Si Si4 0.684607 0.333906 0.206211
Si Si5 0.120136 0.328599 0.659277
Si Si6 0.439894 0.166299 0.461509
Si Si7 0.932732 0.841996 0.967485
Si Si8 0.506231 0.832269 0.833459
O O1 0.250000 0.798048 0.511236
O O2 0.329704 0.739645 0.608421
O O3 0.373250 0.775008 0.486027
O O4 0.325942 0.000000 0.553984
O O5 0.577472 0.500000 0.081207
O O6 0.661887 0.684421 0.127608
O O7 0.550051 0.740745 0.139646
O O8 0.606556 0.729925 0.012236
O O9 0.944089 0.808809 0.621815
O O10 0.977445 0.789175 0.754161
O O11 0.053689 0.737460 0.646638
O O12 0.020276 0.000000 0.675865
O O13 0.750000 0.254905 0.211768
O O14 0.692872 0.500000 0.224300
O O15 0.638005 0.274371 0.263553
O O16 0.117475 0.500000 0.649694
O O17 0.500000 0.235760 0.500000
O O18 0.440723 0.000000 0.480944
O O19 0.936623 0.800137 0.885612
O O20 0.903419 0.000000 0.975599
O O21 0.000000 0.839811 0.000000
O O22 0.488692 0.000000 0.839496
#
# Coordination Sequence:
#
# PCOD8206069 Si02
#       8
#     8   8   8   8   8   8   8   8
#     4  10  20  34  51  70  91 119 157 197 233 274
#     4  10  17  26  42  62  83 112 148 184 220 259
#     4  10  18  30  49  68  91 124 158 186 226 279
#     4   9  18  30  41  57  86 121 152 183 222 265
#     4  11  20  31  47  67  94 125 156 189 230 274
#     4   9  16  29  49  70  92 118 150 191 235 274
#     4   8  15  27  40  58  84 112 139 170 214 261
#     4   9  17  28  43  62  86 115 144 176 217 268
#
# _framework density 16.306128999999999
#
# number of rings (size 3 to 8) (size 9 to 14) (size 15 to 20)
#    0.000    2.500    2.500    1.875    0.000    3.000 
#    0.000    1.250    0.000    3.750    0.000    0.875 
#    0.000    3.000    0.000    0.000    0.000    0.000 
#
# Total GULP energy -792835.059446 kJ/mol
# GULP energy per Si atom -12388.047804 kJ/mol
# Density = 1.626902 g / cm^3
# Si number density = 16.306129 Si / 1000 Ang^3
#
#
#
# Elastic Constant Matrix: (Units=GPa)
#
#
# Indices 1 2 3 4 5 6 
#
# 1 84.1165 25.5187 48.3329 0.0000 0.0000 0.0000
# 2 25.5187 50.9373 31.8572 0.0000 0.0000 0.0000
# 3 48.3329 31.8572 112.8229 0.0000 0.0000 0.0000
# 4 0.0000 0.0000 0.0000 18.1215 0.0000 0.0000
# 5 0.0000 0.0000 0.0000 0.0000 11.1525 0.0000
# 6 0.0000 0.0000 0.0000 0.0000 0.0000 13.1379
#
#
#
# Elastic Compliance Matrix: (Units=1/GPa)
#
#
# Indices 1 2 3 4 5 6 
#
# 1 0.016653 -0.004713 -0.005803 0.000000 0.000000 0.000000
# 2 -0.004713 0.025177 -0.005090 0.000000 0.000000 0.000000
# 3 -0.005803 -0.005090 0.012787 0.000000 0.000000 0.000000
# 4 0.000000 0.000000 0.000000 0.055183 0.000000 0.000000
# 5 0.000000 0.000000 0.000000 0.000000 0.089666 0.000000
# 6 0.000000 0.000000 0.000000 0.000000 0.000000 0.076115
#
#
# Mechanical properties :
#
#
# Convention : Reuss Voigt Hill
#
# Bulk Modulus (GPa) = 42.72875 51.03270 46.88072
# Shear Modulus (GPa) = 15.89352 17.96024 16.92688
#
# Velocity S-wave (km/s) = 3.12540 3.32240 3.22540
# Velocity P-wave (km/s) = 6.26779 6.78840 6.53328
#
# Compressibility (1/GPa) = 0.02340345
#
# Stress axis : x y z
#
# Youngs Moduli (GPa) = 60.05078 39.71949 78.20674
#
# Poissons Ratio (x) = 0.18721 0.45384
# Poissons Ratio (y) = 0.28304 0.39806
# Poissons Ratio (z) = 0.34848 0.20216
#
# Static dielectric constant tensor:
#      x y z
#    x 2.984940 0.000000 0.000000 
#    y 0.000000 2.946310 0.000000 
#    z 0.000000 0.000000 3.402870 
# 
# 
# High freq. dielectric constant tensor:
#      x y z
#    x 1.588920 0.000000 0.000000 
#    y 0.000000 1.609890 0.000000 
#    z 0.000000 0.000000 1.632820 
# 
# From -- ./inp_files/34128.got.cif
#   From: 2010.03.12/outbox.cif.g09.slc.cpg/sg51_18_cif.got.tgz:34128.got - 2010.04.16 13:43:02.
