data_PCOD8206368
_publ_section_title
;
Structure prediction by ZEFSAII (Michael W. Deem and Ramdas Pophale) SiO2 
 PCOD8206368
Probable space group: P M M A
;
_chemical_formula_sum "Si O2"
_cell_formula_units_Z 44
_cell_length_a 7.676868
_cell_length_b 12.955624
_cell_length_c 28.497032
_cell_angle_alpha 90.000000
_cell_angle_beta 90.000000
_cell_angle_gamma 90.000000
_cell_volume 2834.275343
_symmetry_space_group_name_H-M "P M M A"
_symmetry_group_IT_number 51
_symmetry_cell_setting 'orthorhombic'
loop_
_space_group_symop_operation_xyz
x,y,z
1/2-x,-y,z
1/2+x,-y,-z
-x,y,-z
-x,-y,-z
1/2+x,y,-z
1/2-x,y,z
x,-y,z
loop_
_atom_site_type_symbol
_atom_site_label
_atom_site_fract_x
_atom_site_fract_y
_atom_site_fract_z
Si Si1 0.550913 0.878745 0.709894
Si Si2 0.250000 0.122126 0.778355
Si Si3 0.956479 0.804727 0.609186
Si Si4 0.954909 0.385952 0.552185
Si Si5 0.444404 0.122832 0.050873
Si Si6 0.954786 0.000000 0.554100
Si Si7 0.750000 0.123258 0.116794
O O1 0.750000 0.853180 0.724202
O O2 0.424647 0.841359 0.751606
O O3 0.491677 0.817176 0.663518
O O4 0.530037 0.000000 0.699285
O O5 0.250000 0.169633 0.830640
O O6 0.250000 0.000000 0.782089
O O7 0.750000 0.806072 0.603936
O O8 0.033006 0.696801 0.589132
O O9 0.036124 0.898662 0.578753
O O10 0.750000 0.392283 0.558309
O O11 0.036865 0.500000 0.561359
O O12 0.000000 0.347602 0.500000
O O13 0.250000 0.161865 0.063357
O O14 0.578029 0.164537 0.090081
O O15 0.450010 0.000000 0.049520
O O16 0.500000 0.166110 0.000000
O O17 0.000000 0.000000 0.500000
O O18 0.750000 0.000000 0.562086
O O19 0.750000 0.000000 0.117598
#
# Coordination Sequence:
#
# PCOD8206368 Si02
#       7
#     8   4   8   8   8   4   4
#     4   9  16  29  44  55  72  99 126 161 204 241
#     4   9  18  28  38  56  75  93 129 167 198 250
#     4   9  16  28  43  55  74 100 125 151 195 242
#     4   9  17  29  43  58  78 101 123 150 189 240
#     4   9  14  20  31  45  63  90 121 154 197 242
#     4  10  18  28  38  56  80  96 116 152 188 233
#     4   9  16  24  32  46  70  91 117 159 199 239
#
# _framework density 15.524251
#
# number of rings (size 3 to 8) (size 9 to 14) (size 15 to 20)
#    0.000    2.909    1.818    0.545    0.000    0.727 
#    3.273    3.636    0.000    0.000    0.000    0.000 
#    0.000    0.000    0.000    0.000    0.000    0.000 
#
# Total GULP energy -545351.909530 kJ/mol
# GULP energy per Si atom -12394.361580 kJ/mol
# Density = 1.548892 g / cm^3
# Si number density = 15.524251 Si / 1000 Ang^3
#
#
#
# Elastic Constant Matrix: (Units=GPa)
#
#
# Indices 1 2 3 4 5 6 
#
# 1 84.2973 17.2999 57.6513 0.0000 0.0000 0.0000
# 2 17.2999 52.8350 39.8126 0.0000 0.0000 0.0000
# 3 57.6513 39.8126 146.9983 0.0000 0.0000 0.0000
# 4 0.0000 0.0000 0.0000 8.3318 0.0000 0.0000
# 5 0.0000 0.0000 0.0000 0.0000 26.3814 0.0000
# 6 0.0000 0.0000 0.0000 0.0000 0.0000 3.0621
#
#
#
# Elastic Compliance Matrix: (Units=1/GPa)
#
#
# Indices 1 2 3 4 5 6 
#
# 1 0.016229 -0.000651 -0.006189 0.000000 0.000000 0.000000
# 2 -0.000651 0.023806 -0.006192 0.000000 0.000000 0.000000
# 3 -0.006189 -0.006192 0.010907 0.000000 0.000000 0.000000
# 4 0.000000 0.000000 0.000000 0.120022 0.000000 0.000000
# 5 0.000000 0.000000 0.000000 0.000000 0.037905 0.000000
# 6 0.000000 0.000000 0.000000 0.000000 0.000000 0.326569
#
#
# Mechanical properties :
#
#
# Convention : Reuss Voigt Hill
#
# Bulk Modulus (GPa) = 40.19505 57.07313 48.63409
# Shear Modulus (GPa) = 8.77511 18.84620 13.81065
#
# Velocity S-wave (km/s) = 2.38008 3.48801 2.98588
# Velocity P-wave (km/s) = 5.78801 7.28459 6.57899
#
# Compressibility (1/GPa) = 0.02487869
#
# Stress axis : x y z
#
# Youngs Moduli (GPa) = 61.61943 42.00619 91.68414
#
# Poissons Ratio (x) = 0.02733 0.56739
# Poissons Ratio (y) = 0.04009 0.56775
# Poissons Ratio (z) = 0.38133 0.26012
#
# Static dielectric constant tensor:
#      x y z
#    x 2.986290 0.000000 0.000000 
#    y 0.000000 2.818710 0.000000 
#    z 0.000000 0.000000 3.050150 
# 
# 
# High freq. dielectric constant tensor:
#      x y z
#    x 1.600110 0.000000 0.000000 
#    y 0.000000 1.529090 0.000000 
#    z 0.000000 0.000000 1.587310 
# 
# From -- ./inp_files/36336.got.cif
#   From: 2010.03.12/outbox.cif.g09.slc.cpg/sg51_19_cif.got.tgz:36336.got - 2010.04.16 13:43:02.
