data_PCOD8206047
_publ_section_title
;
Structure prediction by ZEFSAII (Michael W. Deem and Ramdas Pophale) SiO2 
 PCOD8206047
Probable space group: P M M A
;
_chemical_formula_sum "Si O2"
_cell_formula_units_Z 56
_cell_length_a 18.966691
_cell_length_b 12.668293
_cell_length_c 14.900787
_cell_angle_alpha 90.000000
_cell_angle_beta 90.000000
_cell_angle_gamma 90.000000
_cell_volume 3580.295519
_symmetry_space_group_name_H-M "P M M A"
_symmetry_group_IT_number 51
_symmetry_cell_setting 'orthorhombic'
loop_
_space_group_symop_operation_xyz
x,y,z
1/2-x,-y,z
1/2+x,-y,-z
-x,y,-z
-x,-y,-z
1/2+x,y,-z
1/2-x,y,z
x,-y,z
loop_
_atom_site_type_symbol
_atom_site_label
_atom_site_fract_x
_atom_site_fract_y
_atom_site_fract_z
Si Si1 0.669964 0.238464 0.013182
Si Si2 0.397040 0.879068 0.149150
Si Si3 0.826727 0.878166 0.188726
Si Si4 0.028403 0.210773 0.771571
Si Si5 0.449299 0.622913 0.916266
Si Si6 0.326199 0.123144 0.331590
Si Si7 0.968992 0.124133 0.595886
O O1 0.750000 0.272957 0.988637
O O2 0.627254 0.199121 0.927804
O O3 0.670059 0.141449 0.082346
O O4 0.628874 0.336749 0.057705
O O5 0.481055 0.869353 0.168234
O O6 0.355230 0.837068 0.236161
O O7 0.379550 0.000000 0.124812
O O8 0.750000 0.838773 0.225287
O O9 0.889940 0.819454 0.237879
O O10 0.835817 0.000000 0.208480
O O11 0.023131 0.323059 0.823438
O O12 0.001202 0.204929 0.669111
O O13 0.445560 0.500000 0.895387
O O14 0.500000 0.648605 0.000000
O O15 0.250000 0.176568 0.354178
O O16 0.384668 0.146329 0.408028
O O17 0.314536 0.000000 0.322949
O O18 0.000000 0.153773 0.500000
O O19 0.983433 0.000000 0.620980
#
# Coordination Sequence:
#
# PCOD8206047 Si02
#       7
#     8   8   8   8   8   8   8
#     4  10  19  29  42  65  91 119 153 189 230 275
#     4  10  17  25  41  66  94 125 154 183 222 276
#     4   9  17  27  39  59  91 125 153 186 223 266
#     4  10  18  31  48  66  88 123 160 195 233 280
#     4  10  20  35  50  65  87 118 158 200 241 276
#     4   8  14  24  38  58  87 120 151 182 217 261
#     4   9  17  29  46  68  95 124 154 188 228 279
#
# _framework density 15.641166
#
# number of rings (size 3 to 8) (size 9 to 14) (size 15 to 20)
#    0.000    2.571    1.429    3.000    0.000    1.714 
#    0.000    2.857    0.000    3.000    0.000    0.000 
#    0.000    0.000    0.000    0.143    0.000    0.000 
#
# Total GULP energy -693759.775113 kJ/mol
# GULP energy per Si atom -12388.567413 kJ/mol
# Density = 1.560557 g / cm^3
# Si number density = 15.641166 Si / 1000 Ang^3
#
#
#
# Elastic Constant Matrix: (Units=GPa)
#
#
# Indices 1 2 3 4 5 6 
#
# 1 118.9570 30.1093 43.1398 0.0000 0.0000 0.0000
# 2 30.1093 60.1809 36.8497 0.0000 0.0000 0.0000
# 3 43.1398 36.8497 84.4859 0.0000 0.0000 0.0000
# 4 0.0000 0.0000 0.0000 15.4367 0.0000 0.0000
# 5 0.0000 0.0000 0.0000 0.0000 18.4074 0.0000
# 6 0.0000 0.0000 0.0000 0.0000 0.0000 13.9728
#
#
#
# Elastic Compliance Matrix: (Units=1/GPa)
#
#
# Indices 1 2 3 4 5 6 
#
# 1 0.010634 -0.002723 -0.004242 0.000000 0.000000 0.000000
# 2 -0.002723 0.023369 -0.008802 0.000000 0.000000 0.000000
# 3 -0.004242 -0.008802 0.017842 0.000000 0.000000 0.000000
# 4 0.000000 0.000000 0.000000 0.064781 0.000000 0.000000
# 5 0.000000 0.000000 0.000000 0.000000 0.054326 0.000000
# 6 0.000000 0.000000 0.000000 0.000000 0.000000 0.071568
#
#
# Mechanical properties :
#
#
# Convention : Reuss Voigt Hill
#
# Bulk Modulus (GPa) = 49.23764 53.75795 51.49779
# Shear Modulus (GPa) = 17.80479 19.79836 18.80158
#
# Velocity S-wave (km/s) = 3.37757 3.56165 3.47083
# Velocity P-wave (km/s) = 6.83802 7.16644 7.00416
#
# Compressibility (1/GPa) = 0.02030967
#
# Stress axis : x y z
#
# Youngs Moduli (GPa) = 94.03767 42.79258 56.04835
#
# Poissons Ratio (x) = 0.11651 0.23778
# Poissons Ratio (y) = 0.25604 0.49335
# Poissons Ratio (z) = 0.39894 0.37667
#
# Static dielectric constant tensor:
#      x y z
#    x 3.499240 0.000000 0.000000 
#    y 0.000000 2.603520 0.000000 
#    z 0.000000 0.000000 2.764930 
# 
# 
# High freq. dielectric constant tensor:
#      x y z
#    x 1.622910 0.000000 0.000000 
#    y 0.000000 1.550520 0.000000 
#    z 0.000000 0.000000 1.576620 
# 
# From -- ./inp_files/25258.got.cif
#   From: 2010.03.12/outbox.cif.g09.slc.cpg/sg51_13_cif.got.tgz:25258.got - 2010.04.16 13:43:02.
