data_PCOD8206285
_publ_section_title
;
Structure prediction by ZEFSAII (Michael W. Deem and Ramdas Pophale) SiO2 
 PCOD8206285
Probable space group: P M M A
;
_chemical_formula_sum "Si O2"
_cell_formula_units_Z 64
_cell_length_a 23.502402
_cell_length_b 9.523556
_cell_length_c 17.312847
_cell_angle_alpha 90.000000
_cell_angle_beta 90.000000
_cell_angle_gamma 90.000000
_cell_volume 3875.072938
_symmetry_space_group_name_H-M "P M M A"
_symmetry_group_IT_number 51
_symmetry_cell_setting 'orthorhombic'
loop_
_space_group_symop_operation_xyz
x,y,z
1/2-x,-y,z
1/2+x,-y,-z
-x,y,-z
-x,-y,-z
1/2+x,y,-z
1/2-x,y,z
x,-y,z
loop_
_atom_site_type_symbol
_atom_site_label
_atom_site_fract_x
_atom_site_fract_y
_atom_site_fract_z
Si Si1 0.313417 0.659721 0.732024
Si Si2 0.184950 0.163051 0.466086
Si Si3 0.811948 0.165805 0.712141
Si Si4 0.504113 0.167584 0.086078
Si Si5 0.610916 0.337078 0.418144
Si Si6 0.526476 0.156308 0.333227
Si Si7 0.394098 0.154503 0.814168
Si Si8 0.928436 0.832313 0.775868
O O1 0.250000 0.715684 0.717391
O O2 0.313801 0.500000 0.759059
O O3 0.347098 0.680518 0.653363
O O4 0.340251 0.745282 0.803121
O O5 0.250000 0.193191 0.492239
O O6 0.177528 0.203109 0.376818
O O7 0.140548 0.261001 0.510243
O O8 0.169978 0.000000 0.481360
O O9 0.750000 0.226910 0.738908
O O10 0.864232 0.226794 0.763421
O O11 0.810220 0.000000 0.721771
O O12 0.565051 0.216308 0.119233
O O13 0.453542 0.224329 0.142360
O O14 0.501228 0.000000 0.084721
O O15 0.500000 0.231204 0.000000
O O16 0.599589 0.500000 0.437947
O O17 0.550494 0.262396 0.398529
O O18 0.571190 0.144731 0.264538
O O19 0.467575 0.215915 0.296889
O O20 0.517882 0.000000 0.369274
O O21 0.371848 0.000000 0.837366
O O22 0.929532 0.000000 0.776765
#
# Coordination Sequence:
#
# PCOD8206285 Si02
#       8
#     8   8   8   8   8   8   8   8
#     4   9  17  27  38  54  77 106 138 169 202 239
#     4   9  17  28  41  57  78 105 138 178 220 255
#     4   8  14  25  41  60  79 100 133 177 216 247
#     4   8  13  22  39  63  87 109 132 161 201 245
#     4  10  18  27  40  58  81 108 139 177 217 252
#     4   8  14  25  40  58  80 107 140 172 202 242
#     4   8  14  24  38  57  80 106 136 166 194 231
#     4   8  13  23  41  62  82 107 139 171 204 247
#
# _framework density 16.515819
#
# number of rings (size 3 to 8) (size 9 to 14) (size 15 to 20)
#    0.000    3.500    0.000    3.000    0.000    1.500 
#    0.000    0.625    0.000    5.625    0.000    3.500 
#    0.000    0.000    0.000    0.750    0.000    1.250 
#
# Total GULP energy -792963.327920 kJ/mol
# GULP energy per Si atom -12390.051999 kJ/mol
# Density = 1.647823 g / cm^3
# Si number density = 16.515819 Si / 1000 Ang^3
#
#
#
# Elastic Constant Matrix: (Units=GPa)
#
#
# Indices 1 2 3 4 5 6 
#
# 1 112.8351 30.0011 45.9980 0.0000 0.0000 0.0000
# 2 30.0011 41.6268 24.2335 0.0000 0.0000 0.0000
# 3 45.9980 24.2335 65.8554 0.0000 0.0000 0.0000
# 4 0.0000 0.0000 0.0000 7.8724 0.0000 0.0000
# 5 0.0000 0.0000 0.0000 0.0000 19.8531 0.0000
# 6 0.0000 0.0000 0.0000 0.0000 0.0000 9.8466
#
#
#
# Elastic Compliance Matrix: (Units=1/GPa)
#
#
# Indices 1 2 3 4 5 6 
#
# 1 0.013248 -0.005296 -0.007305 0.000000 0.000000 0.000000
# 2 -0.005296 0.032689 -0.008330 0.000000 0.000000 0.000000
# 3 -0.007305 -0.008330 0.023352 0.000000 0.000000 0.000000
# 4 0.000000 0.000000 0.000000 0.127027 0.000000 0.000000
# 5 0.000000 0.000000 0.000000 0.000000 0.050370 0.000000
# 6 0.000000 0.000000 0.000000 0.000000 0.000000 0.101558
#
#
# Mechanical properties :
#
#
# Convention : Reuss Voigt Hill
#
# Bulk Modulus (GPa) = 36.45841 46.75361 41.60601
# Shear Modulus (GPa) = 12.52354 15.52008 14.02181
#
# Velocity S-wave (km/s) = 2.75667 3.06879 2.91691
# Velocity P-wave (km/s) = 5.67935 6.39738 6.04903
#
# Compressibility (1/GPa) = 0.02742851
#
# Stress axis : x y z
#
# Youngs Moduli (GPa) = 75.48069 30.59124 42.82230
#
# Poissons Ratio (x) = 0.16200 0.31281
# Poissons Ratio (y) = 0.39972 0.35671
# Poissons Ratio (z) = 0.55138 0.25483
#
# Static dielectric constant tensor:
#      x y z
#    x 3.559380 0.000000 0.000000 
#    y 0.000000 2.893670 0.000000 
#    z 0.000000 0.000000 3.038080 
# 
# 
# High freq. dielectric constant tensor:
#      x y z
#    x 1.637490 0.000000 0.000000 
#    y 0.000000 1.594350 0.000000 
#    z 0.000000 0.000000 1.606040 
# 
# From -- ./inp_files/30792.got.cif
#   From: 2010.03.12/outbox.cif.g09.slc.cpg/sg51_16_cif.got.tgz:30792.got - 2010.04.16 13:43:02.
