data_PCOD8206463
_publ_section_title
;
Structure prediction by ZEFSAII (Michael W. Deem and Ramdas Pophale) SiO2 
 PCOD8206463
Probable space group: P M M A
;
_chemical_formula_sum "Si O2"
_cell_formula_units_Z 56
_cell_length_a 19.839058
_cell_length_b 9.296138
_cell_length_c 17.905169
_cell_angle_alpha 90.000000
_cell_angle_beta 90.000000
_cell_angle_gamma 90.000000
_cell_volume 3302.189816
_symmetry_space_group_name_H-M "P M M A"
_symmetry_group_IT_number 51
_symmetry_cell_setting 'orthorhombic'
loop_
_space_group_symop_operation_xyz
x,y,z
1/2-x,-y,z
1/2+x,-y,-z
-x,y,-z
-x,-y,-z
1/2+x,y,-z
1/2-x,y,z
x,-y,z
loop_
_atom_site_type_symbol
_atom_site_label
_atom_site_fract_x
_atom_site_fract_y
_atom_site_fract_z
Si Si1 0.327850 0.664558 0.060575
Si Si2 0.889196 0.334951 0.785200
Si Si3 0.926623 0.828993 0.489444
Si Si4 0.542883 0.669342 0.187789
Si Si5 0.400115 0.839081 0.354136
Si Si6 0.569958 0.169662 0.039683
Si Si7 0.440189 0.162171 0.670661
O O1 0.250000 0.683743 0.040492
O O2 0.351924 0.500000 0.045797
O O3 0.338688 0.702527 0.147654
O O4 0.369139 0.775511 0.010968
O O5 0.887612 0.500000 0.763010
O O6 0.865120 0.253434 0.710657
O O7 0.964083 0.290132 0.810995
O O8 0.881305 0.780890 0.561552
O O9 0.900376 0.788810 0.405736
O O10 0.000000 0.757658 0.500000
O O11 0.933504 0.000000 0.494307
O O12 0.555926 0.500000 0.181177
O O13 0.576030 0.749088 0.118017
O O14 0.578662 0.728811 0.262835
O O15 0.480609 0.833401 0.346377
O O16 0.372919 0.000000 0.343359
O O17 0.576968 0.000000 0.052632
O O18 0.500000 0.209753 0.000000
O O19 0.419075 0.000000 0.693742
#
# Coordination Sequence:
#
# PCOD8206463 Si02
#       7
#     8   8   8   8   8   8   8
#     4  10  21  37  54  70  93 127 161 195 241 292
#     4   9  17  28  42  63  89 117 151 191 231 273
#     4   7  10  18  32  51  77 112 149 182 219 266
#     4  10  18  28  44  65  91 121 154 193 235 283
#     4   8  13  21  36  56  79 113 153 185 218 267
#     4  11  22  34  51  73  95 121 158 201 244 289
#     4   8  13  22  36  55  83 115 149 188 227 270
#
# _framework density 16.958445000000001
#
# number of rings (size 3 to 8) (size 9 to 14) (size 15 to 20)
#    0.000    3.000    1.429    2.571    0.000    2.000 
#    0.000    0.714    0.000    4.286    0.000    0.000 
#    0.000    1.143    0.000    9.143    0.000    4.857 
#
# Total GULP energy -693835.835168 kJ/mol
# GULP energy per Si atom -12389.925628 kJ/mol
# Density = 1.691985 g / cm^3
# Si number density = 16.958445 Si / 1000 Ang^3
#
#
#
# Elastic Constant Matrix: (Units=GPa)
#
#
# Indices 1 2 3 4 5 6 
#
# 1 32.6258 21.4802 26.6429 0.0000 0.0000 0.0000
# 2 21.4802 70.5880 59.5073 0.0000 0.0000 0.0000
# 3 26.6429 59.5073 138.8320 0.0000 0.0000 0.0000
# 4 0.0000 0.0000 0.0000 25.2037 0.0000 0.0000
# 5 0.0000 0.0000 0.0000 0.0000 11.8378 0.0000
# 6 0.0000 0.0000 0.0000 0.0000 0.0000 9.8238
#
#
#
# Elastic Compliance Matrix: (Units=1/GPa)
#
#
# Indices 1 2 3 4 5 6 
#
# 1 0.039576 -0.008832 -0.003809 0.000000 0.000000 0.000000
# 2 -0.008832 0.024153 -0.008658 0.000000 0.000000 0.000000
# 3 -0.003809 -0.008658 0.011645 0.000000 0.000000 0.000000
# 4 0.000000 0.000000 0.000000 0.039677 0.000000 0.000000
# 5 0.000000 0.000000 0.000000 0.000000 0.084475 0.000000
# 6 0.000000 0.000000 0.000000 0.000000 0.000000 0.101794
#
#
# Mechanical properties :
#
#
# Convention : Reuss Voigt Hill
#
# Bulk Modulus (GPa) = 30.51000 50.81184 40.66092
# Shear Modulus (GPa) = 14.09076 18.33409 16.21242
#
# Velocity S-wave (km/s) = 2.88566 3.29160 3.09529
# Velocity P-wave (km/s) = 5.39748 6.66887 6.06657
#
# Compressibility (1/GPa) = 0.03277614
#
# Stress axis : x y z
#
# Youngs Moduli (GPa) = 25.26784 41.40285 85.87403
#
# Poissons Ratio (x) = 0.36566 0.32713
# Poissons Ratio (y) = 0.22316 0.74348
# Poissons Ratio (z) = 0.09626 0.35846
#
# Static dielectric constant tensor:
#      x y z
#    x 2.584910 0.000000 0.000000 
#    y 0.000000 3.083350 0.000000 
#    z 0.000000 0.000000 3.637980 
# 
# 
# High freq. dielectric constant tensor:
#      x y z
#    x 1.577540 0.000000 0.000000 
#    y 0.000000 1.640780 0.000000 
#    z 0.000000 0.000000 1.678300 
# 
# From -- ./inp_files/30406.got.cif
#   From: 2010.03.12/outbox.cif.g09.slc.cpg/sg51_16_cif.got.tgz:30406.got - 2010.04.16 13:43:02.
