data_PCOD8206140
_publ_section_title
;
Structure prediction by ZEFSAII (Michael W. Deem and Ramdas Pophale) SiO2 
 PCOD8206140
Probable space group: P M M A
;
_chemical_formula_sum "Si O2"
_cell_formula_units_Z 64
_cell_length_a 27.239436
_cell_length_b 8.893023
_cell_length_c 17.085972
_cell_angle_alpha 90.000000
_cell_angle_beta 90.000000
_cell_angle_gamma 90.000000
_cell_volume 4138.921762
_symmetry_space_group_name_H-M "P M M A"
_symmetry_group_IT_number 51
_symmetry_cell_setting 'orthorhombic'
loop_
_space_group_symop_operation_xyz
x,y,z
1/2-x,-y,z
1/2+x,-y,-z
-x,y,-z
-x,-y,-z
1/2+x,y,-z
1/2-x,y,z
x,-y,z
loop_
_atom_site_type_symbol
_atom_site_label
_atom_site_fract_x
_atom_site_fract_y
_atom_site_fract_z
Si Si1 0.193662 0.321682 0.397072
Si Si2 0.058776 0.678758 0.658946
Si Si3 0.881956 0.330599 0.479331
Si Si4 0.575866 0.323598 0.861376
Si Si5 0.036501 0.676774 0.830324
Si Si6 0.557387 0.168893 0.016275
Si Si7 0.125752 0.176919 0.277972
Si Si8 0.952237 0.329305 0.617196
O O1 0.250000 0.278836 0.410268
O O2 0.185027 0.500000 0.389895
O O3 0.162649 0.254735 0.471502
O O4 0.174675 0.247432 0.316836
O O5 0.062026 0.500000 0.656132
O O6 0.103620 0.745089 0.604915
O O7 0.060694 0.733685 0.748816
O O8 0.007712 0.729628 0.619634
O O9 0.864897 0.500000 0.463043
O O10 0.932271 0.326640 0.529076
O O11 0.584688 0.500000 0.860126
O O12 0.521255 0.281175 0.830705
O O13 0.616998 0.244523 0.808134
O O14 0.584380 0.265015 0.949549
O O15 0.042717 0.500000 0.842443
O O16 0.066710 0.758411 0.898828
O O17 0.578317 0.000000 0.015797
O O18 0.500000 0.171180 0.000000
O O19 0.079060 0.217138 0.330217
O O20 0.132599 0.000000 0.271422
O O21 0.948240 0.500000 0.651867
#
# Coordination Sequence:
#
# PCOD8206140 Si02
#       8
#     8   8   8   8   8   8   8   8
#     4   9  18  33  50  65  83 109 142 180 221 261
#     4   9  14  22  38  61  84 109 144 181 213 248
#     4   8  14  23  41  64  82 103 139 182 217 251
#     4  10  17  28  43  59  81 110 146 180 209 249
#     4   9  16  25  38  56  80 113 148 179 211 247
#     4   9  17  27  38  55  80 111 145 178 213 247
#     4  11  20  28  42  64  87 112 142 176 216 259
#     4   9  15  26  40  57  81 112 145 176 209 247
#
# _framework density 15.462963999999999
#
# number of rings (size 3 to 8) (size 9 to 14) (size 15 to 20)
#    0.000    2.750    1.250    3.000    0.000    3.750 
#    0.000    0.000    0.000    9.000    0.000    0.000 
#    0.000    1.000    0.000    7.500    0.000    1.750 
#
# Total GULP energy -793081.540848 kJ/mol
# GULP energy per Si atom -12391.899076 kJ/mol
# Density = 1.542777 g / cm^3
# Si number density = 15.462964 Si / 1000 Ang^3
#
#
#
# Elastic Constant Matrix: (Units=GPa)
#
#
# Indices 1 2 3 4 5 6 
#
# 1 68.4417 24.0932 54.0342 0.0000 0.0000 0.0000
# 2 24.0932 55.5801 37.5127 0.0000 0.0000 0.0000
# 3 54.0342 37.5127 126.6962 0.0000 0.0000 0.0000
# 4 0.0000 0.0000 0.0000 10.7170 0.0000 0.0000
# 5 0.0000 0.0000 0.0000 0.0000 15.1719 0.0000
# 6 0.0000 0.0000 0.0000 0.0000 0.0000 9.7256
#
#
#
# Elastic Compliance Matrix: (Units=1/GPa)
#
#
# Indices 1 2 3 4 5 6 
#
# 1 0.022767 -0.004144 -0.008483 0.000000 0.000000 0.000000
# 2 -0.004144 0.023240 -0.005114 0.000000 0.000000 0.000000
# 3 -0.008483 -0.005114 0.013025 0.000000 0.000000 0.000000
# 4 0.000000 0.000000 0.000000 0.093310 0.000000 0.000000
# 5 0.000000 0.000000 0.000000 0.000000 0.065911 0.000000
# 6 0.000000 0.000000 0.000000 0.000000 0.000000 0.102821
#
#
# Mechanical properties :
#
#
# Convention : Reuss Voigt Hill
#
# Bulk Modulus (GPa) = 42.46146 53.55536 48.00841
# Shear Modulus (GPa) = 13.72101 16.12809 14.92455
#
# Velocity S-wave (km/s) = 2.98207 3.23308 3.11011
# Velocity P-wave (km/s) = 6.27509 6.97473 6.63414
#
# Compressibility (1/GPa) = 0.02355077
#
# Stress axis : x y z
#
# Youngs Moduli (GPa) = 43.92354 43.02991 76.77679
#
# Poissons Ratio (x) = 0.17831 0.65129
# Poissons Ratio (y) = 0.18201 0.39261
# Poissons Ratio (z) = 0.37260 0.22004
#
# Static dielectric constant tensor:
#      x y z
#    x 2.659070 0.000000 0.000000 
#    y 0.000000 2.755890 0.000000 
#    z 0.000000 0.000000 3.222520 
# 
# 
# High freq. dielectric constant tensor:
#      x y z
#    x 1.537320 0.000000 0.000000 
#    y 0.000000 1.571500 0.000000 
#    z 0.000000 0.000000 1.600240 
# 
# From -- ./inp_files/31011.got.cif
#   From: 2010.03.12/outbox.cif.g09.slc.cpg/sg51_16_cif.got.tgz:31011.got - 2010.04.16 13:43:02.
