data_PCOD8206042
_publ_section_title
;
Structure prediction by ZEFSAII (Michael W. Deem and Ramdas Pophale) SiO2 
 PCOD8206042
Probable space group: P M M A
;
_chemical_formula_sum "Si O2"
_cell_formula_units_Z 56
_cell_length_a 18.279277
_cell_length_b 14.327669
_cell_length_c 13.923894
_cell_angle_alpha 90.000000
_cell_angle_beta 90.000000
_cell_angle_gamma 90.000000
_cell_volume 3646.659908
_symmetry_space_group_name_H-M "P M M A"
_symmetry_group_IT_number 51
_symmetry_cell_setting 'orthorhombic'
loop_
_space_group_symop_operation_xyz
x,y,z
1/2-x,-y,z
1/2+x,-y,-z
-x,y,-z
-x,-y,-z
1/2+x,y,-z
1/2-x,y,z
x,-y,z
loop_
_atom_site_type_symbol
_atom_site_label
_atom_site_fract_x
_atom_site_fract_y
_atom_site_fract_z
Si Si1 0.332499 0.208739 0.687885
Si Si2 0.964312 0.110131 0.400724
Si Si3 0.918912 0.776531 0.957853
Si Si4 0.533967 0.102780 0.793323
Si Si5 0.336765 0.601587 0.773467
Si Si6 0.626835 0.896262 0.126493
Si Si7 0.164942 0.394401 0.990918
O O1 0.250000 0.209960 0.645524
O O2 0.386070 0.160350 0.611545
O O3 0.363342 0.314027 0.705527
O O4 0.329127 0.154789 0.789120
O O5 0.000000 0.143002 0.500000
O O6 0.020295 0.138380 0.315516
O O7 0.948920 0.000000 0.398244
O O8 0.917024 0.824436 0.852663
O O9 0.882810 0.675011 0.943690
O O10 0.867419 0.837543 0.028400
O O11 0.000000 0.766138 0.000000
O O12 0.457153 0.094094 0.845974
O O13 0.571396 0.000000 0.792587
O O14 0.250000 0.601144 0.777073
O O15 0.364879 0.500000 0.735400
O O16 0.364420 0.617510 0.881954
O O17 0.659877 0.000000 0.110559
O O18 0.250000 0.368396 0.999292
O O19 0.151483 0.500000 0.026632
#
# Coordination Sequence:
#
# PCOD8206042 Si02
#       7
#     8   8   8   8   8   8   8
#     4  10  17  26  44  69  91 113 147 186 221 262
#     4   9  18  32  48  65  89 120 148 181 230 277
#     4  10  17  25  41  63  88 117 148 177 208 248
#     4   8  15  27  42  59  81 113 150 176 205 257
#     4   8  14  25  41  61  87 118 146 173 214 267
#     4   9  16  24  35  58  91 119 139 166 209 257
#     4   9  17  29  42  57  85 124 155 178 213 261
#
# _framework density 15.356519
#
# number of rings (size 3 to 8) (size 9 to 14) (size 15 to 20)
#    0.000    3.000    1.429    2.571    0.000    3.143 
#    0.000    0.000    0.000    2.571    0.000    2.000 
#    0.000    2.286    0.000    0.000    0.000    0.000 
#
# Total GULP energy -694050.961412 kJ/mol
# GULP energy per Si atom -12393.767168 kJ/mol
# Density = 1.532157 g / cm^3
# Si number density = 15.356519 Si / 1000 Ang^3
#
#
#
# Elastic Constant Matrix: (Units=GPa)
#
#
# Indices 1 2 3 4 5 6 
#
# 1 45.9986 39.6192 33.7166 0.0000 0.0000 0.0000
# 2 39.6192 108.9491 42.4904 0.0000 0.0000 0.0000
# 3 33.7166 42.4904 85.2993 0.0000 0.0000 0.0000
# 4 0.0000 0.0000 0.0000 16.0067 0.0000 0.0000
# 5 0.0000 0.0000 0.0000 0.0000 16.7191 0.0000
# 6 0.0000 0.0000 0.0000 0.0000 0.0000 23.9585
#
#
#
# Elastic Compliance Matrix: (Units=1/GPa)
#
#
# Indices 1 2 3 4 5 6 
#
# 1 0.037401 -0.009724 -0.009940 0.000000 0.000000 0.000000
# 2 -0.009724 0.013920 -0.003090 0.000000 0.000000 0.000000
# 3 -0.009940 -0.003090 0.017192 0.000000 0.000000 0.000000
# 4 0.000000 0.000000 0.000000 0.062474 0.000000 0.000000
# 5 0.000000 0.000000 0.000000 0.000000 0.059812 0.000000
# 6 0.000000 0.000000 0.000000 0.000000 0.000000 0.041739
#
#
# Mechanical properties :
#
#
# Convention : Reuss Voigt Hill
#
# Bulk Modulus (GPa) = 43.47008 52.43326 47.95167
# Shear Modulus (GPa) = 17.50001 19.63159 18.56580
#
# Velocity S-wave (km/s) = 3.37943 3.57933 3.48082
# Velocity P-wave (km/s) = 6.60273 7.16242 6.88826
#
# Compressibility (1/GPa) = 0.02300433
#
# Stress axis : x y z
#
# Youngs Moduli (GPa) = 26.73703 71.83870 58.16766
#
# Poissons Ratio (x) = 0.69859 0.57817
# Poissons Ratio (y) = 0.26000 0.17975
# Poissons Ratio (z) = 0.26576 0.22200
#
# Static dielectric constant tensor:
#      x y z
#    x 2.613630 0.000000 0.000000 
#    y 0.000000 3.361550 0.000000 
#    z 0.000000 0.000000 2.767740 
# 
# 
# High freq. dielectric constant tensor:
#      x y z
#    x 1.554850 0.000000 0.000000 
#    y 0.000000 1.600870 0.000000 
#    z 0.000000 0.000000 1.546370 
# 
# From -- ./inp_files/25263.got.cif
#   From: 2010.03.12/outbox.cif.g09.slc.cpg/sg51_13_cif.got.tgz:25263.got - 2010.04.16 13:43:02.
