data_PCOD8206748
_publ_section_title
;
Structure prediction by ZEFSAII (Michael W. Deem and Ramdas Pophale) SiO2 
 PCOD8206748
Probable space group: P M M A
;
_chemical_formula_sum "Si O2"
_cell_formula_units_Z 40
_cell_length_a 20.064143
_cell_length_b 7.761417
_cell_length_c 14.232288
_cell_angle_alpha 90.000000
_cell_angle_beta 90.000000
_cell_angle_gamma 90.000000
_cell_volume 2216.339851
_symmetry_space_group_name_H-M "P M M A"
_symmetry_group_IT_number 51
_symmetry_cell_setting 'orthorhombic'
loop_
_space_group_symop_operation_xyz
x,y,z
1/2-x,-y,z
1/2+x,-y,-z
-x,y,-z
-x,-y,-z
1/2+x,y,-z
1/2-x,y,z
x,-y,z
loop_
_atom_site_type_symbol
_atom_site_label
_atom_site_fract_x
_atom_site_fract_y
_atom_site_fract_z
Si Si1 0.068587 0.703487 0.546046
Si Si2 0.089814 0.500000 0.085522
Si Si3 0.898137 0.192227 0.786212
Si Si4 0.566486 0.500000 0.121461
Si Si5 0.950257 0.193132 0.249572
Si Si6 0.326137 0.700747 0.393202
O O1 0.066743 0.500000 0.561371
O O2 0.079631 0.791712 0.646433
O O3 0.129437 0.763834 0.480474
O O4 0.000000 0.769157 0.500000
O O5 0.120935 0.328895 0.132943
O O6 0.010951 0.500000 0.097219
O O7 0.108565 0.500000 0.975223
O O8 0.845992 0.200509 0.701265
O O9 0.971102 0.235398 0.745054
O O10 0.895795 0.000000 0.829903
O O11 0.585441 0.671323 0.180120
O O12 0.937327 0.000000 0.211231
O O13 0.250000 0.742704 0.418211
O O14 0.338642 0.500000 0.374454
#
# Coordination Sequence:
#
# PCOD8206748 Si02
#       6
#     8   4   8   4   8   8
#     4  10  18  29  51  74 100 140 178 210 252 308
#     4   9  18  32  50  69 101 134 164 206 258 308
#     4  10  19  31  50  74 100 135 172 207 255 310
#     4   9  18  32  48  72 102 133 164 208 260 301
#     4  10  19  30  49  76 104 134 173 211 252 305
#     4  10  20  33  50  75 107 139 173 213 256 307
#
# _framework density 18.047774
#
# number of rings (size 3 to 8) (size 9 to 14) (size 15 to 20)
#    0.000    2.200    4.000    0.000    0.000    2.400 
#    0.000    4.000    0.000    0.000    0.000    2.800 
#    0.000    0.000    0.000    0.000    0.000    0.000 
#
# Total GULP energy -496045.180854 kJ/mol
# GULP energy per Si atom -12401.129521 kJ/mol
# Density = 1.800670 g / cm^3
# Si number density = 18.047774 Si / 1000 Ang^3
#
#
#
# Elastic Constant Matrix: (Units=GPa)
#
#
# Indices 1 2 3 4 5 6 
#
# 1 64.8204 27.6669 36.3105 0.0000 0.0000 0.0000
# 2 27.6669 113.4896 66.0320 0.0000 0.0000 0.0000
# 3 36.3105 66.0320 144.4959 0.0000 0.0000 0.0000
# 4 0.0000 0.0000 0.0000 11.0321 0.0000 0.0000
# 5 0.0000 0.0000 0.0000 0.0000 15.7540 0.0000
# 6 0.0000 0.0000 0.0000 0.0000 0.0000 10.9359
#
#
#
# Elastic Compliance Matrix: (Units=1/GPa)
#
#
# Indices 1 2 3 4 5 6 
#
# 1 0.018442 -0.002451 -0.003514 0.000000 0.000000 0.000000
# 2 -0.002451 0.012329 -0.005018 0.000000 0.000000 0.000000
# 3 -0.003514 -0.005018 0.010097 0.000000 0.000000 0.000000
# 4 0.000000 0.000000 0.000000 0.090644 0.000000 0.000000
# 5 0.000000 0.000000 0.000000 0.000000 0.063476 0.000000
# 6 0.000000 0.000000 0.000000 0.000000 0.000000 0.091442
#
#
# Mechanical properties :
#
#
# Convention : Reuss Voigt Hill
#
# Bulk Modulus (GPa) = 52.90801 64.75831 58.83316
# Shear Modulus (GPa) = 15.88831 20.39750 18.14291
#
# Velocity S-wave (km/s) = 2.97028 3.36548 3.17404
# Velocity P-wave (km/s) = 6.41425 7.14573 6.78985
#
# Compressibility (1/GPa) = 0.01890073
#
# Stress axis : x y z
#
# Youngs Moduli (GPa) = 54.22400 81.11253 99.04130
#
# Poissons Ratio (x) = 0.19882 0.34805
# Poissons Ratio (y) = 0.13291 0.49698
# Poissons Ratio (z) = 0.19055 0.40702
#
# Static dielectric constant tensor:
#      x y z
#    x 2.928790 0.000000 0.000000 
#    y 0.000000 3.383930 0.000000 
#    z 0.000000 0.000000 3.353380 
# 
# 
# High freq. dielectric constant tensor:
#      x y z
#    x 1.643980 0.000000 0.000000 
#    y 0.000000 1.708360 0.000000 
#    z 0.000000 0.000000 1.691620 
# 
# From -- ./inp_files/17961.got.cif
#   From: 2010.03.12/outbox.cif.g09.slc.cpg/sg51_9_cif.got.tgz:17961.got - 2010.04.16 13:43:02.
