data_PCOD8206561
_publ_section_title
;
Structure prediction by ZEFSAII (Michael W. Deem and Ramdas Pophale) SiO2 
 PCOD8206561
Probable space group: P M M A
;
_chemical_formula_sum "Si O2"
_cell_formula_units_Z 64
_cell_length_a 9.009846
_cell_length_b 21.332880
_cell_length_c 18.468183
_cell_angle_alpha 90.000000
_cell_angle_beta 90.000000
_cell_angle_gamma 90.000000
_cell_volume 3549.694908
_symmetry_space_group_name_H-M "P M M A"
_symmetry_group_IT_number 51
_symmetry_cell_setting 'orthorhombic'
loop_
_space_group_symop_operation_xyz
x,y,z
1/2-x,-y,z
1/2+x,-y,-z
-x,y,-z
-x,-y,-z
1/2+x,y,-z
1/2-x,y,z
x,-y,z
loop_
_atom_site_type_symbol
_atom_site_label
_atom_site_fract_x
_atom_site_fract_y
_atom_site_fract_z
Si Si1 0.578337 0.926271 0.925294
Si Si2 0.581907 0.601571 0.070944
Si Si3 0.575743 0.161357 0.185881
Si Si4 0.421597 0.251770 0.279197
Si Si5 0.578776 0.570863 0.357927
Si Si6 0.088332 0.250691 0.934355
Si Si7 0.075589 0.315846 0.428237
Si Si8 0.073861 0.385424 0.217837
O O1 0.750000 0.906193 0.928471
O O2 0.501839 0.897373 0.853203
O O3 0.559763 0.000000 0.915791
O O4 0.500000 0.904132 0.000000
O O5 0.750000 0.574722 0.075874
O O6 0.585972 0.675525 0.063705
O O7 0.489161 0.586383 0.142783
O O8 0.500000 0.572907 0.000000
O O9 0.750000 0.147405 0.194575
O O10 0.508829 0.186308 0.262033
O O11 0.529182 0.222954 0.140065
O O12 0.250000 0.237094 0.267643
O O13 0.457357 0.268532 0.362430
O O14 0.467655 0.312166 0.230026
O O15 0.750000 0.591615 0.349900
O O16 0.566278 0.500000 0.387359
O O17 0.496155 0.616226 0.413905
O O18 0.500199 0.573563 0.280111
O O19 0.250000 0.222784 0.945680
O O20 0.000000 0.220558 0.000000
O O21 0.250000 0.325277 0.439746
O O22 0.000000 0.287056 0.500000
O O23 0.250000 0.394740 0.219465
#
# Coordination Sequence:
#
# PCOD8206561 Si02
#       8
#     8   8   8   8   8   8   8   8
#     4  10  21  36  51  68  96 137 183 228 270 309
#     4  10  18  29  43  63  92 123 158 199 245 299
#     4  11  20  30  47  71  97 129 169 212 257 300
#     4   9  19  33  49  72 101 131 165 201 245 300
#     4  10  21  36  55  78 102 132 169 207 247 294
#     4   9  18  27  37  59  88 120 155 194 241 288
#     4  10  21  37  57  81 108 140 169 200 244 296
#     4  10  19  32  50  71  97 129 163 205 255 304
#
# _framework density 18.029719
#
# number of rings (size 3 to 8) (size 9 to 14) (size 15 to 20)
#    0.000    2.125    1.250    3.375    0.000    7.000 
#    0.000    0.000    0.000    0.375    0.000    0.000 
#    0.000    0.500    0.000    1.625    0.000    2.000 
#
# Total GULP energy -793179.398705 kJ/mol
# GULP energy per Si atom -12393.428105 kJ/mol
# Density = 1.798868 g / cm^3
# Si number density = 18.029719 Si / 1000 Ang^3
#
#
#
# Elastic Constant Matrix: (Units=GPa)
#
#
# Indices 1 2 3 4 5 6 
#
# 1 112.0793 34.3893 44.2876 0.0000 0.0000 0.0000
# 2 34.3893 53.1657 21.0125 0.0000 0.0000 0.0000
# 3 44.2876 21.0125 96.7117 0.0000 0.0000 0.0000
# 4 0.0000 0.0000 0.0000 18.7651 0.0000 0.0000
# 5 0.0000 0.0000 0.0000 0.0000 35.0432 0.0000
# 6 0.0000 0.0000 0.0000 0.0000 0.0000 23.2138
#
#
#
# Elastic Compliance Matrix: (Units=1/GPa)
#
#
# Indices 1 2 3 4 5 6 
#
# 1 0.012630 -0.006436 -0.004385 0.000000 0.000000 0.000000
# 2 -0.006436 0.023856 -0.002236 0.000000 0.000000 0.000000
# 3 -0.004385 -0.002236 0.012834 0.000000 0.000000 0.000000
# 4 0.000000 0.000000 0.000000 0.053290 0.000000 0.000000
# 5 0.000000 0.000000 0.000000 0.000000 0.028536 0.000000
# 6 0.000000 0.000000 0.000000 0.000000 0.000000 0.043078
#
#
# Mechanical properties :
#
#
# Convention : Reuss Voigt Hill
#
# Bulk Modulus (GPa) = 43.09384 51.25950 47.17667
# Shear Modulus (GPa) = 24.02992 26.22224 25.12608
#
# Velocity S-wave (km/s) = 3.65471 3.81778 3.73713
# Velocity P-wave (km/s) = 6.46240 6.92288 6.69660
#
# Compressibility (1/GPa) = 0.02320517
#
# Stress axis : x y z
#
# Youngs Moduli (GPa) = 79.17714 41.91825 77.91845
#
# Poissons Ratio (x) = 0.26980 0.34169
# Poissons Ratio (y) = 0.50961 0.17421
# Poissons Ratio (z) = 0.34721 0.09372
#
# Static dielectric constant tensor:
#      x y z
#    x 3.488580 0.000000 0.000000 
#    y 0.000000 3.008690 0.000000 
#    z 0.000000 0.000000 3.343860 
# 
# 
# High freq. dielectric constant tensor:
#      x y z
#    x 1.714630 0.000000 0.000000 
#    y 0.000000 1.663960 0.000000 
#    z 0.000000 0.000000 1.684710 
# 
# From -- ./inp_files/28466.got.cif
#   From: 2010.03.12/outbox.cif.g09.slc.cpg/sg51_15_cif.got.tgz:28466.got - 2010.04.16 13:43:02.
