data_PCOD8206775
_publ_section_title
;
Structure prediction by ZEFSAII (Michael W. Deem and Ramdas Pophale) SiO2 
 PCOD8206775
Probable space group: P M M A
;
_chemical_formula_sum "Si O2"
_cell_formula_units_Z 52
_cell_length_a 8.690245
_cell_length_b 26.419196
_cell_length_c 13.751048
_cell_angle_alpha 90.000000
_cell_angle_beta 90.000000
_cell_angle_gamma 90.000000
_cell_volume 3157.093291
_symmetry_space_group_name_H-M "P M M A"
_symmetry_group_IT_number 51
_symmetry_cell_setting 'orthorhombic'
loop_
_space_group_symop_operation_xyz
x,y,z
1/2-x,-y,z
1/2+x,-y,-z
-x,y,-z
-x,-y,-z
1/2+x,y,-z
1/2-x,y,z
x,-y,z
loop_
_atom_site_type_symbol
_atom_site_label
_atom_site_fract_x
_atom_site_fract_y
_atom_site_fract_z
Si Si1 0.432357 0.102714 0.607110
Si Si2 0.431202 0.249493 0.893769
Si Si3 0.570154 0.349066 0.222678
Si Si4 0.066606 0.000000 0.392426
Si Si5 0.570110 0.703984 0.604185
Si Si6 0.067808 0.803886 0.283945
Si Si7 0.568546 0.556470 0.103182
O O1 0.500000 0.113141 0.500000
O O2 0.250000 0.098458 0.598131
O O3 0.501285 0.051355 0.655769
O O4 0.478908 0.147037 0.679616
O O5 0.250000 0.239260 0.895151
O O6 0.470586 0.305667 0.855484
O O7 0.512880 0.208141 0.825114
O O8 0.500000 0.242962 0.000000
O O9 0.750000 0.349680 0.245160
O O10 0.483168 0.340258 0.323591
O O11 0.510658 0.402901 0.182040
O O12 0.000000 0.000000 0.500000
O O13 0.250000 0.000000 0.390939
O O14 0.500000 0.693855 0.500000
O O15 0.750000 0.702006 0.593856
O O16 0.516202 0.758117 0.645658
O O17 0.250000 0.812901 0.286034
O O18 0.750000 0.559581 0.092542
O O19 0.515295 0.500000 0.134831
O O20 0.500000 0.571672 0.000000
#
# Coordination Sequence:
#
# PCOD8206775 Si02
#       7
#     8   8   8   4   8   8   8
#     4  11  20  31  47  69  97 128 160 195 234 277
#     4  10  19  31  47  68  94 124 155 190 231 276
#     4   9  18  31  47  67  93 123 154 188 228 274
#     4  10  18  30  46  66  93 126 161 196 234 276
#     4  10  20  32  48  68  92 121 154 191 230 274
#     4  10  20  33  48  69  94 123 157 192 232 278
#     4   9  17  29  46  69  95 122 151 186 229 275
#
# _framework density 16.470848
#
# number of rings (size 3 to 8) (size 9 to 14) (size 15 to 20)
#    0.000    2.154    0.000    5.308    0.000    4.308 
#    0.000    0.000    0.000    0.462    0.000    0.538 
#    0.000    0.000    0.000    0.000    0.000    0.000 
#
# Total GULP energy -644823.562073 kJ/mol
# GULP energy per Si atom -12400.453117 kJ/mol
# Density = 1.643336 g / cm^3
# Si number density = 16.470848 Si / 1000 Ang^3
#
#
#
# Elastic Constant Matrix: (Units=GPa)
#
#
# Indices 1 2 3 4 5 6 
#
# 1 78.4303 42.8184 37.2297 0.0000 0.0000 0.0000
# 2 42.8184 123.0643 63.5759 0.0000 0.0000 0.0000
# 3 37.2297 63.5759 115.8667 0.0000 0.0000 0.0000
# 4 0.0000 0.0000 0.0000 23.8189 0.0000 0.0000
# 5 0.0000 0.0000 0.0000 0.0000 29.1951 0.0000
# 6 0.0000 0.0000 0.0000 0.0000 0.0000 23.2283
#
#
#
# Elastic Compliance Matrix: (Units=1/GPa)
#
#
# Indices 1 2 3 4 5 6 
#
# 1 0.016452 -0.004177 -0.002994 0.000000 0.000000 0.000000
# 2 -0.004177 0.012401 -0.005462 0.000000 0.000000 0.000000
# 3 -0.002994 -0.005462 0.012590 0.000000 0.000000 0.000000
# 4 0.000000 0.000000 0.000000 0.041983 0.000000 0.000000
# 5 0.000000 0.000000 0.000000 0.000000 0.034252 0.000000
# 6 0.000000 0.000000 0.000000 0.000000 0.000000 0.043051
#
#
# Mechanical properties :
#
#
# Convention : Reuss Voigt Hill
#
# Bulk Modulus (GPa) = 61.82232 67.17883 64.50058
# Shear Modulus (GPa) = 26.12481 26.83097 26.47789
#
# Velocity S-wave (km/s) = 3.98694 4.04046 4.01379
# Velocity P-wave (km/s) = 7.66877 7.91468 7.79270
#
# Compressibility (1/GPa) = 0.01617539
#
# Stress axis : x y z
#
# Youngs Moduli (GPa) = 60.78252 80.63785 79.42963
#
# Poissons Ratio (x) = 0.33686 0.23782
# Poissons Ratio (y) = 0.25392 0.43386
# Poissons Ratio (z) = 0.18199 0.44046
#
# Static dielectric constant tensor:
#      x y z
#    x 3.448180 0.000000 0.000000 
#    y 0.000000 3.464570 0.000000 
#    z 0.000000 0.000000 2.954800 
# 
# 
# High freq. dielectric constant tensor:
#      x y z
#    x 1.647960 0.000000 0.000000 
#    y 0.000000 1.631860 0.000000 
#    z 0.000000 0.000000 1.612050 
# 
# From -- ./inp_files/14648.got.cif
#   From: 2010.03.12/outbox.cif.g09.slc.cpg/sg51_8_cif.got.tgz:14648.got - 2010.04.16 13:43:02.
