data_PCOD8206806
_publ_section_title
;
Structure prediction by ZEFSAII (Michael W. Deem and Ramdas Pophale) SiO2 
 PCOD8206806
Probable space group: P M M A
;
_chemical_formula_sum "Si O2"
_cell_formula_units_Z 64
_cell_length_a 30.162950
_cell_length_b 9.152258
_cell_length_c 14.280200
_cell_angle_alpha 90.000000
_cell_angle_beta 90.000000
_cell_angle_gamma 90.000000
_cell_volume 3942.179166
_symmetry_space_group_name_H-M "P M M A"
_symmetry_group_IT_number 51
_symmetry_cell_setting 'orthorhombic'
loop_
_space_group_symop_operation_xyz
x,y,z
1/2-x,-y,z
1/2+x,-y,-z
-x,y,-z
-x,-y,-z
1/2+x,y,-z
1/2-x,y,z
x,-y,z
loop_
_atom_site_type_symbol
_atom_site_label
_atom_site_fract_x
_atom_site_fract_y
_atom_site_fract_z
Si Si1 0.799397 0.829371 0.840029
Si Si2 0.459218 0.172775 0.932922
Si Si3 0.623008 0.835000 0.562894
Si Si4 0.300627 0.330980 0.355098
Si Si5 0.433004 0.164636 0.256093
Si Si6 0.886893 0.827483 0.929000
Si Si7 0.046922 0.667180 0.541216
Si Si8 0.518887 0.666363 0.254962
O O1 0.750000 0.798995 0.879794
O O2 0.807977 0.740209 0.746103
O O3 0.835104 0.779782 0.919837
O O4 0.805809 0.000000 0.815066
O O5 0.461316 0.245054 0.831651
O O6 0.460025 0.000000 0.918566
O O7 0.500000 0.220477 0.000000
O O8 0.412568 0.228641 0.978524
O O9 0.669036 0.745430 0.565586
O O10 0.605419 0.833851 0.668226
O O11 0.587492 0.763514 0.494215
O O12 0.632079 0.000000 0.528377
O O13 0.250000 0.310899 0.387898
O O14 0.313887 0.500000 0.347369
O O15 0.413382 0.231201 0.160869
O O16 0.472077 0.269758 0.288493
O O17 0.451452 0.000000 0.241322
O O18 0.890021 0.000000 0.927897
O O19 0.053145 0.500000 0.507836
O O20 0.049773 0.678973 0.653796
O O21 0.000000 0.726224 0.500000
O O22 0.512917 0.500000 0.223182
#
# Coordination Sequence:
#
# PCOD8206806 Si02
#       8
#     8   8   8   8   8   8   8   8
#     4   9  16  28  47  70  96 125 160 200 235 276
#     4  10  19  32  49  66  91 128 163 198 238 283
#     4  11  21  32  51  75  97 128 168 208 241 281
#     4  10  20  32  47  70 102 136 164 194 241 297
#     4  10  18  30  47  68  97 128 162 196 234 283
#     4   9  16  29  46  67  94 127 161 192 236 285
#     4  10  21  36  50  68  98 132 162 199 249 298
#     4  11  22  34  48  68  96 127 162 203 241 280
#
# _framework density 16.234677000000001
#
# number of rings (size 3 to 8) (size 9 to 14) (size 15 to 20)
#    0.000    2.000    3.750    1.125    0.000    2.750 
#    0.000    0.625    0.000    0.000    0.000    0.875 
#    0.000    3.000    0.000    0.000    0.000    0.000 
#
# Total GULP energy -793348.478779 kJ/mol
# GULP energy per Si atom -12396.069981 kJ/mol
# Density = 1.619773 g / cm^3
# Si number density = 16.234677 Si / 1000 Ang^3
#
#
#
# Elastic Constant Matrix: (Units=GPa)
#
#
# Indices 1 2 3 4 5 6 
#
# 1 117.2323 51.4784 36.3972 0.0000 0.0000 0.0000
# 2 51.4784 74.8562 32.9283 0.0000 0.0000 0.0000
# 3 36.3972 32.9283 67.8355 0.0000 0.0000 0.0000
# 4 0.0000 0.0000 0.0000 21.9125 0.0000 0.0000
# 5 0.0000 0.0000 0.0000 0.0000 26.2904 0.0000
# 6 0.0000 0.0000 0.0000 0.0000 0.0000 20.7861
#
#
#
# Elastic Compliance Matrix: (Units=1/GPa)
#
#
# Indices 1 2 3 4 5 6 
#
# 1 0.012774 -0.007336 -0.003293 0.000000 0.000000 0.000000
# 2 -0.007336 0.021199 -0.006354 0.000000 0.000000 0.000000
# 3 -0.003293 -0.006354 0.019593 0.000000 0.000000 0.000000
# 4 0.000000 0.000000 0.000000 0.045636 0.000000 0.000000
# 5 0.000000 0.000000 0.000000 0.000000 0.038037 0.000000
# 6 0.000000 0.000000 0.000000 0.000000 0.000000 0.048109
#
#
# Mechanical properties :
#
#
# Convention : Reuss Voigt Hill
#
# Bulk Modulus (GPa) = 51.02151 55.72574 53.37363
# Shear Modulus (GPa) = 22.13896 23.07248 22.60572
#
# Velocity S-wave (km/s) = 3.69682 3.77395 3.73558
# Velocity P-wave (km/s) = 7.05107 7.30684 7.18010
#
# Compressibility (1/GPa) = 0.01959958
#
# Stress axis : x y z
#
# Youngs Moduli (GPa) = 78.28567 47.17200 51.03957
#
# Poissons Ratio (x) = 0.34605 0.16806
# Poissons Ratio (y) = 0.57431 0.32431
# Poissons Ratio (z) = 0.25777 0.29974
#
# Static dielectric constant tensor:
#      x y z
#    x 3.229610 0.000000 0.000000 
#    y 0.000000 3.061750 0.000000 
#    z 0.000000 0.000000 2.917070 
# 
# 
# High freq. dielectric constant tensor:
#      x y z
#    x 1.620360 0.000000 0.000000 
#    y 0.000000 1.619620 0.000000 
#    z 0.000000 0.000000 1.596170 
# 
# From -- ./inp_files/26697.got.cif
#   From: 2010.03.12/outbox.cif.g09.slc.cpg/sg51_14_cif.got.tgz:26697.got - 2010.04.16 13:43:02.
