data_PCOD8206265
_publ_section_title
;
Structure prediction by ZEFSAII (Michael W. Deem and Ramdas Pophale) SiO2 
 PCOD8206265
Probable space group: P M M A
;
_chemical_formula_sum "Si O2"
_cell_formula_units_Z 60
_cell_length_a 14.190910
_cell_length_b 19.443593
_cell_length_c 12.016734
_cell_angle_alpha 90.000000
_cell_angle_beta 90.000000
_cell_angle_gamma 90.000000
_cell_volume 3315.684623
_symmetry_space_group_name_H-M "P M M A"
_symmetry_group_IT_number 51
_symmetry_cell_setting 'orthorhombic'
loop_
_space_group_symop_operation_xyz
x,y,z
1/2-x,-y,z
1/2+x,-y,-z
-x,y,-z
-x,-y,-z
1/2+x,y,-z
1/2-x,y,z
x,-y,z
loop_
_atom_site_type_symbol
_atom_site_label
_atom_site_fract_x
_atom_site_fract_y
_atom_site_fract_z
Si Si1 0.500000 0.373369 0.500000
Si Si2 0.641286 0.884830 0.548414
Si Si3 0.141682 0.421289 0.087017
Si Si4 0.513654 0.423614 0.260816
Si Si5 0.859689 0.333150 0.120648
Si Si6 0.461605 0.077226 0.676240
Si Si7 0.144598 0.261026 0.539373
Si Si8 0.860252 0.802459 0.229902
O O1 0.499213 0.421398 0.392526
O O2 0.590187 0.325041 0.509740
O O3 0.750000 0.908697 0.569479
O O4 0.605462 0.915313 0.431362
O O5 0.571697 0.909765 0.646391
O O6 0.635489 0.802314 0.546193
O O7 0.250000 0.406344 0.115355
O O8 0.127606 0.500000 0.044839
O O9 0.084255 0.406329 0.198857
O O10 0.103569 0.368122 0.993171
O O11 0.547502 0.500000 0.228247
O O12 0.592450 0.369404 0.225810
O O13 0.750000 0.347923 0.134016
O O14 0.879349 0.250384 0.126802
O O15 0.424540 0.128631 0.774239
O O16 0.452542 0.000000 0.722775
O O17 0.250000 0.286878 0.552782
O O18 0.106629 0.237380 0.659317
O O19 0.750000 0.823454 0.236069
#
# Coordination Sequence:
#
# PCOD8206265 Si02
#       8
#     4   8   8   8   8   8   8   8
#     4  12  21  32  50  68 105 148 174 204 247 314
#     4   9  17  27  42  63  91 131 182 227 258 301
#     4   9  19  37  58  79 104 133 169 219 277 322
#     4  11  23  35  51  77 107 138 172 212 262 319
#     4  10  19  34  57  77  96 129 173 225 274 310
#     4  10  18  26  41  65  98 136 169 209 266 320
#     4   9  17  30  46  65  90 132 179 217 257 297
#     4   9  17  30  47  69  95 126 169 218 264 306
#
# _framework density 18.09581
#
# number of rings (size 3 to 8) (size 9 to 14) (size 15 to 20)
#    0.000    2.267    1.333    4.600    0.000    4.267 
#    0.000    0.000    0.000    2.400    0.000    0.000 
#    0.000    2.133    0.000    0.533    0.000    2.667 
#
# Total GULP energy -743751.450183 kJ/mol
# GULP energy per Si atom -12395.857503 kJ/mol
# Density = 1.805462 g / cm^3
# Si number density = 18.095810 Si / 1000 Ang^3
#
#
#
# Elastic Constant Matrix: (Units=GPa)
#
#
# Indices 1 2 3 4 5 6 
#
# 1 86.1899 45.5529 28.6452 0.0000 0.0000 0.0000
# 2 45.5529 105.8162 35.2380 0.0000 0.0000 0.0000
# 3 28.6452 35.2380 73.2410 0.0000 0.0000 0.0000
# 4 0.0000 0.0000 0.0000 17.6729 0.0000 0.0000
# 5 0.0000 0.0000 0.0000 0.0000 17.4973 0.0000
# 6 0.0000 0.0000 0.0000 0.0000 0.0000 9.1270
#
#
#
# Elastic Compliance Matrix: (Units=1/GPa)
#
#
# Indices 1 2 3 4 5 6 
#
# 1 0.015716 -0.005619 -0.003443 0.000000 0.000000 0.000000
# 2 -0.005619 0.013262 -0.004183 0.000000 0.000000 0.000000
# 3 -0.003443 -0.004183 0.017013 0.000000 0.000000 0.000000
# 4 0.000000 0.000000 0.000000 0.056584 0.000000 0.000000
# 5 0.000000 0.000000 0.000000 0.000000 0.057152 0.000000
# 6 0.000000 0.000000 0.000000 0.000000 0.000000 0.109565
#
#
# Mechanical properties :
#
#
# Convention : Reuss Voigt Hill
#
# Bulk Modulus (GPa) = 51.28079 53.79102 52.53591
# Shear Modulus (GPa) = 16.54076 19.24686 17.89381
#
# Velocity S-wave (km/s) = 3.02663 3.26484 3.14799
# Velocity P-wave (km/s) = 6.37291 6.63343 6.50448
#
# Compressibility (1/GPa) = 0.01950048
#
# Stress axis : x y z
#
# Youngs Moduli (GPa) = 63.62746 75.40135 58.77897
#
# Poissons Ratio (x) = 0.42369 0.20240
# Poissons Ratio (y) = 0.35753 0.24588
# Poissons Ratio (z) = 0.21909 0.31542
#
# Static dielectric constant tensor:
#      x y z
#    x 3.441660 0.000000 0.000000 
#    y 0.000000 3.463820 0.000000 
#    z 0.000000 0.000000 3.000510 
# 
# 
# High freq. dielectric constant tensor:
#      x y z
#    x 1.707660 0.000000 0.000000 
#    y 0.000000 1.700880 0.000000 
#    z 0.000000 0.000000 1.647210 
# 
# From -- ./inp_files/16908.got.cif
#   From: 2010.03.12/outbox.cif.g09.slc.cpg/sg51_9_cif.got.tgz:16908.got - 2010.04.16 13:43:02.
