data_PCOD8206158
_publ_section_title
;
Structure prediction by ZEFSAII (Michael W. Deem and Ramdas Pophale) SiO2 
 PCOD8206158
Probable space group: P M M A
;
_chemical_formula_sum "Si O2"
_cell_formula_units_Z 40
_cell_length_a 20.247308
_cell_length_b 9.066281
_cell_length_c 12.651820
_cell_angle_alpha 90.000000
_cell_angle_beta 90.000000
_cell_angle_gamma 90.000000
_cell_volume 2322.466559
_symmetry_space_group_name_H-M "P M M A"
_symmetry_group_IT_number 51
_symmetry_cell_setting 'orthorhombic'
loop_
_space_group_symop_operation_xyz
x,y,z
1/2-x,-y,z
1/2+x,-y,-z
-x,y,-z
-x,-y,-z
1/2+x,y,-z
1/2-x,y,z
x,-y,z
loop_
_atom_site_type_symbol
_atom_site_label
_atom_site_fract_x
_atom_site_fract_y
_atom_site_fract_z
Si Si1 0.929275 0.174213 0.548269
Si Si2 0.176912 0.173914 0.619416
Si Si3 0.454847 0.325413 0.241274
Si Si4 0.921959 0.662867 0.984276
Si Si5 0.590490 0.172748 0.186681
O O1 0.872814 0.234950 0.469623
O O2 0.000000 0.217098 0.500000
O O3 0.917584 0.257296 0.658550
O O4 0.924490 0.000000 0.567366
O O5 0.250000 0.243567 0.605137
O O6 0.150925 0.213041 0.736387
O O7 0.180431 0.000000 0.606297
O O8 0.463689 0.500000 0.253521
O O9 0.410197 0.288018 0.137440
O O10 0.526778 0.254479 0.231608
O O11 0.892229 0.500000 0.004743
O O12 0.889781 0.775269 0.068270
O O13 0.000000 0.658810 0.000000
O O14 0.574901 0.000000 0.185646
#
# Coordination Sequence:
#
# PCOD8206158 Si02
#       5
#     8   8   8   8   8
#     4  10  18  31  50  73  97 123 164 207 239 282
#     4   9  18  32  49  70  99 130 156 195 252 296
#     4  10  19  30  46  70 100 130 158 195 246 290
#     4   8  16  29  43  65  97 127 153 187 236 287
#     4  10  17  28  48  72  96 123 161 200 238 287
#
# _framework density 17.223067
#
# number of rings (size 3 to 8) (size 9 to 14) (size 15 to 20)
#    0.000    2.600    2.000    2.400    0.000    4.800 
#    0.000    0.000    0.000    6.600    0.000    8.400 
#    0.000    0.000    0.000    0.000    0.000    0.000 
#
# Total GULP energy -495807.904150 kJ/mol
# GULP energy per Si atom -12395.197604 kJ/mol
# Density = 1.718387 g / cm^3
# Si number density = 17.223067 Si / 1000 Ang^3
#
#
#
# Elastic Constant Matrix: (Units=GPa)
#
#
# Indices 1 2 3 4 5 6 
#
# 1 92.3174 28.9085 61.7904 0.0000 0.0000 0.0000
# 2 28.9085 60.7789 55.9634 0.0000 0.0000 0.0000
# 3 61.7904 55.9634 171.1658 0.0000 0.0000 0.0000
# 4 0.0000 0.0000 0.0000 29.0684 0.0000 0.0000
# 5 0.0000 0.0000 0.0000 0.0000 16.7491 0.0000
# 6 0.0000 0.0000 0.0000 0.0000 0.0000 3.0740
#
#
#
# Elastic Compliance Matrix: (Units=1/GPa)
#
#
# Indices 1 2 3 4 5 6 
#
# 1 0.014657 -0.003004 -0.004309 0.000000 0.000000 0.000000
# 2 -0.003004 0.024155 -0.006813 0.000000 0.000000 0.000000
# 3 -0.004309 -0.006813 0.009626 0.000000 0.000000 0.000000
# 4 0.000000 0.000000 0.000000 0.034402 0.000000 0.000000
# 5 0.000000 0.000000 0.000000 0.000000 0.059705 0.000000
# 6 0.000000 0.000000 0.000000 0.000000 0.000000 0.325305
#
#
# Mechanical properties :
#
#
# Convention : Reuss Voigt Hill
#
# Bulk Modulus (GPa) = 49.54041 68.62076 59.08058
# Shear Modulus (GPa) = 9.94372 21.61828 15.78100
#
# Velocity S-wave (km/s) = 2.40542 3.54671 3.03028
# Velocity P-wave (km/s) = 6.04493 7.53001 6.82797
#
# Compressibility (1/GPa) = 0.02018554
#
# Stress axis : x y z
#
# Youngs Moduli (GPa) = 68.22713 41.39879 103.89063
#
# Poissons Ratio (x) = 0.12435 0.44767
# Poissons Ratio (y) = 0.20493 0.70784
# Poissons Ratio (z) = 0.29399 0.28207
#
# Static dielectric constant tensor:
#      x y z
#    x 3.000400 0.000000 0.000000 
#    y 0.000000 3.098320 0.000000 
#    z 0.000000 0.000000 3.723080 
# 
# 
# High freq. dielectric constant tensor:
#      x y z
#    x 1.613940 0.000000 0.000000 
#    y 0.000000 1.651290 0.000000 
#    z 0.000000 0.000000 1.685100 
# 
# From -- ./inp_files/17887.got.cif
#   From: 2010.03.12/outbox.cif.g09.slc.cpg/sg51_9_cif.got.tgz:17887.got - 2010.04.16 13:43:02.
