data_PCOD8206993
_publ_section_title
;
Structure prediction by ZEFSAII (Michael W. Deem and Ramdas Pophale) SiO2 
 PCOD8206993
Probable space group: P M M A
;
_chemical_formula_sum "Si O2"
_cell_formula_units_Z 56
_cell_length_a 8.920765
_cell_length_b 15.356065
_cell_length_c 20.125916
_cell_angle_alpha 90.000000
_cell_angle_beta 90.000000
_cell_angle_gamma 90.000000
_cell_volume 2757.005906
_symmetry_space_group_name_H-M "P M M A"
_symmetry_group_IT_number 51
_symmetry_cell_setting 'orthorhombic'
loop_
_space_group_symop_operation_xyz
x,y,z
1/2-x,-y,z
1/2+x,-y,-z
-x,y,-z
-x,-y,-z
1/2+x,y,-z
1/2-x,y,z
x,-y,z
loop_
_atom_site_type_symbol
_atom_site_label
_atom_site_fract_x
_atom_site_fract_y
_atom_site_fract_z
Si Si1 0.923272 0.901431 0.674129
Si Si2 0.426149 0.224009 0.568485
Si Si3 0.079112 0.350315 0.245852
Si Si4 0.574350 0.769169 0.065305
Si Si5 0.420289 0.403605 0.099926
Si Si6 0.078376 0.595009 0.628426
Si Si7 0.426393 0.822226 0.790766
O O1 0.750000 0.874471 0.673969
O O2 0.013358 0.835932 0.627432
O O3 0.987076 0.896667 0.749708
O O4 0.944912 0.000000 0.648639
O O5 0.500000 0.193372 0.500000
O O6 0.250000 0.209816 0.563105
O O7 0.469295 0.325401 0.580635
O O8 0.250000 0.318446 0.256105
O O9 0.063637 0.406370 0.179354
O O10 0.027241 0.408629 0.307209
O O11 0.968490 0.268240 0.243921
O O12 0.750000 0.775880 0.057795
O O13 0.529777 0.667385 0.068103
O O14 0.520608 0.819876 0.131831
O O15 0.500000 0.812680 0.000000
O O16 0.250000 0.379263 0.079949
O O17 0.463459 0.500000 0.073590
O O18 0.250000 0.608721 0.651040
O O19 0.059164 0.500000 0.592892
O O20 0.250000 0.838107 0.785814
#
# Coordination Sequence:
#
# PCOD8206993 Si02
#       7
#     8   8   8   8   8   8   8
#     4  11  24  42  67  98 126 154 193 242 298 361
#     4  11  24  42  64  89 124 166 205 249 300 353
#     4  10  18  30  52  80 111 149 196 247 297 350
#     4  10  21  35  53  78 109 149 196 240 292 353
#     4   9  18  31  46  69 104 145 192 245 297 349
#     4  10  21  36  55  82 118 160 205 251 298 350
#     4  10  20  36  59  87 118 153 193 240 295 353
#
# _framework density 20.311890999999999
#
# number of rings (size 3 to 8) (size 9 to 14) (size 15 to 20)
#    0.000    1.857    1.429    2.571    0.000    6.000 
#    0.000    0.000    0.000    0.429    0.000    0.000 
#    0.000    0.000    0.000    0.000    0.000    0.000 
#
# Total GULP energy -694310.598988 kJ/mol
# GULP energy per Si atom -12398.403553 kJ/mol
# Density = 2.026566 g / cm^3
# Si number density = 20.311891 Si / 1000 Ang^3
#
#
#
# Elastic Constant Matrix: (Units=GPa)
#
#
# Indices 1 2 3 4 5 6 
#
# 1 86.9814 32.5209 50.2019 0.0000 0.0000 0.0000
# 2 32.5209 82.6925 35.8931 0.0000 0.0000 0.0000
# 3 50.2019 35.8931 119.7062 0.0000 0.0000 0.0000
# 4 0.0000 0.0000 0.0000 8.8255 0.0000 0.0000
# 5 0.0000 0.0000 0.0000 0.0000 35.7864 0.0000
# 6 0.0000 0.0000 0.0000 0.0000 0.0000 25.4169
#
#
#
# Elastic Compliance Matrix: (Units=1/GPa)
#
#
# Indices 1 2 3 4 5 6 
#
# 1 0.016211 -0.003937 -0.005618 0.000000 0.000000 0.000000
# 2 -0.003937 0.014858 -0.002804 0.000000 0.000000 0.000000
# 3 -0.005618 -0.002804 0.011551 0.000000 0.000000 0.000000
# 4 0.000000 0.000000 0.000000 0.113308 0.000000 0.000000
# 5 0.000000 0.000000 0.000000 0.000000 0.027944 0.000000
# 6 0.000000 0.000000 0.000000 0.000000 0.000000 0.039344
#
#
# Mechanical properties :
#
#
# Convention : Reuss Voigt Hill
#
# Bulk Modulus (GPa) = 55.85977 58.51244 57.18610
# Shear Modulus (GPa) = 19.69270 25.39004 22.54137
#
# Velocity S-wave (km/s) = 3.11708 3.53938 3.33492
# Velocity P-wave (km/s) = 6.36519 6.75074 6.56080
#
# Compressibility (1/GPa) = 0.01790197
#
# Stress axis : x y z
#
# Youngs Moduli (GPa) = 61.68575 67.30182 86.57471
#
# Poissons Ratio (x) = 0.26496 0.48639
# Poissons Ratio (y) = 0.24285 0.24277
# Poissons Ratio (z) = 0.34656 0.18873
#
# Static dielectric constant tensor:
#      x y z
#    x 3.658450 0.000000 0.000000 
#    y 0.000000 3.491040 0.000000 
#    z 0.000000 0.000000 3.757260 
# 
# 
# High freq. dielectric constant tensor:
#      x y z
#    x 1.798130 0.000000 0.000000 
#    y 0.000000 1.770310 0.000000 
#    z 0.000000 0.000000 1.792110 
# 
# From -- ./inp_files/32005.got.cif
#   From: 2010.03.12/outbox.cif.g09.slc.cpg/sg51_17_cif.got.tgz:32005.got - 2010.04.16 13:43:02.
