data_PCOD8206867
_publ_section_title
;
Structure prediction by ZEFSAII (Michael W. Deem and Ramdas Pophale) SiO2 
 PCOD8206867
Probable space group: P M M A
;
_chemical_formula_sum "Si O2"
_cell_formula_units_Z 32
_cell_length_a 8.656873
_cell_length_b 13.085082
_cell_length_c 14.301194
_cell_angle_alpha 90.000000
_cell_angle_beta 90.000000
_cell_angle_gamma 90.000000
_cell_volume 1619.980522
_symmetry_space_group_name_H-M "P M M A"
_symmetry_group_IT_number 51
_symmetry_cell_setting 'orthorhombic'
loop_
_space_group_symop_operation_xyz
x,y,z
1/2-x,-y,z
1/2+x,-y,-z
-x,y,-z
-x,-y,-z
1/2+x,y,-z
1/2-x,y,z
x,-y,z
loop_
_atom_site_type_symbol
_atom_site_label
_atom_site_fract_x
_atom_site_fract_y
_atom_site_fract_z
Si Si1 0.066816 0.387229 0.899329
Si Si2 0.568506 0.196695 0.213575
Si Si3 0.434731 0.000000 0.895490
Si Si4 0.068984 0.291670 0.600695
Si Si5 0.566574 0.500000 0.603376
O O1 0.250000 0.383319 0.904857
O O2 0.012129 0.500000 0.864553
O O3 0.999685 0.300147 0.831366
O O4 0.000000 0.362676 0.000000
O O5 0.750000 0.194637 0.197459
O O6 0.499095 0.097271 0.162290
O O7 0.532296 0.200596 0.325221
O O8 0.250000 0.000000 0.900349
O O9 0.500000 0.000000 0.000000
O O10 0.250000 0.309234 0.587903
O O11 0.000000 0.261998 0.500000
O O12 0.998391 0.395064 0.647394
O O13 0.750000 0.500000 0.605504
O O14 0.500000 0.500000 0.500000
#
# Coordination Sequence:
#
# PCOD8206867 Si02
#       5
#     8   8   4   8   4
#     4   9  17  30  48  71  99 130 165 204 255 313
#     4   9  19  33  54  77 101 139 178 214 259 319
#     4  10  20  38  59  82 106 134 179 222 267 318
#     4  10  19  33  52  75 105 143 181 219 261 310
#     4  10  18  30  48  74 105 140 175 216 261 308
#
# _framework density 19.753323000000002
#
# number of rings (size 3 to 8) (size 9 to 14) (size 15 to 20)
#    0.000    2.500    0.000    4.125    1.750    0.000 
#    0.000    5.625    0.000    0.000    0.000    0.000 
#    0.000    0.000    0.000    0.000    0.000    0.000 
#
# Total GULP energy -396514.367479 kJ/mol
# GULP energy per Si atom -12391.073984 kJ/mol
# Density = 1.970836 g / cm^3
# Si number density = 19.753323 Si / 1000 Ang^3
#
#
#
# Elastic Constant Matrix: (Units=GPa)
#
#
# Indices 1 2 3 4 5 6 
#
# 1 65.4870 27.0280 29.0866 0.0000 0.0000 0.0000
# 2 27.0280 143.3201 97.0837 0.0000 0.0000 0.0000
# 3 29.0866 97.0837 134.7686 0.0000 0.0000 0.0000
# 4 0.0000 0.0000 0.0000 36.3898 0.0000 0.0000
# 5 0.0000 0.0000 0.0000 0.0000 26.4739 0.0000
# 6 0.0000 0.0000 0.0000 0.0000 0.0000 13.2739
#
#
#
# Elastic Compliance Matrix: (Units=1/GPa)
#
#
# Indices 1 2 3 4 5 6 
#
# 1 0.017034 -0.001410 -0.002661 0.000000 0.000000 0.000000
# 2 -0.001410 0.013744 -0.009596 0.000000 0.000000 0.000000
# 3 -0.002661 -0.009596 0.014907 0.000000 0.000000 0.000000
# 4 0.000000 0.000000 0.000000 0.027480 0.000000 0.000000
# 5 0.000000 0.000000 0.000000 0.000000 0.037773 0.000000
# 6 0.000000 0.000000 0.000000 0.000000 0.000000 0.075336
#
#
# Mechanical properties :
#
#
# Convention : Reuss Voigt Hill
#
# Bulk Modulus (GPa) = 54.49293 72.21913 63.35603
# Shear Modulus (GPa) = 22.75571 27.91934 25.33753
#
# Velocity S-wave (km/s) = 3.39779 3.76360 3.58536
# Velocity P-wave (km/s) = 6.56048 7.45158 7.02018
#
# Compressibility (1/GPa) = 0.01835100
#
# Stress axis : x y z
#
# Youngs Moduli (GPa) = 58.70644 72.76039 67.08145
#
# Poissons Ratio (x) = 0.10260 0.17848
# Poissons Ratio (y) = 0.08278 0.64373
# Poissons Ratio (z) = 0.15619 0.69823
#
# Static dielectric constant tensor:
#      x y z
#    x 3.295460 0.000000 0.000000 
#    y 0.000000 4.221390 0.000000 
#    z 0.000000 0.000000 3.606170 
# 
# 
# High freq. dielectric constant tensor:
#      x y z
#    x 1.742250 0.000000 0.000000 
#    y 0.000000 1.762200 0.000000 
#    z 0.000000 0.000000 1.774680 
# 
# From -- ./inp_files/20152.got.cif
#   From: 2010.03.12/outbox.cif.g09.slc.cpg/sg51_11_cif.got.tgz:20152.got - 2010.04.16 13:43:02.
