data_PCOD8206320
_publ_section_title
;
Structure prediction by ZEFSAII (Michael W. Deem and Ramdas Pophale) SiO2 
 PCOD8206320
Probable space group: P M M A
;
_chemical_formula_sum "Si O2"
_cell_formula_units_Z 56
_cell_length_a 26.804561
_cell_length_b 9.300660
_cell_length_c 14.515168
_cell_angle_alpha 90.000000
_cell_angle_beta 90.000000
_cell_angle_gamma 90.000000
_cell_volume 3618.632955
_symmetry_space_group_name_H-M "P M M A"
_symmetry_group_IT_number 51
_symmetry_cell_setting 'orthorhombic'
loop_
_space_group_symop_operation_xyz
x,y,z
1/2-x,-y,z
1/2+x,-y,-z
-x,y,-z
-x,-y,-z
1/2+x,y,-z
1/2-x,y,z
x,-y,z
loop_
_atom_site_type_symbol
_atom_site_label
_atom_site_fract_x
_atom_site_fract_y
_atom_site_fract_z
Si Si1 0.615323 0.668954 0.228510
Si Si2 0.429614 0.830373 0.926211
Si Si3 0.564336 0.830893 0.679037
Si Si4 0.875501 0.164648 0.512649
Si Si5 0.540784 0.829587 0.877148
Si Si6 0.045948 0.836900 0.642202
Si Si7 0.306783 0.331531 0.620144
O O1 0.610993 0.500000 0.213274
O O2 0.614199 0.747431 0.129050
O O3 0.568327 0.725371 0.285480
O O4 0.665473 0.710549 0.284702
O O5 0.483227 0.781378 0.885742
O O6 0.420996 0.000000 0.916574
O O7 0.427417 0.781039 0.033517
O O8 0.609455 0.772776 0.614060
O O9 0.565157 0.765398 0.783097
O O10 0.511768 0.795732 0.629889
O O11 0.571758 0.000000 0.685028
O O12 0.926355 0.176741 0.454620
O O13 0.831069 0.255882 0.468484
O O14 0.857202 0.000000 0.517553
O O15 0.540516 0.000000 0.873051
O O16 0.051304 0.000000 0.681737
O O17 0.250000 0.279765 0.629797
O O18 0.310966 0.500000 0.601995
#
# Coordination Sequence:
#
# PCOD8206320 Si02
#       7
#     8   8   8   8   8   8   8
#     4  10  18  27  42  63  84 107 140 181 220 251
#     4   9  15  26  42  60  82 114 150 174 198 239
#     4   9  14  23  40  62  87 115 144 171 198 238
#     4   9  17  26  42  67  87 105 137 179 214 240
#     4   8  14  23  40  61  83 116 152 172 187 235
#     4   9  15  25  40  58  84 117 145 167 196 244
#     4   9  19  35  49  60  80 111 141 170 214 271
#
# _framework density 15.475457
#
# number of rings (size 3 to 8) (size 9 to 14) (size 15 to 20)
#    0.000    3.000    1.429    1.714    0.000    2.571 
#    0.000    2.143    0.000    3.429    0.000    1.000 
#    0.000    5.714    0.000    0.000    0.000    0.000 
#
# Total GULP energy -693870.419667 kJ/mol
# GULP energy per Si atom -12390.543208 kJ/mol
# Density = 1.544023 g / cm^3
# Si number density = 15.475457 Si / 1000 Ang^3
#
#
#
# Elastic Constant Matrix: (Units=GPa)
#
#
# Indices 1 2 3 4 5 6 
#
# 1 81.0707 29.9542 58.7206 0.0000 0.0000 0.0000
# 2 29.9542 35.4785 33.4024 0.0000 0.0000 0.0000
# 3 58.7206 33.4024 125.6679 0.0000 0.0000 0.0000
# 4 0.0000 0.0000 0.0000 14.2686 0.0000 0.0000
# 5 0.0000 0.0000 0.0000 0.0000 15.7076 0.0000
# 6 0.0000 0.0000 0.0000 0.0000 0.0000 16.8770
#
#
#
# Elastic Compliance Matrix: (Units=1/GPa)
#
#
# Indices 1 2 3 4 5 6 
#
# 1 0.021789 -0.011751 -0.007058 0.000000 0.000000 0.000000
# 2 -0.011751 0.043932 -0.006186 0.000000 0.000000 0.000000
# 3 -0.007058 -0.006186 0.012900 0.000000 0.000000 0.000000
# 4 0.000000 0.000000 0.000000 0.070084 0.000000 0.000000
# 5 0.000000 0.000000 0.000000 0.000000 0.063664 0.000000
# 6 0.000000 0.000000 0.000000 0.000000 0.000000 0.059252
#
#
# Mechanical properties :
#
#
# Convention : Reuss Voigt Hill
#
# Bulk Modulus (GPa) = 34.92847 54.04127 44.48487
# Shear Modulus (GPa) = 15.09875 17.37997 16.23936
#
# Velocity S-wave (km/s) = 3.12694 3.35485 3.24290
# Velocity P-wave (km/s) = 5.97129 7.07129 6.54444
#
# Compressibility (1/GPa) = 0.02862994
#
# Stress axis : x y z
#
# Youngs Moduli (GPa) = 45.89503 22.76260 77.52214
#
# Poissons Ratio (x) = 0.26749 0.54713
# Poissons Ratio (y) = 0.53933 0.47955
# Poissons Ratio (z) = 0.32391 0.14081
#
# Static dielectric constant tensor:
#      x y z
#    x 2.724620 0.000000 0.000000 
#    y 0.000000 2.713000 0.000000 
#    z 0.000000 0.000000 3.459920 
# 
# 
# High freq. dielectric constant tensor:
#      x y z
#    x 1.551290 0.000000 0.000000 
#    y 0.000000 1.564530 0.000000 
#    z 0.000000 0.000000 1.601870 
# 
# From -- ./inp_files/26548.got.cif
#   From: 2010.03.12/outbox.cif.g09.slc.cpg/sg51_14_cif.got.tgz:26548.got - 2010.04.16 13:43:02.
