data_PCOD8206134
_publ_section_title
;
Structure prediction by ZEFSAII (Michael W. Deem and Ramdas Pophale) SiO2 
 PCOD8206134
Probable space group: P M M A
;
_chemical_formula_sum "Si O2"
_cell_formula_units_Z 40
_cell_length_a 20.252684
_cell_length_b 9.065749
_cell_length_c 12.630758
_cell_angle_alpha 90.000000
_cell_angle_beta 90.000000
_cell_angle_gamma 90.000000
_cell_volume 2319.079792
_symmetry_space_group_name_H-M "P M M A"
_symmetry_group_IT_number 51
_symmetry_cell_setting 'orthorhombic'
loop_
_space_group_symop_operation_xyz
x,y,z
1/2-x,-y,z
1/2+x,-y,-z
-x,y,-z
-x,-y,-z
1/2+x,y,-z
1/2-x,y,z
x,-y,z
loop_
_atom_site_type_symbol
_atom_site_label
_atom_site_fract_x
_atom_site_fract_y
_atom_site_fract_z
Si Si1 0.423883 0.162805 0.031523
Si Si2 0.959049 0.672387 0.772428
Si Si3 0.069057 0.326951 0.459773
Si Si4 0.325362 0.672933 0.625654
Si Si5 0.597613 0.825102 0.197755
O O1 0.413455 0.273385 0.129826
O O2 0.400441 0.000000 0.067218
O O3 0.500000 0.158344 0.000000
O O4 0.385411 0.213982 0.925319
O O5 0.973077 0.500000 0.785488
O O6 0.919853 0.708558 0.664137
O O7 0.028874 0.753655 0.766425
O O8 0.065633 0.500000 0.478909
O O9 0.130037 0.265179 0.528777
O O10 0.000000 0.256095 0.500000
O O11 0.250000 0.707282 0.596105
O O12 0.336859 0.500000 0.645839
O O13 0.343537 0.759780 0.732406
O O14 0.591525 0.000000 0.212320
#
# Coordination Sequence:
#
# PCOD8206134 Si02
#       5
#     8   8   8   8   8
#     4   8  16  29  43  65  98 128 153 190 241 288
#     4  10  17  27  48  73  97 127 163 202 242 286
#     4   9  16  29  48  71 100 127 156 200 250 293
#     4  10  20  34  52  72  95 127 165 203 244 294
#     4  10  19  31  47  68  99 131 159 197 247 295
#
# _framework density 17.248221000000001
#
# number of rings (size 3 to 8) (size 9 to 14) (size 15 to 20)
#    0.000    2.600    2.000    2.400    0.000    4.800 
#    0.000    3.000    0.000    1.200    0.000    2.800 
#    0.000    0.000    0.000    0.000    0.000    0.000 
#
# Total GULP energy -495785.026002 kJ/mol
# GULP energy per Si atom -12394.625650 kJ/mol
# Density = 1.720896 g / cm^3
# Si number density = 17.248221 Si / 1000 Ang^3
#
#
#
# Elastic Constant Matrix: (Units=GPa)
#
#
# Indices 1 2 3 4 5 6 
#
# 1 81.8303 32.2042 65.9790 0.0000 0.0000 0.0000
# 2 32.2042 65.9683 53.9835 0.0000 0.0000 0.0000
# 3 65.9790 53.9835 154.0978 0.0000 0.0000 0.0000
# 4 0.0000 0.0000 0.0000 12.4601 0.0000 0.0000
# 5 0.0000 0.0000 0.0000 0.0000 21.9790 0.0000
# 6 0.0000 0.0000 0.0000 0.0000 0.0000 10.0026
#
#
#
# Elastic Compliance Matrix: (Units=1/GPa)
#
#
# Indices 1 2 3 4 5 6 
#
# 1 0.019296 -0.003728 -0.006956 0.000000 0.000000 0.000000
# 2 -0.003728 0.021971 -0.006101 0.000000 0.000000 0.000000
# 3 -0.006956 -0.006101 0.011605 0.000000 0.000000 0.000000
# 4 0.000000 0.000000 0.000000 0.080256 0.000000 0.000000
# 5 0.000000 0.000000 0.000000 0.000000 0.045498 0.000000
# 6 0.000000 0.000000 0.000000 0.000000 0.000000 0.099974
#
#
# Mechanical properties :
#
#
# Convention : Reuss Voigt Hill
#
# Bulk Modulus (GPa) = 51.80534 67.35887 59.58211
# Shear Modulus (GPa) = 15.69350 18.87031 17.28191
#
# Velocity S-wave (km/s) = 3.01966 3.31122 3.16880
# Velocity P-wave (km/s) = 6.50063 7.33187 6.92873
#
# Compressibility (1/GPa) = 0.01930303
#
# Stress axis : x y z
#
# Youngs Moduli (GPa) = 51.82446 45.51455 86.17034
#
# Poissons Ratio (x) = 0.16966 0.59940
# Poissons Ratio (y) = 0.19318 0.52571
# Poissons Ratio (z) = 0.36049 0.27768
#
# Static dielectric constant tensor:
#      x y z
#    x 2.914210 0.000000 0.000000 
#    y 0.000000 3.121950 0.000000 
#    z 0.000000 0.000000 3.676110 
# 
# 
# High freq. dielectric constant tensor:
#      x y z
#    x 1.615500 0.000000 0.000000 
#    y 0.000000 1.652360 0.000000 
#    z 0.000000 0.000000 1.683080 
# 
# From -- ./inp_files/17886.got.cif
#   From: 2010.03.12/outbox.cif.g09.slc.cpg/sg51_9_cif.got.tgz:17886.got - 2010.04.16 13:43:02.
