data_PCOD8206411
_publ_section_title
;
Structure prediction by ZEFSAII (Michael W. Deem and Ramdas Pophale) SiO2 
 PCOD8206411
Probable space group: P M M A
;
_chemical_formula_sum "Si O2"
_cell_formula_units_Z 56
_cell_length_a 8.932450
_cell_length_b 18.432001
_cell_length_c 21.826351
_cell_angle_alpha 90.000000
_cell_angle_beta 90.000000
_cell_angle_gamma 90.000000
_cell_volume 3593.554322
_symmetry_space_group_name_H-M "P M M A"
_symmetry_group_IT_number 51
_symmetry_cell_setting 'orthorhombic'
loop_
_space_group_symop_operation_xyz
x,y,z
1/2-x,-y,z
1/2+x,-y,-z
-x,y,-z
-x,-y,-z
1/2+x,y,-z
1/2-x,y,z
x,-y,z
loop_
_atom_site_type_symbol
_atom_site_label
_atom_site_fract_x
_atom_site_fract_y
_atom_site_fract_z
Si Si1 0.929564 0.844303 0.821204
Si Si2 0.913534 0.708265 0.755982
Si Si3 0.914512 0.803895 0.635378
Si Si4 0.925007 0.083755 0.064071
Si Si5 0.070372 0.581327 0.319470
Si Si6 0.421863 0.083360 0.708245
Si Si7 0.927187 0.331256 0.563642
O O1 0.750000 0.846403 0.823826
O O2 0.990734 0.762127 0.805671
O O3 0.998678 0.866092 0.885563
O O4 0.981940 0.899530 0.768604
O O5 0.750000 0.688599 0.782083
O O6 0.897029 0.754139 0.694503
O O7 0.994502 0.632469 0.736393
O O8 0.750000 0.835300 0.618515
O O9 0.975566 0.751368 0.581349
O O10 0.026578 0.870160 0.649095
O O11 0.750000 0.100848 0.060402
O O12 0.954713 0.000000 0.080918
O O13 0.000000 0.104005 0.000000
O O14 0.250000 0.584049 0.317236
O O15 0.008766 0.500000 0.310372
O O16 0.015462 0.611887 0.384960
O O17 0.250000 0.101318 0.723199
O O18 0.444959 0.000000 0.690619
O O19 0.750000 0.335622 0.557534
O O20 0.000000 0.354371 0.500000
#
# Coordination Sequence:
#
# PCOD8206411 Si02
#       7
#     8   8   8   8   8   8   8
#     4  10  18  28  43  61  84 114 145 174 203 241
#     4   7  12  23  38  57  79 104 136 170 201 236
#     4   8  15  28  42  55  75 103 134 167 203 246
#     4  10  20  32  44  60  85 116 149 182 213 245
#     4   8  13  23  40  61  86 113 137 164 200 241
#     4  10  19  28  40  61  84 102 127 169 215 253
#     4   9  17  28  42  61  82 106 138 170 200 240
#
# _framework density 15.583458
#
# number of rings (size 3 to 8) (size 9 to 14) (size 15 to 20)
#    0.000    3.143    0.000    4.286    0.000    4.571 
#    0.000    0.000    0.000    0.429    0.000    0.000 
#    0.000    0.571    0.000    1.000    0.000    1.429 
#
# Total GULP energy -693736.668083 kJ/mol
# GULP energy per Si atom -12388.154787 kJ/mol
# Density = 1.554799 g / cm^3
# Si number density = 15.583458 Si / 1000 Ang^3
#
#
#
# Elastic Constant Matrix: (Units=GPa)
#
#
# Indices 1 2 3 4 5 6 
#
# 1 50.1550 38.7829 26.2643 0.0000 0.0000 0.0000
# 2 38.7829 122.3568 58.5450 0.0000 0.0000 0.0000
# 3 26.2643 58.5450 70.5868 0.0000 0.0000 0.0000
# 4 0.0000 0.0000 0.0000 22.3956 0.0000 0.0000
# 5 0.0000 0.0000 0.0000 0.0000 23.4658 0.0000
# 6 0.0000 0.0000 0.0000 0.0000 0.0000 9.7407
#
#
#
# Elastic Compliance Matrix: (Units=1/GPa)
#
#
# Indices 1 2 3 4 5 6 
#
# 1 0.027422 -0.006316 -0.004964 0.000000 0.000000 0.000000
# 2 -0.006316 0.015005 -0.010095 0.000000 0.000000 0.000000
# 3 -0.004964 -0.010095 0.024387 0.000000 0.000000 0.000000
# 4 0.000000 0.000000 0.000000 0.044652 0.000000 0.000000
# 5 0.000000 0.000000 0.000000 0.000000 0.042615 0.000000
# 6 0.000000 0.000000 0.000000 0.000000 0.000000 0.102662
#
#
# Mechanical properties :
#
#
# Convention : Reuss Voigt Hill
#
# Bulk Modulus (GPa) = 41.55872 54.47589 48.01730
# Shear Modulus (GPa) = 16.25930 19.08753 17.67342
#
# Velocity S-wave (km/s) = 3.23363 3.50359 3.37131
# Velocity P-wave (km/s) = 6.37716 7.16940 6.78485
#
# Compressibility (1/GPa) = 0.02406234
#
# Stress axis : x y z
#
# Youngs Moduli (GPa) = 36.46684 66.64352 41.00534
#
# Poissons Ratio (x) = 0.42095 0.20357
# Poissons Ratio (y) = 0.23034 0.41395
# Poissons Ratio (z) = 0.18104 0.67277
#
# Static dielectric constant tensor:
#      x y z
#    x 2.828730 0.000000 0.000000 
#    y 0.000000 3.251810 0.000000 
#    z 0.000000 0.000000 2.918550 
# 
# 
# High freq. dielectric constant tensor:
#      x y z
#    x 1.579330 0.000000 0.000000 
#    y 0.000000 1.590200 0.000000 
#    z 0.000000 0.000000 1.569590 
# 
# From -- ./inp_files/35065.got.cif
#   From: 2010.03.12/outbox.cif.g09.slc.cpg/sg51_18_cif.got.tgz:35065.got - 2010.04.16 13:43:02.
