data_PCOD8206225
_publ_section_title
;
Structure prediction by ZEFSAII (Michael W. Deem and Ramdas Pophale) SiO2 
 PCOD8206225
Probable space group: P M M A
;
_chemical_formula_sum "Si O2"
_cell_formula_units_Z 44
_cell_length_a 14.368144
_cell_length_b 18.658321
_cell_length_c 9.048707
_cell_angle_alpha 90.000000
_cell_angle_beta 90.000000
_cell_angle_gamma 90.000000
_cell_volume 2425.826624
_symmetry_space_group_name_H-M "P M M A"
_symmetry_group_IT_number 51
_symmetry_cell_setting 'orthorhombic'
loop_
_space_group_symop_operation_xyz
x,y,z
1/2-x,-y,z
1/2+x,-y,-z
-x,y,-z
-x,-y,-z
1/2+x,y,-z
1/2-x,y,z
x,-y,z
loop_
_atom_site_type_symbol
_atom_site_label
_atom_site_fract_x
_atom_site_fract_y
_atom_site_fract_z
Si Si1 0.250000 0.918304 0.283731
Si Si2 0.250000 0.798590 0.043343
Si Si3 0.750000 0.353094 0.384812
Si Si4 0.100003 0.321307 0.074382
Si Si5 0.750000 0.808535 0.289168
Si Si6 0.250000 0.417578 0.922535
Si Si7 0.406559 0.685080 0.410251
Si Si8 0.607471 0.844563 0.521169
O O1 0.250000 0.868528 0.142038
O O2 0.342897 0.904345 0.379667
O O3 0.250000 0.000000 0.230783
O O4 0.342918 0.752456 0.069825
O O5 0.250000 0.830585 0.879746
O O6 0.750000 0.277350 0.300541
O O7 0.750000 0.412091 0.255908
O O8 0.836592 0.362838 0.494424
O O9 0.085446 0.345501 0.244551
O O10 0.156666 0.382476 0.988599
O O11 0.000000 0.309478 0.000000
O O12 0.656768 0.841128 0.361599
O O13 0.250000 0.500000 0.968105
O O14 0.500000 0.680466 0.500000
O O15 0.375072 0.768018 0.399588
O O16 0.500000 0.864638 0.500000
#
# Coordination Sequence:
#
# PCOD8206225 Si02
#       8
#     4   4   4   8   4   4   8   8
#     4  11  22  38  55  80 120 158 189 237 298 353
#     4  11  21  35  55  88 115 147 198 236 290 346
#     4  10  17  34  55  81 115 145 184 234 280 333
#     4  11  22  37  62  87 117 153 193 247 291 340
#     4   9  18  31  57  84 109 141 186 241 287 330
#     4  11  24  40  59  87 124 159 189 230 293 364
#     4  10  19  32  58  88 113 137 193 248 285 324
#     4   9  19  34  57  84 111 147 190 244 284 344
#
# _framework density 18.138148000000001
#
# number of rings (size 3 to 8) (size 9 to 14) (size 15 to 20)
#    0.000    1.818    3.636    2.727    5.091    0.727 
#    0.000    3.636    0.000    6.000    0.000    0.000 
#    0.000    0.000    0.000    0.000    0.000    0.000 
#
# Total GULP energy -545598.831320 kJ/mol
# GULP energy per Si atom -12399.973439 kJ/mol
# Density = 1.809687 g / cm^3
# Si number density = 18.138148 Si / 1000 Ang^3
#
#
#
# Elastic Constant Matrix: (Units=GPa)
#
#
# Indices 1 2 3 4 5 6 
#
# 1 128.3913 39.9925 49.9274 0.0000 0.0000 0.0000
# 2 39.9925 85.8443 39.8660 0.0000 0.0000 0.0000
# 3 49.9274 39.8660 154.6878 0.0000 0.0000 0.0000
# 4 0.0000 0.0000 0.0000 20.1099 0.0000 0.0000
# 5 0.0000 0.0000 0.0000 0.0000 -37.1563 0.0000
# 6 0.0000 0.0000 0.0000 0.0000 0.0000 7.7021
#
#
#
# Elastic Compliance Matrix: (Units=1/GPa)
#
#
# Indices 1 2 3 4 5 6 
#
# 1 0.009752 -0.003500 -0.002246 0.000000 0.000000 0.000000
# 2 -0.003500 0.014489 -0.002604 0.000000 0.000000 0.000000
# 3 -0.002246 -0.002604 0.007861 0.000000 0.000000 0.000000
# 4 0.000000 0.000000 0.000000 0.049727 0.000000 0.000000
# 5 0.000000 0.000000 0.000000 0.000000 -0.026913 0.000000
# 6 0.000000 0.000000 0.000000 0.000000 0.000000 0.129835
#
#
# Mechanical properties :
#
#
# Convention : Reuss Voigt Hill
#
# Bulk Modulus (GPa) = 64.92912 69.83278 67.38095
# Shear Modulus (GPa) = 24.20315 14.07364 19.13839
#
# Velocity S-wave (km/s) = 3.65688 2.78854 3.25183
# Velocity P-wave (km/s) = 7.32837 6.99657 7.16439
#
# Compressibility (1/GPa) = 0.01540141
#
# Stress axis : x y z
#
# Youngs Moduli (GPa) = 102.54021 69.01680 127.21697
#
# Poissons Ratio (x) = 0.24159 0.28567
# Poissons Ratio (y) = 0.35894 0.33131
# Poissons Ratio (z) = 0.23026 0.17974
#
# Static dielectric constant tensor:
#      x y z
#    x 3.396270 0.000000 0.000000 
#    y 0.000000 2.951490 0.000000 
#    z 0.000000 0.000000 3.458340 
# 
# 
# High freq. dielectric constant tensor:
#      x y z
#    x 1.715780 0.000000 0.000000 
#    y 0.000000 1.653730 0.000000 
#    z 0.000000 0.000000 1.717540 
# 
# From -- ./inp_files/8188.got.cif
#   From: 2010.03.12/outbox.cif.g09.slc.cpg/sg51_5_cif.got.tgz:8188.got - 2010.04.16 13:43:02.
