data_PCOD8206419
_publ_section_title
;
Structure prediction by ZEFSAII (Michael W. Deem and Ramdas Pophale) SiO2 
 PCOD8206419
Probable space group: P M M A
;
_chemical_formula_sum "Si O2"
_cell_formula_units_Z 64
_cell_length_a 16.792553
_cell_length_b 13.846912
_cell_length_c 15.624524
_cell_angle_alpha 90.000000
_cell_angle_beta 90.000000
_cell_angle_gamma 90.000000
_cell_volume 3633.092500
_symmetry_space_group_name_H-M "P M M A"
_symmetry_group_IT_number 51
_symmetry_cell_setting 'orthorhombic'
loop_
_space_group_symop_operation_xyz
x,y,z
1/2-x,-y,z
1/2+x,-y,-z
-x,y,-z
-x,-y,-z
1/2+x,y,-z
1/2-x,y,z
x,-y,z
loop_
_atom_site_type_symbol
_atom_site_label
_atom_site_fract_x
_atom_site_fract_y
_atom_site_fract_z
Si Si1 0.157015 0.783577 0.223385
Si Si2 0.411923 0.391550 0.653317
Si Si3 0.406449 0.718006 0.492274
Si Si4 0.598994 0.610883 0.673651
Si Si5 0.656448 0.890656 0.603707
Si Si6 0.165188 0.391229 0.009393
Si Si7 0.089348 0.391354 0.837689
Si Si8 0.461564 0.744267 0.085788
O O1 0.250000 0.797231 0.197916
O O2 0.140567 0.672418 0.250615
O O3 0.132965 0.852903 0.302051
O O4 0.098002 0.811272 0.143338
O O5 0.400035 0.500000 0.617163
O O6 0.373792 0.317338 0.584608
O O7 0.504632 0.373906 0.675515
O O8 0.369502 0.375232 0.744805
O O9 0.500000 0.702855 0.500000
O O10 0.369466 0.650622 0.417860
O O11 0.385021 0.828874 0.471682
O O12 0.624772 0.500000 0.685103
O O13 0.750000 0.882604 0.590088
O O14 0.625917 0.000000 0.594713
O O15 0.250000 0.342566 0.035101
O O16 0.164575 0.500000 0.042112
O O17 0.159178 0.385863 0.906735
O O18 0.090372 0.342948 0.051336
O O19 0.049605 0.500000 0.839602
O O20 0.027163 0.304665 0.854128
O O21 0.500000 0.796492 0.000000
#
# Coordination Sequence:
#
# PCOD8206419 Si02
#       8
#     8   8   8   8   8   8   8   8
#     4  10  19  30  46  69  94 120 154 192 228 275
#     4   9  15  25  42  63  90 127 162 188 218 260
#     4   9  17  28  46  71  95 118 153 194 221 260
#     4   9  16  26  40  62  94 127 155 185 223 263
#     4   9  19  36  54  70  93 122 147 181 234 287
#     4   9  17  27  38  55  82 116 156 198 230 258
#     4   9  16  26  40  57  83 122 162 190 219 262
#     4  10  18  28  43  62  86 117 149 188 235 280
#
# _framework density 17.615846999999999
#
# number of rings (size 3 to 8) (size 9 to 14) (size 15 to 20)
#    0.000    2.750    1.250    1.125    0.000    4.000 
#    0.000    0.625    0.000    2.250    0.000    0.000 
#    0.000    0.000    0.000    0.000    0.000    0.000 
#
# Total GULP energy -792903.830094 kJ/mol
# GULP energy per Si atom -12389.122345 kJ/mol
# Density = 1.757575 g / cm^3
# Si number density = 17.615847 Si / 1000 Ang^3
#
#
#
# Elastic Constant Matrix: (Units=GPa)
#
#
# Indices 1 2 3 4 5 6 
#
# 1 36.2795 7.0235 12.2181 0.0000 0.0000 0.0000
# 2 7.0235 65.8524 27.4654 0.0000 0.0000 0.0000
# 3 12.2181 27.4654 95.4118 0.0000 0.0000 0.0000
# 4 0.0000 0.0000 0.0000 17.2866 0.0000 0.0000
# 5 0.0000 0.0000 0.0000 0.0000 15.4366 0.0000
# 6 0.0000 0.0000 0.0000 0.0000 0.0000 16.9278
#
#
#
# Elastic Compliance Matrix: (Units=1/GPa)
#
#
# Indices 1 2 3 4 5 6 
#
# 1 0.028983 -0.001754 -0.003207 0.000000 0.000000 0.000000
# 2 -0.001754 0.017364 -0.004774 0.000000 0.000000 0.000000
# 3 -0.003207 -0.004774 0.012266 0.000000 0.000000 0.000000
# 4 0.000000 0.000000 0.000000 0.057848 0.000000 0.000000
# 5 0.000000 0.000000 0.000000 0.000000 0.064781 0.000000
# 6 0.000000 0.000000 0.000000 0.000000 0.000000 0.059074
#
#
# Mechanical properties :
#
#
# Convention : Reuss Voigt Hill
#
# Bulk Modulus (GPa) = 25.54659 32.32862 28.93761
# Shear Modulus (GPa) = 18.32625 19.98597 19.15611
#
# Velocity S-wave (km/s) = 3.22891 3.37196 3.30121
# Velocity P-wave (km/s) = 5.33242 5.79241 5.56716
#
# Compressibility (1/GPa) = 0.03914417
#
# Stress axis : x y z
#
# Youngs Moduli (GPa) = 34.50267 57.59196 81.52822
#
# Poissons Ratio (x) = 0.10100 0.26143
# Poissons Ratio (y) = 0.06051 0.38919
# Poissons Ratio (z) = 0.11064 0.27493
#
# Static dielectric constant tensor:
#      x y z
#    x 3.164590 0.000000 0.000000 
#    y 0.000000 2.946540 0.000000 
#    z 0.000000 0.000000 3.735380 
# 
# 
# High freq. dielectric constant tensor:
#      x y z
#    x 1.659690 0.000000 0.000000 
#    y 0.000000 1.628510 0.000000 
#    z 0.000000 0.000000 1.694920 
# 
# From -- ./inp_files/25399.got.cif
#   From: 2010.03.12/outbox.cif.g09.slc.cpg/sg51_13_cif.got.tgz:25399.got - 2010.04.16 13:43:02.
