data_PCOD8206490
_publ_section_title
;
Structure prediction by ZEFSAII (Michael W. Deem and Ramdas Pophale) SiO2 
 PCOD8206490
Probable space group: P M M A
;
_chemical_formula_sum "Si O2"
_cell_formula_units_Z 64
_cell_length_a 9.281024
_cell_length_b 14.609103
_cell_length_c 28.729589
_cell_angle_alpha 90.000000
_cell_angle_beta 90.000000
_cell_angle_gamma 90.000000
_cell_volume 3895.371297
_symmetry_space_group_name_H-M "P M M A"
_symmetry_group_IT_number 51
_symmetry_cell_setting 'orthorhombic'
loop_
_space_group_symop_operation_xyz
x,y,z
1/2-x,-y,z
1/2+x,-y,-z
-x,y,-z
-x,-y,-z
1/2+x,y,-z
1/2-x,y,z
x,-y,z
loop_
_atom_site_type_symbol
_atom_site_label
_atom_site_fract_x
_atom_site_fract_y
_atom_site_fract_z
Si Si1 0.584636 0.892386 0.693096
Si Si2 0.415184 0.897135 0.602605
Si Si3 0.087702 0.108749 0.043884
Si Si4 0.918297 0.604029 0.370336
Si Si5 0.417102 0.274353 0.546468
Si Si6 0.917157 0.105315 0.134769
Si Si7 0.420515 0.399365 0.732889
Si Si8 0.581208 0.788761 0.227175
O O1 0.750000 0.861842 0.691895
O O2 0.511556 0.861143 0.645100
O O3 0.507024 0.845257 0.735749
O O4 0.566781 0.000000 0.700003
O O5 0.250000 0.891752 0.619458
O O6 0.440462 0.832832 0.557994
O O7 0.458277 0.000000 0.587763
O O8 0.250000 0.148131 0.043230
O O9 0.009735 0.139645 0.091114
O O10 0.090299 0.000000 0.040709
O O11 0.000000 0.149308 0.000000
O O12 0.750000 0.624993 0.368515
O O13 0.951091 0.500000 0.384408
O O14 0.984849 0.668378 0.410387
O O15 0.982791 0.624738 0.318753
O O16 0.500000 0.301229 0.500000
O O17 0.250000 0.298100 0.538650
O O18 0.750000 0.114137 0.121357
O O19 0.959547 0.172846 0.176611
O O20 0.953479 0.000000 0.148295
O O21 0.250000 0.406489 0.728596
O O22 0.479250 0.500000 0.749185
O O23 0.463234 0.318909 0.769027
O O24 0.750000 0.802688 0.237324
#
# Coordination Sequence:
#
# PCOD8206490 Si02
#       8
#     8   8   8   8   8   8   8   8
#     4  10  20  31  44  65  91 117 146 181 219 258
#     4   9  18  33  50  64  80 107 143 176 205 246
#     4   9  16  26  41  59  81 114 155 195 231 265
#     4   8  14  26  44  64  85 108 134 166 205 250
#     4  10  20  32  46  65  86 107 133 166 206 252
#     4   9  17  27  38  57  88 123 157 189 219 256
#     4   8  14  26  46  70  90 110 144 187 222 255
#     4  10  18  28  45  67  92 123 154 184 221 265
#
# _framework density 16.429755
#
# number of rings (size 3 to 8) (size 9 to 14) (size 15 to 20)
#    0.000    2.875    0.000    2.625    0.000    6.250 
#    0.000    1.250    0.000    0.375    0.000    1.750 
#    0.000    0.500    0.000    0.875    0.000    1.250 
#
# Total GULP energy -793310.204267 kJ/mol
# GULP energy per Si atom -12395.471942 kJ/mol
# Density = 1.639236 g / cm^3
# Si number density = 16.429755 Si / 1000 Ang^3
#
#
#
# Elastic Constant Matrix: (Units=GPa)
#
#
# Indices 1 2 3 4 5 6 
#
# 1 51.9771 25.0728 40.4215 0.0000 0.0000 0.0000
# 2 25.0728 64.5351 59.4311 0.0000 0.0000 0.0000
# 3 40.4215 59.4311 109.4089 0.0000 0.0000 0.0000
# 4 0.0000 0.0000 0.0000 18.7255 0.0000 0.0000
# 5 0.0000 0.0000 0.0000 0.0000 23.6093 0.0000
# 6 0.0000 0.0000 0.0000 0.0000 0.0000 8.6982
#
#
#
# Elastic Compliance Matrix: (Units=1/GPa)
#
#
# Indices 1 2 3 4 5 6 
#
# 1 0.027217 -0.002629 -0.008627 0.000000 0.000000 0.000000
# 2 -0.002629 0.031260 -0.016009 0.000000 0.000000 0.000000
# 3 -0.008627 -0.016009 0.021023 0.000000 0.000000 0.000000
# 4 0.000000 0.000000 0.000000 0.053403 0.000000 0.000000
# 5 0.000000 0.000000 0.000000 0.000000 0.042356 0.000000
# 6 0.000000 0.000000 0.000000 0.000000 0.000000 0.114966
#
#
# Mechanical properties :
#
#
# Convention : Reuss Voigt Hill
#
# Bulk Modulus (GPa) = 40.04930 52.86353 46.45641
# Shear Modulus (GPa) = 14.16113 16.93965 15.55039
#
# Velocity S-wave (km/s) = 2.93903 3.21446 3.07982
# Velocity P-wave (km/s) = 5.99552 6.78397 6.40189
#
# Compressibility (1/GPa) = 0.02496923
#
# Stress axis : x y z
#
# Youngs Moduli (GPa) = 36.74224 31.98998 47.56603
#
# Poissons Ratio (x) = 0.08411 0.41035
# Poissons Ratio (y) = 0.09661 0.76148
# Poissons Ratio (z) = 0.31698 0.51213
#
# Static dielectric constant tensor:
#      x y z
#    x 2.960400 0.000000 0.000000 
#    y 0.000000 3.207250 0.000000 
#    z 0.000000 0.000000 3.126480 
# 
# 
# High freq. dielectric constant tensor:
#      x y z
#    x 1.609130 0.000000 0.000000 
#    y 0.000000 1.615890 0.000000 
#    z 0.000000 0.000000 1.620600 
# 
# From -- ./inp_files/37681.got.cif
#   From: 2010.03.12/outbox.cif.g09.slc.cpg/sg51_19_cif.got.tgz:37681.got - 2010.04.16 13:43:02.
