data_PCOD8206380
_publ_section_title
;
Structure prediction by ZEFSAII (Michael W. Deem and Ramdas Pophale) SiO2 
 PCOD8206380
Probable space group: P M M A
;
_chemical_formula_sum "Si O2"
_cell_formula_units_Z 64
_cell_length_a 18.133444
_cell_length_b 9.162537
_cell_length_c 26.557630
_cell_angle_alpha 90.000000
_cell_angle_beta 90.000000
_cell_angle_gamma 90.000000
_cell_volume 4412.506447
_symmetry_space_group_name_H-M "P M M A"
_symmetry_group_IT_number 51
_symmetry_cell_setting 'orthorhombic'
loop_
_space_group_symop_operation_xyz
x,y,z
1/2-x,-y,z
1/2+x,-y,-z
-x,y,-z
-x,-y,-z
1/2+x,y,-z
1/2-x,y,z
x,-y,z
loop_
_atom_site_type_symbol
_atom_site_label
_atom_site_fract_x
_atom_site_fract_y
_atom_site_fract_z
Si Si1 0.668516 0.827178 0.199410
Si Si2 0.911421 0.826875 0.101248
Si Si3 0.081804 0.671114 0.601083
Si Si4 0.836720 0.831855 0.311639
Si Si5 0.835629 0.330999 0.010160
Si Si6 0.834567 0.670097 0.500335
Si Si7 0.447970 0.161417 0.048254
Si Si8 0.043594 0.164820 0.448042
O O1 0.750000 0.761404 0.188680
O O2 0.611979 0.771322 0.156735
O O3 0.641303 0.781782 0.255049
O O4 0.674517 0.000000 0.197855
O O5 0.858322 0.751566 0.060808
O O6 0.997920 0.785003 0.093487
O O7 0.900792 0.000000 0.094552
O O8 0.067754 0.500000 0.605384
O O9 0.118486 0.727714 0.651777
O O10 0.135876 0.710099 0.555009
O O11 0.002849 0.748785 0.593926
O O12 0.750000 0.809653 0.320217
O O13 0.858459 0.000000 0.321631
O O14 0.750000 0.304379 0.999328
O O15 0.854733 0.500000 0.016927
O O16 0.880367 0.271008 0.961491
O O17 0.750000 0.718309 0.502943
O O18 0.845536 0.500000 0.511334
O O19 0.877711 0.758021 0.543615
O O20 0.415909 0.000000 0.059709
O O21 0.500000 0.155022 0.000000
O O22 0.000000 0.169709 0.500000
O O23 0.056460 0.000000 0.429400
#
# Coordination Sequence:
#
# PCOD8206380 Si02
#       8
#     8   8   8   8   8   8   8   8
#     4   8  14  25  41  59  78 102 131 162 196 231
#     4   9  16  27  43  59  75 100 134 165 194 232
#     4  10  18  28  42  58  79 109 140 166 196 233
#     4   9  17  28  41  58  80 105 134 166 197 231
#     4  10  19  27  36  54  79 105 132 160 192 231
#     4   9  17  28  41  58  81 108 136 164 196 236
#     4   8  15  26  39  56  75  97 128 162 193 228
#     4   9  17  28  41  58  79 103 133 168 202 234
#
# _framework density 14.504227999999999
#
# number of rings (size 3 to 8) (size 9 to 14) (size 15 to 20)
#    0.000    3.000    0.000    3.375    0.000    6.750 
#    0.000    0.625    0.000    0.750    0.000    0.000 
#    0.000    1.000    0.000    9.250    0.000    3.125 
#
# Total GULP energy -793317.286189 kJ/mol
# GULP energy per Si atom -12395.582597 kJ/mol
# Density = 1.447122 g / cm^3
# Si number density = 14.504228 Si / 1000 Ang^3
#
#
#
# Elastic Constant Matrix: (Units=GPa)
#
#
# Indices 1 2 3 4 5 6 
#
# 1 95.5547 49.2040 53.2175 0.0000 0.0000 0.0000
# 2 49.2040 66.2437 37.0286 0.0000 0.0000 0.0000
# 3 53.2175 37.0286 82.0747 0.0000 0.0000 0.0000
# 4 0.0000 0.0000 0.0000 12.8793 0.0000 0.0000
# 5 0.0000 0.0000 0.0000 0.0000 25.3134 0.0000
# 6 0.0000 0.0000 0.0000 0.0000 0.0000 24.1437
#
#
#
# Elastic Compliance Matrix: (Units=1/GPa)
#
#
# Indices 1 2 3 4 5 6 
#
# 1 0.020732 -0.010544 -0.008686 0.000000 0.000000 0.000000
# 2 -0.010544 0.025549 -0.004690 0.000000 0.000000 0.000000
# 3 -0.008686 -0.004690 0.019932 0.000000 0.000000 0.000000
# 4 0.000000 0.000000 0.000000 0.077644 0.000000 0.000000
# 5 0.000000 0.000000 0.000000 0.000000 0.039505 0.000000
# 6 0.000000 0.000000 0.000000 0.000000 0.000000 0.041419
#
#
# Mechanical properties :
#
#
# Convention : Reuss Voigt Hill
#
# Bulk Modulus (GPa) = 54.42583 58.08594 56.25588
# Shear Modulus (GPa) = 17.93759 19.42880 18.68320
#
# Velocity S-wave (km/s) = 3.52051 3.66392 3.59293
# Velocity P-wave (km/s) = 7.35737 7.61798 7.48881
#
# Compressibility (1/GPa) = 0.01837363
#
# Stress axis : x y z
#
# Youngs Moduli (GPa) = 48.23459 39.14017 50.17131
#
# Poissons Ratio (x) = 0.41270 0.43577
# Poissons Ratio (y) = 0.50859 0.23530
# Poissons Ratio (z) = 0.41895 0.18356
#
# Static dielectric constant tensor:
#      x y z
#    x 2.937100 0.000000 0.000000 
#    y 0.000000 2.790030 0.000000 
#    z 0.000000 0.000000 2.841640 
# 
# 
# High freq. dielectric constant tensor:
#      x y z
#    x 1.542390 0.000000 0.000000 
#    y 0.000000 1.551660 0.000000 
#    z 0.000000 0.000000 1.523880 
# 
# From -- ./inp_files/36712.got.cif
#   From: 2010.03.12/outbox.cif.g09.slc.cpg/sg51_19_cif.got.tgz:36712.got - 2010.04.16 13:43:02.
