data_PCOD8206702
_publ_section_title
;
Structure prediction by ZEFSAII (Michael W. Deem and Ramdas Pophale) SiO2 
 PCOD8206702
Probable space group: P M M A
;
_chemical_formula_sum "Si O2"
_cell_formula_units_Z 40
_cell_length_a 21.016516
_cell_length_b 19.431883
_cell_length_c 5.277301
_cell_angle_alpha 90.000000
_cell_angle_beta 90.000000
_cell_angle_gamma 90.000000
_cell_volume 2155.199488
_symmetry_space_group_name_H-M "P M M A"
_symmetry_group_IT_number 51
_symmetry_cell_setting 'orthorhombic'
loop_
_space_group_symop_operation_xyz
x,y,z
1/2-x,-y,z
1/2+x,-y,-z
-x,y,-z
-x,-y,-z
1/2+x,y,-z
1/2-x,y,z
x,-y,z
loop_
_atom_site_type_symbol
_atom_site_label
_atom_site_fract_x
_atom_site_fract_y
_atom_site_fract_z
Si Si1 0.821470 0.077390 0.262134
Si Si2 0.324506 0.348391 0.001688
Si Si3 0.570672 0.849653 0.504460
Si Si4 0.174058 0.578294 0.501661
Si Si5 0.121410 0.800574 0.987378
O O1 0.750000 0.086678 0.372829
O O2 0.874437 0.091665 0.481310
O O3 0.830840 0.000000 0.157285
O O4 0.832254 0.132412 0.035343
O O5 0.250000 0.361297 0.001498
O O6 0.353770 0.383699 0.750540
O O7 0.353801 0.383843 0.252524
O O8 0.336853 0.267459 0.003871
O O9 0.500000 0.882871 0.500000
O O10 0.578988 0.807134 0.762091
O O11 0.576877 0.797776 0.263655
O O12 0.250000 0.581591 0.501495
O O13 0.149829 0.500000 0.502002
#
# Coordination Sequence:
#
# PCOD8206702 Si02
#       5
#     8   8   8   8   8
#     4   9  21  38  58  84 115 152 189 232 285 336
#     4  10  18  29  48  75 108 145 182 223 277 330
#     4  10  22  39  58  80 111 148 191 240 284 331
#     4   9  17  28  44  70 109 150 181 214 268 339
#     4  10  21  36  56  79 109 144 192 232 278 330
#
# _framework density 18.559766
#
# number of rings (size 3 to 8) (size 9 to 14) (size 15 to 20)
#    1.200    1.200    0.000    3.000    0.000    5.200 
#    0.000    3.000    0.000    0.000    0.000    0.000 
#    0.000   56.000    0.000    0.000    0.000    0.000 
#
# Total GULP energy -495579.871883 kJ/mol
# GULP energy per Si atom -12389.496797 kJ/mol
# Density = 1.851752 g / cm^3
# Si number density = 18.559766 Si / 1000 Ang^3
#
#
#
# Elastic Constant Matrix: (Units=GPa)
#
#
# Indices 1 2 3 4 5 6 
#
# 1 73.4164 22.6614 34.2999 0.0000 0.0000 0.0000
# 2 22.6614 136.2330 59.2936 0.0000 0.0000 0.0000
# 3 34.2999 59.2936 159.9036 0.0000 0.0000 0.0000
# 4 0.0000 0.0000 0.0000 20.4896 0.0000 0.0000
# 5 0.0000 0.0000 0.0000 0.0000 11.4366 0.0000
# 6 0.0000 0.0000 0.0000 0.0000 0.0000 5.6312
#
#
#
# Elastic Compliance Matrix: (Units=1/GPa)
#
#
# Indices 1 2 3 4 5 6 
#
# 1 0.015339 -0.001335 -0.002795 0.000000 0.000000 0.000000
# 2 -0.001335 0.008869 -0.003002 0.000000 0.000000 0.000000
# 3 -0.002795 -0.003002 0.007967 0.000000 0.000000 0.000000
# 4 0.000000 0.000000 0.000000 0.048805 0.000000 0.000000
# 5 0.000000 0.000000 0.000000 0.000000 0.087438 0.000000
# 6 0.000000 0.000000 0.000000 0.000000 0.000000 0.177583
#
#
# Mechanical properties :
#
#
# Convention : Reuss Voigt Hill
#
# Bulk Modulus (GPa) = 55.83601 66.89587 61.36594
# Shear Modulus (GPa) = 13.65238 24.39801 19.02519
#
# Velocity S-wave (km/s) = 2.71512 3.62963 3.20516
# Velocity P-wave (km/s) = 6.32289 7.32716 6.84347
#
# Compressibility (1/GPa) = 0.01790959
#
# Stress axis : x y z
#
# Youngs Moduli (GPa) = 65.19361 112.74989 125.52275
#
# Poissons Ratio (x) = 0.15051 0.35087
# Poissons Ratio (y) = 0.08703 0.37687
# Poissons Ratio (z) = 0.18223 0.33852
#
# Static dielectric constant tensor:
#      x y z
#    x 2.983620 0.000000 0.000000 
#    y 0.000000 3.277010 0.000000 
#    z 0.000000 0.000000 3.564860 
# 
# 
# High freq. dielectric constant tensor:
#      x y z
#    x 1.673790 0.000000 0.000000 
#    y 0.000000 1.712740 0.000000 
#    z 0.000000 0.000000 1.727310 
# 
# From -- ./inp_files/2502.got.cif
#   From: 2010.03.12/outbox.cif.g09.slc.cpg/sg51_2_cif.got.tgz:2502.got - 2010.04.16 13:43:02.
