data_PCOD8206709
_publ_section_title
;
Structure prediction by ZEFSAII (Michael W. Deem and Ramdas Pophale) SiO2 
 PCOD8206709
Probable space group: P M M A
;
_chemical_formula_sum "Si O2"
_cell_formula_units_Z 56
_cell_length_a 16.504066
_cell_length_b 14.441475
_cell_length_c 12.865514
_cell_angle_alpha 90.000000
_cell_angle_beta 90.000000
_cell_angle_gamma 90.000000
_cell_volume 3066.405931
_symmetry_space_group_name_H-M "P M M A"
_symmetry_group_IT_number 51
_symmetry_cell_setting 'orthorhombic'
loop_
_space_group_symop_operation_xyz
x,y,z
1/2-x,-y,z
1/2+x,-y,-z
-x,y,-z
-x,-y,-z
1/2+x,y,-z
1/2-x,y,z
x,-y,z
loop_
_atom_site_type_symbol
_atom_site_label
_atom_site_fract_x
_atom_site_fract_y
_atom_site_fract_z
Si Si1 0.346402 0.896010 0.336773
Si Si2 0.656477 0.772313 0.848921
Si Si3 0.085588 0.603746 0.050427
Si Si4 0.092690 0.107516 0.970754
Si Si5 0.152781 0.794715 0.769007
Si Si6 0.653871 0.103134 0.433692
Si Si7 0.342547 0.599547 0.835900
O O1 0.250000 0.896971 0.329932
O O2 0.381439 0.826354 0.250132
O O3 0.375174 0.863268 0.451866
O O4 0.378859 0.000000 0.314617
O O5 0.750000 0.748111 0.830343
O O6 0.607059 0.676367 0.859341
O O7 0.649221 0.835491 0.951061
O O8 0.083962 0.500000 0.097858
O O9 0.152293 0.613207 0.959967
O O10 0.000000 0.630206 0.000000
O O11 0.110080 0.141247 0.854295
O O12 0.115469 0.000000 0.979793
O O13 0.000000 0.126468 0.000000
O O14 0.250000 0.800589 0.782988
O O15 0.122554 0.828615 0.656131
O O16 0.119916 0.688895 0.778570
O O17 0.750000 0.100110 0.431854
O O18 0.620062 0.000000 0.411961
O O19 0.250000 0.592951 0.803321
O O20 0.384981 0.500000 0.805757
#
# Coordination Sequence:
#
# PCOD8206709 Si02
#       7
#     8   8   8   8   8   8   8
#     4   8  15  28  46  69  96 127 163 201 243 291
#     4  11  20  31  50  73  97 127 161 199 241 293
#     4  10  20  33  49  70  97 130 164 197 238 292
#     4  11  23  34  44  66 101 134 160 195 246 296
#     4  10  18  29  49  73  95 125 165 207 246 290
#     4   8  14  26  45  69  95 123 161 206 244 284
#     4   9  17  29  45  68  96 122 152 193 241 289
#
# _framework density 18.262422000000001
#
# number of rings (size 3 to 8) (size 9 to 14) (size 15 to 20)
#    0.000    2.429    1.429    3.000    0.000    3.143 
#    0.000    0.000    0.000    1.714    0.000    8.000 
#    0.000    3.429    0.000    0.000    0.000    0.000 
#
# Total GULP energy -694073.125927 kJ/mol
# GULP energy per Si atom -12394.162963 kJ/mol
# Density = 1.822086 g / cm^3
# Si number density = 18.262422 Si / 1000 Ang^3
#
#
#
# Elastic Constant Matrix: (Units=GPa)
#
#
# Indices 1 2 3 4 5 6 
#
# 1 33.2193 26.0661 15.7937 0.0000 0.0000 0.0000
# 2 26.0661 147.7546 77.1246 0.0000 0.0000 0.0000
# 3 15.7937 77.1246 131.2076 0.0000 0.0000 0.0000
# 4 0.0000 0.0000 0.0000 26.6481 0.0000 0.0000
# 5 0.0000 0.0000 0.0000 0.0000 11.6959 0.0000
# 6 0.0000 0.0000 0.0000 0.0000 0.0000 19.7532
#
#
#
# Elastic Compliance Matrix: (Units=1/GPa)
#
#
# Indices 1 2 3 4 5 6 
#
# 1 0.035004 -0.005736 -0.000842 0.000000 0.000000 0.000000
# 2 -0.005736 0.010704 -0.005601 0.000000 0.000000 0.000000
# 3 -0.000842 -0.005601 0.011015 0.000000 0.000000 0.000000
# 4 0.000000 0.000000 0.000000 0.037526 0.000000 0.000000
# 5 0.000000 0.000000 0.000000 0.000000 0.085500 0.000000
# 6 0.000000 0.000000 0.000000 0.000000 0.000000 0.050625
#
#
# Mechanical properties :
#
#
# Convention : Reuss Voigt Hill
#
# Bulk Modulus (GPa) = 30.89759 61.12779 46.01269
# Shear Modulus (GPa) = 18.83101 24.49925 21.66513
#
# Velocity S-wave (km/s) = 3.21461 3.66664 3.44804
# Velocity P-wave (km/s) = 5.54380 7.17427 6.41108
#
# Compressibility (1/GPa) = 0.03236498
#
# Stress axis : x y z
#
# Youngs Moduli (GPa) = 28.56820 93.42708 90.78304
#
# Poissons Ratio (x) = 0.53587 0.07644
# Poissons Ratio (y) = 0.16386 0.50849
# Poissons Ratio (z) = 0.02405 0.52330
#
# Static dielectric constant tensor:
#      x y z
#    x 3.050890 0.000000 0.000000 
#    y 0.000000 3.725840 0.000000 
#    z 0.000000 0.000000 3.461690 
# 
# 
# High freq. dielectric constant tensor:
#      x y z
#    x 1.681040 0.000000 0.000000 
#    y 0.000000 1.714460 0.000000 
#    z 0.000000 0.000000 1.684340 
# 
# From -- ./inp_files/16611.got.cif
#   From: 2010.03.12/outbox.cif.g09.slc.cpg/sg51_9_cif.got.tgz:16611.got - 2010.04.16 13:43:02.
