data_PCOD8206484
_publ_section_title
;
Structure prediction by ZEFSAII (Michael W. Deem and Ramdas Pophale) SiO2 
 PCOD8206484
Probable space group: P M M A
;
_chemical_formula_sum "Si O2"
_cell_formula_units_Z 64
_cell_length_a 9.125732
_cell_length_b 14.274775
_cell_length_c 29.201954
_cell_angle_alpha 90.000000
_cell_angle_beta 90.000000
_cell_angle_gamma 90.000000
_cell_volume 3804.073457
_symmetry_space_group_name_H-M "P M M A"
_symmetry_group_IT_number 51
_symmetry_cell_setting 'orthorhombic'
loop_
_space_group_symop_operation_xyz
x,y,z
1/2-x,-y,z
1/2+x,-y,-z
-x,y,-z
-x,-y,-z
1/2+x,y,-z
1/2-x,y,z
x,-y,z
loop_
_atom_site_type_symbol
_atom_site_label
_atom_site_fract_x
_atom_site_fract_y
_atom_site_fract_z
Si Si1 0.924087 0.395466 0.642195
Si Si2 0.920961 0.106744 0.129771
Si Si3 0.420792 0.711902 0.269409
Si Si4 0.920486 0.390414 0.902792
Si Si5 0.088258 0.388688 0.457433
Si Si6 0.080380 0.104632 0.220859
Si Si7 0.924163 0.763151 0.045911
Si Si8 0.417085 0.610296 0.811175
O O1 0.750000 0.399792 0.638151
O O2 0.982110 0.500000 0.655219
O O3 0.973737 0.319740 0.680123
O O4 0.984780 0.363934 0.592101
O O5 0.750000 0.117225 0.138463
O O6 0.971128 0.166897 0.086386
O O7 0.998565 0.143100 0.175847
O O8 0.966807 0.000000 0.119760
O O9 0.250000 0.686761 0.262032
O O10 0.448987 0.823285 0.262666
O O11 0.516367 0.655007 0.233797
O O12 0.750000 0.363008 0.903459
O O13 0.944378 0.500000 0.910780
O O14 0.007545 0.338577 0.943278
O O15 0.989157 0.357090 0.854775
O O16 0.250000 0.345033 0.460509
O O17 0.095612 0.500000 0.461880
O O18 0.000000 0.344603 0.500000
O O19 0.250000 0.101927 0.208143
O O20 0.025252 0.000000 0.234803
O O21 0.750000 0.756107 0.039533
O O22 0.000000 0.801940 0.000000
O O23 0.250000 0.644075 0.818427
O O24 0.425703 0.500000 0.804781
#
# Coordination Sequence:
#
# PCOD8206484 Si02
#       8
#     8   8   8   8   8   8   8   8
#     4   8  14  24  38  58  84 114 150 188 222 260
#     4   9  19  36  55  73  93 118 147 177 213 261
#     4  10  18  28  45  65  88 121 155 185 219 264
#     4  10  21  37  55  72  91 119 155 189 218 254
#     4   8  13  22  36  53  75 106 144 184 223 262
#     4   9  18  31  47  69  93 115 143 181 222 260
#     4  11  23  37  54  75  98 121 145 178 219 262
#     4  10  20  32  46  67  95 122 147 180 221 261
#
# _framework density 16.824069999999999
#
# number of rings (size 3 to 8) (size 9 to 14) (size 15 to 20)
#    0.000    2.625    0.000    3.000    0.000    6.000 
#    0.000    0.625    0.000    2.250    0.000    0.000 
#    0.000    0.500    0.000    0.375    0.000    0.750 
#
# Total GULP energy -793411.263650 kJ/mol
# GULP energy per Si atom -12397.050995 kJ/mol
# Density = 1.678578 g / cm^3
# Si number density = 16.824070 Si / 1000 Ang^3
#
#
#
# Elastic Constant Matrix: (Units=GPa)
#
#
# Indices 1 2 3 4 5 6 
#
# 1 58.0580 30.7576 37.2520 0.0000 0.0000 0.0000
# 2 30.7576 58.6023 63.7153 0.0000 0.0000 0.0000
# 3 37.2520 63.7153 129.9144 0.0000 0.0000 0.0000
# 4 0.0000 0.0000 0.0000 18.1681 0.0000 0.0000
# 5 0.0000 0.0000 0.0000 0.0000 24.4026 0.0000
# 6 0.0000 0.0000 0.0000 0.0000 0.0000 17.5975
#
#
#
# Elastic Compliance Matrix: (Units=1/GPa)
#
#
# Indices 1 2 3 4 5 6 
#
# 1 0.023995 -0.010954 -0.001508 0.000000 0.000000 0.000000
# 2 -0.010954 0.041559 -0.017241 0.000000 0.000000 0.000000
# 3 -0.001508 -0.017241 0.016586 0.000000 0.000000 0.000000
# 4 0.000000 0.000000 0.000000 0.055042 0.000000 0.000000
# 5 0.000000 0.000000 0.000000 0.000000 0.040979 0.000000
# 6 0.000000 0.000000 0.000000 0.000000 0.000000 0.056826
#
#
# Mechanical properties :
#
#
# Convention : Reuss Voigt Hill
#
# Bulk Modulus (GPa) = 43.98953 56.66940 50.32946
# Shear Modulus (GPa) = 16.55785 19.69028 18.12406
#
# Velocity S-wave (km/s) = 3.14056 3.42477 3.28574
# Velocity P-wave (km/s) = 6.27331 7.02818 6.66145
#
# Compressibility (1/GPa) = 0.02273268
#
# Stress axis : x y z
#
# Youngs Moduli (GPa) = 41.67525 24.06209 60.29344
#
# Poissons Ratio (x) = 0.26359 0.09092
# Poissons Ratio (y) = 0.45653 1.03953
# Poissons Ratio (z) = 0.06284 0.41486
#
# Static dielectric constant tensor:
#      x y z
#    x 3.154740 0.000000 0.000000 
#    y 0.000000 3.168270 0.000000 
#    z 0.000000 0.000000 3.323990 
# 
# 
# High freq. dielectric constant tensor:
#      x y z
#    x 1.640960 0.000000 0.000000 
#    y 0.000000 1.628150 0.000000 
#    z 0.000000 0.000000 1.640340 
# 
# From -- ./inp_files/37599.got.cif
#   From: 2010.03.12/outbox.cif.g09.slc.cpg/sg51_19_cif.got.tgz:37599.got - 2010.04.16 13:43:02.
