data_PCOD8206770
_publ_section_title
;
Structure prediction by ZEFSAII (Michael W. Deem and Ramdas Pophale) SiO2 
 PCOD8206770
Probable space group: P M M A
;
_chemical_formula_sum "Si O2"
_cell_formula_units_Z 52
_cell_length_a 8.745132
_cell_length_b 14.033166
_cell_length_c 24.101857
_cell_angle_alpha 90.000000
_cell_angle_beta 90.000000
_cell_angle_gamma 90.000000
_cell_volume 2957.825421
_symmetry_space_group_name_H-M "P M M A"
_symmetry_group_IT_number 51
_symmetry_cell_setting 'orthorhombic'
loop_
_space_group_symop_operation_xyz
x,y,z
1/2-x,-y,z
1/2+x,-y,-z
-x,y,-z
-x,-y,-z
1/2+x,y,-z
1/2-x,y,z
x,-y,z
loop_
_atom_site_type_symbol
_atom_site_label
_atom_site_fract_x
_atom_site_fract_y
_atom_site_fract_z
Si Si1 0.431866 0.609935 0.739669
Si Si2 0.927094 0.773748 0.338946
Si Si3 0.929736 0.691141 0.059846
Si Si4 0.068221 0.891408 0.558675
Si Si5 0.579194 0.893089 0.748983
Si Si6 0.423693 0.733124 0.165299
Si Si7 0.931595 0.500000 0.939067
O O1 0.250000 0.619060 0.745206
O O2 0.482170 0.500000 0.730717
O O3 0.491953 0.673356 0.686494
O O4 0.504280 0.649990 0.796317
O O5 0.750000 0.759501 0.348696
O O6 0.997167 0.813436 0.396925
O O7 0.955503 0.856549 0.294625
O O8 0.750000 0.683799 0.051770
O O9 0.980627 0.760472 0.109259
O O10 0.000451 0.594862 0.087854
O O11 0.000000 0.717883 0.000000
O O12 0.250000 0.887165 0.555809
O O13 0.000000 0.860293 0.500000
O O14 0.016341 0.000000 0.574015
O O15 0.750000 0.884704 0.723119
O O16 0.570098 0.833800 0.804887
O O17 0.536765 0.000000 0.765061
O O18 0.250000 0.702880 0.150835
O O19 0.750000 0.500000 0.939380
O O20 0.000000 0.500000 0.000000
#
# Coordination Sequence:
#
# PCOD8206770 Si02
#       7
#     8   8   8   8   8   8   4
#     4   9  18  32  49  69  94 124 159 197 237 281
#     4   9  17  30  48  70  95 125 160 197 237 282
#     4  11  21  34  50  69  95 125 158 195 236 284
#     4   9  17  28  43  66  95 125 157 194 238 286
#     4   9  18  32  50  72  97 124 155 194 240 287
#     4  10  20  33  49  71  97 125 157 193 236 286
#     4  10  18  30  46  66  90 118 152 186 225 272
#
# _framework density 17.580483000000001
#
# number of rings (size 3 to 8) (size 9 to 14) (size 15 to 20)
#    0.000    2.462    0.000    3.923    1.077    2.462 
#    0.000    1.538    0.000    0.923    0.000    0.000 
#    0.000    0.000    0.000    0.000    0.000    0.000 
#
# Total GULP energy -644234.819652 kJ/mol
# GULP energy per Si atom -12389.131147 kJ/mol
# Density = 1.754047 g / cm^3
# Si number density = 17.580483 Si / 1000 Ang^3
#
#
#
# Elastic Constant Matrix: (Units=GPa)
#
#
# Indices 1 2 3 4 5 6 
#
# 1 63.1896 22.2938 32.6585 0.0000 0.0000 0.0000
# 2 22.2938 108.1342 54.5336 0.0000 0.0000 0.0000
# 3 32.6585 54.5336 127.8433 0.0000 0.0000 0.0000
# 4 0.0000 0.0000 0.0000 17.8051 0.0000 0.0000
# 5 0.0000 0.0000 0.0000 0.0000 28.4348 0.0000
# 6 0.0000 0.0000 0.0000 0.0000 0.0000 17.3942
#
#
#
# Elastic Compliance Matrix: (Units=1/GPa)
#
#
# Indices 1 2 3 4 5 6 
#
# 1 0.018511 -0.001824 -0.003951 0.000000 0.000000 0.000000
# 2 -0.001824 0.011962 -0.004637 0.000000 0.000000 0.000000
# 3 -0.003951 -0.004637 0.010809 0.000000 0.000000 0.000000
# 4 0.000000 0.000000 0.000000 0.056164 0.000000 0.000000
# 5 0.000000 0.000000 0.000000 0.000000 0.035168 0.000000
# 6 0.000000 0.000000 0.000000 0.000000 0.000000 0.057490
#
#
# Mechanical properties :
#
#
# Convention : Reuss Voigt Hill
#
# Bulk Modulus (GPa) = 48.87726 57.57099 53.22413
# Shear Modulus (GPa) = 22.96246 25.37223 24.16735
#
# Velocity S-wave (km/s) = 3.61797 3.80307 3.71168
# Velocity P-wave (km/s) = 6.73166 7.21822 6.97918
#
# Compressibility (1/GPa) = 0.02045941
#
# Stress axis : x y z
#
# Youngs Moduli (GPa) = 54.02268 83.59692 92.51402
#
# Poissons Ratio (x) = 0.15248 0.36549
# Poissons Ratio (y) = 0.09853 0.42896
# Poissons Ratio (z) = 0.21343 0.38761
#
# Static dielectric constant tensor:
#      x y z
#    x 3.278230 0.000000 0.000000 
#    y 0.000000 0.828110 0.000000 
#    z 0.000000 0.000000 3.381360 
# 
# 
# High freq. dielectric constant tensor:
#      x y z
#    x 1.678570 0.000000 0.000000 
#    y 0.000000 1.661410 0.000000 
#    z 0.000000 0.000000 1.676270 
# 
# From -- ./inp_files/34691.got.cif
#   From: 2010.03.12/outbox.cif.g09.slc.cpg/sg51_18_cif.got.tgz:34691.got - 2010.04.16 13:43:02.
