data_PCOD8206270
_publ_section_title
;
Structure prediction by ZEFSAII (Michael W. Deem and Ramdas Pophale) SiO2 
 PCOD8206270
Probable space group: P M M A
;
_chemical_formula_sum "Si O2"
_cell_formula_units_Z 64
_cell_length_a 8.778437
_cell_length_b 27.050542
_cell_length_c 18.345630
_cell_angle_alpha 90.000000
_cell_angle_beta 90.000000
_cell_angle_gamma 90.000000
_cell_volume 4356.380429
_symmetry_space_group_name_H-M "P M M A"
_symmetry_group_IT_number 51
_symmetry_cell_setting 'orthorhombic'
loop_
_space_group_symop_operation_xyz
x,y,z
1/2-x,-y,z
1/2+x,-y,-z
-x,y,-z
-x,-y,-z
1/2+x,y,-z
1/2-x,y,z
x,-y,z
loop_
_atom_site_type_symbol
_atom_site_label
_atom_site_fract_x
_atom_site_fract_y
_atom_site_fract_z
Si Si1 0.068963 0.659694 0.419445
Si Si2 0.571055 0.054144 0.161045
Si Si3 0.569118 0.250481 0.338030
Si Si4 0.420542 0.203809 0.205321
Si Si5 0.568855 0.150332 0.078602
Si Si6 0.072293 0.447884 0.421778
Si Si7 0.917534 0.898936 0.711630
Si Si8 0.930946 0.159766 0.577393
O O1 0.250000 0.669491 0.422761
O O2 0.028255 0.604916 0.385893
O O3 0.000000 0.666620 0.500000
O O4 0.988682 0.696511 0.363859
O O5 0.750000 0.053874 0.155549
O O6 0.506526 0.097091 0.108218
O O7 0.529258 0.064390 0.245538
O O8 0.506419 0.000000 0.137884
O O9 0.750000 0.247775 0.338211
O O10 0.509324 0.243072 0.255475
O O11 0.505340 0.209991 0.393880
O O12 0.250000 0.223282 0.188064
O O13 0.511623 0.194695 0.130256
O O14 0.411445 0.153295 0.248813
O O15 0.750000 0.151090 0.075514
O O16 0.500000 0.159649 0.000000
O O17 0.250000 0.447271 0.434672
O O18 0.026374 0.500000 0.379851
O O19 0.000000 0.449515 0.500000
O O20 0.750000 0.923324 0.711356
O O21 0.972781 0.886982 0.629498
O O22 0.750000 0.167744 0.573742
O O23 0.000000 0.145871 0.500000
#
# Coordination Sequence:
#
# PCOD8206270 Si02
#       8
#     8   8   8   8   8   8   8   8
#     4  10  18  27  38  54  78 106 138 178 220 255
#     4   9  18  31  46  64  85 108 133 160 191 228
#     4  11  20  29  41  58  81 107 135 166 204 247
#     4   9  17  31  47  62  81 105 134 164 196 235
#     4  10  19  31  47  67  90 113 136 161 190 224
#     4   8  14  24  37  51  68  95 133 175 216 255
#     4   8  16  29  44  61  79 100 127 159 194 236
#     4  10  19  30  43  60  80 101 129 164 204 245
#
# _framework density 14.691095000000001
#
# number of rings (size 3 to 8) (size 9 to 14) (size 15 to 20)
#    0.000    2.625    0.000    3.750    0.000    5.000 
#    0.000    0.000    0.000    0.375    0.000    0.000 
#    0.000    0.000    0.000    0.000    0.000    0.625 
#
# Total GULP energy -792908.765304 kJ/mol
# GULP energy per Si atom -12389.199458 kJ/mol
# Density = 1.465766 g / cm^3
# Si number density = 14.691095 Si / 1000 Ang^3
#
#
#
# Elastic Constant Matrix: (Units=GPa)
#
#
# Indices 1 2 3 4 5 6 
#
# 1 69.4218 25.9482 33.7903 0.0000 0.0000 0.0000
# 2 25.9482 64.8668 40.5503 0.0000 0.0000 0.0000
# 3 33.7903 40.5503 99.3956 0.0000 0.0000 0.0000
# 4 0.0000 0.0000 0.0000 11.7279 0.0000 0.0000
# 5 0.0000 0.0000 0.0000 0.0000 24.0055 0.0000
# 6 0.0000 0.0000 0.0000 0.0000 0.0000 14.5802
#
#
#
# Elastic Compliance Matrix: (Units=1/GPa)
#
#
# Indices 1 2 3 4 5 6 
#
# 1 0.018224 -0.004587 -0.004324 0.000000 0.000000 0.000000
# 2 -0.004587 0.021848 -0.007354 0.000000 0.000000 0.000000
# 3 -0.004324 -0.007354 0.014531 0.000000 0.000000 0.000000
# 4 0.000000 0.000000 0.000000 0.085267 0.000000 0.000000
# 5 0.000000 0.000000 0.000000 0.000000 0.041657 0.000000
# 6 0.000000 0.000000 0.000000 0.000000 0.000000 0.068586
#
#
# Mechanical properties :
#
#
# Convention : Reuss Voigt Hill
#
# Bulk Modulus (GPa) = 45.30375 48.25131 46.77753
# Shear Modulus (GPa) = 17.24130 18.95573 18.09851
#
# Velocity S-wave (km/s) = 3.42948 3.59595 3.51370
# Velocity P-wave (km/s) = 6.82542 7.08212 6.95495
#
# Compressibility (1/GPa) = 0.02207323
#
# Stress axis : x y z
#
# Youngs Moduli (GPa) = 54.87318 45.77009 68.81821
#
# Poissons Ratio (x) = 0.20994 0.29757
# Poissons Ratio (y) = 0.25169 0.50610
# Poissons Ratio (z) = 0.23727 0.33660
#
# Static dielectric constant tensor:
#      x y z
#    x 2.960520 0.000000 0.000000 
#    y 0.000000 3.154710 0.000000 
#    z 0.000000 0.000000 2.829040 
# 
# 
# High freq. dielectric constant tensor:
#      x y z
#    x 1.575340 0.000000 0.000000 
#    y 0.000000 1.541710 0.000000 
#    z 0.000000 0.000000 1.531220 
# 
# From -- ./inp_files/28689.got.cif
#   From: 2010.03.12/outbox.cif.g09.slc.cpg/sg51_15_cif.got.tgz:28689.got - 2010.04.16 13:43:02.
