data_PCOD8206435
_publ_section_title
;
Structure prediction by ZEFSAII (Michael W. Deem and Ramdas Pophale) SiO2 
 PCOD8206435
Probable space group: P M M A
;
_chemical_formula_sum "Si O2"
_cell_formula_units_Z 64
_cell_length_a 27.521955
_cell_length_b 17.778505
_cell_length_c 7.679139
_cell_angle_alpha 90.000000
_cell_angle_beta 90.000000
_cell_angle_gamma 90.000000
_cell_volume 3757.396681
_symmetry_space_group_name_H-M "P M M A"
_symmetry_group_IT_number 51
_symmetry_cell_setting 'orthorhombic'
loop_
_space_group_symop_operation_xyz
x,y,z
1/2-x,-y,z
1/2+x,-y,-z
-x,y,-z
-x,-y,-z
1/2+x,y,-z
1/2-x,y,z
x,-y,z
loop_
_atom_site_type_symbol
_atom_site_label
_atom_site_fract_x
_atom_site_fract_y
_atom_site_fract_z
Si Si1 0.194068 0.412930 0.980376
Si Si2 0.372750 0.654938 0.688793
Si Si3 0.071506 0.225593 0.862974
Si Si4 0.556039 0.917191 0.949749
Si Si5 0.023962 0.584637 0.686304
Si Si6 0.443148 0.675434 0.193935
Si Si7 0.024857 0.184320 0.327017
Si Si8 0.644004 0.411999 0.666608
O O1 0.250000 0.394301 0.945033
O O2 0.181972 0.500000 0.944635
O O3 0.162885 0.363075 0.848209
O O4 0.183239 0.393703 0.183151
O O5 0.392122 0.741872 0.713768
O O6 0.418972 0.600085 0.687948
O O7 0.345244 0.639707 0.504560
O O8 0.016119 0.215553 0.804197
O O9 0.086462 0.141330 0.928702
O O10 0.074231 0.287360 0.015144
O O11 0.555854 0.884293 0.752903
O O12 0.580760 0.000000 0.956086
O O13 0.500000 0.924511 0.000000
O O14 0.015546 0.500000 0.745560
O O15 0.000000 0.601684 0.500000
O O16 0.996850 0.638828 0.823645
O O17 0.441726 0.741074 0.345403
O O18 0.408261 0.608131 0.253081
O O19 0.000000 0.153895 0.500000
O O20 0.644649 0.500000 0.614043
#
# Coordination Sequence:
#
# PCOD8206435 Si02
#       8
#     8   8   8   8   8   8   8   8
#     4  10  23  41  56  72  96 130 178 232 279 319
#     4  12  21  35  54  77 102 134 177 219 266 324
#     4  10  20  31  47  69  96 134 174 210 257 304
#     4   8  16  30  47  65  94 136 178 210 247 300
#     4  11  21  30  43  69 104 137 171 212 256 310
#     4  11  18  31  45  64 101 139 174 206 250 313
#     4  10  18  28  43  66  98 136 176 216 252 298
#     4  11  22  35  52  73  99 134 176 222 266 307
#
# _framework density 17.033071
#
# number of rings (size 3 to 8) (size 9 to 14) (size 15 to 20)
#    0.000    1.625    3.750    3.750    0.000    0.750 
#    0.000    1.875    0.000    0.000    0.000    0.000 
#    0.000    0.500    0.000    0.125    0.000    0.000 
#
# Total GULP energy -792973.304145 kJ/mol
# GULP energy per Si atom -12390.207877 kJ/mol
# Density = 1.699430 g / cm^3
# Si number density = 17.033071 Si / 1000 Ang^3
#
#
#
# Elastic Constant Matrix: (Units=GPa)
#
#
# Indices 1 2 3 4 5 6 
#
# 1 49.7969 17.9733 16.9720 0.0000 0.0000 0.0000
# 2 17.9733 106.3578 37.6125 0.0000 0.0000 0.0000
# 3 16.9720 37.6125 81.8575 0.0000 0.0000 0.0000
# 4 0.0000 0.0000 0.0000 16.9491 0.0000 0.0000
# 5 0.0000 0.0000 0.0000 0.0000 20.5713 0.0000
# 6 0.0000 0.0000 0.0000 0.0000 0.0000 10.5437
#
#
#
# Elastic Compliance Matrix: (Units=1/GPa)
#
#
# Indices 1 2 3 4 5 6 
#
# 1 0.022165 -0.002532 -0.003432 0.000000 0.000000 0.000000
# 2 -0.002532 0.011516 -0.004766 0.000000 0.000000 0.000000
# 3 -0.003432 -0.004766 0.015118 0.000000 0.000000 0.000000
# 4 0.000000 0.000000 0.000000 0.059000 0.000000 0.000000
# 5 0.000000 0.000000 0.000000 0.000000 0.048611 0.000000
# 6 0.000000 0.000000 0.000000 0.000000 0.000000 0.094843
#
#
# Mechanical properties :
#
#
# Convention : Reuss Voigt Hill
#
# Bulk Modulus (GPa) = 36.57922 42.56974 39.57448
# Shear Modulus (GPa) = 17.74137 20.64313 19.19225
#
# Velocity S-wave (km/s) = 3.23086 3.48508 3.36037
# Velocity P-wave (km/s) = 5.95315 6.42192 6.19197
#
# Compressibility (1/GPa) = 0.02733792
#
# Stress axis : x y z
#
# Youngs Moduli (GPa) = 45.11574 86.83827 66.14605
#
# Poissons Ratio (x) = 0.21986 0.22703
# Poissons Ratio (y) = 0.11423 0.31528
# Poissons Ratio (z) = 0.15485 0.41390
#
# Static dielectric constant tensor:
#      x y z
#    x 2.812090 0.000000 0.000000 
#    y 0.000000 3.364810 0.000000 
#    z 0.000000 0.000000 3.355680 
# 
# 
# High freq. dielectric constant tensor:
#      x y z
#    x 1.599110 0.000000 0.000000 
#    y 0.000000 1.643400 0.000000 
#    z 0.000000 0.000000 1.668030 
# 
# From -- ./inp_files/12517.got.cif
#   From: 2010.03.12/outbox.cif.g09.slc.cpg/sg51_7_cif.got.tgz:12517.got - 2010.04.16 13:43:02.
