data_PCOD8206932
_publ_section_title
;
Structure prediction by ZEFSAII (Michael W. Deem and Ramdas Pophale) SiO2 
 PCOD8206932
Probable space group: P M M A
;
_chemical_formula_sum "Si O2"
_cell_formula_units_Z 44
_cell_length_a 9.056003
_cell_length_b 9.190431
_cell_length_c 29.986128
_cell_angle_alpha 90.000000
_cell_angle_beta 90.000000
_cell_angle_gamma 90.000000
_cell_volume 2495.702574
_symmetry_space_group_name_H-M "P M M A"
_symmetry_group_IT_number 51
_symmetry_cell_setting 'orthorhombic'
loop_
_space_group_symop_operation_xyz
x,y,z
1/2-x,-y,z
1/2+x,-y,-z
-x,y,-z
-x,-y,-z
1/2+x,y,-z
1/2-x,y,z
x,-y,z
loop_
_atom_site_type_symbol
_atom_site_label
_atom_site_fract_x
_atom_site_fract_y
_atom_site_fract_z
Si Si1 0.414939 0.159791 0.618119
Si Si2 0.926007 0.336093 0.299052
Si Si3 0.424688 0.000000 0.452430
Si Si4 0.077060 0.166236 0.044696
Si Si5 0.074793 0.166410 0.787177
Si Si6 0.076703 0.668710 0.132610
O O1 0.250000 0.210600 0.603267
O O2 0.485005 0.269497 0.654297
O O3 0.520353 0.144963 0.574473
O O4 0.403618 0.000000 0.641176
O O5 0.750000 0.330638 0.299737
O O6 0.985724 0.500000 0.294534
O O7 0.986362 0.243165 0.257550
O O8 0.500000 0.000000 0.500000
O O9 0.250000 0.000000 0.457523
O O10 0.250000 0.180057 0.037085
O O11 0.023900 0.265766 0.085537
O O12 0.030237 0.000000 0.054825
O O13 0.000000 0.224469 0.000000
O O14 0.250000 0.177629 0.789795
O O15 0.008806 0.248455 0.829056
O O16 0.020882 0.000000 0.787195
O O17 0.250000 0.693743 0.139541
O O18 0.033647 0.500000 0.133900
#
# Coordination Sequence:
#
# PCOD8206932 Si02
#       6
#     8   8   4   8   8   8
#     4   8  15  28  47  71  98 129 164 203 246 292
#     4   9  16  28  49  75 102 132 167 206 249 296
#     4  10  18  30  50  76 102 130 168 212 253 292
#     4   9  18  33  52  72  95 125 162 204 250 301
#     4  10  20  33  52  77 103 133 172 214 250 293
#     4  10  21  36  52  72 101 135 168 204 252 307
#
# _framework density 17.630305
#
# number of rings (size 3 to 8) (size 9 to 14) (size 15 to 20)
#    0.545    2.182    0.000    2.182    0.000    5.455 
#    0.000    2.727    0.000    2.182    0.000    0.000 
#    0.000    0.000    0.000    0.000    0.000    0.000 
#
# Total GULP energy -545401.027549 kJ/mol
# GULP energy per Si atom -12395.477899 kJ/mol
# Density = 1.759018 g / cm^3
# Si number density = 17.630305 Si / 1000 Ang^3
#
#
#
# Elastic Constant Matrix: (Units=GPa)
#
#
# Indices 1 2 3 4 5 6 
#
# 1 47.7418 30.1051 48.6767 0.0000 0.0000 0.0000
# 2 30.1051 120.1717 79.8415 0.0000 0.0000 0.0000
# 3 48.6767 79.8415 166.6325 0.0000 0.0000 0.0000
# 4 0.0000 0.0000 0.0000 12.3429 0.0000 0.0000
# 5 0.0000 0.0000 0.0000 0.0000 28.8950 0.0000
# 6 0.0000 0.0000 0.0000 0.0000 0.0000 18.4160
#
#
#
# Elastic Compliance Matrix: (Units=1/GPa)
#
#
# Indices 1 2 3 4 5 6 
#
# 1 0.030339 -0.002512 -0.007659 0.000000 0.000000 0.000000
# 2 -0.002512 0.012416 -0.005215 0.000000 0.000000 0.000000
# 3 -0.007659 -0.005215 0.010737 0.000000 0.000000 0.000000
# 4 0.000000 0.000000 0.000000 0.081018 0.000000 0.000000
# 5 0.000000 0.000000 0.000000 0.000000 0.034608 0.000000
# 6 0.000000 0.000000 0.000000 0.000000 0.000000 0.054301
#
#
# Mechanical properties :
#
#
# Convention : Reuss Voigt Hill
#
# Bulk Modulus (GPa) = 44.01422 72.42138 58.21780
# Shear Modulus (GPa) = 19.10117 23.65897 21.38007
#
# Velocity S-wave (km/s) = 3.29512 3.66724 3.48615
# Velocity P-wave (km/s) = 6.28461 7.68755 7.02121
#
# Compressibility (1/GPa) = 0.02271993
#
# Stress axis : x y z
#
# Youngs Moduli (GPa) = 32.96091 80.54386 93.13205
#
# Poissons Ratio (x) = 0.20231 0.71331
# Poissons Ratio (y) = 0.08279 0.48570
# Poissons Ratio (z) = 0.25245 0.42005
#
# Static dielectric constant tensor:
#      x y z
#    x 2.740400 0.000000 0.000000 
#    y 0.000000 3.337000 0.000000 
#    z 0.000000 0.000000 3.303470 
# 
# 
# High freq. dielectric constant tensor:
#      x y z
#    x 1.653340 0.000000 0.000000 
#    y 0.000000 1.674950 0.000000 
#    z 0.000000 0.000000 1.686520 
# 
# From -- ./inp_files/36811.got.cif
#   From: 2010.03.12/outbox.cif.g09.slc.cpg/sg51_19_cif.got.tgz:36811.got - 2010.04.16 13:43:02.
