data_PCOD8206924
_publ_section_title
;
Structure prediction by ZEFSAII (Michael W. Deem and Ramdas Pophale) SiO2 
 PCOD8206924
Probable space group: P M M A
;
_chemical_formula_sum "Si O2"
_cell_formula_units_Z 56
_cell_length_a 19.772223
_cell_length_b 8.957614
_cell_length_c 17.674087
_cell_angle_alpha 90.000000
_cell_angle_beta 90.000000
_cell_angle_gamma 90.000000
_cell_volume 3130.291864
_symmetry_space_group_name_H-M "P M M A"
_symmetry_group_IT_number 51
_symmetry_cell_setting 'orthorhombic'
loop_
_space_group_symop_operation_xyz
x,y,z
1/2-x,-y,z
1/2+x,-y,-z
-x,y,-z
-x,-y,-z
1/2+x,y,-z
1/2-x,y,z
x,-y,z
loop_
_atom_site_type_symbol
_atom_site_label
_atom_site_fract_x
_atom_site_fract_y
_atom_site_fract_z
Si Si1 0.824412 0.821853 0.683497
Si Si2 0.672308 0.174686 0.958026
Si Si3 0.951166 0.177064 0.390745
Si Si4 0.916159 0.822859 0.817977
Si Si5 0.407180 0.177109 0.453039
Si Si6 0.065401 0.177569 0.777627
Si Si7 0.327899 0.674606 0.885201
O O1 0.750000 0.758306 0.700784
O O2 0.876411 0.757384 0.745398
O O3 0.845195 0.767603 0.598954
O O4 0.824377 0.000000 0.687081
O O5 0.750000 0.207746 0.934065
O O6 0.621615 0.234687 0.893308
O O7 0.661819 0.000000 0.973022
O O8 0.651741 0.260975 0.033483
O O9 0.900269 0.229003 0.458850
O O10 0.929719 0.239121 0.308700
O O11 0.024684 0.239025 0.413964
O O12 0.953742 0.000000 0.383705
O O13 0.994106 0.770209 0.814789
O O14 0.912485 0.000000 0.815200
O O15 0.411932 0.000000 0.452913
O O16 0.127192 0.249935 0.821336
O O17 0.072239 0.000000 0.781559
O O18 0.250000 0.712076 0.866857
O O19 0.341931 0.500000 0.886041
#
# Coordination Sequence:
#
# PCOD8206924 Si02
#       7
#     8   8   8   8   8   8   8
#     4   9  14  20  33  57  94 133 160 187 230 281
#     4   9  17  31  51  72  95 125 159 193 231 280
#     4   8  13  22  38  60  90 126 160 192 227 270
#     4   9  16  26  42  69  99 123 153 191 234 280
#     4   8  12  20  34  56  89 130 165 188 222 271
#     4  10  18  30  50  74  98 125 158 196 236 281
#     4  10  22  39  54  67  88 120 157 198 245 292
#
# _framework density 17.889706
#
# number of rings (size 3 to 8) (size 9 to 14) (size 15 to 20)
#    0.000    3.000    1.429    1.714    0.000    3.143 
#    0.000    4.286    0.000    2.571    0.000    2.000 
#    0.000    0.000    0.000    1.000    0.000    0.000 
#
# Total GULP energy -693913.368265 kJ/mol
# GULP energy per Si atom -12391.310148 kJ/mol
# Density = 1.784899 g / cm^3
# Si number density = 17.889706 Si / 1000 Ang^3
#
#
#
# Elastic Constant Matrix: (Units=GPa)
#
#
# Indices 1 2 3 4 5 6 
#
# 1 100.0051 23.2691 83.3367 0.0000 0.0000 0.0000
# 2 23.2691 21.9594 31.7499 0.0000 0.0000 0.0000
# 3 83.3367 31.7499 174.0347 0.0000 0.0000 0.0000
# 4 0.0000 0.0000 0.0000 -2.2151 0.0000 0.0000
# 5 0.0000 0.0000 0.0000 0.0000 34.1536 0.0000
# 6 0.0000 0.0000 0.0000 0.0000 0.0000 9.8484
#
#
#
# Elastic Compliance Matrix: (Units=1/GPa)
#
#
# Indices 1 2 3 4 5 6 
#
# 1 0.017833 -0.008897 -0.006916 0.000000 0.000000 0.000000
# 2 -0.008897 0.066292 -0.007834 0.000000 0.000000 0.000000
# 3 -0.006916 -0.007834 0.010487 0.000000 0.000000 0.000000
# 4 0.000000 0.000000 0.000000 -0.451446 0.000000 0.000000
# 5 0.000000 0.000000 0.000000 0.000000 0.029280 0.000000
# 6 0.000000 0.000000 0.000000 0.000000 0.000000 0.101539
#
#
# Mechanical properties :
#
#
# Convention : Reuss Voigt Hill
#
# Bulk Modulus (GPa) = 21.13330 63.63452 42.38391
# Shear Modulus (GPa) = -30.68465 18.86694 -5.90885
#
# Velocity S-wave (km/s) = -4.14601 3.25102 -1.81937
# Velocity P-wave (km/s) = 3.32872 7.05265 4.39656
#
# Compressibility (1/GPa) = 0.04731868
#
# Stress axis : x y z
#
# Youngs Moduli (GPa) = 56.07545 15.08472 95.35597
#
# Poissons Ratio (x) = 0.13420 0.65951
# Poissons Ratio (y) = 0.49889 0.74700
# Poissons Ratio (z) = 0.38784 0.11817
#
# Static dielectric constant tensor:
#      x y z
#    x 3.369920 0.000000 0.000000 
#    y 0.000000 2.682360 0.000000 
#    z 0.000000 0.000000 3.666890 
# 
# 
# High freq. dielectric constant tensor:
#      x y z
#    x 1.683790 0.000000 0.000000 
#    y 0.000000 1.622440 0.000000 
#    z 0.000000 0.000000 1.709040 
# 
# From -- ./inp_files/30346.got.cif
#   From: 2010.03.12/outbox.cif.g09.slc.cpg/sg51_16_cif.got.tgz:30346.got - 2010.04.16 13:43:02.
