data_PCOD8206340
_publ_section_title
;
Structure prediction by ZEFSAII (Michael W. Deem and Ramdas Pophale) SiO2 
 PCOD8206340
Probable space group: P M M A
;
_chemical_formula_sum "Si O2"
_cell_formula_units_Z 64
_cell_length_a 28.548020
_cell_length_b 9.082786
_cell_length_c 15.727817
_cell_angle_alpha 90.000000
_cell_angle_beta 90.000000
_cell_angle_gamma 90.000000
_cell_volume 4078.153060
_symmetry_space_group_name_H-M "P M M A"
_symmetry_group_IT_number 51
_symmetry_cell_setting 'orthorhombic'
loop_
_space_group_symop_operation_xyz
x,y,z
1/2-x,-y,z
1/2+x,-y,-z
-x,y,-z
-x,-y,-z
1/2+x,y,-z
1/2-x,y,z
x,-y,z
loop_
_atom_site_type_symbol
_atom_site_label
_atom_site_fract_x
_atom_site_fract_y
_atom_site_fract_z
Si Si1 0.699273 0.325394 0.913104
Si Si2 0.059537 0.826428 0.320976
Si Si3 0.548705 0.825718 0.312390
Si Si4 0.948238 0.825806 0.494854
Si Si5 0.107891 0.174523 0.844455
Si Si6 0.445617 0.170830 0.014135
Si Si7 0.895557 0.325152 0.834156
Si Si8 0.802787 0.671979 0.105358
O O1 0.750000 0.268363 0.878826
O O2 0.699768 0.500000 0.915924
O O3 0.657173 0.268360 0.854167
O O4 0.691754 0.268740 0.009102
O O5 0.077654 0.782336 0.416878
O O6 0.092237 0.736802 0.257836
O O7 0.005613 0.777201 0.307294
O O8 0.065200 0.000000 0.304186
O O9 0.572355 0.773043 0.403077
O O10 0.577989 0.758522 0.234169
O O11 0.550712 0.000000 0.305603
O O12 0.000000 0.758072 0.500000
O O13 0.952268 0.000000 0.492371
O O14 0.160011 0.240504 0.837413
O O15 0.111066 0.000000 0.838884
O O16 0.082795 0.224670 0.931436
O O17 0.430833 0.264886 0.095263
O O18 0.435899 0.000000 0.033501
O O19 0.500000 0.200496 0.000000
O O20 0.898829 0.500000 0.833636
O O21 0.750000 0.703674 0.138324
O O22 0.814294 0.500000 0.110960
#
# Coordination Sequence:
#
# PCOD8206340 Si02
#       8
#     8   8   8   8   8   8   8   8
#     4   8  15  29  46  60  77 107 145 181 216 254
#     4   9  16  28  46  65  89 118 146 177 211 252
#     4   8  14  26  44  66  89 115 147 177 209 253
#     4   7  11  22  43  66  83 108 148 182 205 243
#     4  10  18  27  43  66  89 112 141 182 219 247
#     4  10  20  32  43  58  87 124 151 170 202 249
#     4  11  20  29  44  65  87 113 146 183 215 252
#     4   9  17  31  48  61  79 111 147 181 218 261
#
# _framework density 15.693379
#
# number of rings (size 3 to 8) (size 9 to 14) (size 15 to 20)
#    0.000    3.000    1.250    3.375    0.000    2.500 
#    0.000    1.875    0.000    5.625    0.000    0.875 
#    0.000    5.000    0.000    0.000    0.000    0.000 
#
# Total GULP energy -792891.511542 kJ/mol
# GULP energy per Si atom -12388.929868 kJ/mol
# Density = 1.565766 g / cm^3
# Si number density = 15.693379 Si / 1000 Ang^3
#
#
#
# Elastic Constant Matrix: (Units=GPa)
#
#
# Indices 1 2 3 4 5 6 
#
# 1 84.4721 19.1380 36.6605 0.0000 0.0000 0.0000
# 2 19.1380 24.8186 18.1993 0.0000 0.0000 0.0000
# 3 36.6605 18.1993 95.4359 0.0000 0.0000 0.0000
# 4 0.0000 0.0000 0.0000 11.4392 0.0000 0.0000
# 5 0.0000 0.0000 0.0000 0.0000 14.3279 0.0000
# 6 0.0000 0.0000 0.0000 0.0000 0.0000 20.2552
#
#
#
# Elastic Compliance Matrix: (Units=1/GPa)
#
#
# Indices 1 2 3 4 5 6 
#
# 1 0.015754 -0.008964 -0.004342 0.000000 0.000000 0.000000
# 2 -0.008964 0.051943 -0.006462 0.000000 0.000000 0.000000
# 3 -0.004342 -0.006462 0.013379 0.000000 0.000000 0.000000
# 4 0.000000 0.000000 0.000000 0.087419 0.000000 0.000000
# 5 0.000000 0.000000 0.000000 0.000000 0.069794 0.000000
# 6 0.000000 0.000000 0.000000 0.000000 0.000000 0.049370
#
#
# Mechanical properties :
#
#
# Convention : Reuss Voigt Hill
#
# Bulk Modulus (GPa) = 24.07364 39.19136 31.63250
# Shear Modulus (GPa) = 14.66102 17.91970 16.29036
#
# Velocity S-wave (km/s) = 3.05981 3.38281 3.22536
# Velocity P-wave (km/s) = 5.27793 6.34707 5.83703
#
# Compressibility (1/GPa) = 0.04153921
#
# Stress axis : x y z
#
# Youngs Moduli (GPa) = 63.47781 19.25183 74.74666
#
# Poissons Ratio (x) = 0.17257 0.32456
# Poissons Ratio (y) = 0.56900 0.48302
# Poissons Ratio (z) = 0.27563 0.12441
#
# Static dielectric constant tensor:
#      x y z
#    x 3.072300 0.000000 0.000000 
#    y 0.000000 2.639060 0.000000 
#    z 0.000000 0.000000 3.306190 
# 
# 
# High freq. dielectric constant tensor:
#      x y z
#    x 1.584330 0.000000 0.000000 
#    y 0.000000 1.569000 0.000000 
#    z 0.000000 0.000000 1.599930 
# 
# From -- ./inp_files/26567.got.cif
#   From: 2010.03.12/outbox.cif.g09.slc.cpg/sg51_14_cif.got.tgz:26567.got - 2010.04.16 13:43:02.
