data_PCOD8206375
_publ_section_title
;
Structure prediction by ZEFSAII (Michael W. Deem and Ramdas Pophale) SiO2 
 PCOD8206375
Probable space group: P M M A
;
_chemical_formula_sum "Si O2"
_cell_formula_units_Z 64
_cell_length_a 8.572994
_cell_length_b 26.703502
_cell_length_c 18.531658
_cell_angle_alpha 90.000000
_cell_angle_beta 90.000000
_cell_angle_gamma 90.000000
_cell_volume 4242.433238
_symmetry_space_group_name_H-M "P M M A"
_symmetry_group_IT_number 51
_symmetry_cell_setting 'orthorhombic'
loop_
_space_group_symop_operation_xyz
x,y,z
1/2-x,-y,z
1/2+x,-y,-z
-x,y,-z
-x,-y,-z
1/2+x,y,-z
1/2-x,y,z
x,-y,z
loop_
_atom_site_type_symbol
_atom_site_label
_atom_site_fract_x
_atom_site_fract_y
_atom_site_fract_z
Si Si1 0.067753 0.199165 0.793202
Si Si2 0.567636 0.649407 0.838798
Si Si3 0.566906 0.709500 0.707873
Si Si4 0.065474 0.243310 0.579617
Si Si5 0.565846 0.149520 0.665101
Si Si6 0.933811 0.055681 0.576218
Si Si7 0.434597 0.252566 0.079226
Si Si8 0.064711 0.555645 0.077554
O O1 0.250000 0.189538 0.801150
O O2 0.033322 0.248352 0.747079
O O3 0.990700 0.153352 0.748328
O O4 0.993088 0.205687 0.872482
O O5 0.750000 0.647915 0.853457
O O6 0.534268 0.658196 0.752974
O O7 0.500152 0.695467 0.886406
O O8 0.497579 0.596086 0.864722
O O9 0.750000 0.723134 0.711415
O O10 0.506017 0.709462 0.625506
O O11 0.250000 0.247389 0.578313
O O12 0.000000 0.247978 0.500000
O O13 0.014635 0.190944 0.614603
O O14 0.750000 0.157584 0.659920
O O15 0.513524 0.094792 0.637485
O O16 0.750000 0.054839 0.569113
O O17 0.000000 0.074146 0.500000
O O18 0.997216 0.000000 0.595867
O O19 0.250000 0.252051 0.077687
O O20 0.500000 0.245662 0.000000
O O21 0.250000 0.556300 0.074191
O O22 0.005121 0.500000 0.099423
O O23 0.000000 0.571363 0.000000
#
# Coordination Sequence:
#
# PCOD8206375 Si02
#       8
#     8   8   8   8   8   8   8   8
#     4  10  18  28  41  58  80 105 135 167 201 240
#     4   8  15  26  40  57  78 106 136 166 199 236
#     4   9  16  28  42  56  77 103 133 167 202 237
#     4  11  20  29  41  59  82 106 135 165 198 239
#     4  10  18  29  44  60  81 109 139 169 202 236
#     4   9  18  30  43  60  82 108 138 171 203 234
#     4  10  18  28  41  58  81 107 137 169 203 240
#     4   9  16  26  39  56  79 106 136 168 199 230
#
# _framework density 15.085680999999999
#
# number of rings (size 3 to 8) (size 9 to 14) (size 15 to 20)
#    0.000    2.500    0.000    6.375    0.000    2.000 
#    0.000    3.125    0.000    0.000    0.000    0.000 
#    0.000    1.000    0.000    2.250    0.000    3.250 
#
# Total GULP energy -793061.638534 kJ/mol
# GULP energy per Si atom -12391.588102 kJ/mol
# Density = 1.505135 g / cm^3
# Si number density = 15.085681 Si / 1000 Ang^3
#
#
#
# Elastic Constant Matrix: (Units=GPa)
#
#
# Indices 1 2 3 4 5 6 
#
# 1 51.0351 25.4139 28.8994 0.0000 0.0000 0.0000
# 2 25.4139 89.8292 63.0054 0.0000 0.0000 0.0000
# 3 28.8994 63.0054 121.4034 0.0000 0.0000 0.0000
# 4 0.0000 0.0000 0.0000 23.5107 0.0000 0.0000
# 5 0.0000 0.0000 0.0000 0.0000 25.7929 0.0000
# 6 0.0000 0.0000 0.0000 0.0000 0.0000 11.4850
#
#
#
# Elastic Compliance Matrix: (Units=1/GPa)
#
#
# Indices 1 2 3 4 5 6 
#
# 1 0.023665 -0.004314 -0.003394 0.000000 0.000000 0.000000
# 2 -0.004314 0.018290 -0.008465 0.000000 0.000000 0.000000
# 3 -0.003394 -0.008465 0.013438 0.000000 0.000000 0.000000
# 4 0.000000 0.000000 0.000000 0.042534 0.000000 0.000000
# 5 0.000000 0.000000 0.000000 0.000000 0.038770 0.000000
# 6 0.000000 0.000000 0.000000 0.000000 0.000000 0.087070
#
#
# Mechanical properties :
#
#
# Convention : Reuss Voigt Hill
#
# Bulk Modulus (GPa) = 43.39209 55.21165 49.30187
# Shear Modulus (GPa) = 18.95397 21.82100 20.38749
#
# Velocity S-wave (km/s) = 3.54845 3.80738 3.68019
# Velocity P-wave (km/s) = 6.75388 7.48374 7.12815
#
# Compressibility (1/GPa) = 0.02304568
#
# Stress axis : x y z
#
# Youngs Moduli (GPa) = 42.25680 54.67395 74.41482
#
# Poissons Ratio (x) = 0.23589 0.25258
# Poissons Ratio (y) = 0.18231 0.62993
# Poissons Ratio (z) = 0.14343 0.46282
#
# Static dielectric constant tensor:
#      x y z
#    x 2.893930 0.000000 0.000000 
#    y 0.000000 3.103880 0.000000 
#    z 0.000000 0.000000 3.204950 
# 
# 
# High freq. dielectric constant tensor:
#      x y z
#    x 1.582090 0.000000 0.000000 
#    y 0.000000 1.543570 0.000000 
#    z 0.000000 0.000000 1.570790 
# 
# From -- ./inp_files/28672.got.cif
#   From: 2010.03.12/outbox.cif.g09.slc.cpg/sg51_15_cif.got.tgz:28672.got - 2010.04.16 13:43:02.
