data_PCOD8206405
_publ_section_title
;
Structure prediction by ZEFSAII (Michael W. Deem and Ramdas Pophale) SiO2 
 PCOD8206405
Probable space group: P M M A
;
_chemical_formula_sum "Si O2"
_cell_formula_units_Z 64
_cell_length_a 26.341470
_cell_length_b 8.974612
_cell_length_c 18.647772
_cell_angle_alpha 90.000000
_cell_angle_beta 90.000000
_cell_angle_gamma 90.000000
_cell_volume 4408.416708
_symmetry_space_group_name_H-M "P M M A"
_symmetry_group_IT_number 51
_symmetry_cell_setting 'orthorhombic'
loop_
_space_group_symop_operation_xyz
x,y,z
1/2-x,-y,z
1/2+x,-y,-z
-x,y,-z
-x,-y,-z
1/2+x,y,-z
1/2-x,y,z
x,-y,z
loop_
_atom_site_type_symbol
_atom_site_label
_atom_site_fract_x
_atom_site_fract_y
_atom_site_fract_z
Si Si1 0.692450 0.326854 0.814070
Si Si2 0.397365 0.677435 0.090127
Si Si3 0.448081 0.167782 0.543250
Si Si4 0.503029 0.324336 0.663727
Si Si5 0.993930 0.678358 0.825142
Si Si6 0.948329 0.663822 0.044346
Si Si7 0.808585 0.825711 0.665808
Si Si8 0.895556 0.675478 0.580089
O O1 0.750000 0.296606 0.837924
O O2 0.682915 0.500000 0.795581
O O3 0.657578 0.273742 0.880487
O O4 0.677490 0.233597 0.744432
O O5 0.401749 0.500000 0.083646
O O6 0.439387 0.735460 0.146633
O O7 0.407736 0.744863 0.009453
O O8 0.500000 0.169705 0.500000
O O9 0.458037 0.246334 0.619376
O O10 0.405912 0.258081 0.498790
O O11 0.428631 0.000000 0.555987
O O12 0.494623 0.500000 0.658548
O O13 0.498117 0.262852 0.744696
O O14 0.558706 0.281689 0.633985
O O15 0.994973 0.500000 0.826266
O O16 0.038361 0.742066 0.878971
O O17 0.927131 0.500000 0.062656
O O18 0.000000 0.649799 0.000000
O O19 0.750000 0.789782 0.647653
O O20 0.843136 0.744012 0.607699
O O21 0.819944 0.000000 0.663475
O O22 0.889330 0.500000 0.572982
#
# Coordination Sequence:
#
# PCOD8206405 Si02
#       8
#     8   8   8   8   8   8   8   8
#     4   9  16  25  37  53  73  97 125 156 187 218
#     4   8  12  19  31  48  71  97 124 153 186 221
#     4   9  17  28  40  55  77 103 129 156 188 229
#     4   9  16  25  38  57  79 101 128 161 194 229
#     4   8  12  18  30  49  72  96 122 153 186 220
#     4   7  10  16  27  45  69  94 118 148 186 222
#     4  10  20  31  41  55  77 103 130 160 190 221
#     4  10  18  28  43  59  76 100 128 158 193 230
#
# _framework density 14.517683
#
# number of rings (size 3 to 8) (size 9 to 14) (size 15 to 20)
#    0.000    3.250    0.000    3.375    0.000    4.750 
#    0.000    0.000    0.000    0.000    0.000    0.875 
#    0.000    5.000    0.000    7.000    0.000    0.625 
#
# Total GULP energy -792947.447585 kJ/mol
# GULP energy per Si atom -12389.803869 kJ/mol
# Density = 1.448464 g / cm^3
# Si number density = 14.517683 Si / 1000 Ang^3
#
#
#
# Elastic Constant Matrix: (Units=GPa)
#
#
# Indices 1 2 3 4 5 6 
#
# 1 75.0485 27.6373 56.9701 0.0000 0.0000 0.0000
# 2 27.6373 42.1394 29.2571 0.0000 0.0000 0.0000
# 3 56.9701 29.2571 121.0685 0.0000 0.0000 0.0000
# 4 0.0000 0.0000 0.0000 4.3476 0.0000 0.0000
# 5 0.0000 0.0000 0.0000 0.0000 28.1426 0.0000
# 6 0.0000 0.0000 0.0000 0.0000 0.0000 14.2587
#
#
#
# Elastic Compliance Matrix: (Units=1/GPa)
#
#
# Indices 1 2 3 4 5 6 
#
# 1 0.023389 -0.009251 -0.008771 0.000000 0.000000 0.000000
# 2 -0.009251 0.032174 -0.003422 0.000000 0.000000 0.000000
# 3 -0.008771 -0.003422 0.013214 0.000000 0.000000 0.000000
# 4 0.000000 0.000000 0.000000 0.230012 0.000000 0.000000
# 5 0.000000 0.000000 0.000000 0.000000 0.035533 0.000000
# 6 0.000000 0.000000 0.000000 0.000000 0.000000 0.070133
#
#
# Mechanical properties :
#
#
# Convention : Reuss Voigt Hill
#
# Bulk Modulus (GPa) = 38.62442 51.77613 45.20028
# Shear Modulus (GPa) = 10.96562 17.64258 14.30410
#
# Velocity S-wave (km/s) = 2.75131 3.48982 3.14233
# Velocity P-wave (km/s) = 6.06265 7.20972 6.66092
#
# Compressibility (1/GPa) = 0.02589035
#
# Stress axis : x y z
#
# Youngs Moduli (GPa) = 42.75487 31.08128 75.67828
#
# Poissons Ratio (x) = 0.28752 0.66374
# Poissons Ratio (y) = 0.39551 0.25898
# Poissons Ratio (z) = 0.37498 0.10636
#
# Static dielectric constant tensor:
#      x y z
#    x 2.727840 0.000000 0.000000 
#    y 0.000000 2.602300 0.000000 
#    z 0.000000 0.000000 3.064470 
# 
# 
# High freq. dielectric constant tensor:
#      x y z
#    x 1.523380 0.000000 0.000000 
#    y 0.000000 1.528470 0.000000 
#    z 0.000000 0.000000 1.550540 
# 
# From -- ./inp_files/30977.got.cif
#   From: 2010.03.12/outbox.cif.g09.slc.cpg/sg51_16_cif.got.tgz:30977.got - 2010.04.16 13:43:02.
