data_PCOD8206809
_publ_section_title
;
Structure prediction by ZEFSAII (Michael W. Deem and Ramdas Pophale) SiO2 
 PCOD8206809
Probable space group: P M M A
;
_chemical_formula_sum "Si O2"
_cell_formula_units_Z 64
_cell_length_a 21.668360
_cell_length_b 9.393193
_cell_length_c 18.826006
_cell_angle_alpha 90.000000
_cell_angle_beta 90.000000
_cell_angle_gamma 90.000000
_cell_volume 3831.752778
_symmetry_space_group_name_H-M "P M M A"
_symmetry_group_IT_number 51
_symmetry_cell_setting 'orthorhombic'
loop_
_space_group_symop_operation_xyz
x,y,z
1/2-x,-y,z
1/2+x,-y,-z
-x,y,-z
-x,-y,-z
1/2+x,y,-z
1/2-x,y,z
x,-y,z
loop_
_atom_site_type_symbol
_atom_site_label
_atom_site_fract_x
_atom_site_fract_y
_atom_site_fract_z
Si Si1 0.012258 0.664279 0.674310
Si Si2 0.441356 0.832192 0.548208
Si Si3 0.109232 0.833485 0.096401
Si Si4 0.819402 0.340910 0.806742
Si Si5 0.938464 0.841804 0.047162
Si Si6 0.494264 0.668825 0.838006
Si Si7 0.127892 0.663050 0.341063
Si Si8 0.819543 0.833900 0.535285
O O1 0.030541 0.500000 0.665525
O O2 0.943762 0.692447 0.644539
O O3 0.056760 0.758381 0.625268
O O4 0.019792 0.709517 0.756552
O O5 0.500000 0.783478 0.500000
O O6 0.375075 0.783193 0.516231
O O7 0.443630 0.000000 0.559826
O O8 0.172020 0.772714 0.129861
O O9 0.055961 0.744895 0.135852
O O10 0.099440 0.000000 0.112385
O O11 0.114008 0.805605 0.011346
O O12 0.750000 0.333734 0.779403
O O13 0.836218 0.500000 0.833612
O O14 0.862234 0.297831 0.740952
O O15 0.938971 0.728427 0.111585
O O16 0.929431 0.000000 0.079602
O O17 0.000000 0.837390 0.000000
O O18 0.500955 0.500000 0.847480
O O19 0.145815 0.500000 0.355697
O O20 0.171662 0.758471 0.389403
O O21 0.750000 0.798603 0.505899
O O22 0.826328 0.000000 0.549501
#
# Coordination Sequence:
#
# PCOD8206809 Si02
#       8
#     8   8   8   8   8   8   8   8
#     4  10  20  32  49  73 100 130 162 199 245 294
#     4  10  20  34  51  72  97 127 164 202 245 296
#     4  10  19  30  45  65  94 127 160 199 240 284
#     4  10  20  33  47  65  94 131 170 207 239 281
#     4   8  16  29  43  65  93 121 152 188 231 276
#     4  10  18  30  47  69  95 123 157 194 237 288
#     4  10  19  33  50  69  97 131 166 202 241 288
#     4  10  21  36  52  72  98 127 163 207 248 291
#
# _framework density 16.702538000000001
#
# number of rings (size 3 to 8) (size 9 to 14) (size 15 to 20)
#    0.000    2.250    2.500    1.875    0.000    6.000 
#    0.000    0.000    0.000    0.000    0.000    0.875 
#    0.000    3.000    0.000    0.000    0.000    0.000 
#
# Total GULP energy -793222.182547 kJ/mol
# GULP energy per Si atom -12394.096602 kJ/mol
# Density = 1.666452 g / cm^3
# Si number density = 16.702538 Si / 1000 Ang^3
#
#
#
# Elastic Constant Matrix: (Units=GPa)
#
#
# Indices 1 2 3 4 5 6 
#
# 1 70.3939 30.6862 40.5754 0.0000 0.0000 0.0000
# 2 30.6862 70.2195 56.4354 0.0000 0.0000 0.0000
# 3 40.5754 56.4354 98.7843 0.0000 0.0000 0.0000
# 4 0.0000 0.0000 0.0000 33.0126 0.0000 0.0000
# 5 0.0000 0.0000 0.0000 0.0000 23.2903 0.0000
# 6 0.0000 0.0000 0.0000 0.0000 0.0000 19.1760
#
#
#
# Elastic Compliance Matrix: (Units=1/GPa)
#
#
# Indices 1 2 3 4 5 6 
#
# 1 0.019141 -0.003783 -0.005701 0.000000 0.000000 0.000000
# 2 -0.003783 0.027079 -0.013916 0.000000 0.000000 0.000000
# 3 -0.005701 -0.013916 0.020415 0.000000 0.000000 0.000000
# 4 0.000000 0.000000 0.000000 0.030292 0.000000 0.000000
# 5 0.000000 0.000000 0.000000 0.000000 0.042936 0.000000
# 6 0.000000 0.000000 0.000000 0.000000 0.000000 0.052149
#
#
# Mechanical properties :
#
#
# Convention : Reuss Voigt Hill
#
# Bulk Modulus (GPa) = 50.41697 54.97686 52.69692
# Shear Modulus (GPa) = 20.37304 22.54249 21.45776
#
# Velocity S-wave (km/s) = 3.49629 3.67774 3.58816
# Velocity P-wave (km/s) = 6.82272 7.14290 6.98465
#
# Compressibility (1/GPa) = 0.01983459
#
# Stress axis : x y z
#
# Youngs Moduli (GPa) = 52.24439 36.92942 48.98346
#
# Poissons Ratio (x) = 0.13970 0.27925
# Poissons Ratio (y) = 0.19763 0.68167
# Poissons Ratio (z) = 0.29784 0.51392
#
# Static dielectric constant tensor:
#      x y z
#    x 3.141040 0.000000 0.000000 
#    y 0.000000 3.199480 0.000000 
#    z 0.000000 0.000000 3.292400 
# 
# 
# High freq. dielectric constant tensor:
#      x y z
#    x 1.611490 0.000000 0.000000 
#    y 0.000000 1.647520 0.000000 
#    z 0.000000 0.000000 1.637140 
# 
# From -- ./inp_files/30869.got.cif
#   From: 2010.03.12/outbox.cif.g09.slc.cpg/sg51_16_cif.got.tgz:30869.got - 2010.04.16 13:43:02.
