data_PCOD8206582
_publ_section_title
;
Structure prediction by ZEFSAII (Michael W. Deem and Ramdas Pophale) SiO2 
 PCOD8206582
Probable space group: P M M A
;
_chemical_formula_sum "Si O2"
_cell_formula_units_Z 40
_cell_length_a 9.917682
_cell_length_b 14.109915
_cell_length_c 19.644040
_cell_angle_alpha 90.000000
_cell_angle_beta 90.000000
_cell_angle_gamma 90.000000
_cell_volume 2748.940794
_symmetry_space_group_name_H-M "P M M A"
_symmetry_group_IT_number 51
_symmetry_cell_setting 'orthorhombic'
loop_
_space_group_symop_operation_xyz
x,y,z
1/2-x,-y,z
1/2+x,-y,-z
-x,y,-z
-x,-y,-z
1/2+x,y,-z
1/2-x,y,z
x,-y,z
loop_
_atom_site_type_symbol
_atom_site_label
_atom_site_fract_x
_atom_site_fract_y
_atom_site_fract_z
Si Si1 0.750000 0.105255 0.420349
Si Si2 0.600202 0.387436 0.178422
Si Si3 0.000675 0.227153 0.580550
Si Si4 0.250000 0.893823 0.418263
Si Si5 0.594993 0.612808 0.938448
Si Si6 0.593023 0.391941 0.332173
O O1 0.623409 0.163416 0.394211
O O2 0.750000 0.096364 0.501078
O O3 0.750000 0.000000 0.388206
O O4 0.750000 0.349840 0.156503
O O5 0.605291 0.500000 0.175108
O O6 0.480835 0.349396 0.129559
O O7 0.567903 0.355539 0.255335
O O8 0.875693 0.166660 0.606866
O O9 0.000000 0.245360 0.500000
O O10 0.004173 0.328812 0.616944
O O11 0.250000 0.000000 0.386499
O O12 0.750000 0.652307 0.942555
O O13 0.601957 0.500000 0.939191
O O14 0.500000 0.649033 0.000000
O O15 0.750000 0.383619 0.351465
O O16 0.543752 0.500000 0.340707
#
# Coordination Sequence:
#
# PCOD8206582 Si02
#       6
#     4   8   8   4   8   8
#     4   9  16  28  47  65  79  99 131 170 214 268
#     4   8  14  25  39  52  69  99 136 169 202 238
#     4  10  18  29  45  63  82 106 139 176 214 258
#     4   9  18  30  43  63  87 103 121 166 226 268
#     4   9  15  22  34  53  75  97 126 166 204 237
#     4   9  17  30  45  58  78 111 148 181 209 242
#
# _framework density 14.551059
#
# number of rings (size 3 to 8) (size 9 to 14) (size 15 to 20)
#    0.000    3.000    1.000    2.400    0.000    5.200 
#    1.800    0.500    0.000    0.000    0.000    0.000 
#    0.000    0.000    0.000    0.000    0.000    6.000 
#
# Total GULP energy -495676.184919 kJ/mol
# GULP energy per Si atom -12391.904623 kJ/mol
# Density = 1.451794 g / cm^3
# Si number density = 14.551059 Si / 1000 Ang^3
#
#
#
# Elastic Constant Matrix: (Units=GPa)
#
#
# Indices 1 2 3 4 5 6 
#
# 1 121.9771 39.6102 44.2937 0.0000 0.0000 0.0000
# 2 39.6102 65.7264 32.3400 0.0000 0.0000 0.0000
# 3 44.2937 32.3400 63.1737 0.0000 0.0000 0.0000
# 4 0.0000 0.0000 0.0000 0.9744 0.0000 0.0000
# 5 0.0000 0.0000 0.0000 0.0000 25.1272 0.0000
# 6 0.0000 0.0000 0.0000 0.0000 0.0000 9.2402
#
#
#
# Elastic Compliance Matrix: (Units=1/GPa)
#
#
# Indices 1 2 3 4 5 6 
#
# 1 0.011753 -0.004048 -0.006168 0.000000 0.000000 0.000000
# 2 -0.004048 0.021731 -0.008287 0.000000 0.000000 0.000000
# 3 -0.006168 -0.008287 0.024396 0.000000 0.000000 0.000000
# 4 0.000000 0.000000 0.000000 1.026285 0.000000 0.000000
# 5 0.000000 0.000000 0.000000 0.000000 0.039798 0.000000
# 6 0.000000 0.000000 0.000000 0.000000 0.000000 0.108223
#
#
# Mechanical properties :
#
#
# Convention : Reuss Voigt Hill
#
# Bulk Modulus (GPa) = 47.90406 53.70721 50.80564
# Shear Modulus (GPa) = 3.91804 16.04391 9.98097
#
# Velocity S-wave (km/s) = 1.64270 3.32414 2.62186
# Velocity P-wave (km/s) = 6.04903 7.19186 6.64506
#
# Compressibility (1/GPa) = 0.02087506
#
# Stress axis : x y z
#
# Youngs Moduli (GPa) = 85.08816 46.01637 40.98996
#
# Poissons Ratio (x) = 0.18626 0.25283
# Poissons Ratio (y) = 0.34442 0.33967
# Poissons Ratio (z) = 0.52483 0.38133
#
# Static dielectric constant tensor:
#      x y z
#    x 3.062290 0.000000 0.000000 
#    y 0.000000 2.524510 0.000000 
#    z 0.000000 0.000000 2.748760 
# 
# 
# High freq. dielectric constant tensor:
#      x y z
#    x 1.566120 0.000000 0.000000 
#    y 0.000000 1.507190 0.000000 
#    z 0.000000 0.000000 1.533430 
# 
# From -- ./inp_files/31541.got.cif
#   From: 2010.03.12/outbox.cif.g09.slc.cpg/sg51_16_cif.got.tgz:31541.got - 2010.04.16 13:43:02.
