data_PCOD8206454
_publ_section_title
;
Structure prediction by ZEFSAII (Michael W. Deem and Ramdas Pophale) SiO2 
 PCOD8206454
Probable space group: P M M A
;
_chemical_formula_sum "Si O2"
_cell_formula_units_Z 48
_cell_length_a 23.951685
_cell_length_b 8.622653
_cell_length_c 13.959159
_cell_angle_alpha 90.000000
_cell_angle_beta 90.000000
_cell_angle_gamma 90.000000
_cell_volume 2882.944187
_symmetry_space_group_name_H-M "P M M A"
_symmetry_group_IT_number 51
_symmetry_cell_setting 'orthorhombic'
loop_
_space_group_symop_operation_xyz
x,y,z
1/2-x,-y,z
1/2+x,-y,-z
-x,y,-z
-x,-y,-z
1/2+x,y,-z
1/2-x,y,z
x,-y,z
loop_
_atom_site_type_symbol
_atom_site_label
_atom_site_fract_x
_atom_site_fract_y
_atom_site_fract_z
Si Si1 0.084534 0.315397 0.535455
Si Si2 0.022759 0.315873 0.353333
Si Si3 0.688406 0.683435 0.351791
Si Si4 0.024429 0.316238 0.139113
Si Si5 0.919767 0.181834 0.035952
Si Si6 0.312654 0.180359 0.850258
O O1 0.084749 0.500000 0.540073
O O2 0.072052 0.261518 0.426118
O O3 0.143938 0.248381 0.571698
O O4 0.036102 0.252468 0.606060
O O5 0.020173 0.500000 0.349360
O O6 0.033690 0.251626 0.246780
O O7 0.750000 0.751899 0.375217
O O8 0.689540 0.500000 0.358347
O O9 0.669999 0.728405 0.245025
O O10 0.031181 0.500000 0.132917
O O11 0.962635 0.271121 0.104715
O O12 0.071611 0.237110 0.073131
O O13 0.856545 0.223873 0.066510
O O14 0.931979 0.000000 0.044127
O O15 0.250000 0.226793 0.884299
O O16 0.315740 0.000000 0.825220
#
# Coordination Sequence:
#
# PCOD8206454 Si02
#       6
#     8   8   8   8   8   8
#     4   8  13  23  38  58  84 108 132 161 196 239
#     4   8  14  23  38  59  81 108 136 163 195 235
#     4   9  16  25  41  65  87 106 131 167 208 246
#     4  10  18  28  44  65  87 111 141 174 209 249
#     4  10  19  30  44  62  85 112 140 172 213 255
#     4   9  18  31  45  61  83 112 142 171 207 252
#
# _framework density 16.649646000000001
#
# number of rings (size 3 to 8) (size 9 to 14) (size 15 to 20)
#    0.000    3.000    0.000    4.000    0.000    2.667 
#    0.000    0.000    0.000    3.000    0.000   10.500 
#    0.000    0.000    0.000    0.000    0.000    0.000 
#
# Total GULP energy -594874.850909 kJ/mol
# GULP energy per Si atom -12393.226061 kJ/mol
# Density = 1.661175 g / cm^3
# Si number density = 16.649646 Si / 1000 Ang^3
#
#
#
# Elastic Constant Matrix: (Units=GPa)
#
#
# Indices 1 2 3 4 5 6 
#
# 1 123.0447 11.3894 77.8603 0.0000 0.0000 0.0000
# 2 11.3894 14.2323 7.7651 0.0000 0.0000 0.0000
# 3 77.8603 7.7651 147.8164 0.0000 0.0000 0.0000
# 4 0.0000 0.0000 0.0000 2.6056 0.0000 0.0000
# 5 0.0000 0.0000 0.0000 0.0000 30.1778 0.0000
# 6 0.0000 0.0000 0.0000 0.0000 0.0000 15.9529
#
#
#
# Elastic Compliance Matrix: (Units=1/GPa)
#
#
# Indices 1 2 3 4 5 6 
#
# 1 0.012791 -0.006754 -0.006383 0.000000 0.000000 0.000000
# 2 -0.006754 0.075902 -0.000430 0.000000 0.000000 0.000000
# 3 -0.006383 -0.000430 0.010150 0.000000 0.000000 0.000000
# 4 0.000000 0.000000 0.000000 0.383788 0.000000 0.000000
# 5 0.000000 0.000000 0.000000 0.000000 0.033137 0.000000
# 6 0.000000 0.000000 0.000000 0.000000 0.000000 0.062685
#
#
# Mechanical properties :
#
#
# Convention : Reuss Voigt Hill
#
# Bulk Modulus (GPa) = 13.94508 53.23592 33.59050
# Shear Modulus (GPa) = 7.94295 22.28582 15.11439
#
# Velocity S-wave (km/s) = 2.18655 3.66254 3.01622
# Velocity P-wave (km/s) = 3.84297 7.06606 5.68760
#
# Compressibility (1/GPa) = 0.07170990
#
# Stress axis : x y z
#
# Youngs Moduli (GPa) = 78.17881 13.17494 98.52423
#
# Poissons Ratio (x) = 0.08898 0.62886
# Poissons Ratio (y) = 0.52800 0.04235
# Poissons Ratio (z) = 0.49900 0.00566
#
# Static dielectric constant tensor:
#      x y z
#    x 3.416500 0.000000 0.000000 
#    y 0.000000 2.849660 0.000000 
#    z 0.000000 0.000000 3.358980 
# 
# 
# High freq. dielectric constant tensor:
#      x y z
#    x 1.633760 0.000000 0.000000 
#    y 0.000000 1.615720 0.000000 
#    z 0.000000 0.000000 1.634160 
# 
# From -- ./inp_files/18989.got.cif
#   From: 2010.03.12/outbox.cif.g09.slc.cpg/sg51_10_cif.got.tgz:18989.got - 2010.04.16 13:43:02.
