data_PCOD8206525
_publ_section_title
;
Structure prediction by ZEFSAII (Michael W. Deem and Ramdas Pophale) SiO2 
 PCOD8206525
Probable space group: P M M A
;
_chemical_formula_sum "Si O2"
_cell_formula_units_Z 36
_cell_length_a 10.435312
_cell_length_b 7.839998
_cell_length_c 23.391807
_cell_angle_alpha 90.000000
_cell_angle_beta 90.000000
_cell_angle_gamma 90.000000
_cell_volume 1913.749817
_symmetry_space_group_name_H-M "P M M A"
_symmetry_group_IT_number 51
_symmetry_cell_setting 'orthorhombic'
loop_
_space_group_symop_operation_xyz
x,y,z
1/2-x,-y,z
1/2+x,-y,-z
-x,y,-z
-x,-y,-z
1/2+x,y,-z
1/2-x,y,z
x,-y,z
loop_
_atom_site_type_symbol
_atom_site_label
_atom_site_fract_x
_atom_site_fract_y
_atom_site_fract_z
Si Si1 0.596933 0.000000 0.552494
Si Si2 0.750000 0.796232 0.939241
Si Si3 0.495726 0.196720 0.125287
Si Si4 0.401498 0.688989 0.366828
Si Si5 0.250000 0.203817 0.930816
Si Si6 0.606668 0.299621 0.759254
O O1 0.500000 0.000000 0.500000
O O2 0.558327 0.831066 0.587593
O O3 0.750000 0.000000 0.536360
O O4 0.873940 0.719815 0.906730
O O5 0.750000 0.000000 0.936437
O O6 0.750000 0.730663 0.004139
O O7 0.625994 0.280708 0.101529
O O8 0.486525 0.219051 0.193580
O O9 0.499428 0.000000 0.109108
O O10 0.250000 0.677357 0.361968
O O11 0.454560 0.500000 0.384575
O O12 0.451246 0.742417 0.303656
O O13 0.250000 0.000000 0.928552
O O14 0.750000 0.221609 0.766063
O O15 0.612656 0.500000 0.768074
#
# Coordination Sequence:
#
# PCOD8206525 Si02
#       6
#     4   4   8   8   4   8
#     4  10  20  34  56  84 112 142 175 213 250 296
#     4   9  16  28  45  69  91 121 163 208 245 296
#     4  10  18  28  47  72  91 121 164 203 250 300
#     4   8  16  31  51  78 107 140 175 214 259 297
#     4   9  18  30  43  63 101 129 153 198 257 306
#     4   9  17  30  49  72  98 123 159 212 255 286
#
# _framework density 18.811236000000001
#
# number of rings (size 3 to 8) (size 9 to 14) (size 15 to 20)
#    0.000    2.889    1.111    2.000    1.556    3.111 
#    0.000    0.556    2.444    4.000    0.000    0.000 
#    0.000    0.000    0.000    0.000    0.000    0.000 
#
# Total GULP energy -446160.915941 kJ/mol
# GULP energy per Si atom -12393.358776 kJ/mol
# Density = 1.876842 g / cm^3
# Si number density = 18.811236 Si / 1000 Ang^3
#
#
#
# Elastic Constant Matrix: (Units=GPa)
#
#
# Indices 1 2 3 4 5 6 
#
# 1 114.1949 26.4199 73.0263 0.0000 0.0000 0.0000
# 2 26.4199 53.8919 47.9721 0.0000 0.0000 0.0000
# 3 73.0263 47.9721 159.8280 0.0000 0.0000 0.0000
# 4 0.0000 0.0000 0.0000 -5.9346 0.0000 0.0000
# 5 0.0000 0.0000 0.0000 0.0000 26.1080 0.0000
# 6 0.0000 0.0000 0.0000 0.0000 0.0000 8.0302
#
#
#
# Elastic Compliance Matrix: (Units=1/GPa)
#
#
# Indices 1 2 3 4 5 6 
#
# 1 0.012451 -0.001419 -0.005263 0.000000 0.000000 0.000000
# 2 -0.001419 0.025483 -0.007000 0.000000 0.000000 0.000000
# 3 -0.005263 -0.007000 0.010762 0.000000 0.000000 0.000000
# 4 0.000000 0.000000 0.000000 -0.168503 0.000000 0.000000
# 5 0.000000 0.000000 0.000000 0.000000 0.038302 0.000000
# 6 0.000000 0.000000 0.000000 0.000000 0.000000 0.124530
#
#
# Mechanical properties :
#
#
# Convention : Reuss Voigt Hill
#
# Bulk Modulus (GPa) = 46.87884 69.19457 58.03671
# Shear Modulus (GPa) = 64.51587 17.67382 41.09484
#
# Velocity S-wave (km/s) = 5.86267 3.06851 4.67903
# Velocity P-wave (km/s) = 8.41443 7.02978 7.75308
#
# Compressibility (1/GPa) = 0.02133159
#
# Stress axis : x y z
#
# Youngs Moduli (GPa) = 80.31578 39.24244 92.91535
#
# Poissons Ratio (x) = 0.05569 0.48901
# Poissons Ratio (y) = 0.11397 0.65043
# Poissons Ratio (z) = 0.42270 0.27470
#
# Static dielectric constant tensor:
#      x y z
#    x 3.375170 0.000000 0.000000 
#    y 0.000000 3.426130 0.000000 
#    z 0.000000 0.000000 3.544330 
# 
# 
# High freq. dielectric constant tensor:
#      x y z
#    x 1.692440 0.000000 0.000000 
#    y 0.000000 1.714200 0.000000 
#    z 0.000000 0.000000 1.732010 
# 
# From -- ./inp_files/32776.got.cif
#   From: 2010.03.12/outbox.cif.g09.slc.cpg/sg51_17_cif.got.tgz:32776.got - 2010.04.16 13:43:02.
