data_PCOD8206576
_publ_section_title
;
Structure prediction by ZEFSAII (Michael W. Deem and Ramdas Pophale) SiO2 
 PCOD8206576
Probable space group: P M M A
;
_chemical_formula_sum "Si O2"
_cell_formula_units_Z 64
_cell_length_a 18.227735
_cell_length_b 9.126658
_cell_length_c 26.081179
_cell_angle_alpha 90.000000
_cell_angle_beta 90.000000
_cell_angle_gamma 90.000000
_cell_volume 4338.820691
_symmetry_space_group_name_H-M "P M M A"
_symmetry_group_IT_number 51
_symmetry_cell_setting 'orthorhombic'
loop_
_space_group_symop_operation_xyz
x,y,z
1/2-x,-y,z
1/2+x,-y,-z
-x,y,-z
-x,-y,-z
1/2+x,y,-z
1/2-x,y,z
x,-y,z
loop_
_atom_site_type_symbol
_atom_site_label
_atom_site_fract_x
_atom_site_fract_y
_atom_site_fract_z
Si Si1 0.665459 0.668858 0.202935
Si Si2 0.166298 0.671790 0.999728
Si Si3 0.834276 0.670640 0.501010
Si Si4 0.957010 0.165444 0.553020
Si Si5 0.580409 0.328706 0.101629
Si Si6 0.335313 0.170821 0.693946
Si Si7 0.455645 0.834508 0.052524
Si Si8 0.083153 0.327801 0.602932
O O1 0.750000 0.692356 0.187765
O O2 0.650893 0.500000 0.217681
O O3 0.616999 0.718798 0.154850
O O4 0.642511 0.770823 0.250176
O O5 0.250000 0.724134 0.002789
O O6 0.158355 0.500000 0.009290
O O7 0.135908 0.715359 0.943829
O O8 0.121774 0.753260 0.044700
O O9 0.750000 0.719013 0.503791
O O10 0.845055 0.500000 0.512731
O O11 0.877904 0.760067 0.544502
O O12 0.863644 0.708871 0.444516
O O13 0.000000 0.168375 0.500000
O O14 0.003053 0.257039 0.594596
O O15 0.945939 0.000000 0.572933
O O16 0.563334 0.500000 0.099921
O O17 0.503217 0.244588 0.096466
O O18 0.250000 0.201769 0.683179
O O19 0.382214 0.258816 0.653120
O O20 0.354140 0.000000 0.690333
O O21 0.440353 0.000000 0.069870
O O22 0.500000 0.826028 0.000000
O O23 0.073257 0.500000 0.610711
#
# Coordination Sequence:
#
# PCOD8206576 Si02
#       8
#     8   8   8   8   8   8   8   8
#     4   9  17  29  44  61  81 106 138 174 208 242
#     4   9  16  26  41  60  81 106 137 171 205 241
#     4   9  17  28  42  61  84 110 141 174 206 243
#     4   9  17  28  41  59  83 109 137 170 208 248
#     4   9  16  27  43  60  79 106 139 172 205 241
#     4  10  20  31  42  59  84 111 139 173 210 245
#     4   9  17  27  38  55  80 108 136 166 201 242
#     4  10  18  29  45  61  80 110 145 176 207 243
#
# _framework density 14.750552000000001
#
# number of rings (size 3 to 8) (size 9 to 14) (size 15 to 20)
#    0.000    2.750    0.000    2.250    0.000    7.250 
#    0.000    0.000    0.000    2.250    0.000    0.000 
#    0.000    1.000    0.000    8.750    0.000    4.875 
#
# Total GULP energy -793635.703193 kJ/mol
# GULP energy per Si atom -12400.557862 kJ/mol
# Density = 1.471698 g / cm^3
# Si number density = 14.750552 Si / 1000 Ang^3
#
#
#
# Elastic Constant Matrix: (Units=GPa)
#
#
# Indices 1 2 3 4 5 6 
#
# 1 109.4408 56.0060 52.8518 0.0000 0.0000 0.0000
# 2 56.0060 81.3226 47.1828 0.0000 0.0000 0.0000
# 3 52.8518 47.1828 75.7196 0.0000 0.0000 0.0000
# 4 0.0000 0.0000 0.0000 19.7094 0.0000 0.0000
# 5 0.0000 0.0000 0.0000 0.0000 27.1089 0.0000
# 6 0.0000 0.0000 0.0000 0.0000 0.0000 22.1926
#
#
#
# Elastic Compliance Matrix: (Units=1/GPa)
#
#
# Indices 1 2 3 4 5 6 
#
# 1 0.016052 -0.007133 -0.006759 0.000000 0.000000 0.000000
# 2 -0.007133 0.022430 -0.008998 0.000000 0.000000 0.000000
# 3 -0.006759 -0.008998 0.023531 0.000000 0.000000 0.000000
# 4 0.000000 0.000000 0.000000 0.050737 0.000000 0.000000
# 5 0.000000 0.000000 0.000000 0.000000 0.036888 0.000000
# 6 0.000000 0.000000 0.000000 0.000000 0.000000 0.045060
#
#
# Mechanical properties :
#
#
# Convention : Reuss Voigt Hill
#
# Bulk Modulus (GPa) = 61.60407 64.28492 62.94450
# Shear Modulus (GPa) = 20.33437 21.16500 20.74969
#
# Velocity S-wave (km/s) = 3.71691 3.79207 3.75468
# Velocity P-wave (km/s) = 7.76371 7.92774 7.84615
#
# Compressibility (1/GPa) = 0.01623269
#
# Stress axis : x y z
#
# Youngs Moduli (GPa) = 62.29758 44.58411 42.49675
#
# Poissons Ratio (x) = 0.31802 0.28725
# Poissons Ratio (y) = 0.44438 0.38237
# Poissons Ratio (z) = 0.42109 0.40115
#
# Static dielectric constant tensor:
#      x y z
#    x 2.869230 0.000000 0.000000 
#    y 0.000000 2.948080 0.000000 
#    z 0.000000 0.000000 2.632360 
# 
# 
# High freq. dielectric constant tensor:
#      x y z
#    x 1.553380 0.000000 0.000000 
#    y 0.000000 1.574200 0.000000 
#    z 0.000000 0.000000 1.529830 
# 
# From -- ./inp_files/35890.got.cif
#   From: 2010.03.12/outbox.cif.g09.slc.cpg/sg51_18_cif.got.tgz:35890.got - 2010.04.16 13:43:02.
