data_PCOD8206837
_publ_section_title
;
Structure prediction by ZEFSAII (Michael W. Deem and Ramdas Pophale) SiO2 
 PCOD8206837
Probable space group: P M M A
;
_chemical_formula_sum "Si O2"
_cell_formula_units_Z 36
_cell_length_a 8.864920
_cell_length_b 15.264354
_cell_length_c 14.584796
_cell_angle_alpha 90.000000
_cell_angle_beta 90.000000
_cell_angle_gamma 90.000000
_cell_volume 1973.574881
_symmetry_space_group_name_H-M "P M M A"
_symmetry_group_IT_number 51
_symmetry_cell_setting 'orthorhombic'
loop_
_space_group_symop_operation_xyz
x,y,z
1/2-x,-y,z
1/2+x,-y,-z
-x,y,-z
-x,-y,-z
1/2+x,y,-z
1/2-x,y,z
x,-y,z
loop_
_atom_site_type_symbol
_atom_site_label
_atom_site_fract_x
_atom_site_fract_y
_atom_site_fract_z
Si Si1 0.427718 0.598031 0.094712
Si Si2 0.924258 0.826551 0.595765
Si Si3 0.070002 0.000000 0.600362
Si Si4 0.927107 0.099739 0.095655
Si Si5 0.576482 0.243264 0.784370
O O1 0.250000 0.599069 0.081652
O O2 0.484449 0.500000 0.119865
O O3 0.479608 0.663906 0.175121
O O4 0.500000 0.630657 0.000000
O O5 0.750000 0.848207 0.574830
O O6 0.942117 0.751847 0.673526
O O7 0.000000 0.796618 0.500000
O O8 0.004995 0.910838 0.643418
O O9 0.000000 0.000000 0.500000
O O10 0.250000 0.000000 0.604093
O O11 0.750000 0.108463 0.084643
O O12 0.981106 0.163468 0.175559
O O13 0.973392 0.000000 0.121299
O O14 0.000000 0.129000 0.000000
O O15 0.750000 0.226192 0.810704
#
# Coordination Sequence:
#
# PCOD8206837 Si02
#       5
#     8   8   4   8   8
#     4   9  18  34  55  79 105 131 162 204 254 307
#     4  10  20  34  50  71  99 133 172 214 258 300
#     4  10  18  30  48  68  93 126 167 210 254 296
#     4  10  21  35  50  71 101 137 172 206 247 298
#     4  10  21  34  52  76 101 133 171 211 255 304
#
# _framework density 18.241009999999999
#
# number of rings (size 3 to 8) (size 9 to 14) (size 15 to 20)
#    0.000    2.222    0.000    4.333    1.556    5.778 
#    0.000    0.000    0.000    0.667    0.000    0.000 
#    0.000    0.000    0.000    0.000    0.000    0.889 
#
# Total GULP energy -446253.033465 kJ/mol
# GULP energy per Si atom -12395.917596 kJ/mol
# Density = 1.819949 g / cm^3
# Si number density = 18.241010 Si / 1000 Ang^3
#
#
#
# Elastic Constant Matrix: (Units=GPa)
#
#
# Indices 1 2 3 4 5 6 
#
# 1 81.9374 33.9307 40.1569 0.0000 0.0000 0.0000
# 2 33.9307 95.5344 68.5148 0.0000 0.0000 0.0000
# 3 40.1569 68.5148 116.6737 0.0000 0.0000 0.0000
# 4 0.0000 0.0000 0.0000 27.5320 0.0000 0.0000
# 5 0.0000 0.0000 0.0000 0.0000 26.4273 0.0000
# 6 0.0000 0.0000 0.0000 0.0000 0.0000 17.2640
#
#
#
# Elastic Compliance Matrix: (Units=1/GPa)
#
#
# Indices 1 2 3 4 5 6 
#
# 1 0.015110 -0.002828 -0.003540 0.000000 0.000000 0.000000
# 2 -0.002828 0.018612 -0.009956 0.000000 0.000000 0.000000
# 3 -0.003540 -0.009956 0.015636 0.000000 0.000000 0.000000
# 4 0.000000 0.000000 0.000000 0.036321 0.000000 0.000000
# 5 0.000000 0.000000 0.000000 0.000000 0.037840 0.000000
# 6 0.000000 0.000000 0.000000 0.000000 0.000000 0.057924
#
#
# Mechanical properties :
#
#
# Convention : Reuss Voigt Hill
#
# Bulk Modulus (GPa) = 59.84447 64.37226 62.10836
# Shear Modulus (GPa) = 22.76214 24.34753 23.55483
#
# Velocity S-wave (km/s) = 3.53633 3.65741 3.59738
# Velocity P-wave (km/s) = 7.03939 7.29397 7.16781
#
# Compressibility (1/GPa) = 0.01670998
#
# Stress axis : x y z
#
# Youngs Moduli (GPa) = 66.17933 53.72782 63.95439
#
# Poissons Ratio (x) = 0.15193 0.22641
# Poissons Ratio (y) = 0.18715 0.63676
# Poissons Ratio (z) = 0.23428 0.53494
#
# Static dielectric constant tensor:
#      x y z
#    x 3.393370 0.000000 0.000000 
#    y 0.000000 3.868000 0.000000 
#    z 0.000000 0.000000 3.319910 
# 
# 
# High freq. dielectric constant tensor:
#      x y z
#    x 1.712800 0.000000 0.000000 
#    y 0.000000 1.686630 0.000000 
#    z 0.000000 0.000000 1.701920 
# 
# From -- ./inp_files/20327.got.cif
#   From: 2010.03.12/outbox.cif.g09.slc.cpg/sg51_11_cif.got.tgz:20327.got - 2010.04.16 13:43:02.
