data_PCOD8206120
_publ_section_title
;
Structure prediction by ZEFSAII (Michael W. Deem and Ramdas Pophale) SiO2 
 PCOD8206120
Probable space group: P M M A
;
_chemical_formula_sum "Si O2"
_cell_formula_units_Z 48
_cell_length_a 14.109112
_cell_length_b 15.452586
_cell_length_c 11.737500
_cell_angle_alpha 90.000000
_cell_angle_beta 90.000000
_cell_angle_gamma 90.000000
_cell_volume 2559.036354
_symmetry_space_group_name_H-M "P M M A"
_symmetry_group_IT_number 51
_symmetry_cell_setting 'orthorhombic'
loop_
_space_group_symop_operation_xyz
x,y,z
1/2-x,-y,z
1/2+x,-y,-z
-x,y,-z
-x,-y,-z
1/2+x,y,-z
1/2-x,y,z
x,-y,z
loop_
_atom_site_type_symbol
_atom_site_label
_atom_site_fract_x
_atom_site_fract_y
_atom_site_fract_z
Si Si1 0.607927 0.302907 0.499950
Si Si2 0.546832 0.905704 0.676123
Si Si3 0.856918 0.735042 0.750046
Si Si4 0.522393 0.400014 0.868131
Si Si5 0.354515 0.123397 0.562763
Si Si6 0.853009 0.399763 0.287147
O O1 0.500000 0.272331 0.500000
O O2 0.641674 0.315809 0.629078
O O3 0.663755 0.226013 0.438116
O O4 0.623113 0.387100 0.421558
O O5 0.580899 0.823653 0.751608
O O6 0.606444 0.905369 0.559815
O O7 0.432875 0.901664 0.656760
O O8 0.566526 0.000000 0.734789
O O9 0.750000 0.761360 0.780920
O O10 0.891391 0.664862 0.842375
O O11 0.546918 0.500000 0.835328
O O12 0.434346 0.361831 0.794524
O O13 0.500000 0.393556 0.000000
O O14 0.250000 0.081424 0.587036
O O15 0.750000 0.358998 0.257153
O O16 0.848673 0.500000 0.262663
#
# Coordination Sequence:
#
# PCOD8206120 Si02
#       6
#     8   8   8   8   8   8
#     4  11  17  31  51  73 110 148 180 218 267 329
#     4  10  19  31  46  72 110 148 187 230 273 321
#     4  11  22  36  55  82 112 145 185 226 274 332
#     4  10  22  40  60  81 106 137 178 231 282 328
#     4  10  17  27  45  70 104 149 192 226 266 319
#     4  10  20  33  51  75 104 140 178 217 270 333
#
# _framework density 18.757062000000001
#
# number of rings (size 3 to 8) (size 9 to 14) (size 15 to 20)
#    0.000    1.667    5.000    4.000    0.000    4.333 
#    0.000    1.667    0.000    0.500    0.000    0.000 
#    0.000    0.000    0.000    0.000    0.000    0.000 
#
# Total GULP energy -594701.578627 kJ/mol
# GULP energy per Si atom -12389.616221 kJ/mol
# Density = 1.871437 g / cm^3
# Si number density = 18.757062 Si / 1000 Ang^3
#
#
#
# Elastic Constant Matrix: (Units=GPa)
#
#
# Indices 1 2 3 4 5 6 
#
# 1 142.6476 38.8540 16.8101 0.0000 0.0000 0.0000
# 2 38.8540 86.8217 30.3446 0.0000 0.0000 0.0000
# 3 16.8101 30.3446 50.0132 0.0000 0.0000 0.0000
# 4 0.0000 0.0000 0.0000 -3.6904 0.0000 0.0000
# 5 0.0000 0.0000 0.0000 0.0000 9.9140 0.0000
# 6 0.0000 0.0000 0.0000 0.0000 0.0000 3.5215
#
#
#
# Elastic Compliance Matrix: (Units=1/GPa)
#
#
# Indices 1 2 3 4 5 6 
#
# 1 0.008000 -0.003351 -0.000656 0.000000 0.000000 0.000000
# 2 -0.003351 0.016021 -0.008594 0.000000 0.000000 0.000000
# 3 -0.000656 -0.008594 0.025430 0.000000 0.000000 0.000000
# 4 0.000000 0.000000 0.000000 -0.270971 0.000000 0.000000
# 5 0.000000 0.000000 0.000000 0.000000 0.100868 0.000000
# 6 0.000000 0.000000 0.000000 0.000000 0.000000 0.283974
#
#
# Mechanical properties :
#
#
# Convention : Reuss Voigt Hill
#
# Bulk Modulus (GPa) = 41.23909 50.16666 45.70287
# Shear Modulus (GPa) = 25.43141 14.84725 20.13933
#
# Velocity S-wave (km/s) = 3.68616 2.81651 3.28028
# Velocity P-wave (km/s) = 6.33645 6.11396 6.22620
#
# Compressibility (1/GPa) = 0.02424884
#
# Stress axis : x y z
#
# Youngs Moduli (GPa) = 124.99501 62.41711 39.32433
#
# Poissons Ratio (x) = 0.20916 0.02579
# Poissons Ratio (y) = 0.41886 0.33796
# Poissons Ratio (z) = 0.08197 0.53643
#
# Static dielectric constant tensor:
#      x y z
#    x 3.802820 0.000000 0.000000 
#    y 0.000000 3.602000 0.000000 
#    z 0.000000 0.000000 2.930780 
# 
# 
# High freq. dielectric constant tensor:
#      x y z
#    x 1.747980 0.000000 0.000000 
#    y 0.000000 1.728960 0.000000 
#    z 0.000000 0.000000 1.660630 
# 
# From -- ./inp_files/16390.got.cif
#   From: 2010.03.12/outbox.cif.g09.slc.cpg/sg51_9_cif.got.tgz:16390.got - 2010.04.16 13:43:02.
