data_PCOD8206747
_publ_section_title
;
Structure prediction by ZEFSAII (Michael W. Deem and Ramdas Pophale) SiO2 
 PCOD8206747
Probable space group: P M M A
;
_chemical_formula_sum "Si O2"
_cell_formula_units_Z 56
_cell_length_a 16.796032
_cell_length_b 14.260569
_cell_length_c 12.777721
_cell_angle_alpha 90.000000
_cell_angle_beta 90.000000
_cell_angle_gamma 90.000000
_cell_volume 3060.532170
_symmetry_space_group_name_H-M "P M M A"
_symmetry_group_IT_number 51
_symmetry_cell_setting 'orthorhombic'
loop_
_space_group_symop_operation_xyz
x,y,z
1/2-x,-y,z
1/2+x,-y,-z
-x,y,-z
-x,-y,-z
1/2+x,y,-z
1/2-x,y,z
x,-y,z
loop_
_atom_site_type_symbol
_atom_site_label
_atom_site_fract_x
_atom_site_fract_y
_atom_site_fract_z
Si Si1 0.157953 0.102331 0.848527
Si Si2 0.155480 0.105306 0.453220
Si Si3 0.416895 0.605976 0.357594
Si Si4 0.915839 0.890633 0.944426
Si Si5 0.154619 0.218698 0.249254
Si Si6 0.159007 0.208284 0.654859
Si Si7 0.600088 0.604605 0.403433
O O1 0.250000 0.094086 0.824447
O O2 0.117713 0.168710 0.760633
O O3 0.116487 0.000000 0.838629
O O4 0.147280 0.138520 0.966358
O O5 0.250000 0.104386 0.459872
O O6 0.129101 0.154892 0.346815
O O7 0.118396 0.162431 0.551778
O O8 0.121164 0.000000 0.455284
O O9 0.402768 0.500000 0.316163
O O10 0.374339 0.675639 0.275432
O O11 0.509989 0.626570 0.370856
O O12 0.380724 0.616450 0.473626
O O13 0.895390 0.822454 0.848075
O O14 0.907778 0.000000 0.909899
O O15 0.000000 0.869916 0.000000
O O16 0.250000 0.217123 0.228161
O O17 0.250000 0.177911 0.654341
O O18 0.153477 0.320534 0.657151
O O19 0.623862 0.500000 0.367661
#
# Coordination Sequence:
#
# PCOD8206747 Si02
#       7
#     8   8   8   8   8   8   8
#     4   9  18  33  52  73 102 143 184 218 257 312
#     4   9  17  29  46  75 112 141 168 210 270 332
#     4   9  19  35  54  78 109 145 180 218 271 333
#     4  10  22  38  55  78 107 142 186 229 269 321
#     4  11  21  34  57  84 108 141 182 231 287 332
#     4  10  18  29  50  79 107 140 179 221 267 316
#     4   9  18  33  52  75 110 150 181 214 265 327
#
# _framework density 18.297473
#
# number of rings (size 3 to 8) (size 9 to 14) (size 15 to 20)
#    0.000    2.429    1.429    2.143    2.000    3.714 
#    0.000    1.429    0.000    2.143    0.000    2.000 
#    0.000    0.000    0.000    0.000    0.000    0.000 
#
# Total GULP energy -693937.990082 kJ/mol
# GULP energy per Si atom -12391.749823 kJ/mol
# Density = 1.825583 g / cm^3
# Si number density = 18.297473 Si / 1000 Ang^3
#
#
#
# Elastic Constant Matrix: (Units=GPa)
#
#
# Indices 1 2 3 4 5 6 
#
# 1 35.4869 25.8478 27.9446 0.0000 0.0000 0.0000
# 2 25.8478 132.8084 74.3533 0.0000 0.0000 0.0000
# 3 27.9446 74.3533 120.4370 0.0000 0.0000 0.0000
# 4 0.0000 0.0000 0.0000 30.5007 0.0000 0.0000
# 5 0.0000 0.0000 0.0000 0.0000 21.2037 0.0000
# 6 0.0000 0.0000 0.0000 0.0000 0.0000 24.4021
#
#
#
# Elastic Compliance Matrix: (Units=1/GPa)
#
#
# Indices 1 2 3 4 5 6 
#
# 1 0.035520 -0.003513 -0.006073 0.000000 0.000000 0.000000
# 2 -0.003513 0.011854 -0.006503 0.000000 0.000000 0.000000
# 3 -0.006073 -0.006503 0.013727 0.000000 0.000000 0.000000
# 4 0.000000 0.000000 0.000000 0.032786 0.000000 0.000000
# 5 0.000000 0.000000 0.000000 0.000000 0.047162 0.000000
# 6 0.000000 0.000000 0.000000 0.000000 0.000000 0.040980
#
#
# Mechanical properties :
#
#
# Convention : Reuss Voigt Hill
#
# Bulk Modulus (GPa) = 34.57431 60.55819 47.56625
# Shear Modulus (GPa) = 22.33649 25.92707 24.13178
#
# Velocity S-wave (km/s) = 3.49770 3.76836 3.63555
# Velocity P-wave (km/s) = 5.93705 7.21820 6.60874
#
# Compressibility (1/GPa) = 0.02892321
#
# Stress axis : x y z
#
# Youngs Moduli (GPa) = 28.15281 84.35786 72.84937
#
# Poissons Ratio (x) = 0.29638 0.44239
# Poissons Ratio (y) = 0.09891 0.47375
# Poissons Ratio (z) = 0.17096 0.54860
#
# Static dielectric constant tensor:
#      x y z
#    x 3.128720 0.000000 0.000000 
#    y 0.000000 3.453000 0.000000 
#    z 0.000000 0.000000 3.449300 
# 
# 
# High freq. dielectric constant tensor:
#      x y z
#    x 1.688590 0.000000 0.000000 
#    y 0.000000 1.708090 0.000000 
#    z 0.000000 0.000000 1.697220 
# 
# From -- ./inp_files/16677.got.cif
#   From: 2010.03.12/outbox.cif.g09.slc.cpg/sg51_9_cif.got.tgz:16677.got - 2010.04.16 13:43:02.
