data_PCOD8206479
_publ_section_title
;
Structure prediction by ZEFSAII (Michael W. Deem and Ramdas Pophale) SiO2 
 PCOD8206479
Probable space group: P M M A
;
_chemical_formula_sum "Si O2"
_cell_formula_units_Z 64
_cell_length_a 18.442392
_cell_length_b 19.564843
_cell_length_c 9.661206
_cell_angle_alpha 90.000000
_cell_angle_beta 90.000000
_cell_angle_gamma 90.000000
_cell_volume 3485.980541
_symmetry_space_group_name_H-M "P M M A"
_symmetry_group_IT_number 51
_symmetry_cell_setting 'orthorhombic'
loop_
_space_group_symop_operation_xyz
x,y,z
1/2-x,-y,z
1/2+x,-y,-z
-x,y,-z
-x,-y,-z
1/2+x,y,-z
1/2-x,y,z
x,-y,z
loop_
_atom_site_type_symbol
_atom_site_label
_atom_site_fract_x
_atom_site_fract_y
_atom_site_fract_z
Si Si1 0.016795 0.654603 0.662129
Si Si2 0.061356 0.420923 0.111358
Si Si3 0.832509 0.694811 0.955513
Si Si4 0.330364 0.317171 0.726078
Si Si5 0.067660 0.220845 0.236593
Si Si6 0.884641 0.926807 0.447872
Si Si7 0.520485 0.075059 0.721642
Si Si8 0.828266 0.210262 0.509111
O O1 0.967070 0.597334 0.734943
O O2 0.000028 0.727906 0.737192
O O3 0.000000 0.655407 0.500000
O O4 0.101285 0.633740 0.690687
O O5 0.082132 0.500000 0.104500
O O6 0.134462 0.379519 0.078352
O O7 0.000000 0.401084 0.000000
O O8 0.750000 0.696767 0.899412
O O9 0.880381 0.753833 0.885454
O O10 0.834369 0.709203 0.117961
O O11 0.250000 0.351103 0.699751
O O12 0.343037 0.253200 0.627288
O O13 0.109716 0.224499 0.381418
O O14 0.043713 0.143530 0.193529
O O15 0.935831 0.916752 0.314132
O O16 0.825524 0.867875 0.457658
O O17 0.934159 0.925132 0.582630
O O18 0.844371 0.000000 0.437596
O O19 0.532806 0.000000 0.796924
O O20 0.750000 0.227842 0.574975
#
# Coordination Sequence:
#
# PCOD8206479 Si02
#       8
#     8   8   8   8   8   8   8   8
#     4  11  20  34  56  83 109 144 179 220 275 320
#     4  10  21  38  59  83 111 139 179 220 255 314
#     4  10  21  37  56  79 110 143 177 221 272 321
#     4  10  20  34  51  76 108 139 176 218 268 324
#     4  10  19  29  52  79 104 136 185 228 269 321
#     4   8  14  24  39  62  92 130 170 214 268 319
#     4   8  14  25  42  66  99 132 171 222 267 312
#     4  10  18  28  44  70 101 132 171 224 274 317
#
# _framework density 18.359252999999999
#
# number of rings (size 3 to 8) (size 9 to 14) (size 15 to 20)
#    0.000    2.375    2.500    1.875    1.750    0.750 
#    0.000    0.000    0.000    2.250    0.000    4.375 
#    0.000    0.000    0.000    0.000    0.000    0.000 
#
# Total GULP energy -792932.467490 kJ/mol
# GULP energy per Si atom -12389.569805 kJ/mol
# Density = 1.831747 g / cm^3
# Si number density = 18.359253 Si / 1000 Ang^3
#
#
#
# Elastic Constant Matrix: (Units=GPa)
#
#
# Indices 1 2 3 4 5 6 
#
# 1 77.7569 6.2824 19.7134 0.0000 0.0000 0.0000
# 2 6.2824 75.0376 10.7872 0.0000 0.0000 0.0000
# 3 19.7134 10.7872 61.1263 0.0000 0.0000 0.0000
# 4 0.0000 0.0000 0.0000 14.4759 0.0000 0.0000
# 5 0.0000 0.0000 0.0000 0.0000 24.2810 0.0000
# 6 0.0000 0.0000 0.0000 0.0000 0.0000 10.1275
#
#
#
# Elastic Compliance Matrix: (Units=1/GPa)
#
#
# Indices 1 2 3 4 5 6 
#
# 1 0.014027 -0.000538 -0.004429 0.000000 0.000000 0.000000
# 2 -0.000538 0.013694 -0.002243 0.000000 0.000000 0.000000
# 3 -0.004429 -0.002243 0.018184 0.000000 0.000000 0.000000
# 4 0.000000 0.000000 0.000000 0.069080 0.000000 0.000000
# 5 0.000000 0.000000 0.000000 0.000000 0.041184 0.000000
# 6 0.000000 0.000000 0.000000 0.000000 0.000000 0.098741
#
#
# Mechanical properties :
#
#
# Convention : Reuss Voigt Hill
#
# Bulk Modulus (GPa) = 31.76089 31.94295 31.85192
# Shear Modulus (GPa) = 17.86832 21.58608 19.72720
#
# Velocity S-wave (km/s) = 3.12310 3.43266 3.28153
# Velocity P-wave (km/s) = 5.50837 5.75738 5.63425
#
# Compressibility (1/GPa) = 0.03148526
#
# Stress axis : x y z
#
# Youngs Moduli (GPa) = 71.29180 73.02391 54.99416
#
# Poissons Ratio (x) = 0.03926 0.24356
# Poissons Ratio (y) = 0.03833 0.12337
# Poissons Ratio (z) = 0.31574 0.16381
#
# Static dielectric constant tensor:
#      x y z
#    x 3.554620 0.000000 0.000000 
#    y 0.000000 3.488740 0.000000 
#    z 0.000000 0.000000 3.159680 
# 
# 
# High freq. dielectric constant tensor:
#      x y z
#    x 1.714160 0.000000 0.000000 
#    y 0.000000 1.698920 0.000000 
#    z 0.000000 0.000000 1.689620 
# 
# From -- ./inp_files/10049.got.cif
#   From: 2010.03.12/outbox.cif.g09.slc.cpg/sg51_6_cif.got.tgz:10049.got - 2010.04.16 13:43:02.
