data_PCOD8206808
_publ_section_title
;
Structure prediction by ZEFSAII (Michael W. Deem and Ramdas Pophale) SiO2 
 PCOD8206808
Probable space group: P M M A
;
_chemical_formula_sum "Si O2"
_cell_formula_units_Z 64
_cell_length_a 9.076668
_cell_length_b 23.309356
_cell_length_c 18.933420
_cell_angle_alpha 90.000000
_cell_angle_beta 90.000000
_cell_angle_gamma 90.000000
_cell_volume 4005.768012
_symmetry_space_group_name_H-M "P M M A"
_symmetry_group_IT_number 51
_symmetry_cell_setting 'orthorhombic'
loop_
_space_group_symop_operation_xyz
x,y,z
1/2-x,-y,z
1/2+x,-y,-z
-x,y,-z
-x,-y,-z
1/2+x,y,-z
1/2-x,y,z
x,-y,z
loop_
_atom_site_type_symbol
_atom_site_label
_atom_site_fract_x
_atom_site_fract_y
_atom_site_fract_z
Si Si1 0.923728 0.885563 0.070439
Si Si2 0.420300 0.245325 0.931669
Si Si3 0.581641 0.064466 0.798280
Si Si4 0.918957 0.231450 0.571903
Si Si5 0.420774 0.566901 0.572294
Si Si6 0.575540 0.658242 0.660728
Si Si7 0.077497 0.276514 0.778453
Si Si8 0.580337 0.827452 0.711197
O O1 0.750000 0.892070 0.062929
O O2 0.974290 0.819770 0.082087
O O3 0.976420 0.922817 0.136322
O O4 0.000000 0.910189 0.000000
O O5 0.250000 0.245009 0.950003
O O6 0.453532 0.283246 0.862188
O O7 0.500000 0.272422 0.000000
O O8 0.750000 0.072261 0.823537
O O9 0.547932 0.107061 0.732868
O O10 0.551803 0.000000 0.771056
O O11 0.750000 0.235497 0.551752
O O12 0.970030 0.291636 0.606185
O O13 0.951729 0.180483 0.627758
O O14 0.000000 0.217342 0.500000
O O15 0.500000 0.584962 0.500000
O O16 0.250000 0.584127 0.566318
O O17 0.441100 0.500000 0.587943
O O18 0.498040 0.599817 0.636524
O O19 0.750000 0.649563 0.665571
O O20 0.513536 0.674357 0.737976
O O21 0.250000 0.282601 0.761276
O O22 0.025704 0.213299 0.756044
O O23 0.750000 0.809236 0.726287
#
# Coordination Sequence:
#
# PCOD8206808 Si02
#       8
#     8   8   8   8   8   8   8   8
#     4  10  19  32  47  66  89 116 149 184 224 271
#     4   9  18  29  44  66  91 120 152 184 225 278
#     4  10  20  33  49  66  84 112 149 188 230 276
#     4   9  18  30  45  67  90 114 144 181 226 272
#     4  10  20  33  49  70  99 137 175 208 240 274
#     4  10  20  32  47  70  98 129 164 198 235 276
#     4  10  18  30  47  69  94 120 153 192 236 280
#     4   9  18  32  47  64  88 114 144 183 228 282
#
# _framework density 15.976960999999999
#
# number of rings (size 3 to 8) (size 9 to 14) (size 15 to 20)
#    0.000    2.375    1.250    2.625    0.000    6.250 
#    0.000    0.000    0.000    0.375    0.000    0.000 
#    0.000    0.500    0.000    1.625    0.000    2.250 
#
# Total GULP energy -793599.887460 kJ/mol
# GULP energy per Si atom -12399.998242 kJ/mol
# Density = 1.594060 g / cm^3
# Si number density = 15.976961 Si / 1000 Ang^3
#
#
#
# Elastic Constant Matrix: (Units=GPa)
#
#
# Indices 1 2 3 4 5 6 
#
# 1 78.7059 38.4285 50.6061 0.0000 0.0000 0.0000
# 2 38.4285 68.2955 45.7376 0.0000 0.0000 0.0000
# 3 50.6061 45.7376 108.4872 0.0000 0.0000 0.0000
# 4 0.0000 0.0000 0.0000 24.0901 0.0000 0.0000
# 5 0.0000 0.0000 0.0000 0.0000 30.8566 0.0000
# 6 0.0000 0.0000 0.0000 0.0000 0.0000 20.2185
#
#
#
# Elastic Compliance Matrix: (Units=1/GPa)
#
#
# Indices 1 2 3 4 5 6 
#
# 1 0.020351 -0.007097 -0.006501 0.000000 0.000000 0.000000
# 2 -0.007097 0.022878 -0.006335 0.000000 0.000000 0.000000
# 3 -0.006501 -0.006335 0.014921 0.000000 0.000000 0.000000
# 4 0.000000 0.000000 0.000000 0.041511 0.000000 0.000000
# 5 0.000000 0.000000 0.000000 0.000000 0.032408 0.000000
# 6 0.000000 0.000000 0.000000 0.000000 0.000000 0.049460
#
#
# Mechanical properties :
#
#
# Convention : Reuss Voigt Hill
#
# Bulk Modulus (GPa) = 54.69239 58.33700 56.51470
# Shear Modulus (GPa) = 21.97917 23.08079 22.52998
#
# Velocity S-wave (km/s) = 3.71304 3.80495 3.75928
# Velocity P-wave (km/s) = 7.25869 7.47636 7.36833
#
# Compressibility (1/GPa) = 0.01828408
#
# Stress axis : x y z
#
# Youngs Moduli (GPa) = 49.13832 43.71003 67.02085
#
# Poissons Ratio (x) = 0.31022 0.43569
# Poissons Ratio (y) = 0.34875 0.42455
# Poissons Ratio (z) = 0.31944 0.27688
#
# Static dielectric constant tensor:
#      x y z
#    x 3.083270 0.000000 0.000000 
#    y 0.000000 2.848490 0.000000 
#    z 0.000000 0.000000 3.052720 
# 
# 
# High freq. dielectric constant tensor:
#      x y z
#    x 1.625020 0.000000 0.000000 
#    y 0.000000 1.579970 0.000000 
#    z 0.000000 0.000000 1.608530 
# 
# From -- ./inp_files/28562.got.cif
#   From: 2010.03.12/outbox.cif.g09.slc.cpg/sg51_15_cif.got.tgz:28562.got - 2010.04.16 13:43:02.
