data_PCOD8206172
_publ_section_title
;
Structure prediction by ZEFSAII (Michael W. Deem and Ramdas Pophale) SiO2 
 PCOD8206172
Probable space group: P M M A
;
_chemical_formula_sum "Si O2"
_cell_formula_units_Z 64
_cell_length_a 14.068632
_cell_length_b 14.120366
_cell_length_c 20.663004
_cell_angle_alpha 90.000000
_cell_angle_beta 90.000000
_cell_angle_gamma 90.000000
_cell_volume 4104.793210
_symmetry_space_group_name_H-M "P M M A"
_symmetry_group_IT_number 51
_symmetry_cell_setting 'orthorhombic'
loop_
_space_group_symop_operation_xyz
x,y,z
1/2-x,-y,z
1/2+x,-y,-z
-x,y,-z
-x,-y,-z
1/2+x,y,-z
1/2-x,y,z
x,-y,z
loop_
_atom_site_type_symbol
_atom_site_label
_atom_site_fract_x
_atom_site_fract_y
_atom_site_fract_z
Si Si1 0.145088 0.715544 0.409724
Si Si2 0.855830 0.612598 0.965588
Si Si3 0.638664 0.392622 0.462000
Si Si4 0.645312 0.105615 0.364705
Si Si5 0.453676 0.387430 0.904219
Si Si6 0.109361 0.106627 0.490169
Si Si7 0.456191 0.289981 0.655537
Si Si8 0.641478 0.612516 0.226120
O O1 0.250000 0.688949 0.383210
O O2 0.113881 0.643124 0.466210
O O3 0.150645 0.822116 0.437229
O O4 0.070639 0.706187 0.350702
O O5 0.750000 0.653276 0.949207
O O6 0.851690 0.500000 0.965893
O O7 0.936190 0.646558 0.913836
O O8 0.888347 0.648524 0.036492
O O9 0.750000 0.386121 0.448011
O O10 0.601920 0.500000 0.454704
O O11 0.587869 0.324962 0.411389
O O12 0.750000 0.116205 0.333344
O O13 0.659299 0.122218 0.441195
O O14 0.575113 0.181428 0.332244
O O15 0.603783 0.000000 0.351933
O O16 0.451536 0.500000 0.902464
O O17 0.409126 0.346215 0.838218
O O18 0.000000 0.129774 0.500000
O O19 0.126104 0.000000 0.464311
O O20 0.420994 0.354867 0.713555
O O21 0.750000 0.650376 0.230750
O O22 0.642031 0.500000 0.225510
#
# Coordination Sequence:
#
# PCOD8206172 Si02
#       8
#     8   8   8   8   8   8   8   8
#     4  11  22  34  45  59  79 105 137 175 218 258
#     4   8  12  20  38  62  87 114 142 172 206 242
#     4  10  20  33  48  63  77  97 131 175 218 256
#     4  10  19  30  46  67  87 103 123 161 215 270
#     4   8  14  24  38  60  87 113 143 176 206 238
#     4  10  17  29  48  68  86 102 122 159 217 275
#     4  12  21  32  46  62  81 108 140 174 209 255
#     4  10  20  32  46  63  84 112 145 179 212 248
#
# _framework density 15.591528
#
# number of rings (size 3 to 8) (size 9 to 14) (size 15 to 20)
#    0.000    2.125    2.500    3.375    0.000    4.750 
#    0.000    0.625    0.000    0.750    0.000    0.000 
#    0.000    0.000    0.000    2.250    0.000    4.250 
#
# Total GULP energy -793302.541799 kJ/mol
# GULP energy per Si atom -12395.352216 kJ/mol
# Density = 1.555604 g / cm^3
# Si number density = 15.591528 Si / 1000 Ang^3
#
#
#
# Elastic Constant Matrix: (Units=GPa)
#
#
# Indices 1 2 3 4 5 6 
#
# 1 103.7372 16.2686 52.4333 0.0000 0.0000 0.0000
# 2 16.2686 49.1262 5.4504 0.0000 0.0000 0.0000
# 3 52.4333 5.4504 50.3192 0.0000 0.0000 0.0000
# 4 0.0000 0.0000 0.0000 2.4685 0.0000 0.0000
# 5 0.0000 0.0000 0.0000 0.0000 -3.6657 0.0000
# 6 0.0000 0.0000 0.0000 0.0000 0.0000 15.9515
#
#
#
# Elastic Compliance Matrix: (Units=1/GPa)
#
#
# Indices 1 2 3 4 5 6 
#
# 1 0.021372 -0.004663 -0.021765 0.000000 0.000000 0.000000
# 2 -0.004663 0.021621 0.002517 0.000000 0.000000 0.000000
# 3 -0.021765 0.002517 0.042280 0.000000 0.000000 0.000000
# 4 0.000000 0.000000 0.000000 0.405112 0.000000 0.000000
# 5 0.000000 0.000000 0.000000 0.000000 -0.272796 0.000000
# 6 0.000000 0.000000 0.000000 0.000000 0.000000 0.062690
#
#
# Mechanical properties :
#
#
# Convention : Reuss Voigt Hill
#
# Bulk Modulus (GPa) = 26.70172 39.05413 32.87793
# Shear Modulus (GPa) = 14.68071 11.55286 13.11678
#
# Velocity S-wave (km/s) = 3.07185 2.72503 2.90362
# Velocity P-wave (km/s) = 5.45387 5.91640 5.68983
#
# Compressibility (1/GPa) = 0.03745077
#
# Stress axis : x y z
#
# Youngs Moduli (GPa) = 46.79064 46.25212 23.65206
#
# Poissons Ratio (x) = 0.21566 0.51478
# Poissons Ratio (y) = 0.21817 -0.05953
# Poissons Ratio (z) = 1.01838 -0.11641
#
# Static dielectric constant tensor:
#      x y z
#    x 3.334350 0.000000 0.000000 
#    y 0.000000 2.824490 0.000000 
#    z 0.000000 0.000000 2.739850 
# 
# 
# High freq. dielectric constant tensor:
#      x y z
#    x 1.617100 0.000000 0.000000 
#    y 0.000000 1.566740 0.000000 
#    z 0.000000 0.000000 1.549230 
# 
# From -- ./inp_files/29969.got.cif
#   From: 2010.03.12/outbox.cif.g09.slc.cpg/sg51_15_cif.got.tgz:29969.got - 2010.04.16 13:43:02.
