data_PCOD8206287
_publ_section_title
;
Structure prediction by ZEFSAII (Michael W. Deem and Ramdas Pophale) SiO2 
 PCOD8206287
Probable space group: P M M A
;
_chemical_formula_sum "Si O2"
_cell_formula_units_Z 64
_cell_length_a 9.025627
_cell_length_b 26.033833
_cell_length_c 18.041569
_cell_angle_alpha 90.000000
_cell_angle_beta 90.000000
_cell_angle_gamma 90.000000
_cell_volume 4239.257526
_symmetry_space_group_name_H-M "P M M A"
_symmetry_group_IT_number 51
_symmetry_cell_setting 'orthorhombic'
loop_
_space_group_symop_operation_xyz
x,y,z
1/2-x,-y,z
1/2+x,-y,-z
-x,y,-z
-x,-y,-z
1/2+x,y,-z
1/2-x,y,z
x,-y,z
loop_
_atom_site_type_symbol
_atom_site_label
_atom_site_fract_x
_atom_site_fract_y
_atom_site_fract_z
Si Si1 0.917980 0.695295 0.298799
Si Si2 0.921759 0.739064 0.921759
Si Si3 0.921338 0.148935 0.678168
Si Si4 0.916522 0.796283 0.199635
Si Si5 0.922467 0.361187 0.824364
Si Si6 0.423675 0.941892 0.424170
Si Si7 0.922997 0.752577 0.578627
Si Si8 0.078926 0.439852 0.924193
O O1 0.750000 0.677821 0.315691
O O2 0.919935 0.746069 0.249763
O O3 0.003477 0.650502 0.254953
O O4 0.003763 0.706070 0.375240
O O5 0.750000 0.750733 0.933269
O O6 0.948965 0.685469 0.880630
O O7 0.990552 0.785966 0.874794
O O8 0.000000 0.735440 0.000000
O O9 0.750000 0.147405 0.700528
O O10 0.975116 0.095403 0.642065
O O11 0.951900 0.193658 0.619193
O O12 0.012303 0.157114 0.753810
O O13 0.750000 0.811429 0.177281
O O14 0.750000 0.372224 0.811990
O O15 0.001008 0.411587 0.856135
O O16 0.500000 0.924443 0.500000
O O17 0.250000 0.936290 0.437600
O O18 0.468878 0.000000 0.402619
O O19 0.750000 0.741008 0.569190
O O20 0.000000 0.755884 0.500000
O O21 0.250000 0.423316 0.929744
O O22 0.060944 0.500000 0.909590
O O23 0.000000 0.423099 0.000000
#
# Coordination Sequence:
#
# PCOD8206287 Si02
#       8
#     8   8   8   8   8   8   8   8
#     4   9  17  29  43  59  81 108 138 172 208 247
#     4  10  19  29  42  61  85 111 139 170 204 244
#     4   9  17  28  41  57  80 110 141 173 209 248
#     4   9  17  28  42  59  79 105 137 171 206 245
#     4  10  19  30  45  63  84 112 143 174 209 248
#     4   9  17  28  41  58  81 109 141 176 211 245
#     4  10  18  27  40  59  83 110 141 174 209 249
#     4  10  20  32  45  62  85 113 145 180 214 246
#
# _framework density 15.096983
#
# number of rings (size 3 to 8) (size 9 to 14) (size 15 to 20)
#    0.000    2.500    0.000    3.000    0.000    7.250 
#    0.000    0.000    0.000    0.000    0.000    0.000 
#    0.000    1.000    0.000    3.250    0.000    4.875 
#
# Total GULP energy -793675.453506 kJ/mol
# GULP energy per Si atom -12401.178961 kJ/mol
# Density = 1.506262 g / cm^3
# Si number density = 15.096983 Si / 1000 Ang^3
#
#
#
# Elastic Constant Matrix: (Units=GPa)
#
#
# Indices 1 2 3 4 5 6 
#
# 1 113.1280 35.2494 50.3400 0.0000 0.0000 0.0000
# 2 35.2494 49.7062 22.1933 0.0000 0.0000 0.0000
# 3 50.3400 22.1933 54.4842 0.0000 0.0000 0.0000
# 4 0.0000 0.0000 0.0000 25.3025 0.0000 0.0000
# 5 0.0000 0.0000 0.0000 0.0000 31.8663 0.0000
# 6 0.0000 0.0000 0.0000 0.0000 0.0000 19.6178
#
#
#
# Elastic Compliance Matrix: (Units=1/GPa)
#
#
# Indices 1 2 3 4 5 6 
#
# 1 0.016321 -0.005917 -0.012669 0.000000 0.000000 0.000000
# 2 -0.005917 0.026736 -0.005423 0.000000 0.000000 0.000000
# 3 -0.012669 -0.005423 0.032268 0.000000 0.000000 0.000000
# 4 0.000000 0.000000 0.000000 0.039522 0.000000 0.000000
# 5 0.000000 0.000000 0.000000 0.000000 0.031381 0.000000
# 6 0.000000 0.000000 0.000000 0.000000 0.000000 0.050974
#
#
# Mechanical properties :
#
#
# Convention : Reuss Voigt Hill
#
# Bulk Modulus (GPa) = 36.62209 48.09819 42.36014
# Shear Modulus (GPa) = 19.65998 22.65969 21.15984
#
# Velocity S-wave (km/s) = 3.61258 3.87840 3.74785
# Velocity P-wave (km/s) = 6.45845 7.21004 6.84457
#
# Compressibility (1/GPa) = 0.02730592
#
# Stress axis : x y z
#
# Youngs Moduli (GPa) = 61.27129 37.40274 30.99003
#
# Poissons Ratio (x) = 0.22133 0.39262
# Poissons Ratio (y) = 0.36257 0.16807
# Poissons Ratio (z) = 0.77625 0.20284
#
# Static dielectric constant tensor:
#      x y z
#    x 3.095100 0.000000 0.000000 
#    y 0.000000 2.756890 0.000000 
#    z 0.000000 0.000000 2.855870 
# 
# 
# High freq. dielectric constant tensor:
#      x y z
#    x 1.596790 0.000000 0.000000 
#    y 0.000000 1.543140 0.000000 
#    z 0.000000 0.000000 1.564600 
# 
# From -- ./inp_files/28677.got.cif
#   From: 2010.03.12/outbox.cif.g09.slc.cpg/sg51_15_cif.got.tgz:28677.got - 2010.04.16 13:43:02.
