data_PCOD8206402
_publ_section_title
;
Structure prediction by ZEFSAII (Michael W. Deem and Ramdas Pophale) SiO2 
 PCOD8206402
Probable space group: P M M A
;
_chemical_formula_sum "Si O2"
_cell_formula_units_Z 52
_cell_length_a 9.014193
_cell_length_b 25.642965
_cell_length_c 12.896703
_cell_angle_alpha 90.000000
_cell_angle_beta 90.000000
_cell_angle_gamma 90.000000
_cell_volume 2981.081096
_symmetry_space_group_name_H-M "P M M A"
_symmetry_group_IT_number 51
_symmetry_cell_setting 'orthorhombic'
loop_
_space_group_symop_operation_xyz
x,y,z
1/2-x,-y,z
1/2+x,-y,-z
-x,y,-z
-x,-y,-z
1/2+x,y,-z
1/2-x,y,z
x,-y,z
loop_
_atom_site_type_symbol
_atom_site_label
_atom_site_fract_x
_atom_site_fract_y
_atom_site_fract_z
Si Si1 0.080883 0.209663 0.707459
Si Si2 0.579613 0.438519 0.393119
Si Si3 0.428297 0.000000 0.386644
Si Si4 0.425644 0.715550 0.892389
Si Si5 0.585016 0.367993 0.765859
Si Si6 0.424460 0.897662 0.610931
Si Si7 0.592023 0.712629 0.587341
O O1 0.250000 0.224676 0.688801
O O2 0.031914 0.236069 0.816396
O O3 0.054447 0.147739 0.697395
O O4 0.990212 0.233911 0.613009
O O5 0.500000 0.421513 0.500000
O O6 0.750000 0.419459 0.399203
O O7 0.569322 0.500000 0.378344
O O8 0.502061 0.414708 0.290811
O O9 0.500000 0.000000 0.500000
O O10 0.493665 0.947307 0.335069
O O11 0.250000 0.000000 0.386312
O O12 0.250000 0.709228 0.904915
O O13 0.489886 0.658717 0.857526
O O14 0.500000 0.731206 0.000000
O O15 0.750000 0.386775 0.803843
O O16 0.609775 0.322282 0.686051
O O17 0.500000 0.883978 0.500000
O O18 0.250000 0.908815 0.591408
O O19 0.500000 0.681421 0.500000
O O20 0.750000 0.727736 0.540134
#
# Coordination Sequence:
#
# PCOD8206402 Si02
#       7
#     8   8   4   8   8   8   8
#     4   9  19  32  47  67  92 122 156 193 236 284
#     4  10  20  33  50  74 104 137 170 203 239 281
#     4  10  18  28  42  62  89 126 165 198 231 270
#     4  10  20  36  55  75  98 124 157 199 246 296
#     4  10  20  33  50  72  96 127 164 200 240 286
#     4  10  18  29  44  65  94 128 162 196 232 273
#     4  10  19  28  41  63  93 125 156 189 228 276
#
# _framework density 17.443334
#
# number of rings (size 3 to 8) (size 9 to 14) (size 15 to 20)
#    0.000    2.154    0.000    4.846    0.000    7.077 
#    0.000    0.000    0.000    0.462    0.000    0.538 
#    0.000    0.000    0.000    0.000    0.000    0.000 
#
# Total GULP energy -644286.196091 kJ/mol
# GULP energy per Si atom -12390.119156 kJ/mol
# Density = 1.740363 g / cm^3
# Si number density = 17.443334 Si / 1000 Ang^3
#
#
#
# Elastic Constant Matrix: (Units=GPa)
#
#
# Indices 1 2 3 4 5 6 
#
# 1 139.3471 44.3448 43.3019 0.0000 0.0000 0.0000
# 2 44.3448 79.2477 27.4664 0.0000 0.0000 0.0000
# 3 43.3019 27.4664 69.3033 0.0000 0.0000 0.0000
# 4 0.0000 0.0000 0.0000 13.0544 0.0000 0.0000
# 5 0.0000 0.0000 0.0000 0.0000 26.3562 0.0000
# 6 0.0000 0.0000 0.0000 0.0000 0.0000 31.8152
#
#
#
# Elastic Compliance Matrix: (Units=1/GPa)
#
#
# Indices 1 2 3 4 5 6 
#
# 1 0.009854 -0.003918 -0.004604 0.000000 0.000000 0.000000
# 2 -0.003918 0.016186 -0.003967 0.000000 0.000000 0.000000
# 3 -0.004604 -0.003967 0.018878 0.000000 0.000000 0.000000
# 4 0.000000 0.000000 0.000000 0.076603 0.000000 0.000000
# 5 0.000000 0.000000 0.000000 0.000000 0.037942 0.000000
# 6 0.000000 0.000000 0.000000 0.000000 0.000000 0.031432
#
#
# Mechanical properties :
#
#
# Convention : Reuss Voigt Hill
#
# Bulk Modulus (GPa) = 50.15015 57.56937 53.85976
# Shear Modulus (GPa) = 22.47002 25.76415 24.11709
#
# Velocity S-wave (km/s) = 3.59301 3.84737 3.72236
# Velocity P-wave (km/s) = 6.78422 7.26716 7.02984
#
# Compressibility (1/GPa) = 0.01994012
#
# Stress axis : x y z
#
# Youngs Moduli (GPa) = 101.48229 61.78166 52.97156
#
# Poissons Ratio (x) = 0.24208 0.24388
# Poissons Ratio (y) = 0.39764 0.21012
# Poissons Ratio (z) = 0.46722 0.24507
#
# Static dielectric constant tensor:
#      x y z
#    x 3.767710 0.000000 0.000000 
#    y 0.000000 3.458560 0.000000 
#    z 0.000000 0.000000 3.015190 
# 
# 
# High freq. dielectric constant tensor:
#      x y z
#    x 1.698150 0.000000 0.000000 
#    y 0.000000 1.669560 0.000000 
#    z 0.000000 0.000000 1.630510 
# 
# From -- ./inp_files/14623.got.cif
#   From: 2010.03.12/outbox.cif.g09.slc.cpg/sg51_8_cif.got.tgz:14623.got - 2010.04.16 13:43:02.
