data_PCOD8206505
_publ_section_title
;
Structure prediction by ZEFSAII (Michael W. Deem and Ramdas Pophale) SiO2 
 PCOD8206505
Probable space group: P M M A
;
_chemical_formula_sum "Si O2"
_cell_formula_units_Z 64
_cell_length_a 18.144164
_cell_length_b 8.910060
_cell_length_c 21.726213
_cell_angle_alpha 90.000000
_cell_angle_beta 90.000000
_cell_angle_gamma 90.000000
_cell_volume 3512.381041
_symmetry_space_group_name_H-M "P M M A"
_symmetry_group_IT_number 51
_symmetry_cell_setting 'orthorhombic'
loop_
_space_group_symop_operation_xyz
x,y,z
1/2-x,-y,z
1/2+x,-y,-z
-x,y,-z
-x,-y,-z
1/2+x,y,-z
1/2-x,y,z
x,-y,z
loop_
_atom_site_type_symbol
_atom_site_label
_atom_site_fract_x
_atom_site_fract_y
_atom_site_fract_z
Si Si1 0.965925 0.320884 0.435493
Si Si2 0.044318 0.669838 0.317461
Si Si3 0.166111 0.675225 0.230021
Si Si4 0.904885 0.823671 0.883637
Si Si5 0.107922 0.328160 0.746806
Si Si6 0.587177 0.330750 0.006955
Si Si7 0.165823 0.173820 0.627765
Si Si8 0.925256 0.823282 0.130514
O O1 0.957271 0.500000 0.431037
O O2 0.885310 0.250667 0.424309
O O3 0.000000 0.268648 0.500000
O O4 0.020816 0.256166 0.382505
O O5 0.064909 0.500000 0.332828
O O6 0.115838 0.743979 0.285344
O O7 0.977840 0.682643 0.269642
O O8 0.250000 0.699936 0.249851
O O9 0.147453 0.500000 0.219070
O O10 0.150270 0.763938 0.167880
O O11 0.988523 0.779031 0.866305
O O12 0.896509 0.000000 0.890502
O O13 0.878484 0.750386 0.947625
O O14 0.133984 0.500000 0.752050
O O15 0.156221 0.248565 0.694555
O O16 0.118694 0.246803 0.812034
O O17 0.617397 0.500000 0.010795
O O18 0.610800 0.242897 0.068519
O O19 0.500000 0.327547 0.000000
O O20 0.250000 0.195295 0.606289
O O21 0.144376 0.000000 0.633332
O O22 0.913818 0.000000 0.131007
#
# Coordination Sequence:
#
# PCOD8206505 Si02
#       8
#     8   8   8   8   8   8   8   8
#     4   9  18  34  57  84 112 142 179 221 261 305
#     4   8  15  29  48  72 101 131 166 212 257 299
#     4  10  19  31  48  68  94 132 177 220 263 313
#     4  10  19  30  45  66  96 129 165 215 266 315
#     4  10  18  30  52  76 102 136 173 217 263 309
#     4   9  17  28  44  66  93 126 164 207 256 310
#     4  10  21  36  54  79 112 145 178 217 262 314
#     4  10  18  28  45  72 102 130 165 211 265 318
#
# _framework density 18.221257999999999
#
# number of rings (size 3 to 8) (size 9 to 14) (size 15 to 20)
#    0.000    2.500    1.250    2.625    0.000    4.000 
#    0.000    0.625    0.000    3.000    0.000    0.000 
#    0.000    0.000    0.000    0.000    0.000    0.000 
#
# Total GULP energy -793481.764322 kJ/mol
# GULP energy per Si atom -12398.152568 kJ/mol
# Density = 1.817979 g / cm^3
# Si number density = 18.221258 Si / 1000 Ang^3
#
#
#
# Elastic Constant Matrix: (Units=GPa)
#
#
# Indices 1 2 3 4 5 6 
#
# 1 74.3151 30.2956 46.8735 0.0000 0.0000 0.0000
# 2 30.2956 84.5691 50.8664 0.0000 0.0000 0.0000
# 3 46.8735 50.8664 145.4921 0.0000 0.0000 0.0000
# 4 0.0000 0.0000 0.0000 22.3478 0.0000 0.0000
# 5 0.0000 0.0000 0.0000 0.0000 19.7086 0.0000
# 6 0.0000 0.0000 0.0000 0.0000 0.0000 19.9491
#
#
#
# Elastic Compliance Matrix: (Units=1/GPa)
#
#
# Indices 1 2 3 4 5 6 
#
# 1 0.017756 -0.003698 -0.004428 0.000000 0.000000 0.000000
# 2 -0.003698 0.015743 -0.004313 0.000000 0.000000 0.000000
# 3 -0.004428 -0.004313 0.009808 0.000000 0.000000 0.000000
# 4 0.000000 0.000000 0.000000 0.044747 0.000000 0.000000
# 5 0.000000 0.000000 0.000000 0.000000 0.050739 0.000000
# 6 0.000000 0.000000 0.000000 0.000000 0.000000 0.050128
#
#
# Mechanical properties :
#
#
# Convention : Reuss Voigt Hill
#
# Bulk Modulus (GPa) = 54.25759 62.27194 58.26477
# Shear Modulus (GPa) = 22.73330 24.15716 23.44523
#
# Velocity S-wave (km/s) = 3.53601 3.64506 3.59095
# Velocity P-wave (km/s) = 6.82003 7.20867 7.01704
#
# Compressibility (1/GPa) = 0.01843060
#
# Stress axis : x y z
#
# Youngs Moduli (GPa) = 56.31748 63.51870 101.96180
#
# Poissons Ratio (x) = 0.23488 0.45147
# Poissons Ratio (y) = 0.20825 0.43975
# Poissons Ratio (z) = 0.24937 0.27395
#
# Static dielectric constant tensor:
#      x y z
#    x 3.081330 0.000000 0.000000 
#    y 0.000000 3.299570 0.000000 
#    z 0.000000 0.000000 3.455030 
# 
# 
# High freq. dielectric constant tensor:
#      x y z
#    x 1.672230 0.000000 0.000000 
#    y 0.000000 1.701210 0.000000 
#    z 0.000000 0.000000 1.707370 
# 
# From -- ./inp_files/33834.got.cif
#   From: 2010.03.12/outbox.cif.g09.slc.cpg/sg51_17_cif.got.tgz:33834.got - 2010.04.16 13:43:02.
