data_PCOD8206030
_publ_section_title
;
Structure prediction by ZEFSAII (Michael W. Deem and Ramdas Pophale) SiO2 
 PCOD8206030
Probable space group: P M M A
;
_chemical_formula_sum "Si O2"
_cell_formula_units_Z 56
_cell_length_a 22.373566
_cell_length_b 9.193612
_cell_length_c 17.728111
_cell_angle_alpha 90.000000
_cell_angle_beta 90.000000
_cell_angle_gamma 90.000000
_cell_volume 3646.564023
_symmetry_space_group_name_H-M "P M M A"
_symmetry_group_IT_number 51
_symmetry_cell_setting 'orthorhombic'
loop_
_space_group_symop_operation_xyz
x,y,z
1/2-x,-y,z
1/2+x,-y,-z
-x,y,-z
-x,-y,-z
1/2+x,y,-z
1/2-x,y,z
x,-y,z
loop_
_atom_site_type_symbol
_atom_site_label
_atom_site_fract_x
_atom_site_fract_y
_atom_site_fract_z
Si Si1 0.103739 0.328081 0.869564
Si Si2 0.068283 0.664434 0.474900
Si Si3 0.598229 0.831953 0.384031
Si Si4 0.433667 0.669358 0.025243
Si Si5 0.470215 0.327708 0.181859
Si Si6 0.036091 0.830863 0.333245
Si Si7 0.818911 0.170034 0.248757
O O1 0.113742 0.500000 0.866027
O O2 0.156143 0.250862 0.824291
O O3 0.039299 0.288369 0.834455
O O4 0.108365 0.270227 0.957350
O O5 0.090679 0.500000 0.462265
O O6 0.107797 0.738741 0.540211
O O7 0.075771 0.754491 0.397798
O O8 0.000000 0.668053 0.500000
O O9 0.533650 0.804241 0.348002
O O10 0.647144 0.777855 0.324033
O O11 0.606711 0.000000 0.405738
O O12 0.422308 0.500000 0.029286
O O13 0.428039 0.727416 0.111452
O O14 0.500000 0.703991 0.000000
O O15 0.463655 0.500000 0.195399
O O16 0.446665 0.241278 0.254010
O O17 0.052476 0.000000 0.331732
O O18 0.750000 0.210720 0.258708
O O19 0.829397 0.000000 0.236175
#
# Coordination Sequence:
#
# PCOD8206030 Si02
#       7
#     8   8   8   8   8   8   8
#     4   9  16  27  43  59  79 107 141 178 210 241
#     4   9  17  27  40  58  78 103 136 170 205 247
#     4   9  17  29  41  54  77 109 140 171 207 244
#     4   7  12  23  38  57  79 106 136 166 204 247
#     4   9  15  24  40  60  83 110 139 168 202 247
#     4  10  17  25  39  59  84 111 138 167 201 245
#     4  10  20  32  44  59  82 113 146 177 210 246
#
# _framework density 15.356923
#
# number of rings (size 3 to 8) (size 9 to 14) (size 15 to 20)
#    0.000    3.000    1.429    2.571    0.000    3.143 
#    0.000    0.714    0.000    2.571    0.000    0.000 
#    0.000    1.143    0.000    8.286    0.000    4.286 
#
# Total GULP energy -693876.261017 kJ/mol
# GULP energy per Si atom -12390.647518 kJ/mol
# Density = 1.532197 g / cm^3
# Si number density = 15.356923 Si / 1000 Ang^3
#
#
#
# Elastic Constant Matrix: (Units=GPa)
#
#
# Indices 1 2 3 4 5 6 
#
# 1 42.6251 21.9174 41.4575 0.0000 0.0000 0.0000
# 2 21.9174 65.7011 65.0625 0.0000 0.0000 0.0000
# 3 41.4575 65.0625 167.5959 0.0000 0.0000 0.0000
# 4 0.0000 0.0000 0.0000 19.2156 0.0000 0.0000
# 5 0.0000 0.0000 0.0000 0.0000 15.7756 0.0000
# 6 0.0000 0.0000 0.0000 0.0000 0.0000 12.4161
#
#
#
# Elastic Compliance Matrix: (Units=1/GPa)
#
#
# Indices 1 2 3 4 5 6 
#
# 1 0.031714 -0.004566 -0.006072 0.000000 0.000000 0.000000
# 2 -0.004566 0.025384 -0.008725 0.000000 0.000000 0.000000
# 3 -0.006072 -0.008725 0.010856 0.000000 0.000000 0.000000
# 4 0.000000 0.000000 0.000000 0.052041 0.000000 0.000000
# 5 0.000000 0.000000 0.000000 0.000000 0.063389 0.000000
# 6 0.000000 0.000000 0.000000 0.000000 0.000000 0.080541
#
#
# Mechanical properties :
#
#
# Convention : Reuss Voigt Hill
#
# Bulk Modulus (GPa) = 34.21482 59.19966 46.70724
# Shear Modulus (GPa) = 16.00547 19.31377 17.65962
#
# Velocity S-wave (km/s) = 3.23186 3.55020 3.39476
# Velocity P-wave (km/s) = 6.02119 7.44567 6.77099
#
# Compressibility (1/GPa) = 0.02922710
#
# Stress axis : x y z
#
# Youngs Moduli (GPa) = 31.53151 39.39560 92.11661
#
# Poissons Ratio (x) = 0.17989 0.55936
# Poissons Ratio (y) = 0.14398 0.80368
# Poissons Ratio (z) = 0.19147 0.34371
#
# Static dielectric constant tensor:
#      x y z
#    x 2.479740 0.000000 0.000000 
#    y 0.000000 2.839670 0.000000 
#    z 0.000000 0.000000 3.303670 
# 
# 
# High freq. dielectric constant tensor:
#      x y z
#    x 1.518970 0.000000 0.000000 
#    y 0.000000 1.580210 0.000000 
#    z 0.000000 0.000000 1.608420 
# 
# From -- ./inp_files/30398.got.cif
#   From: 2010.03.12/outbox.cif.g09.slc.cpg/sg51_16_cif.got.tgz:30398.got - 2010.04.16 13:43:02.
