data_PCOD8206179
_publ_section_title
;
Structure prediction by ZEFSAII (Michael W. Deem and Ramdas Pophale) SiO2 
 PCOD8206179
Probable space group: P M M A
;
_chemical_formula_sum "Si O2"
_cell_formula_units_Z 48
_cell_length_a 8.929448
_cell_length_b 14.594237
_cell_length_c 20.719239
_cell_angle_alpha 90.000000
_cell_angle_beta 90.000000
_cell_angle_gamma 90.000000
_cell_volume 2700.099741
_symmetry_space_group_name_H-M "P M M A"
_symmetry_group_IT_number 51
_symmetry_cell_setting 'orthorhombic'
loop_
_space_group_symop_operation_xyz
x,y,z
1/2-x,-y,z
1/2+x,-y,-z
-x,y,-z
-x,-y,-z
1/2+x,y,-z
1/2-x,y,z
x,-y,z
loop_
_atom_site_type_symbol
_atom_site_label
_atom_site_fract_x
_atom_site_fract_y
_atom_site_fract_z
Si Si1 0.072342 0.790263 0.316837
Si Si2 0.427767 0.786739 0.065670
Si Si3 0.427741 0.599959 0.121947
Si Si4 0.574061 0.894989 0.433249
Si Si5 0.572498 0.400182 0.733366
Si Si6 0.927812 0.897070 0.810191
O O1 0.250000 0.800572 0.325993
O O2 0.020228 0.683845 0.311648
O O3 0.016578 0.842388 0.252620
O O4 0.989290 0.831220 0.377708
O O5 0.250000 0.792112 0.059766
O O6 0.486069 0.682372 0.077021
O O7 0.486754 0.848489 0.124871
O O8 0.500000 0.824442 0.000000
O O9 0.250000 0.605196 0.125313
O O10 0.479184 0.500000 0.094852
O O11 0.491647 0.613174 0.194341
O O12 0.500000 0.863711 0.500000
O O13 0.750000 0.881106 0.439280
O O14 0.531717 0.000000 0.417402
O O15 0.750000 0.397570 0.737922
O O16 0.519807 0.500000 0.705867
O O17 0.750000 0.897799 0.811067
O O18 0.992650 0.000000 0.807476
#
# Coordination Sequence:
#
# PCOD8206179 Si02
#       6
#     8   8   8   8   8   8
#     4  10  17  29  53  80 101 126 162 204 247 289
#     4  10  19  31  45  63  88 121 159 199 244 292
#     4   8  13  24  43  65  89 117 152 195 241 290
#     4  10  21  36  53  76 107 139 167 197 237 285
#     4   8  13  23  44  74 101 124 157 200 242 289
#     4   9  17  29  46  68  92 120 159 203 243 288
#
# _framework density 17.77712
#
# number of rings (size 3 to 8) (size 9 to 14) (size 15 to 20)
#    0.000    2.833    1.667    2.000    0.000    2.333 
#    0.000    0.833    0.000    2.000    0.000    2.333 
#    0.000    0.000    0.000    0.000    0.000    0.000 
#
# Total GULP energy -594894.429812 kJ/mol
# GULP energy per Si atom -12393.633954 kJ/mol
# Density = 1.773666 g / cm^3
# Si number density = 17.777120 Si / 1000 Ang^3
#
#
#
# Elastic Constant Matrix: (Units=GPa)
#
#
# Indices 1 2 3 4 5 6 
#
# 1 26.2477 24.8814 29.9835 0.0000 0.0000 0.0000
# 2 24.8814 143.0190 76.4736 0.0000 0.0000 0.0000
# 3 29.9835 76.4736 135.7239 0.0000 0.0000 0.0000
# 4 0.0000 0.0000 0.0000 28.6579 0.0000 0.0000
# 5 0.0000 0.0000 0.0000 0.0000 25.8965 0.0000
# 6 0.0000 0.0000 0.0000 0.0000 0.0000 13.1225
#
#
#
# Elastic Compliance Matrix: (Units=1/GPa)
#
#
# Indices 1 2 3 4 5 6 
#
# 1 0.052672 -0.004210 -0.009264 0.000000 0.000000 0.000000
# 2 -0.004210 0.010343 -0.004898 0.000000 0.000000 0.000000
# 3 -0.009264 -0.004898 0.012174 0.000000 0.000000 0.000000
# 4 0.000000 0.000000 0.000000 0.034894 0.000000 0.000000
# 5 0.000000 0.000000 0.000000 0.000000 0.038615 0.000000
# 6 0.000000 0.000000 0.000000 0.000000 0.000000 0.076205
#
#
# Mechanical properties :
#
#
# Convention : Reuss Voigt Hill
#
# Bulk Modulus (GPa) = 26.01062 63.07417 44.54239
# Shear Modulus (GPa) = 18.21736 25.11218 21.66477
#
# Velocity S-wave (km/s) = 3.20467 3.76255 3.49476
# Velocity P-wave (km/s) = 5.32508 7.37789 6.43388
#
# Compressibility (1/GPa) = 0.03844583
#
# Stress axis : x y z
#
# Youngs Moduli (GPa) = 18.98546 96.67915 82.14079
#
# Poissons Ratio (x) = 0.40701 0.76095
# Poissons Ratio (y) = 0.07993 0.40233
# Poissons Ratio (z) = 0.17588 0.47353
#
# Static dielectric constant tensor:
#      x y z
#    x 2.726550 0.000000 0.000000 
#    y 0.000000 3.781840 0.000000 
#    z 0.000000 0.000000 3.200450 
# 
# 
# High freq. dielectric constant tensor:
#      x y z
#    x 1.633130 0.000000 0.000000 
#    y 0.000000 1.700720 0.000000 
#    z 0.000000 0.000000 1.675390 
# 
# From -- ./inp_files/31582.got.cif
#   From: 2010.03.12/outbox.cif.g09.slc.cpg/sg51_16_cif.got.tgz:31582.got - 2010.04.16 13:43:02.
