data_PCOD8206233
_publ_section_title
;
Structure prediction by ZEFSAII (Michael W. Deem and Ramdas Pophale) SiO2 
 PCOD8206233
Probable space group: P M M A
;
_chemical_formula_sum "Si O2"
_cell_formula_units_Z 56
_cell_length_a 21.867021
_cell_length_b 9.278982
_cell_length_c 17.668508
_cell_angle_alpha 90.000000
_cell_angle_beta 90.000000
_cell_angle_gamma 90.000000
_cell_volume 3585.005545
_symmetry_space_group_name_H-M "P M M A"
_symmetry_group_IT_number 51
_symmetry_cell_setting 'orthorhombic'
loop_
_space_group_symop_operation_xyz
x,y,z
1/2-x,-y,z
1/2+x,-y,-z
-x,y,-z
-x,-y,-z
1/2+x,y,-z
1/2-x,y,z
x,-y,z
loop_
_atom_site_type_symbol
_atom_site_label
_atom_site_fract_x
_atom_site_fract_y
_atom_site_fract_z
Si Si1 0.416052 0.838227 0.564945
Si Si2 0.464206 0.332115 0.260191
Si Si3 0.558646 0.838323 0.598735
Si Si4 0.541977 0.170704 0.888496
Si Si5 0.914431 0.169589 0.046037
Si Si6 0.105190 0.668159 0.706572
Si Si7 0.820508 0.169303 0.168054
O O1 0.487518 0.835737 0.580717
O O2 0.404805 0.790692 0.477434
O O3 0.382660 0.728950 0.622101
O O4 0.390669 0.000000 0.578044
O O5 0.450550 0.500000 0.254638
O O6 0.427506 0.270723 0.332729
O O7 0.437037 0.253923 0.186433
O O8 0.536308 0.298540 0.266801
O O9 0.578314 0.000000 0.622392
O O10 0.474248 0.227194 0.910329
O O11 0.543947 0.000000 0.872697
O O12 0.586750 0.217936 0.957914
O O13 0.853962 0.220279 0.090596
O O14 0.921070 0.000000 0.045753
O O15 0.119467 0.500000 0.706035
O O16 0.152432 0.745825 0.761480
O O17 0.750000 0.209322 0.158339
O O18 0.830705 0.000000 0.182263
#
# Coordination Sequence:
#
# PCOD8206233 Si02
#       7
#     8   8   8   8   8   8   8
#     4   8  14  25  40  56  76 105 142 174 197 234
#     4  10  18  25  36  59  87 112 139 170 205 248
#     4   8  14  24  38  56  78 108 140 168 200 236
#     4   9  15  26  44  59  78 108 139 173 208 255
#     4   8  15  27  43  62  78 101 139 175 213 254
#     4  10  19  28  39  57  83 113 140 169 209 251
#     4  10  19  31  47  63  80 105 141 182 215 247
#
# _framework density 15.620618
#
# number of rings (size 3 to 8) (size 9 to 14) (size 15 to 20)
#    0.000    3.000    1.429    2.571    0.000    2.000 
#    0.000    5.000    0.000    0.000    0.000    0.000 
#    0.000    1.143    0.000    8.857    0.000    2.286 
#
# Total GULP energy -694007.491592 kJ/mol
# GULP energy per Si atom -12392.990921 kJ/mol
# Density = 1.558506 g / cm^3
# Si number density = 15.620618 Si / 1000 Ang^3
#
#
#
# Elastic Constant Matrix: (Units=GPa)
#
#
# Indices 1 2 3 4 5 6 
#
# 1 48.5150 27.6662 43.0754 0.0000 0.0000 0.0000
# 2 27.6662 71.0254 68.0498 0.0000 0.0000 0.0000
# 3 43.0754 68.0498 161.7458 0.0000 0.0000 0.0000
# 4 0.0000 0.0000 0.0000 8.6648 0.0000 0.0000
# 5 0.0000 0.0000 0.0000 0.0000 14.4587 0.0000
# 6 0.0000 0.0000 0.0000 0.0000 0.0000 10.9527
#
#
#
# Elastic Compliance Matrix: (Units=1/GPa)
#
#
# Indices 1 2 3 4 5 6 
#
# 1 0.028657 -0.006451 -0.004918 0.000000 0.000000 0.000000
# 2 -0.006451 0.025040 -0.008817 0.000000 0.000000 0.000000
# 3 -0.004918 -0.008817 0.011202 0.000000 0.000000 0.000000
# 4 0.000000 0.000000 0.000000 0.115409 0.000000 0.000000
# 5 0.000000 0.000000 0.000000 0.000000 0.069162 0.000000
# 6 0.000000 0.000000 0.000000 0.000000 0.000000 0.091302
#
#
# Mechanical properties :
#
#
# Convention : Reuss Voigt Hill
#
# Bulk Modulus (GPa) = 40.77045 62.09655 51.43350
# Shear Modulus (GPa) = 12.84295 16.31491 14.57893
#
# Velocity S-wave (km/s) = 2.87048 3.23530 3.05833
# Velocity P-wave (km/s) = 6.09453 7.33454 6.74310
#
# Compressibility (1/GPa) = 0.02452757
#
# Stress axis : x y z
#
# Youngs Moduli (GPa) = 34.89509 39.93675 89.27301
#
# Poissons Ratio (x) = 0.25763 0.43903
# Poissons Ratio (y) = 0.22511 0.78709
# Poissons Ratio (z) = 0.17161 0.35211
#
# Static dielectric constant tensor:
#      x y z
#    x 2.548120 0.000000 0.000000 
#    y 0.000000 2.862820 0.000000 
#    z 0.000000 0.000000 3.413670 
# 
# 
# High freq. dielectric constant tensor:
#      x y z
#    x 1.528880 0.000000 0.000000 
#    y 0.000000 1.588050 0.000000 
#    z 0.000000 0.000000 1.616670 
# 
# From -- ./inp_files/30749.got.cif
#   From: 2010.03.12/outbox.cif.g09.slc.cpg/sg51_16_cif.got.tgz:30749.got - 2010.04.16 13:43:02.
