data_PCOD8206034
_publ_section_title
;
Structure prediction by ZEFSAII (Michael W. Deem and Ramdas Pophale) SiO2 
 PCOD8206034
Probable space group: P M M A
;
_chemical_formula_sum "Si O2"
_cell_formula_units_Z 56
_cell_length_a 22.360813
_cell_length_b 9.261110
_cell_length_c 17.456225
_cell_angle_alpha 90.000000
_cell_angle_beta 90.000000
_cell_angle_gamma 90.000000
_cell_volume 3614.938918
_symmetry_space_group_name_H-M "P M M A"
_symmetry_group_IT_number 51
_symmetry_cell_setting 'orthorhombic'
loop_
_space_group_symop_operation_xyz
x,y,z
1/2-x,-y,z
1/2+x,-y,-z
-x,y,-z
-x,-y,-z
1/2+x,y,-z
1/2-x,y,z
x,-y,z
loop_
_atom_site_type_symbol
_atom_site_label
_atom_site_fract_x
_atom_site_fract_y
_atom_site_fract_z
Si Si1 0.093340 0.667920 0.369364
Si Si2 0.467961 0.164506 0.837334
Si Si3 0.067054 0.340024 0.531537
Si Si4 0.680765 0.666748 0.763621
Si Si5 0.931617 0.336762 0.025186
Si Si6 0.601896 0.169392 0.882371
Si Si7 0.974285 0.166602 0.334917
O O1 0.074494 0.500000 0.365221
O O2 0.107728 0.708372 0.458589
O O3 0.151379 0.701592 0.318701
O O4 0.038433 0.758494 0.336750
O O5 0.426951 0.265578 0.890682
O O6 0.537972 0.204265 0.844332
O O7 0.447165 0.187398 0.749902
O O8 0.458404 0.000000 0.864230
O O9 0.085024 0.500000 0.559758
O O10 0.072601 0.233124 0.603872
O O11 0.000000 0.337536 0.500000
O O12 0.750000 0.704642 0.755744
O O13 0.670058 0.500000 0.786201
O O14 0.653182 0.766719 0.828835
O O15 0.907126 0.500000 0.028836
O O16 0.892532 0.245392 0.965191
O O17 0.000000 0.332286 0.000000
O O18 0.612602 0.000000 0.892950
O O19 0.983686 0.000000 0.355040
#
# Coordination Sequence:
#
# PCOD8206034 Si02
#       7
#     8   8   8   8   8   8   8
#     4   9  17  29  42  55  79 111 141 175 214 252
#     4   9  17  27  39  59  86 113 139 168 207 253
#     4   8  15  26  38  55  78 108 140 168 206 254
#     4  10  20  32  46  63  82 109 148 188 218 246
#     4   9  17  27  41  61  81 107 142 173 205 250
#     4  10  18  30  44  58  82 113 141 174 215 255
#     4  10  17  25  39  61  85 110 140 171 205 249
#
# _framework density 15.491272
#
# number of rings (size 3 to 8) (size 9 to 14) (size 15 to 20)
#    0.000    2.714    1.429    2.143    0.000    6.286 
#    0.000    0.000    0.000    0.000    0.000    0.000 
#    0.000    1.143    0.000   10.571    0.000    2.857 
#
# Total GULP energy -694208.834769 kJ/mol
# GULP energy per Si atom -12396.586335 kJ/mol
# Density = 1.545601 g / cm^3
# Si number density = 15.491272 Si / 1000 Ang^3
#
#
#
# Elastic Constant Matrix: (Units=GPa)
#
#
# Indices 1 2 3 4 5 6 
#
# 1 44.4196 32.6269 42.8180 0.0000 0.0000 0.0000
# 2 32.6269 98.2902 71.3993 0.0000 0.0000 0.0000
# 3 42.8180 71.3993 131.6628 0.0000 0.0000 0.0000
# 4 0.0000 0.0000 0.0000 31.3690 0.0000 0.0000
# 5 0.0000 0.0000 0.0000 0.0000 16.1454 0.0000
# 6 0.0000 0.0000 0.0000 0.0000 0.0000 13.6379
#
#
#
# Elastic Compliance Matrix: (Units=1/GPa)
#
#
# Indices 1 2 3 4 5 6 
#
# 1 0.034472 -0.005444 -0.008259 0.000000 0.000000 0.000000
# 2 -0.005444 0.017646 -0.007799 0.000000 0.000000 0.000000
# 3 -0.008259 -0.007799 0.014510 0.000000 0.000000 0.000000
# 4 0.000000 0.000000 0.000000 0.031879 0.000000 0.000000
# 5 0.000000 0.000000 0.000000 0.000000 0.061937 0.000000
# 6 0.000000 0.000000 0.000000 0.000000 0.000000 0.073325
#
#
# Mechanical properties :
#
#
# Convention : Reuss Voigt Hill
#
# Bulk Modulus (GPa) = 42.32648 63.11791 52.72219
# Shear Modulus (GPa) = 17.56563 20.73236 19.14899
#
# Velocity S-wave (km/s) = 3.37100 3.66228 3.51966
# Velocity P-wave (km/s) = 6.52178 7.66262 7.11510
#
# Compressibility (1/GPa) = 0.02362587
#
# Stress axis : x y z
#
# Youngs Moduli (GPa) = 29.00923 56.66914 68.91663
#
# Poissons Ratio (x) = 0.30848 0.56915
# Poissons Ratio (y) = 0.15791 0.53749
# Poissons Ratio (z) = 0.23957 0.44197
#
# Static dielectric constant tensor:
#      x y z
#    x 2.469930 0.000000 0.000000 
#    y 0.000000 3.063530 0.000000 
#    z 0.000000 0.000000 3.282940 
# 
# 
# High freq. dielectric constant tensor:
#      x y z
#    x 1.520360 0.000000 0.000000 
#    y 0.000000 1.604320 0.000000 
#    z 0.000000 0.000000 1.607700 
# 
# From -- ./inp_files/30351.got.cif
#   From: 2010.03.12/outbox.cif.g09.slc.cpg/sg51_16_cif.got.tgz:30351.got - 2010.04.16 13:43:02.
