data_PCOD8206731
_publ_section_title
;
Structure prediction by ZEFSAII (Michael W. Deem and Ramdas Pophale) SiO2 
 PCOD8206731
Probable space group: P M M A
;
_chemical_formula_sum "Si O2"
_cell_formula_units_Z 52
_cell_length_a 15.210009
_cell_length_b 11.551606
_cell_length_c 16.999729
_cell_angle_alpha 90.000000
_cell_angle_beta 90.000000
_cell_angle_gamma 90.000000
_cell_volume 2986.852916
_symmetry_space_group_name_H-M "P M M A"
_symmetry_group_IT_number 51
_symmetry_cell_setting 'orthorhombic'
loop_
_space_group_symop_operation_xyz
x,y,z
1/2-x,-y,z
1/2+x,-y,-z
-x,y,-z
-x,-y,-z
1/2+x,y,-z
1/2-x,y,z
x,-y,z
loop_
_atom_site_type_symbol
_atom_site_label
_atom_site_fract_x
_atom_site_fract_y
_atom_site_fract_z
Si Si1 0.345401 0.000000 0.438030
Si Si2 0.844598 0.000000 0.215785
Si Si3 0.020049 0.803789 0.412329
Si Si4 0.494489 0.636948 0.272340
Si Si5 0.151416 0.637693 0.149505
Si Si6 0.885824 0.000000 0.386786
Si Si7 0.853608 0.627355 0.023039
Si Si8 0.855552 0.249369 0.179992
O O1 0.392962 0.882783 0.411226
O O2 0.332585 0.000000 0.532374
O O3 0.250000 0.000000 0.398207
O O4 0.826491 0.000000 0.309537
O O5 0.892170 0.117892 0.188619
O O6 0.750000 0.000000 0.173719
O O7 0.028577 0.693457 0.356140
O O8 0.000000 0.757887 0.500000
O O9 0.942552 0.884120 0.381495
O O10 0.490917 0.500000 0.283533
O O11 0.419524 0.682715 0.212281
O O12 0.591789 0.671660 0.242279
O O13 0.250000 0.685634 0.168854
O O14 0.155045 0.500000 0.149142
O O15 0.119016 0.678303 0.062363
O O16 0.750000 0.612758 0.023613
O O17 0.896196 0.500000 0.037739
O O18 0.883164 0.712352 0.092466
O O19 0.750000 0.260351 0.196393
#
# Coordination Sequence:
#
# PCOD8206731 Si02
#       8
#     4   4   8   8   8   4   8   8
#     4   9  18  32  57  81  94 119 165 217 260 294
#     4  10  18  29  50  73  94 127 163 201 247 294
#     4   9  19  34  51  73 102 131 162 204 253 299
#     4  11  21  32  51  75 102 139 171 203 251 302
#     4   8  16  31  50  72  96 128 173 214 244 283
#     4   9  15  33  54  71  95 122 158 211 248 287
#     4   8  14  28  49  71  98 127 158 206 256 292
#     4  10  20  32  49  74 101 130 165 207 254 306
#
# _framework density 17.409628000000001
#
# number of rings (size 3 to 8) (size 9 to 14) (size 15 to 20)
#    0.000    2.769    1.538    2.538    0.000    2.462 
#    0.000    2.308    0.000    3.692    0.000    6.462 
#    0.000    0.000    0.000    0.000    0.000    0.000 
#
# Total GULP energy -644340.739282 kJ/mol
# GULP energy per Si atom -12391.168063 kJ/mol
# Density = 1.737000 g / cm^3
# Si number density = 17.409628 Si / 1000 Ang^3
#
#
#
# Elastic Constant Matrix: (Units=GPa)
#
#
# Indices 1 2 3 4 5 6 
#
# 1 80.5634 32.6801 38.8863 0.0000 0.0000 0.0000
# 2 32.6801 97.9726 64.0183 0.0000 0.0000 0.0000
# 3 38.8863 64.0183 127.3551 0.0000 0.0000 0.0000
# 4 0.0000 0.0000 0.0000 23.1613 0.0000 0.0000
# 5 0.0000 0.0000 0.0000 0.0000 19.8320 0.0000
# 6 0.0000 0.0000 0.0000 0.0000 0.0000 11.1640
#
#
#
# Elastic Compliance Matrix: (Units=1/GPa)
#
#
# Indices 1 2 3 4 5 6 
#
# 1 0.015136 -0.003021 -0.003103 0.000000 0.000000 0.000000
# 2 -0.003021 0.015802 -0.007021 0.000000 0.000000 0.000000
# 3 -0.003103 -0.007021 0.012329 0.000000 0.000000 0.000000
# 4 0.000000 0.000000 0.000000 0.043176 0.000000 0.000000
# 5 0.000000 0.000000 0.000000 0.000000 0.050423 0.000000
# 6 0.000000 0.000000 0.000000 0.000000 0.000000 0.089573
#
#
# Mechanical properties :
#
#
# Convention : Reuss Voigt Hill
#
# Bulk Modulus (GPa) = 58.90381 64.11785 61.51083
# Shear Modulus (GPa) = 19.35071 22.18523 20.76797
#
# Velocity S-wave (km/s) = 3.33753 3.57362 3.45759
# Velocity P-wave (km/s) = 6.98281 7.34415 7.16576
#
# Compressibility (1/GPa) = 0.01697683
#
# Stress axis : x y z
#
# Youngs Moduli (GPa) = 66.06847 63.28132 81.11123
#
# Poissons Ratio (x) = 0.19119 0.25167
# Poissons Ratio (y) = 0.19961 0.56948
# Poissons Ratio (z) = 0.20500 0.44430
#
# Static dielectric constant tensor:
#      x y z
#    x 3.172030 0.000000 0.000000 
#    y 0.000000 3.109550 0.000000 
#    z 0.000000 0.000000 3.371020 
# 
# 
# High freq. dielectric constant tensor:
#      x y z
#    x 1.664510 0.000000 0.000000 
#    y 0.000000 1.647220 0.000000 
#    z 0.000000 0.000000 1.672270 
# 
# From -- ./inp_files/29789.got.cif
#   From: 2010.03.12/outbox.cif.g09.slc.cpg/sg51_15_cif.got.tgz:29789.got - 2010.04.16 13:43:02.
