data_PCOD8206607
_publ_section_title
;
Structure prediction by ZEFSAII (Michael W. Deem and Ramdas Pophale) SiO2 
 PCOD8206607
Probable space group: P M M A
;
_chemical_formula_sum "Si O2"
_cell_formula_units_Z 52
_cell_length_a 8.759250
_cell_length_b 26.467997
_cell_length_c 13.679891
_cell_angle_alpha 90.000000
_cell_angle_beta 90.000000
_cell_angle_gamma 90.000000
_cell_volume 3171.543231
_symmetry_space_group_name_H-M "P M M A"
_symmetry_group_IT_number 51
_symmetry_cell_setting 'orthorhombic'
loop_
_space_group_symop_operation_xyz
x,y,z
1/2-x,-y,z
1/2+x,-y,-z
-x,y,-z
-x,-y,-z
1/2+x,y,-z
1/2-x,y,z
x,-y,z
loop_
_atom_site_type_symbol
_atom_site_label
_atom_site_fract_x
_atom_site_fract_y
_atom_site_fract_z
Si Si1 0.568622 0.798620 0.282470
Si Si2 0.930493 0.890331 0.608104
Si Si3 0.928590 0.442134 0.896162
Si Si4 0.925486 0.000000 0.603119
Si Si5 0.926779 0.702213 0.398757
Si Si6 0.431441 0.743386 0.104148
Si Si7 0.929511 0.648263 0.204308
O O1 0.750000 0.797991 0.268311
O O2 0.511100 0.852760 0.317200
O O3 0.516022 0.757117 0.362546
O O4 0.490994 0.785406 0.179729
O O5 0.750000 0.879430 0.602573
O O6 0.966946 0.946423 0.654370
O O7 0.000000 0.884124 0.500000
O O8 0.750000 0.430868 0.900544
O O9 0.963122 0.500000 0.868251
O O10 0.008146 0.407817 0.814371
O O11 0.000000 0.428035 0.000000
O O12 0.000000 0.000000 0.500000
O O13 0.750000 0.000000 0.579307
O O14 0.750000 0.704808 0.418677
O O15 0.967810 0.660761 0.316846
O O16 0.000000 0.685660 0.500000
O O17 0.250000 0.744105 0.100279
O O18 0.487482 0.687545 0.133016
O O19 0.500000 0.758345 0.000000
O O20 0.750000 0.651956 0.183682
#
# Coordination Sequence:
#
# PCOD8206607 Si02
#       7
#     8   8   8   4   8   8   8
#     4  10  20  33  47  69  97 125 159 197 236 283
#     4  10  18  29  45  67  95 129 163 199 240 282
#     4  10  20  33  50  73  98 124 155 192 235 282
#     4   8  16  28  42  62  91 124 161 198 236 282
#     4   9  19  32  47  67  93 123 155 191 230 272
#     4  11  21  34  51  71  96 126 157 192 234 280
#     4  10  20  34  50  71  98 127 158 192 232 278
#
# _framework density 16.395803999999998
#
# number of rings (size 3 to 8) (size 9 to 14) (size 15 to 20)
#    0.000    2.154    0.000    5.077    0.000    6.462 
#    0.000    0.000    0.000    0.462    0.000    0.538 
#    0.000    0.000    0.000    0.000    0.000    0.000 
#
# Total GULP energy -644662.260212 kJ/mol
# GULP energy per Si atom -12397.351158 kJ/mol
# Density = 1.635849 g / cm^3
# Si number density = 16.395804 Si / 1000 Ang^3
#
#
#
# Elastic Constant Matrix: (Units=GPa)
#
#
# Indices 1 2 3 4 5 6 
#
# 1 99.3983 52.7387 53.1395 0.0000 0.0000 0.0000
# 2 52.7387 121.7782 61.9976 0.0000 0.0000 0.0000
# 3 53.1395 61.9976 112.2132 0.0000 0.0000 0.0000
# 4 0.0000 0.0000 0.0000 20.8678 0.0000 0.0000
# 5 0.0000 0.0000 0.0000 0.0000 29.9694 0.0000
# 6 0.0000 0.0000 0.0000 0.0000 0.0000 27.5042
#
#
#
# Elastic Compliance Matrix: (Units=1/GPa)
#
#
# Indices 1 2 3 4 5 6 
#
# 1 0.014708 -0.003929 -0.004795 0.000000 0.000000 0.000000
# 2 -0.003929 0.012475 -0.005032 0.000000 0.000000 0.000000
# 3 -0.004795 -0.005032 0.013962 0.000000 0.000000 0.000000
# 4 0.000000 0.000000 0.000000 0.047921 0.000000 0.000000
# 5 0.000000 0.000000 0.000000 0.000000 0.033367 0.000000
# 6 0.000000 0.000000 0.000000 0.000000 0.000000 0.036358
#
#
# Mechanical properties :
#
#
# Convention : Reuss Voigt Hill
#
# Bulk Modulus (GPa) = 73.34107 74.34905 73.84506
# Shear Modulus (GPa) = 26.19904 26.70256 26.45080
#
# Velocity S-wave (km/s) = 4.00172 4.04000 4.02091
# Velocity P-wave (km/s) = 8.13514 8.19798 8.16662
#
# Compressibility (1/GPa) = 0.01363493
#
# Stress axis : x y z
#
# Youngs Moduli (GPa) = 67.98874 80.16160 71.62208
#
# Poissons Ratio (x) = 0.31494 0.34340
# Poissons Ratio (y) = 0.26712 0.36039
# Poissons Ratio (z) = 0.32598 0.40336
#
# Static dielectric constant tensor:
#      x y z
#    x 3.215540 0.000000 0.000000 
#    y 0.000000 3.257610 0.000000 
#    z 0.000000 0.000000 2.984930 
# 
# 
# High freq. dielectric constant tensor:
#      x y z
#    x 1.649000 0.000000 0.000000 
#    y 0.000000 1.629040 0.000000 
#    z 0.000000 0.000000 1.608230 
# 
# From -- ./inp_files/14637.got.cif
#   From: 2010.03.12/outbox.cif.g09.slc.cpg/sg51_8_cif.got.tgz:14637.got - 2010.04.16 13:43:02.
