data_PCOD8206026
_publ_section_title
;
Structure prediction by ZEFSAII (Michael W. Deem and Ramdas Pophale) SiO2 
 PCOD8206026
Probable space group: P M M A
;
_chemical_formula_sum "Si O2"
_cell_formula_units_Z 64
_cell_length_a 22.925587
_cell_length_b 8.947653
_cell_length_c 20.171844
_cell_angle_alpha 90.000000
_cell_angle_beta 90.000000
_cell_angle_gamma 90.000000
_cell_volume 4137.854340
_symmetry_space_group_name_H-M "P M M A"
_symmetry_group_IT_number 51
_symmetry_cell_setting 'orthorhombic'
loop_
_space_group_symop_operation_xyz
x,y,z
1/2-x,-y,z
1/2+x,-y,-z
-x,y,-z
-x,-y,-z
1/2+x,y,-z
1/2-x,y,z
x,-y,z
loop_
_atom_site_type_symbol
_atom_site_label
_atom_site_fract_x
_atom_site_fract_y
_atom_site_fract_z
Si Si1 0.434084 0.330796 0.524477
Si Si2 0.018248 0.671243 0.781030
Si Si3 0.817829 0.172786 0.717380
Si Si4 0.470813 0.825434 0.649010
Si Si5 0.610337 0.324059 0.827514
Si Si6 0.954843 0.674653 0.076010
Si Si7 0.098252 0.825806 0.398955
Si Si8 0.921823 0.178041 0.954609
O O1 0.500000 0.315308 0.500000
O O2 0.414308 0.500000 0.534419
O O3 0.427821 0.248209 0.594969
O O4 0.392553 0.257542 0.468927
O O5 0.017995 0.500000 0.757805
O O6 0.045465 0.769438 0.722366
O O7 0.059523 0.693653 0.845890
O O8 0.952150 0.722531 0.797047
O O9 0.750000 0.201054 0.706045
O O10 0.838892 0.273508 0.778188
O O11 0.850055 0.222713 0.650075
O O12 0.832067 0.000000 0.733323
O O13 0.537519 0.778460 0.635104
O O14 0.460921 0.000000 0.645047
O O15 0.613570 0.500000 0.840462
O O16 0.621372 0.239429 0.897593
O O17 0.962645 0.500000 0.058785
O O18 0.014551 0.762259 0.063553
O O19 0.906414 0.750905 0.027508
O O20 0.098906 0.000000 0.414812
O O21 0.919222 0.000000 0.957915
#
# Coordination Sequence:
#
# PCOD8206026 Si02
#       8
#     8   8   8   8   8   8   8   8
#     4   9  17  27  40  57  77 102 132 167 204 246
#     4   9  17  26  38  56  80 109 137 168 202 241
#     4  10  20  33  47  63  83 107 138 178 219 255
#     4  10  17  25  40  59  80 106 136 170 204 245
#     4  10  19  30  43  57  77 106 139 175 212 249
#     4   9  16  26  37  54  79 106 135 167 202 238
#     4   9  17  29  42  58  78 103 134 170 209 249
#     4  10  17  25  39  56  75 101 136 172 205 242
#
# _framework density 15.466953
#
# number of rings (size 3 to 8) (size 9 to 14) (size 15 to 20)
#    0.000    2.500    1.250    4.125    0.000    5.250 
#    0.000    0.000    0.000    0.000    0.000    0.000 
#    0.000    0.000    0.000    1.125    0.000   18.250 
#
# Total GULP energy -793321.963127 kJ/mol
# GULP energy per Si atom -12395.655674 kJ/mol
# Density = 1.543175 g / cm^3
# Si number density = 15.466953 Si / 1000 Ang^3
#
#
#
# Elastic Constant Matrix: (Units=GPa)
#
#
# Indices 1 2 3 4 5 6 
#
# 1 31.6747 20.3885 33.8708 0.0000 0.0000 0.0000
# 2 20.3885 91.4648 66.9420 0.0000 0.0000 0.0000
# 3 33.8708 66.9420 145.6343 0.0000 0.0000 0.0000
# 4 0.0000 0.0000 0.0000 34.0557 0.0000 0.0000
# 5 0.0000 0.0000 0.0000 0.0000 13.2469 0.0000
# 6 0.0000 0.0000 0.0000 0.0000 0.0000 11.0537
#
#
#
# Elastic Compliance Matrix: (Units=1/GPa)
#
#
# Indices 1 2 3 4 5 6 
#
# 1 0.042708 -0.003391 -0.008374 0.000000 0.000000 0.000000
# 2 -0.003391 0.016745 -0.006908 0.000000 0.000000 0.000000
# 3 -0.008374 -0.006908 0.011990 0.000000 0.000000 0.000000
# 4 0.000000 0.000000 0.000000 0.029364 0.000000 0.000000
# 5 0.000000 0.000000 0.000000 0.000000 0.075490 0.000000
# 6 0.000000 0.000000 0.000000 0.000000 0.000000 0.090467
#
#
# Mechanical properties :
#
#
# Convention : Reuss Voigt Hill
#
# Bulk Modulus (GPa) = 29.32909 56.79738 43.06324
# Shear Modulus (GPa) = 15.84903 21.50942 18.67923
#
# Velocity S-wave (km/s) = 3.20457 3.73321 3.47895
# Velocity P-wave (km/s) = 5.71804 7.44204 6.63626
#
# Compressibility (1/GPa) = 0.03409584
#
# Stress axis : x y z
#
# Youngs Moduli (GPa) = 23.41456 59.71835 83.40573
#
# Poissons Ratio (x) = 0.20253 0.69844
# Poissons Ratio (y) = 0.07941 0.57620
# Poissons Ratio (z) = 0.19607 0.41256
#
# Static dielectric constant tensor:
#      x y z
#    x 2.405310 0.000000 0.000000 
#    y 0.000000 2.985730 0.000000 
#    z 0.000000 0.000000 3.476710 
# 
# 
# High freq. dielectric constant tensor:
#      x y z
#    x 1.506060 0.000000 0.000000 
#    y 0.000000 1.606080 0.000000 
#    z 0.000000 0.000000 1.612160 
# 
# From -- ./inp_files/34216.got.cif
#   From: 2010.03.12/outbox.cif.g09.slc.cpg/sg51_18_cif.got.tgz:34216.got - 2010.04.16 13:43:02.
