data_PCOD8206081
_publ_section_title
;
Structure prediction by ZEFSAII (Michael W. Deem and Ramdas Pophale) SiO2 
 PCOD8206081
Probable space group: P M M A
;
_chemical_formula_sum "Si O2"
_cell_formula_units_Z 48
_cell_length_a 8.918836
_cell_length_b 19.213181
_cell_length_c 15.583695
_cell_angle_alpha 90.000000
_cell_angle_beta 90.000000
_cell_angle_gamma 90.000000
_cell_volume 2670.409670
_symmetry_space_group_name_H-M "P M M A"
_symmetry_group_IT_number 51
_symmetry_cell_setting 'orthorhombic'
loop_
_space_group_symop_operation_xyz
x,y,z
1/2-x,-y,z
1/2+x,-y,-z
-x,y,-z
-x,-y,-z
1/2+x,y,-z
1/2-x,y,z
x,-y,z
loop_
_atom_site_type_symbol
_atom_site_label
_atom_site_fract_x
_atom_site_fract_y
_atom_site_fract_z
Si Si1 0.575329 0.173593 0.080178
Si Si2 0.072398 0.676473 0.084103
Si Si3 0.925861 0.672130 0.255327
Si Si4 0.574307 0.920802 0.586703
Si Si5 0.426311 0.579244 0.587220
Si Si6 0.420958 0.833649 0.730266
O O1 0.750000 0.189279 0.061941
O O2 0.482072 0.244284 0.085059
O O3 0.557840 0.136148 0.172545
O O4 0.500000 0.130531 0.000000
O O5 0.250000 0.670786 0.079543
O O6 0.012334 0.642208 0.172065
O O7 0.000000 0.639156 0.000000
O O8 0.750000 0.662705 0.238423
O O9 0.983653 0.627308 0.335500
O O10 0.964756 0.752569 0.273188
O O11 0.500000 0.890974 0.500000
O O12 0.750000 0.915852 0.574375
O O13 0.528877 0.875414 0.668083
O O14 0.520922 0.000000 0.602563
O O15 0.500000 0.607150 0.500000
O O16 0.250000 0.585628 0.576229
O O17 0.476011 0.500000 0.605940
O O18 0.250000 0.844313 0.700196
#
# Coordination Sequence:
#
# PCOD8206081 Si02
#       6
#     8   8   8   8   8   8
#     4   9  16  27  44  68  98 129 159 192 232 277
#     4  10  17  26  43  67  95 127 160 194 235 281
#     4   9  18  32  48  71 101 127 157 197 239 280
#     4  10  21  36  53  71  92 122 159 197 237 285
#     4   9  18  33  52  71  94 127 162 196 236 283
#     4   9  18  31  48  72 100 127 155 194 239 279
#
# _framework density 17.974771
#
# number of rings (size 3 to 8) (size 9 to 14) (size 15 to 20)
#    0.000    2.667    0.000    4.500    0.000    5.667 
#    0.000    1.667    0.000    1.000    0.000    0.000 
#    0.000    0.000    0.000    0.000    0.000    0.000 
#
# Total GULP energy -594951.871627 kJ/mol
# GULP energy per Si atom -12394.830659 kJ/mol
# Density = 1.793386 g / cm^3
# Si number density = 17.974771 Si / 1000 Ang^3
#
#
#
# Elastic Constant Matrix: (Units=GPa)
#
#
# Indices 1 2 3 4 5 6 
#
# 1 90.1113 26.8516 69.7987 0.0000 0.0000 0.0000
# 2 26.8516 41.4109 53.5769 0.0000 0.0000 0.0000
# 3 69.7987 53.5769 183.1565 0.0000 0.0000 0.0000
# 4 0.0000 0.0000 0.0000 0.1486 0.0000 0.0000
# 5 0.0000 0.0000 0.0000 0.0000 40.4914 0.0000
# 6 0.0000 0.0000 0.0000 0.0000 0.0000 17.7225
#
#
#
# Elastic Compliance Matrix: (Units=1/GPa)
#
#
# Indices 1 2 3 4 5 6 
#
# 1 0.016154 -0.004038 -0.004975 0.000000 0.000000 0.000000
# 2 -0.004038 0.039862 -0.010121 0.000000 0.000000 0.000000
# 3 -0.004975 -0.010121 0.010316 0.000000 0.000000 0.000000
# 4 0.000000 0.000000 0.000000 6.727930 0.000000 0.000000
# 5 0.000000 0.000000 0.000000 0.000000 0.024697 0.000000
# 6 0.000000 0.000000 0.000000 0.000000 0.000000 0.056425
#
#
# Mechanical properties :
#
#
# Convention : Reuss Voigt Hill
#
# Bulk Modulus (GPa) = 35.63384 68.34812 51.99098
# Shear Modulus (GPa) = 0.72223 22.63594 11.67909
#
# Velocity S-wave (km/s) = 0.63457 3.55254 2.55178
# Velocity P-wave (km/s) = 4.51711 7.41177 6.13754
#
# Compressibility (1/GPa) = 0.02806321
#
# Stress axis : x y z
#
# Youngs Moduli (GPa) = 61.90344 25.08673 96.93294
#
# Poissons Ratio (x) = 0.10131 0.48223
# Poissons Ratio (y) = 0.24998 0.98110
# Poissons Ratio (z) = 0.30796 0.25391
#
# Static dielectric constant tensor:
#      x y z
#    x 3.333720 0.000000 0.000000 
#    y 0.000000 2.948260 0.000000 
#    z 0.000000 0.000000 4.035740 
# 
# 
# High freq. dielectric constant tensor:
#      x y z
#    x 1.699570 0.000000 0.000000 
#    y 0.000000 1.639330 0.000000 
#    z 0.000000 0.000000 1.720890 
# 
# From -- ./inp_files/21130.got.cif
#   From: 2010.03.12/outbox.cif.g09.slc.cpg/sg51_11_cif.got.tgz:21130.got - 2010.04.16 13:43:02.
