data_PCOD8206965
_publ_section_title
;
Structure prediction by ZEFSAII (Michael W. Deem and Ramdas Pophale) SiO2 
 PCOD8206965
Probable space group: P M M A
;
_chemical_formula_sum "Si O2"
_cell_formula_units_Z 40
_cell_length_a 8.945243
_cell_length_b 12.533025
_cell_length_c 19.621178
_cell_angle_alpha 90.000000
_cell_angle_beta 90.000000
_cell_angle_gamma 90.000000
_cell_volume 2199.748987
_symmetry_space_group_name_H-M "P M M A"
_symmetry_group_IT_number 51
_symmetry_cell_setting 'orthorhombic'
loop_
_space_group_symop_operation_xyz
x,y,z
1/2-x,-y,z
1/2+x,-y,-z
-x,y,-z
-x,-y,-z
1/2+x,y,-z
1/2-x,y,z
x,-y,z
loop_
_atom_site_type_symbol
_atom_site_label
_atom_site_fract_x
_atom_site_fract_y
_atom_site_fract_z
Si Si1 0.082102 0.730518 0.670941
Si Si2 0.076042 0.124507 0.069938
Si Si3 0.075731 0.284374 0.831244
Si Si4 0.574349 0.500000 0.826376
Si Si5 0.424717 0.878854 0.431300
Si Si6 0.080369 0.500000 0.687484
O O1 0.250000 0.770826 0.656307
O O2 0.047426 0.731359 0.751044
O O3 0.061383 0.608257 0.643422
O O4 0.968407 0.807625 0.633071
O O5 0.250000 0.152701 0.066237
O O6 0.000422 0.184666 0.132506
O O7 0.048041 0.000000 0.082673
O O8 0.000000 0.162371 0.000000
O O9 0.250000 0.288116 0.848981
O O10 0.999988 0.393710 0.858263
O O11 0.750000 0.500000 0.841433
O O12 0.543733 0.500000 0.745883
O O13 0.500000 0.834247 0.500000
O O14 0.250000 0.871804 0.442146
O O15 0.477333 0.000000 0.417124
O O16 0.250000 0.500000 0.720222
#
# Coordination Sequence:
#
# PCOD8206965 Si02
#       6
#     8   8   8   4   8   4
#     4   9  18  33  54  78 104 134 169 209 252 302
#     4  10  21  37  56  78 106 140 177 217 262 312
#     4  10  20  35  55  79 108 141 176 214 258 309
#     4  10  18  30  51  78 107 138 173 214 261 308
#     4  10  21  36  53  73 100 134 171 212 258 307
#     4   8  16  32  51  74 105 138 168 204 255 308
#
# _framework density 18.183893999999999
#
# number of rings (size 3 to 8) (size 9 to 14) (size 15 to 20)
#    0.000    2.400    0.000    3.900    0.000    7.200 
#    0.000    5.000    0.000    0.000    0.000    0.000 
#    0.000    0.000    0.000    0.000    0.000    0.000 
#
# Total GULP energy -495966.803000 kJ/mol
# GULP energy per Si atom -12399.170075 kJ/mol
# Density = 1.814251 g / cm^3
# Si number density = 18.183894 Si / 1000 Ang^3
#
#
#
# Elastic Constant Matrix: (Units=GPa)
#
#
# Indices 1 2 3 4 5 6 
#
# 1 115.5668 57.5784 43.3386 0.0000 0.0000 0.0000
# 2 57.5784 100.5408 52.5593 0.0000 0.0000 0.0000
# 3 43.3386 52.5593 64.3414 0.0000 0.0000 0.0000
# 4 0.0000 0.0000 0.0000 8.7035 0.0000 0.0000
# 5 0.0000 0.0000 0.0000 0.0000 33.2549 0.0000
# 6 0.0000 0.0000 0.0000 0.0000 0.0000 35.0476
#
#
#
# Elastic Compliance Matrix: (Units=1/GPa)
#
#
# Indices 1 2 3 4 5 6 
#
# 1 0.012847 -0.004946 -0.004614 0.000000 0.000000 0.000000
# 2 -0.004946 0.019263 -0.012404 0.000000 0.000000 0.000000
# 3 -0.004614 -0.012404 0.028783 0.000000 0.000000 0.000000
# 4 0.000000 0.000000 0.000000 0.114896 0.000000 0.000000
# 5 0.000000 0.000000 0.000000 0.000000 0.030071 0.000000
# 6 0.000000 0.000000 0.000000 0.000000 0.000000 0.028533
#
#
# Mechanical properties :
#
#
# Convention : Reuss Voigt Hill
#
# Bulk Modulus (GPa) = 58.94244 65.26686 62.10465
# Shear Modulus (GPa) = 17.60722 23.86605 20.73663
#
# Velocity S-wave (km/s) = 3.11511 3.62675 3.38062
# Velocity P-wave (km/s) = 6.73970 7.31494 7.03320
#
# Compressibility (1/GPa) = 0.01696570
#
# Stress axis : x y z
#
# Youngs Moduli (GPa) = 77.83827 51.91264 34.74323
#
# Poissons Ratio (x) = 0.25674 0.16029
# Poissons Ratio (y) = 0.38496 0.43097
# Poissons Ratio (z) = 0.35911 0.64395
#
# Static dielectric constant tensor:
#      x y z
#    x 3.374560 0.000000 0.000000 
#    y 0.000000 3.578700 0.000000 
#    z 0.000000 0.000000 3.040510 
# 
# 
# High freq. dielectric constant tensor:
#      x y z
#    x 1.715440 0.000000 0.000000 
#    y 0.000000 1.715190 0.000000 
#    z 0.000000 0.000000 1.672800 
# 
# From -- ./inp_files/31473.got.cif
#   From: 2010.03.12/outbox.cif.g09.slc.cpg/sg51_16_cif.got.tgz:31473.got - 2010.04.16 13:43:02.
