data_PCOD8206764
_publ_section_title
;
Structure prediction by ZEFSAII (Michael W. Deem and Ramdas Pophale) SiO2 
 PCOD8206764
Probable space group: P M M A
;
_chemical_formula_sum "Si O2"
_cell_formula_units_Z 56
_cell_length_a 19.599541
_cell_length_b 9.342310
_cell_length_c 17.960733
_cell_angle_alpha 90.000000
_cell_angle_beta 90.000000
_cell_angle_gamma 90.000000
_cell_volume 3288.699798
_symmetry_space_group_name_H-M "P M M A"
_symmetry_group_IT_number 51
_symmetry_cell_setting 'orthorhombic'
loop_
_space_group_symop_operation_xyz
x,y,z
1/2-x,-y,z
1/2+x,-y,-z
-x,y,-z
-x,-y,-z
1/2+x,y,-z
1/2-x,y,z
x,-y,z
loop_
_atom_site_type_symbol
_atom_site_label
_atom_site_fract_x
_atom_site_fract_y
_atom_site_fract_z
Si Si1 0.574616 0.334354 0.028480
Si Si2 0.564576 0.840000 0.331549
Si Si3 0.456439 0.336427 0.805105
Si Si4 0.597566 0.838776 0.648170
Si Si5 0.171369 0.164082 0.076915
Si Si6 0.074281 0.170105 0.510156
Si Si7 0.886904 0.668692 0.788973
O O1 0.589625 0.500000 0.008304
O O2 0.579852 0.306466 0.116583
O O3 0.500000 0.291708 0.000000
O O4 0.629635 0.233623 0.990345
O O5 0.583846 0.747269 0.259497
O O6 0.483951 0.835052 0.346427
O O7 0.602261 0.782070 0.407728
O O8 0.588958 0.000000 0.313360
O O9 0.452087 0.500000 0.781783
O O10 0.535669 0.291931 0.811243
O O11 0.619160 0.790322 0.563403
O O12 0.630735 0.729338 0.706906
O O13 0.623865 0.000000 0.664746
O O14 0.250000 0.171602 0.053994
O O15 0.161321 0.252576 0.152516
O O16 0.147743 0.000000 0.088746
O O17 0.000000 0.241311 0.500000
O O18 0.066279 0.000000 0.513191
O O19 0.872560 0.500000 0.790711
#
# Coordination Sequence:
#
# PCOD8206764 Si02
#       7
#     8   8   8   8   8   8   8
#     4  10  19  35  54  72  95 125 160 198 241 292
#     4   8  13  21  35  56  83 117 154 187 224 271
#     4   9  17  28  43  65  92 119 151 194 235 277
#     4   8  13  22  37  57  82 115 154 191 225 264
#     4  11  24  38  51  71  97 123 157 202 246 288
#     4   7  10  18  32  51  79 115 151 185 221 264
#     4  10  18  30  46  65  91 122 156 192 233 282
#
# _framework density 17.028006999999999
#
# number of rings (size 3 to 8) (size 9 to 14) (size 15 to 20)
#    0.000    3.000    1.429    2.571    0.000    2.571 
#    0.000    0.714    0.000    4.286    0.000    0.000 
#    0.000    1.143    0.000   10.286    0.000    9.000 
#
# Total GULP energy -693833.526533 kJ/mol
# GULP energy per Si atom -12389.884402 kJ/mol
# Density = 1.698925 g / cm^3
# Si number density = 17.028007 Si / 1000 Ang^3
#
#
#
# Elastic Constant Matrix: (Units=GPa)
#
#
# Indices 1 2 3 4 5 6 
#
# 1 34.1839 29.9933 32.0420 0.0000 0.0000 0.0000
# 2 29.9933 85.4450 61.0262 0.0000 0.0000 0.0000
# 3 32.0420 61.0262 135.4599 0.0000 0.0000 0.0000
# 4 0.0000 0.0000 0.0000 25.8727 0.0000 0.0000
# 5 0.0000 0.0000 0.0000 0.0000 10.9457 0.0000
# 6 0.0000 0.0000 0.0000 0.0000 0.0000 14.4553
#
#
#
# Elastic Compliance Matrix: (Units=1/GPa)
#
#
# Indices 1 2 3 4 5 6 
#
# 1 0.044587 -0.011970 -0.005154 0.000000 0.000000 0.000000
# 2 -0.011970 0.020469 -0.006390 0.000000 0.000000 0.000000
# 3 -0.005154 -0.006390 0.011480 0.000000 0.000000 0.000000
# 4 0.000000 0.000000 0.000000 0.038651 0.000000 0.000000
# 5 0.000000 0.000000 0.000000 0.000000 0.091360 0.000000
# 6 0.000000 0.000000 0.000000 0.000000 0.000000 0.069179
#
#
# Mechanical properties :
#
#
# Convention : Reuss Voigt Hill
#
# Bulk Modulus (GPa) = 33.88906 55.69019 44.78962
# Shear Modulus (GPa) = 15.03347 19.05656 17.04502
#
# Velocity S-wave (km/s) = 2.97453 3.34897 3.16729
# Velocity P-wave (km/s) = 5.63403 6.90870 6.30367
#
# Compressibility (1/GPa) = 0.02950805
#
# Stress axis : x y z
#
# Youngs Moduli (GPa) = 22.42786 48.85392 87.10595
#
# Poissons Ratio (x) = 0.58479 0.44896
# Poissons Ratio (y) = 0.26846 0.55662
# Poissons Ratio (z) = 0.11560 0.31218
#
# Static dielectric constant tensor:
#      x y z
#    x 2.588230 0.000000 0.000000 
#    y 0.000000 3.112480 0.000000 
#    z 0.000000 0.000000 3.678950 
# 
# 
# High freq. dielectric constant tensor:
#      x y z
#    x 1.580110 0.000000 0.000000 
#    y 0.000000 1.644290 0.000000 
#    z 0.000000 0.000000 1.682110 
# 
# From -- ./inp_files/30469.got.cif
#   From: 2010.03.12/outbox.cif.g09.slc.cpg/sg51_16_cif.got.tgz:30469.got - 2010.04.16 13:43:02.
