data_PCOD8206497
_publ_section_title
;
Structure prediction by ZEFSAII (Michael W. Deem and Ramdas Pophale) SiO2 
 PCOD8206497
Probable space group: P M M A
;
_chemical_formula_sum "Si O2"
_cell_formula_units_Z 64
_cell_length_a 9.107783
_cell_length_b 28.233895
_cell_length_c 13.123933
_cell_angle_alpha 90.000000
_cell_angle_beta 90.000000
_cell_angle_gamma 90.000000
_cell_volume 3374.795602
_symmetry_space_group_name_H-M "P M M A"
_symmetry_group_IT_number 51
_symmetry_cell_setting 'orthorhombic'
loop_
_space_group_symop_operation_xyz
x,y,z
1/2-x,-y,z
1/2+x,-y,-z
-x,y,-z
-x,-y,-z
1/2+x,y,-z
1/2-x,y,z
x,-y,z
loop_
_atom_site_type_symbol
_atom_site_label
_atom_site_fract_x
_atom_site_fract_y
_atom_site_fract_z
Si Si1 0.091644 0.288135 0.911810
Si Si2 0.079138 0.552867 0.103649
Si Si3 0.425653 0.861581 0.897906
Si Si4 0.419534 0.643548 0.215763
Si Si5 0.085326 0.055800 0.596512
Si Si6 0.089007 0.785852 0.736002
Si Si7 0.077765 0.945139 0.197469
Si Si8 0.423591 0.713189 0.392988
O O1 0.250000 0.303598 0.954337
O O2 0.112890 0.253208 0.820142
O O3 0.004997 0.334575 0.878865
O O4 0.000000 0.262024 0.000000
O O5 0.250000 0.553714 0.077705
O O6 0.027105 0.500000 0.135423
O O7 0.047737 0.587320 0.201760
O O8 0.000000 0.569522 0.000000
O O9 0.250000 0.862309 0.910880
O O10 0.471808 0.832060 0.796060
O O11 0.491805 0.914342 0.886118
O O12 0.500000 0.839857 0.000000
O O13 0.250000 0.655636 0.201818
O O14 0.469364 0.667866 0.322493
O O15 0.250000 0.077570 0.605713
O O16 0.000000 0.078134 0.500000
O O17 0.989317 0.068838 0.693840
O O18 0.099173 0.000000 0.582118
O O19 0.250000 0.796524 0.686272
O O20 0.978069 0.763992 0.652510
O O21 0.250000 0.933241 0.197372
O O22 0.049100 0.000000 0.171718
O O23 0.500000 0.703572 0.500000
O O24 0.250000 0.716776 0.408012
#
# Coordination Sequence:
#
# PCOD8206497 Si02
#       8
#     8   8   8   8   8   8   8   8
#     4  10  18  28  45  70 100 131 162 201 249 302
#     4   9  17  29  45  67  99 139 181 224 269 316
#     4  11  23  39  59  81 107 139 174 213 257 308
#     4   9  18  31  47  70  98 132 175 217 261 312
#     4   9  16  28  49  76 104 133 165 204 251 299
#     4   9  20  37  55  77 104 133 166 204 250 306
#     4  10  21  37  56  79 108 142 181 223 264 307
#     4  10  20  35  57  81 106 136 170 213 263 316
#
# _framework density 18.964112
#
# number of rings (size 3 to 8) (size 9 to 14) (size 15 to 20)
#    0.000    2.375    0.000    2.625    0.000    6.000 
#    0.000    0.625    0.000    3.375    0.000    0.000 
#    0.000    0.000    0.000    0.000    0.000    0.375 
#
# Total GULP energy -793041.402712 kJ/mol
# GULP energy per Si atom -12391.271917 kJ/mol
# Density = 1.892095 g / cm^3
# Si number density = 18.964112 Si / 1000 Ang^3
#
#
#
# Elastic Constant Matrix: (Units=GPa)
#
#
# Indices 1 2 3 4 5 6 
#
# 1 101.5471 37.7306 49.4760 0.0000 0.0000 0.0000
# 2 37.7306 88.7378 41.2516 0.0000 0.0000 0.0000
# 3 49.4760 41.2516 90.3825 0.0000 0.0000 0.0000
# 4 0.0000 0.0000 0.0000 14.2784 0.0000 0.0000
# 5 0.0000 0.0000 0.0000 0.0000 34.1703 0.0000
# 6 0.0000 0.0000 0.0000 0.0000 0.0000 22.5261
#
#
#
# Elastic Compliance Matrix: (Units=1/GPa)
#
#
# Indices 1 2 3 4 5 6 
#
# 1 0.014049 -0.003044 -0.006301 0.000000 0.000000 0.000000
# 2 -0.003044 0.014964 -0.005163 0.000000 0.000000 0.000000
# 3 -0.006301 -0.005163 0.016870 0.000000 0.000000 0.000000
# 4 0.000000 0.000000 0.000000 0.070036 0.000000 0.000000
# 5 0.000000 0.000000 0.000000 0.000000 0.029265 0.000000
# 6 0.000000 0.000000 0.000000 0.000000 0.000000 0.044393
#
#
# Mechanical properties :
#
#
# Convention : Reuss Voigt Hill
#
# Bulk Modulus (GPa) = 59.29257 59.73153 59.51205
# Shear Modulus (GPa) = 22.30002 24.34223 23.32112
#
# Velocity S-wave (km/s) = 3.43287 3.58662 3.51058
# Velocity P-wave (km/s) = 6.85903 6.97978 6.91967
#
# Compressibility (1/GPa) = 0.01686552
#
# Stress axis : x y z
#
# Youngs Moduli (GPa) = 71.18078 66.82809 59.27762
#
# Poissons Ratio (x) = 0.20345 0.37350
# Poissons Ratio (y) = 0.21670 0.30606
# Poissons Ratio (z) = 0.44850 0.34504
#
# Static dielectric constant tensor:
#      x y z
#    x 3.670470 0.000000 0.000000 
#    y 0.000000 3.576330 0.000000 
#    z 0.000000 0.000000 3.430490 
# 
# 
# High freq. dielectric constant tensor:
#      x y z
#    x 1.747820 0.000000 0.000000 
#    y 0.000000 1.720910 0.000000 
#    z 0.000000 0.000000 1.720310 
# 
# From -- ./inp_files/14865.got.cif
#   From: 2010.03.12/outbox.cif.g09.slc.cpg/sg51_8_cif.got.tgz:14865.got - 2010.04.16 13:43:02.
