data_PCOD8206615
_publ_section_title
;
Structure prediction by ZEFSAII (Michael W. Deem and Ramdas Pophale) SiO2 
 PCOD8206615
Probable space group: P M M A
;
_chemical_formula_sum "Si O2"
_cell_formula_units_Z 64
_cell_length_a 9.368768
_cell_length_b 18.357259
_cell_length_c 22.408657
_cell_angle_alpha 90.000000
_cell_angle_beta 90.000000
_cell_angle_gamma 90.000000
_cell_volume 3853.950649
_symmetry_space_group_name_H-M "P M M A"
_symmetry_group_IT_number 51
_symmetry_cell_setting 'orthorhombic'
loop_
_space_group_symop_operation_xyz
x,y,z
1/2-x,-y,z
1/2+x,-y,-z
-x,y,-z
-x,-y,-z
1/2+x,y,-z
1/2-x,y,z
x,-y,z
loop_
_atom_site_type_symbol
_atom_site_label
_atom_site_fract_x
_atom_site_fract_y
_atom_site_fract_z
Si Si1 0.909609 0.107169 0.554721
Si Si2 0.591729 0.419364 0.728177
Si Si3 0.084512 0.916806 0.675840
Si Si4 0.907657 0.792931 0.236030
Si Si5 0.581638 0.582889 0.939414
Si Si6 0.907330 0.678235 0.340412
Si Si7 0.407463 0.724277 0.447397
Si Si8 0.588996 0.690236 0.836675
O O1 0.750000 0.072190 0.558308
O O2 0.890009 0.191159 0.539599
O O3 0.000000 0.071394 0.500000
O O4 0.991025 0.094371 0.616803
O O5 0.750000 0.415666 0.699711
O O6 0.556666 0.500000 0.751597
O O7 0.477289 0.398710 0.677502
O O8 0.582750 0.365487 0.782830
O O9 0.250000 0.896921 0.661021
O O10 0.029405 0.864582 0.729977
O O11 0.070411 0.000000 0.697802
O O12 0.750000 0.811161 0.210935
O O13 0.897342 0.728436 0.283076
O O14 0.001947 0.764125 0.179989
O O15 0.750000 0.590660 0.949924
O O16 0.546625 0.500000 0.917518
O O17 0.527359 0.644353 0.892681
O O18 0.500000 0.600249 0.000000
O O19 0.750000 0.664772 0.367699
O O20 0.009696 0.717893 0.386086
O O21 0.500000 0.686689 0.500000
O O22 0.250000 0.687905 0.444235
O O23 0.750000 0.715809 0.849593
#
# Coordination Sequence:
#
# PCOD8206615 Si02
#       8
#     8   8   8   8   8   8   8   8
#     4  10  20  32  48  67  89 116 149 188 229 279
#     4   9  17  29  45  65  89 117 149 184 221 263
#     4  10  20  34  50  66  90 123 154 188 233 284
#     4   9  18  31  46  66  90 116 151 191 230 270
#     4   9  17  29  45  68 100 136 170 199 227 263
#     4  10  18  29  46  65  87 112 140 181 225 268
#     4  10  19  30  46  66  85 108 140 179 222 270
#     4   9  17  29  47  68  92 125 161 194 226 261
#
# _framework density 16.606335999999999
#
# number of rings (size 3 to 8) (size 9 to 14) (size 15 to 20)
#    0.000    2.500    1.250    1.500    0.000    4.750 
#    0.000    0.000    0.000    2.625    0.000    0.000 
#    0.000    0.500    0.000    1.125    0.000    1.750 
#
# Total GULP energy -793051.229881 kJ/mol
# GULP energy per Si atom -12391.425467 kJ/mol
# Density = 1.656854 g / cm^3
# Si number density = 16.606336 Si / 1000 Ang^3
#
#
#
# Elastic Constant Matrix: (Units=GPa)
#
#
# Indices 1 2 3 4 5 6 
#
# 1 102.2629 33.1701 43.0090 0.0000 0.0000 0.0000
# 2 33.1701 69.0795 33.9080 0.0000 0.0000 0.0000
# 3 43.0090 33.9080 68.7698 0.0000 0.0000 0.0000
# 4 0.0000 0.0000 0.0000 -70.1551 0.0000 0.0000
# 5 0.0000 0.0000 0.0000 0.0000 26.3504 0.0000
# 6 0.0000 0.0000 0.0000 0.0000 0.0000 6.9807
#
#
#
# Elastic Compliance Matrix: (Units=1/GPa)
#
#
# Indices 1 2 3 4 5 6 
#
# 1 0.013768 -0.003146 -0.007060 0.000000 0.000000 0.000000
# 2 -0.003146 0.019817 -0.007804 0.000000 0.000000 0.000000
# 3 -0.007060 -0.007804 0.022804 0.000000 0.000000 0.000000
# 4 0.000000 0.000000 0.000000 -0.014254 0.000000 0.000000
# 5 0.000000 0.000000 0.000000 0.000000 0.037950 0.000000
# 6 0.000000 0.000000 0.000000 0.000000 0.000000 0.143252
#
#
# Mechanical properties :
#
#
# Convention : Reuss Voigt Hill
#
# Bulk Modulus (GPa) = 49.08912 51.14295 50.11604
# Shear Modulus (GPa) = 18.78668 1.30354 10.04511
#
# Velocity S-wave (km/s) = 3.36712 0.88694 2.46213
# Velocity P-wave (km/s) = 6.68890 5.64916 6.19089
#
# Compressibility (1/GPa) = 0.02037111
#
# Stress axis : x y z
#
# Youngs Moduli (GPa) = 72.63124 50.46143 43.85185
#
# Poissons Ratio (x) = 0.15875 0.30957
# Poissons Ratio (y) = 0.22849 0.34220
# Poissons Ratio (z) = 0.51274 0.39378
#
# Static dielectric constant tensor:
#      x y z
#    x 3.570430 0.000000 0.000000 
#    y 0.000000 3.092340 0.000000 
#    z 0.000000 0.000000 2.932300 
# 
# 
# High freq. dielectric constant tensor:
#      x y z
#    x 1.650040 0.000000 0.000000 
#    y 0.000000 1.617320 0.000000 
#    z 0.000000 0.000000 1.606020 
# 
# From -- ./inp_files/32592.got.cif
#   From: 2010.03.12/outbox.cif.g09.slc.cpg/sg51_17_cif.got.tgz:32592.got - 2010.04.16 13:43:02.
