data_PCOD8206337
_publ_section_title
;
Structure prediction by ZEFSAII (Michael W. Deem and Ramdas Pophale) SiO2 
 PCOD8206337
Probable space group: P M M A
;
_chemical_formula_sum "Si O2"
_cell_formula_units_Z 48
_cell_length_a 21.386012
_cell_length_b 9.622744
_cell_length_c 14.180380
_cell_angle_alpha 90.000000
_cell_angle_beta 90.000000
_cell_angle_gamma 90.000000
_cell_volume 2918.210444
_symmetry_space_group_name_H-M "P M M A"
_symmetry_group_IT_number 51
_symmetry_cell_setting 'orthorhombic'
loop_
_space_group_symop_operation_xyz
x,y,z
1/2-x,-y,z
1/2+x,-y,-z
-x,y,-z
-x,-y,-z
1/2+x,y,-z
1/2-x,y,z
x,-y,z
loop_
_atom_site_type_symbol
_atom_site_label
_atom_site_fract_x
_atom_site_fract_y
_atom_site_fract_z
Si Si1 0.927909 0.348295 0.470374
Si Si2 0.178531 0.663393 0.030331
Si Si3 0.321632 0.153734 0.202477
Si Si4 0.520989 0.337830 0.279182
Si Si5 0.054073 0.664139 0.929755
Si Si6 0.912136 0.159420 0.633176
O O1 0.898027 0.500000 0.492133
O O2 0.924007 0.318172 0.357686
O O3 0.895045 0.228791 0.532123
O O4 0.000000 0.350133 0.500000
O O5 0.250000 0.709923 0.001016
O O6 0.177198 0.500000 0.047042
O O7 0.155592 0.733585 0.127041
O O8 0.125302 0.709824 0.955612
O O9 0.250000 0.176626 0.222481
O O10 0.350960 0.173002 0.304514
O O11 0.336404 0.000000 0.161618
O O12 0.500155 0.500000 0.276345
O O13 0.543579 0.284512 0.177144
O O14 0.464272 0.241345 0.309211
O O15 0.049353 0.500000 0.934657
O O16 0.000000 0.725861 0.000000
O O17 0.932956 0.000000 0.616570
#
# Coordination Sequence:
#
# PCOD8206337 Si02
#       6
#     8   8   8   8   8   8
#     4   8  15  27  42  60  83 112 140 165 203 258
#     4   9  17  29  46  67  87 110 145 183 212 246
#     4   9  18  31  44  60  85 115 142 170 213 264
#     4   9  17  29  44  62  87 117 142 167 208 260
#     4   9  16  26  43  66  89 113 141 174 213 254
#     4  10  18  27  43  65  86 109 140 179 217 251
#
# _framework density 16.448436999999998
#
# number of rings (size 3 to 8) (size 9 to 14) (size 15 to 20)
#    0.000    3.000    0.000    2.500    0.000    5.667 
#    0.000    0.833    0.000    4.000    0.000    2.333 
#    0.000    0.000    0.000    0.000    0.000    0.000 
#
# Total GULP energy -594659.913002 kJ/mol
# GULP energy per Si atom -12388.748188 kJ/mol
# Density = 1.641100 g / cm^3
# Si number density = 16.448437 Si / 1000 Ang^3
#
#
#
# Elastic Constant Matrix: (Units=GPa)
#
#
# Indices 1 2 3 4 5 6 
#
# 1 51.6547 28.1120 45.0311 0.0000 0.0000 0.0000
# 2 28.1120 68.7619 49.2470 0.0000 0.0000 0.0000
# 3 45.0311 49.2470 141.4776 0.0000 0.0000 0.0000
# 4 0.0000 0.0000 0.0000 14.0841 0.0000 0.0000
# 5 0.0000 0.0000 0.0000 0.0000 19.3922 0.0000
# 6 0.0000 0.0000 0.0000 0.0000 0.0000 15.4260
#
#
#
# Elastic Compliance Matrix: (Units=1/GPa)
#
#
# Indices 1 2 3 4 5 6 
#
# 1 0.029133 -0.007019 -0.006829 0.000000 0.000000 0.000000
# 2 -0.007019 0.021064 -0.005098 0.000000 0.000000 0.000000
# 3 -0.006829 -0.005098 0.011017 0.000000 0.000000 0.000000
# 4 0.000000 0.000000 0.000000 0.071002 0.000000 0.000000
# 5 0.000000 0.000000 0.000000 0.000000 0.051567 0.000000
# 6 0.000000 0.000000 0.000000 0.000000 0.000000 0.064826
#
#
# Mechanical properties :
#
#
# Convention : Reuss Voigt Hill
#
# Bulk Modulus (GPa) = 42.88145 56.29716 49.58930
# Shear Modulus (GPa) = 16.99092 19.08074 18.03583
#
# Velocity S-wave (km/s) = 3.21749 3.40962 3.31495
# Velocity P-wave (km/s) = 6.31900 7.05701 6.69818
#
# Compressibility (1/GPa) = 0.02332011
#
# Stress axis : x y z
#
# Youngs Moduli (GPa) = 34.32510 47.47489 90.77243
#
# Poissons Ratio (x) = 0.33324 0.61993
# Poissons Ratio (y) = 0.24094 0.46275
# Poissons Ratio (z) = 0.23442 0.24202
#
# Static dielectric constant tensor:
#      x y z
#    x 3.023300 0.000000 0.000000 
#    y 0.000000 3.154680 0.000000 
#    z 0.000000 0.000000 3.623490 
# 
# 
# High freq. dielectric constant tensor:
#      x y z
#    x 1.601620 0.000000 0.000000 
#    y 0.000000 1.622570 0.000000 
#    z 0.000000 0.000000 1.635980 
# 
# From -- ./inp_files/25466.got.cif
#   From: 2010.03.12/outbox.cif.g09.slc.cpg/sg51_13_cif.got.tgz:25466.got - 2010.04.16 13:43:02.
