data_PCOD8206477
_publ_section_title
;
Structure prediction by ZEFSAII (Michael W. Deem and Ramdas Pophale) SiO2 
 PCOD8206477
Probable space group: P M M A
;
_chemical_formula_sum "Si O2"
_cell_formula_units_Z 48
_cell_length_a 17.799861
_cell_length_b 7.918315
_cell_length_c 18.075497
_cell_angle_alpha 90.000000
_cell_angle_beta 90.000000
_cell_angle_gamma 90.000000
_cell_volume 2547.649232
_symmetry_space_group_name_H-M "P M M A"
_symmetry_group_IT_number 51
_symmetry_cell_setting 'orthorhombic'
loop_
_space_group_symop_operation_xyz
x,y,z
1/2-x,-y,z
1/2+x,-y,-z
-x,y,-z
-x,-y,-z
1/2+x,y,-z
1/2-x,y,z
x,-y,z
loop_
_atom_site_type_symbol
_atom_site_label
_atom_site_fract_x
_atom_site_fract_y
_atom_site_fract_z
Si Si1 0.462698 0.688354 0.322171
Si Si2 0.987375 0.000000 0.413628
Si Si3 0.835533 0.193497 0.776793
Si Si4 0.333597 0.000000 0.669424
Si Si5 0.661232 0.308189 0.933548
Si Si6 0.612325 0.688903 0.240179
Si Si7 0.336143 0.805277 0.910090
O O1 0.469411 0.500000 0.357517
O O2 0.472077 0.831000 0.384375
O O3 0.382627 0.699965 0.282062
O O4 0.525582 0.718753 0.259931
O O5 0.000000 0.000000 0.500000
O O6 0.898460 0.000000 0.393195
O O7 0.750000 0.260582 0.773098
O O8 0.868099 0.213793 0.860093
O O9 0.841155 0.000000 0.753391
O O10 0.338146 0.168561 0.719492
O O11 0.250000 0.000000 0.632938
O O12 0.750000 0.286579 0.937232
O O13 0.635104 0.500000 0.927957
O O14 0.627753 0.228647 0.008953
O O15 0.638226 0.500000 0.264924
O O16 0.618691 0.702121 0.151701
O O17 0.250000 0.743089 0.908290
O O18 0.342693 0.000000 0.890263
#
# Coordination Sequence:
#
# PCOD8206477 Si02
#       7
#     8   4   8   4   8   8   8
#     4  10  21  38  60  84 111 145 183 222 270 332
#     4  10  22  42  64  87 119 149 177 215 270 330
#     4  10  19  33  55  81 108 143 188 236 282 325
#     4  10  20  36  58  85 113 145 183 223 267 320
#     4   9  17  28  43  67 102 143 186 233 281 325
#     4  10  20  33  52  78 110 147 186 229 275 323
#     4  10  18  28  44  69 102 142 188 234 278 323
#
# _framework density 18.840896999999998
#
# number of rings (size 3 to 8) (size 9 to 14) (size 15 to 20)
#    0.000    2.167    1.667    2.000    0.000    5.333 
#    0.000    1.667    0.000    5.000    0.000    0.000 
#    0.000    0.000    0.000    0.000    0.000    0.000 
#
# Total GULP energy -595073.254032 kJ/mol
# GULP energy per Si atom -12397.359459 kJ/mol
# Density = 1.879801 g / cm^3
# Si number density = 18.840897 Si / 1000 Ang^3
#
#
#
# Elastic Constant Matrix: (Units=GPa)
#
#
# Indices 1 2 3 4 5 6 
#
# 1 66.8636 31.9416 48.8955 0.0000 0.0000 0.0000
# 2 31.9416 116.8488 53.2413 0.0000 0.0000 0.0000
# 3 48.8955 53.2413 121.0663 0.0000 0.0000 0.0000
# 4 0.0000 0.0000 0.0000 16.3638 0.0000 0.0000
# 5 0.0000 0.0000 0.0000 0.0000 18.6734 0.0000
# 6 0.0000 0.0000 0.0000 0.0000 0.0000 19.7580
#
#
#
# Elastic Compliance Matrix: (Units=1/GPa)
#
#
# Indices 1 2 3 4 5 6 
#
# 1 0.021763 -0.002431 -0.007720 0.000000 0.000000 0.000000
# 2 -0.002431 0.010974 -0.003844 0.000000 0.000000 0.000000
# 3 -0.007720 -0.003844 0.013068 0.000000 0.000000 0.000000
# 4 0.000000 0.000000 0.000000 0.061111 0.000000 0.000000
# 5 0.000000 0.000000 0.000000 0.000000 0.053552 0.000000
# 6 0.000000 0.000000 0.000000 0.000000 0.000000 0.050612
#
#
# Mechanical properties :
#
#
# Convention : Reuss Voigt Hill
#
# Bulk Modulus (GPa) = 56.13538 63.65951 59.89744
# Shear Modulus (GPa) = 20.40730 22.33906 21.37318
#
# Velocity S-wave (km/s) = 3.29468 3.44709 3.37174
# Velocity P-wave (km/s) = 6.65825 7.05014 6.85700
#
# Compressibility (1/GPa) = 0.01781408
#
# Stress axis : x y z
#
# Youngs Moduli (GPa) = 45.94976 91.12211 76.52004
#
# Poissons Ratio (x) = 0.22156 0.59075
# Poissons Ratio (y) = 0.11172 0.29416
# Poissons Ratio (z) = 0.35474 0.35029
#
# Static dielectric constant tensor:
#      x y z
#    x 3.237470 0.000000 0.000000 
#    y 0.000000 3.658880 0.000000 
#    z 0.000000 0.000000 3.200690 
# 
# 
# High freq. dielectric constant tensor:
#      x y z
#    x 1.704550 0.000000 0.000000 
#    y 0.000000 1.749350 0.000000 
#    z 0.000000 0.000000 1.703500 
# 
# From -- ./inp_files/29593.got.cif
#   From: 2010.03.12/outbox.cif.g09.slc.cpg/sg51_15_cif.got.tgz:29593.got - 2010.04.16 13:43:02.
