data_PCOD8206150
_publ_section_title
;
Structure prediction by ZEFSAII (Michael W. Deem and Ramdas Pophale) SiO2 
 PCOD8206150
Probable space group: P M M A
;
_chemical_formula_sum "Si O2"
_cell_formula_units_Z 64
_cell_length_a 30.247379
_cell_length_b 9.278377
_cell_length_c 14.364611
_cell_angle_alpha 90.000000
_cell_angle_beta 90.000000
_cell_angle_gamma 90.000000
_cell_volume 4031.379031
_symmetry_space_group_name_H-M "P M M A"
_symmetry_group_IT_number 51
_symmetry_cell_setting 'orthorhombic'
loop_
_space_group_symop_operation_xyz
x,y,z
1/2-x,-y,z
1/2+x,-y,-z
-x,y,-z
-x,-y,-z
1/2+x,y,-z
1/2-x,y,z
x,-y,z
loop_
_atom_site_type_symbol
_atom_site_label
_atom_site_fract_x
_atom_site_fract_y
_atom_site_fract_z
Si Si1 0.931504 0.336135 0.747856
Si Si2 0.547623 0.164599 0.037973
Si Si3 0.300486 0.166345 0.135607
Si Si4 0.889018 0.170309 0.580586
Si Si5 0.621465 0.663653 0.931833
Si Si6 0.959539 0.830069 0.438717
Si Si7 0.202086 0.170947 0.346938
Si Si8 0.483535 0.165327 0.763680
O O1 0.940937 0.500000 0.717577
O O2 0.917569 0.244500 0.659578
O O3 0.894243 0.328647 0.825758
O O4 0.975256 0.264881 0.790047
O O5 0.550184 0.177516 0.150196
O O6 0.555234 0.000000 0.005242
O O7 0.500000 0.217922 0.000000
O O8 0.586662 0.262492 0.999949
O O9 0.250000 0.187930 0.103358
O O10 0.331319 0.256252 0.065292
O O11 0.306518 0.223331 0.241484
O O12 0.314595 0.000000 0.129183
O O13 0.911853 0.213865 0.482630
O O14 0.837839 0.224187 0.585730
O O15 0.891443 0.000000 0.598220
O O16 0.627633 0.500000 0.965544
O O17 0.961203 0.776147 0.331922
O O18 0.000000 0.763749 0.500000
O O19 0.964349 0.000000 0.440658
O O20 0.250000 0.231132 0.382087
O O21 0.204413 0.000000 0.346215
O O22 0.499448 0.000000 0.751635
#
# Coordination Sequence:
#
# PCOD8206150 Si02
#       8
#     8   8   8   8   8   8   8   8
#     4  11  21  29  41  65  95 123 152 186 227 268
#     4  10  20  32  49  68  86 118 164 202 233 277
#     4   9  17  30  49  71  94 120 153 191 227 270
#     4  10  17  28  47  65  87 122 153 182 216 266
#     4  11  22  32  45  67  97 128 155 190 233 280
#     4   9  16  26  45  70  89 112 150 188 227 267
#     4   8  14  24  41  66  90 113 145 181 214 253
#     4  10  19  33  48  64  89 119 156 197 230 270
#
# _framework density 15.875461
#
# number of rings (size 3 to 8) (size 9 to 14) (size 15 to 20)
#    0.000    2.250    3.750    1.500    0.000    2.000 
#    0.000    1.250    0.000    0.375    0.000    0.875 
#    0.000    5.000    0.000    0.000    0.000    0.125 
#
# Total GULP energy -793264.319569 kJ/mol
# GULP energy per Si atom -12394.754993 kJ/mol
# Density = 1.583933 g / cm^3
# Si number density = 15.875461 Si / 1000 Ang^3
#
#
#
# Elastic Constant Matrix: (Units=GPa)
#
#
# Indices 1 2 3 4 5 6 
#
# 1 115.9336 42.6606 39.2436 0.0000 0.0000 0.0000
# 2 42.6606 55.4433 23.1378 0.0000 0.0000 0.0000
# 3 39.2436 23.1378 75.7083 0.0000 0.0000 0.0000
# 4 0.0000 0.0000 0.0000 11.0968 0.0000 0.0000
# 5 0.0000 0.0000 0.0000 0.0000 23.0499 0.0000
# 6 0.0000 0.0000 0.0000 0.0000 0.0000 11.1568
#
#
#
# Elastic Compliance Matrix: (Units=1/GPa)
#
#
# Indices 1 2 3 4 5 6 
#
# 1 0.013132 -0.008326 -0.004263 0.000000 0.000000 0.000000
# 2 -0.008326 0.025951 -0.003616 0.000000 0.000000 0.000000
# 3 -0.004263 -0.003616 0.016523 0.000000 0.000000 0.000000
# 4 0.000000 0.000000 0.000000 0.090116 0.000000 0.000000
# 5 0.000000 0.000000 0.000000 0.000000 0.043384 0.000000
# 6 0.000000 0.000000 0.000000 0.000000 0.000000 0.089631
#
#
# Mechanical properties :
#
#
# Convention : Reuss Voigt Hill
#
# Bulk Modulus (GPa) = 43.10527 50.79657 46.95092
# Shear Modulus (GPa) = 15.67993 18.53024 17.10509
#
# Velocity S-wave (km/s) = 3.14615 3.42017 3.28602
# Velocity P-wave (km/s) = 6.35679 6.90385 6.63596
#
# Compressibility (1/GPa) = 0.02319902
#
# Stress axis : x y z
#
# Youngs Moduli (GPa) = 76.14923 38.53354 60.52112
#
# Poissons Ratio (x) = 0.32081 0.25798
# Poissons Ratio (y) = 0.63398 0.21882
# Poissons Ratio (z) = 0.32460 0.13932
#
# Static dielectric constant tensor:
#      x y z
#    x 3.233100 0.000000 0.000000 
#    y 0.000000 2.847530 0.000000 
#    z 0.000000 0.000000 2.958970 
# 
# 
# High freq. dielectric constant tensor:
#      x y z
#    x 1.603830 0.000000 0.000000 
#    y 0.000000 1.588150 0.000000 
#    z 0.000000 0.000000 1.583630 
# 
# From -- ./inp_files/26720.got.cif
#   From: 2010.03.12/outbox.cif.g09.slc.cpg/sg51_14_cif.got.tgz:26720.got - 2010.04.16 13:43:02.
