data_PCOD8206919
_publ_section_title
;
Structure prediction by ZEFSAII (Michael W. Deem and Ramdas Pophale) SiO2 
 PCOD8206919
Probable space group: P M M A
;
_chemical_formula_sum "Si O2"
_cell_formula_units_Z 48
_cell_length_a 16.073471
_cell_length_b 18.471713
_cell_length_c 9.231229
_cell_angle_alpha 90.000000
_cell_angle_beta 90.000000
_cell_angle_gamma 90.000000
_cell_volume 2740.793830
_symmetry_space_group_name_H-M "P M M A"
_symmetry_group_IT_number 51
_symmetry_cell_setting 'orthorhombic'
loop_
_space_group_symop_operation_xyz
x,y,z
1/2-x,-y,z
1/2+x,-y,-z
-x,y,-z
-x,-y,-z
1/2+x,y,-z
1/2-x,y,z
x,-y,z
loop_
_atom_site_type_symbol
_atom_site_label
_atom_site_fract_x
_atom_site_fract_y
_atom_site_fract_z
Si Si1 0.501407 0.165076 0.335867
Si Si2 0.584028 0.326181 0.920946
Si Si3 0.842857 0.176666 0.855544
Si Si4 0.583993 0.081210 0.090244
Si Si5 0.479683 0.333718 0.660197
Si Si6 0.346816 0.583319 0.831124
O O1 0.500000 0.135498 0.500000
O O2 0.408857 0.156792 0.269350
O O3 0.567873 0.118456 0.245451
O O4 0.532549 0.247537 0.332859
O O5 0.645667 0.258919 0.907989
O O6 0.556596 0.356964 0.763899
O O7 0.500000 0.298057 0.000000
O O8 0.628833 0.389943 0.008269
O O9 0.750000 0.168031 0.791125
O O10 0.849280 0.125594 0.996607
O O11 0.617382 0.000000 0.116676
O O12 0.500000 0.080418 0.000000
O O13 0.500000 0.361179 0.500000
O O14 0.394322 0.370948 0.709347
O O15 0.250000 0.594653 0.803115
O O16 0.373064 0.500000 0.819324
#
# Coordination Sequence:
#
# PCOD8206919 Si02
#       6
#     8   8   8   8   8   8
#     4   9  18  34  51  71  99 130 166 200 237 292
#     4   9  17  31  52  72  93 124 162 198 238 291
#     4  10  18  30  50  73  97 124 159 205 248 284
#     4   9  17  30  49  71  95 126 161 194 233 284
#     4   9  18  33  51  71  97 129 162 198 240 292
#     4  10  20  33  49  71  98 126 160 203 247 289
#
# _framework density 17.513175
#
# number of rings (size 3 to 8) (size 9 to 14) (size 15 to 20)
#    0.000    2.667    0.000    4.000    0.000    4.000 
#    0.000    9.167    0.000    2.000    0.000    0.000 
#    0.000    0.000    0.000    0.000    0.000    0.000 
#
# Total GULP energy -595164.343514 kJ/mol
# GULP energy per Si atom -12399.257157 kJ/mol
# Density = 1.747331 g / cm^3
# Si number density = 17.513175 Si / 1000 Ang^3
#
#
#
# Elastic Constant Matrix: (Units=GPa)
#
#
# Indices 1 2 3 4 5 6 
#
# 1 88.9758 47.8922 42.6675 0.0000 0.0000 0.0000
# 2 47.8922 84.0351 53.4236 0.0000 0.0000 0.0000
# 3 42.6675 53.4236 147.7836 0.0000 0.0000 0.0000
# 4 0.0000 0.0000 0.0000 14.9671 0.0000 0.0000
# 5 0.0000 0.0000 0.0000 0.0000 15.6529 0.0000
# 6 0.0000 0.0000 0.0000 0.0000 0.0000 4.3878
#
#
#
# Elastic Compliance Matrix: (Units=1/GPa)
#
#
# Indices 1 2 3 4 5 6 
#
# 1 0.016565 -0.008310 -0.001779 0.000000 0.000000 0.000000
# 2 -0.008310 0.019619 -0.004693 0.000000 0.000000 0.000000
# 3 -0.001779 -0.004693 0.008977 0.000000 0.000000 0.000000
# 4 0.000000 0.000000 0.000000 0.066813 0.000000 0.000000
# 5 0.000000 0.000000 0.000000 0.000000 0.063886 0.000000
# 6 0.000000 0.000000 0.000000 0.000000 0.000000 0.227902
#
#
# Mechanical properties :
#
#
# Convention : Reuss Voigt Hill
#
# Bulk Modulus (GPa) = 64.11175 67.64013 65.87594
# Shear Modulus (GPa) = 11.40190 18.78899 15.09545
#
# Velocity S-wave (km/s) = 2.55433 3.27899 2.93908
# Velocity P-wave (km/s) = 6.73696 7.28299 7.01529
#
# Compressibility (1/GPa) = 0.01559777
#
# Stress axis : x y z
#
# Youngs Moduli (GPa) = 60.36954 50.97080 111.39931
#
# Poissons Ratio (x) = 0.42355 0.19813
# Poissons Ratio (y) = 0.50165 0.52281
# Poissons Ratio (z) = 0.10737 0.23921
#
# Static dielectric constant tensor:
#      x y z
#    x 3.041880 0.000000 0.000000 
#    y 0.000000 3.265440 0.000000 
#    z 0.000000 0.000000 3.444690 
# 
# 
# High freq. dielectric constant tensor:
#      x y z
#    x 1.658620 0.000000 0.000000 
#    y 0.000000 1.672970 0.000000 
#    z 0.000000 0.000000 1.673580 
# 
# From -- ./inp_files/8287.got.cif
#   From: 2010.03.12/outbox.cif.g09.slc.cpg/sg51_5_cif.got.tgz:8287.got - 2010.04.16 13:43:02.
