data_PCOD8206836
_publ_section_title
;
Structure prediction by ZEFSAII (Michael W. Deem and Ramdas Pophale) SiO2 
 PCOD8206836
Probable space group: P M M A
;
_chemical_formula_sum "Si O2"
_cell_formula_units_Z 40
_cell_length_a 21.238471
_cell_length_b 8.560653
_cell_length_c 12.668217
_cell_angle_alpha 90.000000
_cell_angle_beta 90.000000
_cell_angle_gamma 90.000000
_cell_volume 2303.274160
_symmetry_space_group_name_H-M "P M M A"
_symmetry_group_IT_number 51
_symmetry_cell_setting 'orthorhombic'
loop_
_space_group_symop_operation_xyz
x,y,z
1/2-x,-y,z
1/2+x,-y,-z
-x,y,-z
-x,-y,-z
1/2+x,y,-z
1/2-x,y,z
x,-y,z
loop_
_atom_site_type_symbol
_atom_site_label
_atom_site_fract_x
_atom_site_fract_y
_atom_site_fract_z
Si Si1 0.086394 0.685036 0.077838
Si Si2 0.449380 0.315366 0.853272
Si Si3 0.544478 0.818138 0.362273
Si Si4 0.179550 0.686123 0.252104
Si Si5 0.414226 0.316425 0.431194
O O1 0.084956 0.500000 0.084165
O O2 0.143939 0.751933 0.147691
O O3 0.020433 0.744126 0.125666
O O4 0.092943 0.734805 0.954738
O O5 0.446288 0.500000 0.834725
O O6 0.423660 0.227855 0.749213
O O7 0.591825 0.772134 0.456951
O O8 0.479982 0.721899 0.374417
O O9 0.529279 0.000000 0.368005
O O10 0.250000 0.755814 0.254303
O O11 0.181134 0.500000 0.247733
O O12 0.142786 0.741056 0.356889
O O13 0.410798 0.500000 0.451571
#
# Coordination Sequence:
#
# PCOD8206836 Si02
#       5
#     8   8   8   8   8
#     4   8  14  25  44  69  94 119 151 186 224 275
#     4   9  15  27  47  68  92 123 154 184 229 280
#     4  11  20  29  44  68  98 124 153 197 236 272
#     4   9  16  27  47  74  97 116 147 195 239 274
#     4  10  18  30  48  68  93 124 156 188 233 288
#
# _framework density 17.366581
#
# number of rings (size 3 to 8) (size 9 to 14) (size 15 to 20)
#    0.000    2.600    2.000    4.800    0.000    0.000 
#    0.000    2.000    0.000    3.600    0.000    5.600 
#    0.000    0.000    0.000    0.000    0.000    0.000 
#
# Total GULP energy -495777.090813 kJ/mol
# GULP energy per Si atom -12394.427270 kJ/mol
# Density = 1.732705 g / cm^3
# Si number density = 17.366581 Si / 1000 Ang^3
#
#
#
# Elastic Constant Matrix: (Units=GPa)
#
#
# Indices 1 2 3 4 5 6 
#
# 1 95.4671 6.9163 64.5564 0.0000 0.0000 0.0000
# 2 6.9163 32.0975 25.7179 0.0000 0.0000 0.0000
# 3 64.5564 25.7179 179.5265 0.0000 0.0000 0.0000
# 4 0.0000 0.0000 0.0000 4.9733 0.0000 0.0000
# 5 0.0000 0.0000 0.0000 0.0000 25.4400 0.0000
# 6 0.0000 0.0000 0.0000 0.0000 0.0000 3.0268
#
#
#
# Elastic Compliance Matrix: (Units=1/GPa)
#
#
# Indices 1 2 3 4 5 6 
#
# 1 0.013877 0.001139 -0.005153 0.000000 0.000000 0.000000
# 2 0.001139 0.035288 -0.005465 0.000000 0.000000 0.000000
# 3 -0.005153 -0.005465 0.008206 0.000000 0.000000 0.000000
# 4 0.000000 0.000000 0.000000 0.201074 0.000000 0.000000
# 5 0.000000 0.000000 0.000000 0.000000 0.039308 0.000000
# 6 0.000000 0.000000 0.000000 0.000000 0.000000 0.330386
#
#
# Mechanical properties :
#
#
# Convention : Reuss Voigt Hill
#
# Bulk Modulus (GPa) = 26.03282 55.71916 40.87599
# Shear Modulus (GPa) = 7.57688 20.68137 14.12913
#
# Velocity S-wave (km/s) = 2.09102 3.45465 2.85543
# Velocity P-wave (km/s) = 4.56646 6.93300 5.87023
#
# Compressibility (1/GPa) = 0.03841305
#
# Stress axis : x y z
#
# Youngs Moduli (GPa) = 72.06174 28.33811 121.86072
#
# Poissons Ratio (x) = -0.03227 0.62797
# Poissons Ratio (y) = -0.08206 0.66593
# Poissons Ratio (z) = 0.37135 0.15486
#
# Static dielectric constant tensor:
#      x y z
#    x 3.135840 0.000000 0.000000 
#    y 0.000000 2.817640 0.000000 
#    z 0.000000 0.000000 3.683520 
# 
# 
# High freq. dielectric constant tensor:
#      x y z
#    x 1.618550 0.000000 0.000000 
#    y 0.000000 1.637370 0.000000 
#    z 0.000000 0.000000 1.693040 
# 
# From -- ./inp_files/25412.got.cif
#   From: 2010.03.12/outbox.cif.g09.slc.cpg/sg51_13_cif.got.tgz:25412.got - 2010.04.16 13:43:02.
