data_PCOD8206508
_publ_section_title
;
Structure prediction by ZEFSAII (Michael W. Deem and Ramdas Pophale) SiO2 
 PCOD8206508
Probable space group: P M M A
;
_chemical_formula_sum "Si O2"
_cell_formula_units_Z 48
_cell_length_a 19.001316
_cell_length_b 12.437749
_cell_length_c 12.610261
_cell_angle_alpha 90.000000
_cell_angle_beta 90.000000
_cell_angle_gamma 90.000000
_cell_volume 2980.228367
_symmetry_space_group_name_H-M "P M M A"
_symmetry_group_IT_number 51
_symmetry_cell_setting 'orthorhombic'
loop_
_space_group_symop_operation_xyz
x,y,z
1/2-x,-y,z
1/2+x,-y,-z
-x,y,-z
-x,-y,-z
1/2+x,y,-z
1/2-x,y,z
x,-y,z
loop_
_atom_site_type_symbol
_atom_site_label
_atom_site_fract_x
_atom_site_fract_y
_atom_site_fract_z
Si Si1 0.919505 0.872930 0.385916
Si Si2 0.170216 0.500000 0.210261
Si Si3 0.584704 0.500000 0.998780
Si Si4 0.329034 0.732744 0.229547
Si Si5 0.831810 0.295831 0.016858
Si Si6 0.420726 0.872984 0.379963
Si Si7 0.168166 0.122776 0.810574
O O1 0.894079 0.835584 0.503127
O O2 0.870367 0.827096 0.292671
O O3 0.999014 0.835781 0.365714
O O4 0.915975 0.000000 0.385035
O O5 0.250000 0.500000 0.159681
O O6 0.161182 0.389338 0.276313
O O7 0.110995 0.500000 0.121303
O O8 0.617520 0.606371 0.054351
O O9 0.500000 0.500000 0.000000
O O10 0.250000 0.773063 0.248295
O O11 0.378363 0.814847 0.288715
O O12 0.347209 0.733848 0.104967
O O13 0.750000 0.328277 0.032472
O O14 0.851900 0.192469 0.086935
O O15 0.411927 0.000000 0.364819
O O16 0.250000 0.128500 0.784745
O O17 0.144461 0.000000 0.833498
#
# Coordination Sequence:
#
# PCOD8206508 Si02
#       7
#     8   4   4   8   8   8   8
#     4   8  16  31  46  61  88 124 152 175 215 270
#     4   8  16  32  46  58  86 124 150 170 216 278
#     4  10  18  28  46  69  88 113 156 195 215 251
#     4   9  17  29  47  67  86 113 147 182 218 260
#     4   9  18  32  47  65  94 125 147 177 227 273
#     4   9  17  29  46  67  90 116 145 183 229 264
#     4   9  17  29  46  66  88 119 155 184 214 263
#
# _framework density 16.106147
#
# number of rings (size 3 to 8) (size 9 to 14) (size 15 to 20)
#    0.000    3.167    0.000    2.750    0.000    4.333 
#    0.000    3.333    0.000    6.500    0.000    2.333 
#    0.000    0.000    0.000    0.000    0.000    0.000 
#
# Total GULP energy -594777.229602 kJ/mol
# GULP energy per Si atom -12391.192283 kJ/mol
# Density = 1.606949 g / cm^3
# Si number density = 16.106147 Si / 1000 Ang^3
#
#
#
# Elastic Constant Matrix: (Units=GPa)
#
#
# Indices 1 2 3 4 5 6 
#
# 1 80.2449 45.9663 48.1159 0.0000 0.0000 0.0000
# 2 45.9663 82.3027 51.3470 0.0000 0.0000 0.0000
# 3 48.1159 51.3470 87.2199 0.0000 0.0000 0.0000
# 4 0.0000 0.0000 0.0000 8.0402 0.0000 0.0000
# 5 0.0000 0.0000 0.0000 0.0000 29.4316 0.0000
# 6 0.0000 0.0000 0.0000 0.0000 0.0000 23.1163
#
#
#
# Elastic Compliance Matrix: (Units=1/GPa)
#
#
# Indices 1 2 3 4 5 6 
#
# 1 0.020953 -0.007098 -0.007380 0.000000 0.000000 0.000000
# 2 -0.007098 0.021608 -0.008805 0.000000 0.000000 0.000000
# 3 -0.007380 -0.008805 0.020720 0.000000 0.000000 0.000000
# 4 0.000000 0.000000 0.000000 0.124374 0.000000 0.000000
# 5 0.000000 0.000000 0.000000 0.000000 0.033977 0.000000
# 6 0.000000 0.000000 0.000000 0.000000 0.000000 0.043260
#
#
# Mechanical properties :
#
#
# Convention : Reuss Voigt Hill
#
# Bulk Modulus (GPa) = 59.82819 60.06956 59.94888
# Shear Modulus (GPa) = 15.77136 19.07351 17.42244
#
# Velocity S-wave (km/s) = 3.13263 3.44501 3.29253
# Velocity P-wave (km/s) = 7.09305 7.29391 7.19418
#
# Compressibility (1/GPa) = 0.01671453
#
# Stress axis : x y z
#
# Youngs Moduli (GPa) = 47.72562 46.27980 48.26161
#
# Poissons Ratio (x) = 0.32849 0.35619
# Poissons Ratio (y) = 0.33875 0.42494
# Poissons Ratio (z) = 0.35224 0.40749
#
# Static dielectric constant tensor:
#      x y z
#    x 3.171090 0.000000 0.000000 
#    y 0.000000 3.092660 0.000000 
#    z 0.000000 0.000000 3.125900 
# 
# 
# High freq. dielectric constant tensor:
#      x y z
#    x 1.616370 0.000000 0.000000 
#    y 0.000000 1.606710 0.000000 
#    z 0.000000 0.000000 1.601680 
# 
# From -- ./inp_files/18149.got.cif
#   From: 2010.03.12/outbox.cif.g09.slc.cpg/sg51_10_cif.got.tgz:18149.got - 2010.04.16 13:43:02.
