data_PCOD8206147
_publ_section_title
;
Structure prediction by ZEFSAII (Michael W. Deem and Ramdas Pophale) SiO2 
 PCOD8206147
Probable space group: P M M A
;
_chemical_formula_sum "Si O2"
_cell_formula_units_Z 48
_cell_length_a 21.684200
_cell_length_b 8.721800
_cell_length_c 15.128567
_cell_angle_alpha 90.000000
_cell_angle_beta 90.000000
_cell_angle_gamma 90.000000
_cell_volume 2861.194100
_symmetry_space_group_name_H-M "P M M A"
_symmetry_group_IT_number 51
_symmetry_cell_setting 'orthorhombic'
loop_
_space_group_symop_operation_xyz
x,y,z
1/2-x,-y,z
1/2+x,-y,-z
-x,y,-z
-x,-y,-z
1/2+x,y,-z
1/2-x,y,z
x,-y,z
loop_
_atom_site_type_symbol
_atom_site_label
_atom_site_fract_x
_atom_site_fract_y
_atom_site_fract_z
Si Si1 0.914837 0.818370 0.549231
Si Si2 0.680965 0.182237 0.693227
Si Si3 0.458719 0.821312 0.800217
Si Si4 0.070955 0.673171 0.973718
Si Si5 0.097492 0.820093 0.148354
Si Si6 0.461042 0.680498 0.619395
O O1 0.855458 0.765630 0.605511
O O2 0.911863 0.731991 0.455155
O O3 0.975565 0.770939 0.603087
O O4 0.916209 0.000000 0.534250
O O5 0.750000 0.250297 0.689545
O O6 0.646868 0.243882 0.781118
O O7 0.681851 0.000000 0.697549
O O8 0.418045 0.770464 0.884567
O O9 0.529962 0.778093 0.815654
O O10 0.434936 0.727772 0.715028
O O11 0.449102 0.000000 0.783244
O O12 0.091704 0.500000 0.955678
O O13 0.111162 0.740585 0.054265
O O14 0.000000 0.685095 0.000000
O O15 0.103598 0.000000 0.133498
O O16 0.472654 0.500000 0.613444
#
# Coordination Sequence:
#
# PCOD8206147 Si02
#       6
#     8   8   8   8   8   8
#     4  10  18  31  47  66  91 123 159 195 234 280
#     4   9  17  30  49  71  93 121 160 200 233 268
#     4  10  17  28  45  67  91 122 155 187 227 279
#     4   9  17  27  40  63  92 122 149 182 224 269
#     4   9  16  28  44  64  90 122 155 189 225 269
#     4  11  20  29  44  67  95 125 154 192 239 286
#
# _framework density 16.776212999999998
#
# number of rings (size 3 to 8) (size 9 to 14) (size 15 to 20)
#    0.000    2.333    1.667    4.000    0.000    2.667 
#    0.000    0.000    0.000    4.500    0.000    1.167 
#    0.000    9.333    0.000    0.000    0.000    0.000 
#
# Total GULP energy -595143.196295 kJ/mol
# GULP energy per Si atom -12398.816589 kJ/mol
# Density = 1.673803 g / cm^3
# Si number density = 16.776213 Si / 1000 Ang^3
#
#
#
# Elastic Constant Matrix: (Units=GPa)
#
#
# Indices 1 2 3 4 5 6 
#
# 1 65.8319 13.6639 47.4417 0.0000 0.0000 0.0000
# 2 13.6639 57.8315 40.1563 0.0000 0.0000 0.0000
# 3 47.4417 40.1563 154.4404 0.0000 0.0000 0.0000
# 4 0.0000 0.0000 0.0000 25.2627 0.0000 0.0000
# 5 0.0000 0.0000 0.0000 0.0000 19.7982 0.0000
# 6 0.0000 0.0000 0.0000 0.0000 0.0000 5.9317
#
#
#
# Elastic Compliance Matrix: (Units=1/GPa)
#
#
# Indices 1 2 3 4 5 6 
#
# 1 0.019523 -0.000547 -0.005855 0.000000 0.000000 0.000000
# 2 -0.000547 0.021117 -0.005322 0.000000 0.000000 0.000000
# 3 -0.005855 -0.005322 0.009657 0.000000 0.000000 0.000000
# 4 0.000000 0.000000 0.000000 0.039584 0.000000 0.000000
# 5 0.000000 0.000000 0.000000 0.000000 0.050510 0.000000
# 6 0.000000 0.000000 0.000000 0.000000 0.000000 0.168587
#
#
# Mechanical properties :
#
#
# Convention : Reuss Voigt Hill
#
# Bulk Modulus (GPa) = 37.24685 53.40306 45.32496
# Shear Modulus (GPa) = 14.64660 21.98797 18.31729
#
# Velocity S-wave (km/s) = 2.95796 3.62424 3.30792
# Velocity P-wave (km/s) = 5.82378 7.02959 6.45490
#
# Compressibility (1/GPa) = 0.02684790
#
# Stress axis : x y z
#
# Youngs Moduli (GPa) = 51.22130 47.35597 103.54740
#
# Poissons Ratio (x) = 0.02592 0.60626
# Poissons Ratio (y) = 0.02803 0.55113
# Poissons Ratio (z) = 0.29989 0.25205
#
# Static dielectric constant tensor:
#      x y z
#    x 2.839450 0.000000 0.000000 
#    y 0.000000 3.041870 0.000000 
#    z 0.000000 0.000000 3.473300 
# 
# 
# High freq. dielectric constant tensor:
#      x y z
#    x 1.579510 0.000000 0.000000 
#    y 0.000000 1.643470 0.000000 
#    z 0.000000 0.000000 1.665750 
# 
# From -- ./inp_files/25462.got.cif
#   From: 2010.03.12/outbox.cif.g09.slc.cpg/sg51_13_cif.got.tgz:25462.got - 2010.04.16 13:43:02.
