data_PCOD8206256
_publ_section_title
;
Structure prediction by ZEFSAII (Michael W. Deem and Ramdas Pophale) SiO2 
 PCOD8206256
Probable space group: P M M A
;
_chemical_formula_sum "Si O2"
_cell_formula_units_Z 56
_cell_length_a 9.015408
_cell_length_b 21.537373
_cell_length_c 18.082033
_cell_angle_alpha 90.000000
_cell_angle_beta 90.000000
_cell_angle_gamma 90.000000
_cell_volume 3510.955888
_symmetry_space_group_name_H-M "P M M A"
_symmetry_group_IT_number 51
_symmetry_cell_setting 'orthorhombic'
loop_
_space_group_symop_operation_xyz
x,y,z
1/2-x,-y,z
1/2+x,-y,-z
-x,y,-z
-x,-y,-z
1/2+x,y,-z
1/2-x,y,z
x,-y,z
loop_
_atom_site_type_symbol
_atom_site_label
_atom_site_fract_x
_atom_site_fract_y
_atom_site_fract_z
Si Si1 0.923720 0.570074 0.075496
Si Si2 0.073166 0.181714 0.578513
Si Si3 0.076791 0.318790 0.823804
Si Si4 0.086452 0.865789 0.197565
Si Si5 0.076542 0.070634 0.340622
Si Si6 0.584020 0.745640 0.700903
Si Si7 0.422349 0.799269 0.921823
O O1 0.750000 0.575593 0.061464
O O2 0.970988 0.500000 0.097024
O O3 0.972838 0.615449 0.141627
O O4 0.000000 0.591702 0.000000
O O5 0.250000 0.182983 0.573111
O O6 0.000000 0.193889 0.500000
O O7 0.022354 0.114411 0.607905
O O8 0.017583 0.237657 0.630767
O O9 0.250000 0.316610 0.804979
O O10 0.035990 0.265405 0.882727
O O11 0.988605 0.310845 0.746994
O O12 0.250000 0.879889 0.165259
O O13 0.034986 0.920354 0.253621
O O14 0.090203 0.804251 0.246190
O O15 0.975025 0.857116 0.129112
O O16 0.250000 0.087817 0.352131
O O17 0.043138 0.000000 0.363315
O O18 0.750000 0.726886 0.675177
O O19 0.250000 0.806539 0.935275
O O20 0.500000 0.802118 0.000000
#
# Coordination Sequence:
#
# PCOD8206256 Si02
#       7
#     8   8   8   8   8   8   8
#     4   9  17  28  41  59  88 126 164 199 233 268
#     4  11  21  33  49  69  95 122 146 175 213 257
#     4   9  17  28  42  62  87 116 151 188 226 266
#     4   8  15  28  44  61  82 107 135 171 216 262
#     4   9  18  33  51  69  89 115 147 179 212 255
#     4   9  17  30  47  66  87 113 145 180 221 265
#     4  10  18  26  39  59  82 107 138 180 225 267
#
# _framework density 15.950073
#
# number of rings (size 3 to 8) (size 9 to 14) (size 15 to 20)
#    0.000    2.714    0.000    3.429    0.000    5.143 
#    0.000    0.000    0.000    0.429    0.000    0.000 
#    0.000    0.571    0.000    1.571    0.000    2.286 
#
# Total GULP energy -694230.322096 kJ/mol
# GULP energy per Si atom -12396.970037 kJ/mol
# Density = 1.591377 g / cm^3
# Si number density = 15.950073 Si / 1000 Ang^3
#
#
#
# Elastic Constant Matrix: (Units=GPa)
#
#
# Indices 1 2 3 4 5 6 
#
# 1 92.9360 32.1872 65.3522 0.0000 0.0000 0.0000
# 2 32.1872 61.5742 48.4078 0.0000 0.0000 0.0000
# 3 65.3522 48.4078 112.0031 0.0000 0.0000 0.0000
# 4 0.0000 0.0000 0.0000 18.4037 0.0000 0.0000
# 5 0.0000 0.0000 0.0000 0.0000 30.1815 0.0000
# 6 0.0000 0.0000 0.0000 0.0000 0.0000 17.3998
#
#
#
# Elastic Compliance Matrix: (Units=1/GPa)
#
#
# Indices 1 2 3 4 5 6 
#
# 1 0.018375 -0.001782 -0.009951 0.000000 0.000000 0.000000
# 2 -0.001782 0.024772 -0.009667 0.000000 0.000000 0.000000
# 3 -0.009951 -0.009667 0.018913 0.000000 0.000000 0.000000
# 4 0.000000 0.000000 0.000000 0.054337 0.000000 0.000000
# 5 0.000000 0.000000 0.000000 0.000000 0.033133 0.000000
# 6 0.000000 0.000000 0.000000 0.000000 0.000000 0.057472
#
#
# Mechanical properties :
#
#
# Convention : Reuss Voigt Hill
#
# Bulk Modulus (GPa) = 51.92216 62.04532 56.98374
# Shear Modulus (GPa) = 19.51441 21.23474 20.37458
#
# Velocity S-wave (km/s) = 3.50161 3.65269 3.57795
# Velocity P-wave (km/s) = 6.99799 7.53483 7.27137
#
# Compressibility (1/GPa) = 0.01925960
#
# Stress axis : x y z
#
# Youngs Moduli (GPa) = 54.42176 40.36878 52.87428
#
# Poissons Ratio (x) = 0.07193 0.52618
# Poissons Ratio (y) = 0.09697 0.51112
# Poissons Ratio (z) = 0.54158 0.39023
#
# Static dielectric constant tensor:
#      x y z
#    x 3.153700 0.000000 0.000000 
#    y 0.000000 3.008450 0.000000 
#    z 0.000000 0.000000 3.039880 
# 
# 
# High freq. dielectric constant tensor:
#      x y z
#    x 1.620010 0.000000 0.000000 
#    y 0.000000 1.579450 0.000000 
#    z 0.000000 0.000000 1.602010 
# 
# From -- ./inp_files/28174.got.cif
#   From: 2010.03.12/outbox.cif.g09.slc.cpg/sg51_15_cif.got.tgz:28174.got - 2010.04.16 13:43:02.
