data_PCOD8206361
_publ_section_title
;
Structure prediction by ZEFSAII (Michael W. Deem and Ramdas Pophale) SiO2 
 PCOD8206361
Probable space group: P M M A
;
_chemical_formula_sum "Si O2"
_cell_formula_units_Z 48
_cell_length_a 25.927998
_cell_length_b 9.278355
_cell_length_c 11.928343
_cell_angle_alpha 90.000000
_cell_angle_beta 90.000000
_cell_angle_gamma 90.000000
_cell_volume 2869.591574
_symmetry_space_group_name_H-M "P M M A"
_symmetry_group_IT_number 51
_symmetry_cell_setting 'orthorhombic'
loop_
_space_group_symop_operation_xyz
x,y,z
1/2-x,-y,z
1/2+x,-y,-z
-x,y,-z
-x,-y,-z
1/2+x,y,-z
1/2-x,y,z
x,-y,z
loop_
_atom_site_type_symbol
_atom_site_label
_atom_site_fract_x
_atom_site_fract_y
_atom_site_fract_z
Si Si1 0.388703 0.834355 0.675971
Si Si2 0.191151 0.671280 0.817075
Si Si3 0.382486 0.331302 0.009867
Si Si4 0.554532 0.834794 0.545886
Si Si5 0.460350 0.662774 0.826444
Si Si6 0.424458 0.664400 0.232678
O O1 0.338238 0.744673 0.712668
O O2 0.399238 0.819464 0.543620
O O3 0.440077 0.772829 0.733269
O O4 0.380793 0.000000 0.710897
O O5 0.250000 0.723033 0.816016
O O6 0.186256 0.500000 0.803762
O O7 0.165691 0.724595 0.934890
O O8 0.377210 0.500000 0.025802
O O9 0.435536 0.292984 0.945342
O O10 0.384783 0.270479 0.138176
O O11 0.500000 0.769502 0.500000
O O12 0.575822 0.754940 0.654731
O O13 0.544460 0.000000 0.578724
O O14 0.442205 0.500000 0.795059
O O15 0.521322 0.672566 0.831893
O O16 0.411213 0.500000 0.265560
#
# Coordination Sequence:
#
# PCOD8206361 Si02
#       6
#     8   8   8   8   8   8
#     4  10  19  31  48  69  95 128 163 199 237 276
#     4   9  18  34  56  76  94 118 150 196 250 294
#     4   8  15  28  45  69  97 121 150 190 238 287
#     4  10  20  33  45  62  97 138 168 196 232 278
#     4   9  16  27  44  66  95 127 158 193 232 276
#     4  10  18  27  45  69  94 128 166 197 227 273
#
# _framework density 16.727118000000001
#
# number of rings (size 3 to 8) (size 9 to 14) (size 15 to 20)
#    0.000    2.667    1.667    2.000    0.000    4.000 
#    0.000    3.333    0.000    6.000    0.000    2.333 
#    0.000    0.000    0.000    0.000    0.000    0.000 
#
# Total GULP energy -594769.198770 kJ/mol
# GULP energy per Si atom -12391.024974 kJ/mol
# Density = 1.668905 g / cm^3
# Si number density = 16.727118 Si / 1000 Ang^3
#
#
#
# Elastic Constant Matrix: (Units=GPa)
#
#
# Indices 1 2 3 4 5 6 
#
# 1 69.0783 24.0281 39.9308 0.0000 0.0000 0.0000
# 2 24.0281 52.7625 44.4558 0.0000 0.0000 0.0000
# 3 39.9308 44.4558 120.4952 0.0000 0.0000 0.0000
# 4 0.0000 0.0000 0.0000 0.8406 0.0000 0.0000
# 5 0.0000 0.0000 0.0000 0.0000 14.0217 0.0000
# 6 0.0000 0.0000 0.0000 0.0000 0.0000 14.4083
#
#
#
# Elastic Compliance Matrix: (Units=1/GPa)
#
#
# Indices 1 2 3 4 5 6 
#
# 1 0.018702 -0.004781 -0.004434 0.000000 0.000000 0.000000
# 2 -0.004781 0.028725 -0.009013 0.000000 0.000000 0.000000
# 3 -0.004434 -0.009013 0.013094 0.000000 0.000000 0.000000
# 4 0.000000 0.000000 0.000000 1.189622 0.000000 0.000000
# 5 0.000000 0.000000 0.000000 0.000000 0.071318 0.000000
# 6 0.000000 0.000000 0.000000 0.000000 0.000000 0.069405
#
#
# Mechanical properties :
#
#
# Convention : Reuss Voigt Hill
#
# Bulk Modulus (GPa) = 41.55580 51.01837 46.28709
# Shear Modulus (GPa) = 3.48349 14.78220 9.13284
#
# Velocity S-wave (km/s) = 1.44467 2.97598 2.33918
# Velocity P-wave (km/s) = 5.26118 6.50962 5.91841
#
# Compressibility (1/GPa) = 0.02406403
#
# Stress axis : x y z
#
# Youngs Moduli (GPa) = 53.46910 34.81345 76.37250
#
# Poissons Ratio (x) = 0.16646 0.33861
# Poissons Ratio (y) = 0.25566 0.68836
# Poissons Ratio (z) = 0.23707 0.31378
#
# Static dielectric constant tensor:
#      x y z
#    x 3.018360 0.000000 0.000000 
#    y 0.000000 2.992990 0.000000 
#    z 0.000000 0.000000 3.217350 
# 
# 
# High freq. dielectric constant tensor:
#      x y z
#    x 1.614990 0.000000 0.000000 
#    y 0.000000 1.625200 0.000000 
#    z 0.000000 0.000000 1.646110 
# 
# From -- ./inp_files/18979.got.cif
#   From: 2010.03.12/outbox.cif.g09.slc.cpg/sg51_10_cif.got.tgz:18979.got - 2010.04.16 13:43:02.
