data_PCOD8206082
_publ_section_title
;
Structure prediction by ZEFSAII (Michael W. Deem and Ramdas Pophale) SiO2 
 PCOD8206082
Probable space group: P M M A
;
_chemical_formula_sum "Si O2"
_cell_formula_units_Z 64
_cell_length_a 18.534778
_cell_length_b 14.323505
_cell_length_c 14.011009
_cell_angle_alpha 90.000000
_cell_angle_beta 90.000000
_cell_angle_gamma 90.000000
_cell_volume 3719.684497
_symmetry_space_group_name_H-M "P M M A"
_symmetry_group_IT_number 51
_symmetry_cell_setting 'orthorhombic'
loop_
_space_group_symop_operation_xyz
x,y,z
1/2-x,-y,z
1/2+x,-y,-z
-x,y,-z
-x,-y,-z
1/2+x,y,-z
1/2-x,y,z
x,-y,z
loop_
_atom_site_type_symbol
_atom_site_label
_atom_site_fract_x
_atom_site_fract_y
_atom_site_fract_z
Si Si1 0.664877 0.601045 0.494263
Si Si2 0.461098 0.893422 0.908298
Si Si3 0.830145 0.893823 0.974215
Si Si4 0.164161 0.796198 0.575984
Si Si5 0.047558 0.890091 0.697826
Si Si6 0.897619 0.891217 0.611358
Si Si7 0.664218 0.602395 0.707900
Si Si8 0.835526 0.792162 0.790434
O O1 0.750000 0.598519 0.504910
O O2 0.637434 0.500000 0.454163
O O3 0.643507 0.685930 0.424753
O O4 0.633400 0.616938 0.600825
O O5 0.474331 0.849366 0.803088
O O6 0.488861 0.000000 0.904401
O O7 0.500000 0.844422 0.000000
O O8 0.375665 0.885260 0.928827
O O9 0.750000 0.858969 0.999296
O O10 0.866505 0.831654 0.890123
O O11 0.829689 0.000000 0.936539
O O12 0.250000 0.812983 0.588133
O O13 0.121231 0.841742 0.663365
O O14 0.136989 0.838100 0.476833
O O15 0.983120 0.869394 0.623357
O O16 0.063220 0.000000 0.706215
O O17 0.856954 0.861525 0.706428
O O18 0.885477 0.000000 0.593412
O O19 0.750000 0.607956 0.706174
O O20 0.639692 0.500000 0.746951
O O21 0.634092 0.686898 0.773194
O O22 0.750000 0.792540 0.797096
#
# Coordination Sequence:
#
# PCOD8206082 Si02
#       8
#     8   8   8   8   8   8   8   8
#     4   8  14  27  47  69  93 122 157 195 232 271
#     4   9  17  32  51  66  83 117 164 202 234 277
#     4   9  17  27  41  65  95 119 144 190 245 284
#     4  11  21  33  50  73  98 129 163 192 228 278
#     4  10  22  36  49  67  95 130 164 199 235 275
#     4  11  21  32  45  64  97 136 165 190 226 274
#     4   8  13  23  40  63  92 123 155 193 236 280
#     4  10  17  26  43  70  97 123 156 195 238 284
#
# _framework density 17.205760000000001
#
# number of rings (size 3 to 8) (size 9 to 14) (size 15 to 20)
#    0.000    2.500    1.250    3.000    0.000    5.750 
#    0.000    1.250    0.000    2.250    0.000    0.875 
#    0.000    6.000    0.000    0.000    0.000    0.000 
#
# Total GULP energy -792979.444395 kJ/mol
# GULP energy per Si atom -12390.303819 kJ/mol
# Density = 1.716660 g / cm^3
# Si number density = 17.205760 Si / 1000 Ang^3
#
#
#
# Elastic Constant Matrix: (Units=GPa)
#
#
# Indices 1 2 3 4 5 6 
#
# 1 42.3649 21.0206 25.9923 0.0000 0.0000 0.0000
# 2 21.0206 74.8256 16.9348 0.0000 0.0000 0.0000
# 3 25.9923 16.9348 62.0689 0.0000 0.0000 0.0000
# 4 0.0000 0.0000 0.0000 10.1487 0.0000 0.0000
# 5 0.0000 0.0000 0.0000 0.0000 23.0990 0.0000
# 6 0.0000 0.0000 0.0000 0.0000 0.0000 9.0297
#
#
#
# Elastic Compliance Matrix: (Units=1/GPa)
#
#
# Indices 1 2 3 4 5 6 
#
# 1 0.034823 -0.006909 -0.012698 0.000000 0.000000 0.000000
# 2 -0.006909 0.015615 -0.001367 0.000000 0.000000 0.000000
# 3 -0.012698 -0.001367 0.021801 0.000000 0.000000 0.000000
# 4 0.000000 0.000000 0.000000 0.098535 0.000000 0.000000
# 5 0.000000 0.000000 0.000000 0.000000 0.043292 0.000000
# 6 0.000000 0.000000 0.000000 0.000000 0.000000 0.110745
#
#
# Mechanical properties :
#
#
# Convention : Reuss Voigt Hill
#
# Bulk Modulus (GPa) = 33.01222 34.12832 33.57027
# Shear Modulus (GPa) = 13.26769 16.14294 14.70532
#
# Velocity S-wave (km/s) = 2.77992 3.06638 2.92665
# Velocity P-wave (km/s) = 5.43436 5.69345 5.56541
#
# Compressibility (1/GPa) = 0.03029181
#
# Stress axis : x y z
#
# Youngs Moduli (GPa) = 28.71674 64.04202 45.86859
#
# Poissons Ratio (x) = 0.44247 0.58242
# Poissons Ratio (y) = 0.19840 0.06271
# Poissons Ratio (z) = 0.36463 0.08755
#
# Static dielectric constant tensor:
#      x y z
#    x 3.115670 0.000000 0.000000 
#    y 0.000000 3.484700 0.000000 
#    z 0.000000 0.000000 3.165450 
# 
# 
# High freq. dielectric constant tensor:
#      x y z
#    x 1.649090 0.000000 0.000000 
#    y 0.000000 1.645320 0.000000 
#    z 0.000000 0.000000 1.644850 
# 
# From -- ./inp_files/25333.got.cif
#   From: 2010.03.12/outbox.cif.g09.slc.cpg/sg51_13_cif.got.tgz:25333.got - 2010.04.16 13:43:02.
