data_PCOD8206650
_publ_section_title
;
Structure prediction by ZEFSAII (Michael W. Deem and Ramdas Pophale) SiO2 
 PCOD8206650
Probable space group: P M M A
;
_chemical_formula_sum "Si O2"
_cell_formula_units_Z 48
_cell_length_a 21.174920
_cell_length_b 8.655087
_cell_length_c 15.076939
_cell_angle_alpha 90.000000
_cell_angle_beta 90.000000
_cell_angle_gamma 90.000000
_cell_volume 2763.162292
_symmetry_space_group_name_H-M "P M M A"
_symmetry_group_IT_number 51
_symmetry_cell_setting 'orthorhombic'
loop_
_space_group_symop_operation_xyz
x,y,z
1/2-x,-y,z
1/2+x,-y,-z
-x,y,-z
-x,-y,-z
1/2+x,y,-z
1/2-x,y,z
x,-y,z
loop_
_atom_site_type_symbol
_atom_site_label
_atom_site_fract_x
_atom_site_fract_y
_atom_site_fract_z
Si Si1 0.676818 0.179301 0.188792
Si Si2 0.459718 0.181386 0.119874
Si Si3 0.546122 0.320827 0.698340
Si Si4 0.087044 0.318769 0.948631
Si Si5 0.426404 0.174478 0.478938
Si Si6 0.099436 0.678819 0.656437
O O1 0.750000 0.220627 0.195605
O O2 0.648703 0.276627 0.107369
O O3 0.644888 0.222749 0.281471
O O4 0.664872 0.000000 0.169725
O O5 0.430784 0.229731 0.214401
O O6 0.525525 0.270719 0.107074
O O7 0.472597 0.000000 0.115919
O O8 0.411052 0.230006 0.042638
O O9 0.561287 0.500000 0.709806
O O10 0.585881 0.256898 0.615114
O O11 0.472198 0.289283 0.684835
O O12 0.084941 0.500000 0.966799
O O13 0.500000 0.177964 0.500000
O O14 0.389288 0.267001 0.555360
O O15 0.400772 0.000000 0.474887
O O16 0.117061 0.500000 0.665301
#
# Coordination Sequence:
#
# PCOD8206650 Si02
#       6
#     8   8   8   8   8   8
#     4  11  23  37  53  73  99 133 173 214 254 300
#     4  11  20  31  50  73 101 134 167 205 254 308
#     4  10  18  29  46  72 102 132 165 202 246 299
#     4  11  21  34  50  71  99 131 168 210 255 304
#     4   9  17  28  44  67  97 131 164 198 239 291
#     4  10  19  31  48  69  98 132 166 207 248 295
#
# _framework density 17.371402
#
# number of rings (size 3 to 8) (size 9 to 14) (size 15 to 20)
#    0.000    1.667    1.667    6.000    0.000    4.667 
#    0.000    0.000    0.000    0.000    0.000    1.167 
#    0.000    9.333    0.000    0.000    0.000    0.000 
#
# Total GULP energy -595352.937645 kJ/mol
# GULP energy per Si atom -12403.186201 kJ/mol
# Density = 1.733186 g / cm^3
# Si number density = 17.371402 Si / 1000 Ang^3
#
#
#
# Elastic Constant Matrix: (Units=GPa)
#
#
# Indices 1 2 3 4 5 6 
#
# 1 39.8285 15.8501 21.7214 0.0000 0.0000 0.0000
# 2 15.8501 83.4763 29.0035 0.0000 0.0000 0.0000
# 3 21.7214 29.0035 138.2380 0.0000 0.0000 0.0000
# 4 0.0000 0.0000 0.0000 37.9998 0.0000 0.0000
# 5 0.0000 0.0000 0.0000 0.0000 13.8815 0.0000
# 6 0.0000 0.0000 0.0000 0.0000 0.0000 14.8878
#
#
#
# Elastic Compliance Matrix: (Units=1/GPa)
#
#
# Indices 1 2 3 4 5 6 
#
# 1 0.028762 -0.004197 -0.003639 0.000000 0.000000 0.000000
# 2 -0.004197 0.013534 -0.002180 0.000000 0.000000 0.000000
# 3 -0.003639 -0.002180 0.008263 0.000000 0.000000 0.000000
# 4 0.000000 0.000000 0.000000 0.026316 0.000000 0.000000
# 5 0.000000 0.000000 0.000000 0.000000 0.072038 0.000000
# 6 0.000000 0.000000 0.000000 0.000000 0.000000 0.067169
#
#
# Mechanical properties :
#
#
# Convention : Reuss Voigt Hill
#
# Bulk Modulus (GPa) = 32.75734 43.85476 38.30605
# Shear Modulus (GPa) = 20.30124 26.35166 23.32645
#
# Velocity S-wave (km/s) = 3.42227 3.89904 3.66841
# Velocity P-wave (km/s) = 5.87486 6.75057 6.32788
#
# Compressibility (1/GPa) = 0.03052751
#
# Stress axis : x y z
#
# Youngs Moduli (GPa) = 34.76760 73.88908 121.02039
#
# Poissons Ratio (x) = 0.31011 0.44038
# Poissons Ratio (y) = 0.14592 0.26383
# Poissons Ratio (z) = 0.12652 0.16108
#
# Static dielectric constant tensor:
#      x y z
#    x 2.735540 0.000000 0.000000 
#    y 0.000000 3.393780 0.000000 
#    z 0.000000 0.000000 3.524700 
# 
# 
# High freq. dielectric constant tensor:
#      x y z
#    x 1.600470 0.000000 0.000000 
#    y 0.000000 1.692740 0.000000 
#    z 0.000000 0.000000 1.689950 
# 
# From -- ./inp_files/25444.got.cif
#   From: 2010.03.12/outbox.cif.g09.slc.cpg/sg51_13_cif.got.tgz:25444.got - 2010.04.16 13:43:02.
