data_PCOD8206087
_publ_section_title
;
Structure prediction by ZEFSAII (Michael W. Deem and Ramdas Pophale) SiO2 
 PCOD8206087
Probable space group: P M M A
;
_chemical_formula_sum "Si O2"
_cell_formula_units_Z 64
_cell_length_a 8.927203
_cell_length_b 14.475740
_cell_length_c 29.050469
_cell_angle_alpha 90.000000
_cell_angle_beta 90.000000
_cell_angle_gamma 90.000000
_cell_volume 3754.130218
_symmetry_space_group_name_H-M "P M M A"
_symmetry_group_IT_number 51
_symmetry_cell_setting 'orthorhombic'
loop_
_space_group_symop_operation_xyz
x,y,z
1/2-x,-y,z
1/2+x,-y,-z
-x,y,-z
-x,-y,-z
1/2+x,y,-z
1/2-x,y,z
x,-y,z
loop_
_atom_site_type_symbol
_atom_site_label
_atom_site_fract_x
_atom_site_fract_y
_atom_site_fract_z
Si Si1 0.085117 0.390251 0.456300
Si Si2 0.427081 0.228889 0.953336
Si Si3 0.928389 0.396776 0.643745
Si Si4 0.427363 0.287080 0.268339
Si Si5 0.079325 0.391609 0.814083
Si Si6 0.427055 0.899418 0.225835
Si Si7 0.426196 0.393718 0.092046
Si Si8 0.421271 0.107834 0.122468
O O1 0.250000 0.346881 0.458162
O O2 0.092576 0.500000 0.460896
O O3 0.009055 0.366132 0.406697
O O4 0.000000 0.346550 0.500000
O O5 0.250000 0.231716 0.958599
O O6 0.489486 0.332403 0.945715
O O7 0.471407 0.162928 0.911456
O O8 0.500000 0.189230 0.000000
O O9 0.750000 0.399928 0.640361
O O10 0.986688 0.500000 0.656695
O O11 0.981685 0.322712 0.681722
O O12 0.250000 0.300870 0.262032
O O13 0.511631 0.346381 0.230831
O O14 0.474887 0.179574 0.262211
O O15 0.250000 0.359138 0.821861
O O16 0.069595 0.500000 0.806421
O O17 0.981445 0.361091 0.857792
O O18 0.250000 0.908179 0.223536
O O19 0.480765 0.872980 0.174337
O O20 0.493538 0.000000 0.240750
O O21 0.250000 0.377090 0.088759
O O22 0.469565 0.500000 0.082852
O O23 0.250000 0.142408 0.116437
O O24 0.432567 0.000000 0.110927
#
# Coordination Sequence:
#
# PCOD8206087 Si02
#       8
#     8   8   8   8   8   8   8   8
#     4   8  13  22  35  50  72 105 145 188 229 268
#     4  12  25  39  56  77 102 127 152 187 230 278
#     4   8  14  23  35  56  86 116 149 189 228 267
#     4  10  17  26  45  67  89 122 157 186 221 271
#     4  10  20  32  46  68  98 126 151 184 225 265
#     4   8  15  28  47  71  94 115 143 181 222 261
#     4  10  21  38  58  76  95 123 160 196 227 266
#     4   9  18  35  57  77  99 126 155 189 228 272
#
# _framework density 17.047889000000001
#
# number of rings (size 3 to 8) (size 9 to 14) (size 15 to 20)
#    0.000    2.625    0.000    4.500    0.000    3.750 
#    0.000    0.625    0.000    3.375    0.000    0.000 
#    0.000    0.500    0.000    0.375    0.000    0.750 
#
# Total GULP energy -793310.067116 kJ/mol
# GULP energy per Si atom -12395.469799 kJ/mol
# Density = 1.700909 g / cm^3
# Si number density = 17.047889 Si / 1000 Ang^3
#
#
#
# Elastic Constant Matrix: (Units=GPa)
#
#
# Indices 1 2 3 4 5 6 
#
# 1 66.1940 27.6669 29.8606 0.0000 0.0000 0.0000
# 2 27.6669 67.9818 65.9111 0.0000 0.0000 0.0000
# 3 29.8606 65.9111 114.9154 0.0000 0.0000 0.0000
# 4 0.0000 0.0000 0.0000 12.5431 0.0000 0.0000
# 5 0.0000 0.0000 0.0000 0.0000 22.0313 0.0000
# 6 0.0000 0.0000 0.0000 0.0000 0.0000 16.7823
#
#
#
# Elastic Compliance Matrix: (Units=1/GPa)
#
#
# Indices 1 2 3 4 5 6 
#
# 1 0.018264 -0.006379 -0.001087 0.000000 0.000000 0.000000
# 2 -0.006379 0.035365 -0.018626 0.000000 0.000000 0.000000
# 3 -0.001087 -0.018626 0.019668 0.000000 0.000000 0.000000
# 4 0.000000 0.000000 0.000000 0.079725 0.000000 0.000000
# 5 0.000000 0.000000 0.000000 0.000000 0.045390 0.000000
# 6 0.000000 0.000000 0.000000 0.000000 0.000000 0.059587
#
#
# Mechanical properties :
#
#
# Convention : Reuss Voigt Hill
#
# Bulk Modulus (GPa) = 47.36703 55.10760 51.23731
# Shear Modulus (GPa) = 15.76191 18.64817 17.20504
#
# Velocity S-wave (km/s) = 3.04397 3.31096 3.18027
# Velocity P-wave (km/s) = 6.34029 6.85653 6.60346
#
# Compressibility (1/GPa) = 0.02111173
#
# Stress axis : x y z
#
# Youngs Moduli (GPa) = 54.75354 28.27661 50.84409
#
# Poissons Ratio (x) = 0.18037 0.05527
# Poissons Ratio (y) = 0.34926 0.94704
# Poissons Ratio (z) = 0.05952 0.52669
#
# Static dielectric constant tensor:
#      x y z
#    x 3.078040 0.000000 0.000000 
#    y 0.000000 3.456560 0.000000 
#    z 0.000000 0.000000 3.367420 
# 
# 
# High freq. dielectric constant tensor:
#      x y z
#    x 1.636440 0.000000 0.000000 
#    y 0.000000 1.638920 0.000000 
#    z 0.000000 0.000000 1.650930 
# 
# From -- ./inp_files/37675.got.cif
#   From: 2010.03.12/outbox.cif.g09.slc.cpg/sg51_19_cif.got.tgz:37675.got - 2010.04.16 13:43:02.
