data_PCOD8206974
_publ_section_title
;
Structure prediction by ZEFSAII (Michael W. Deem and Ramdas Pophale) SiO2 
 PCOD8206974
Probable space group: P M M A
;
_chemical_formula_sum "Si O2"
_cell_formula_units_Z 56
_cell_length_a 19.350456
_cell_length_b 14.565542
_cell_length_c 10.008442
_cell_angle_alpha 90.000000
_cell_angle_beta 90.000000
_cell_angle_gamma 90.000000
_cell_volume 2820.878173
_symmetry_space_group_name_H-M "P M M A"
_symmetry_group_IT_number 51
_symmetry_cell_setting 'orthorhombic'
loop_
_space_group_symop_operation_xyz
x,y,z
1/2-x,-y,z
1/2+x,-y,-z
-x,y,-z
-x,-y,-z
1/2+x,y,-z
1/2-x,y,z
x,-y,z
loop_
_atom_site_type_symbol
_atom_site_label
_atom_site_fract_x
_atom_site_fract_y
_atom_site_fract_z
Si Si1 0.671502 0.789244 0.212911
Si Si2 0.369485 0.398568 0.892731
Si Si3 0.332036 0.103274 0.048289
Si Si4 0.073485 0.774808 0.543029
Si Si5 0.980149 0.398369 0.320754
Si Si6 0.173599 0.216790 0.298176
Si Si7 0.873874 0.396036 0.796156
O O1 0.750000 0.817570 0.257086
O O2 0.677096 0.681713 0.171499
O O3 0.613806 0.811826 0.325724
O O4 0.644022 0.847455 0.087268
O O5 0.334629 0.500000 0.871432
O O6 0.443254 0.395340 0.821927
O O7 0.384709 0.381826 0.047245
O O8 0.250000 0.104170 0.053866
O O9 0.360137 0.157681 0.177768
O O10 0.361664 0.000000 0.050521
O O11 0.055592 0.667634 0.570177
O O12 0.125905 0.792922 0.425171
O O13 0.000000 0.823167 0.500000
O O14 0.976032 0.500000 0.383274
O O15 0.057809 0.368672 0.286665
O O16 0.250000 0.180554 0.335209
O O17 0.182450 0.323107 0.253523
O O18 0.849939 0.500000 0.764276
#
# Coordination Sequence:
#
# PCOD8206974 Si02
#       7
#     8   8   8   8   8   8   8
#     4  10  20  36  59  87 115 146 188 238 282 329
#     4   9  17  29  50  83 117 150 187 233 283 332
#     4   9  19  39  66  90 112 143 186 233 284 346
#     4  11  22  37  56  83 112 158 192 230 278 335
#     4   9  18  32  51  76 111 156 206 238 261 318
#     4  11  22  37  56  86 119 148 184 233 289 340
#     4  10  18  30  51  82 117 153 191 232 280 331
#
# _framework density 19.851974999999999
#
# number of rings (size 3 to 8) (size 9 to 14) (size 15 to 20)
#    0.000    2.143    2.857    0.857    0.000    3.143 
#    0.000    2.857    0.000    8.571    0.000    0.000 
#    0.000    0.000    0.000    0.000    0.000    0.000 
#
# Total GULP energy -693876.231404 kJ/mol
# GULP energy per Si atom -12390.646989 kJ/mol
# Density = 1.980679 g / cm^3
# Si number density = 19.851975 Si / 1000 Ang^3
#
#
#
# Elastic Constant Matrix: (Units=GPa)
#
#
# Indices 1 2 3 4 5 6 
#
# 1 85.3253 21.7274 56.9923 0.0000 0.0000 0.0000
# 2 21.7274 82.4354 45.3499 0.0000 0.0000 0.0000
# 3 56.9923 45.3499 151.9079 0.0000 0.0000 0.0000
# 4 0.0000 0.0000 0.0000 13.3168 0.0000 0.0000
# 5 0.0000 0.0000 0.0000 0.0000 29.5508 0.0000
# 6 0.0000 0.0000 0.0000 0.0000 0.0000 13.6548
#
#
#
# Elastic Compliance Matrix: (Units=1/GPa)
#
#
# Indices 1 2 3 4 5 6 
#
# 1 0.015718 -0.001075 -0.005576 0.000000 0.000000 0.000000
# 2 -0.001075 0.014588 -0.003952 0.000000 0.000000 0.000000
# 3 -0.005576 -0.003952 0.009855 0.000000 0.000000 0.000000
# 4 0.000000 0.000000 0.000000 0.075093 0.000000 0.000000
# 5 0.000000 0.000000 0.000000 0.000000 0.033840 0.000000
# 6 0.000000 0.000000 0.000000 0.000000 0.000000 0.073234
#
#
# Mechanical properties :
#
#
# Convention : Reuss Voigt Hill
#
# Bulk Modulus (GPa) = 52.75687 63.08977 57.92332
# Shear Modulus (GPa) = 20.01182 24.34442 22.17812
#
# Velocity S-wave (km/s) = 3.17843 3.50565 3.34604
# Velocity P-wave (km/s) = 6.33267 6.94516 6.64597
#
# Compressibility (1/GPa) = 0.01895488
#
# Stress axis : x y z
#
# Youngs Moduli (GPa) = 63.62063 68.54945 101.47483
#
# Poissons Ratio (x) = 0.07371 0.56583
# Poissons Ratio (y) = 0.06841 0.40099
# Poissons Ratio (z) = 0.35475 0.27088
#
# Static dielectric constant tensor:
#      x y z
#    x 3.461960 0.000000 0.000000 
#    y 0.000000 3.618440 0.000000 
#    z 0.000000 0.000000 3.682240 
# 
# 
# High freq. dielectric constant tensor:
#      x y z
#    x 1.754290 0.000000 0.000000 
#    y 0.000000 1.748450 0.000000 
#    z 0.000000 0.000000 1.788150 
# 
# From -- ./inp_files/11033.got.cif
#   From: 2010.03.12/outbox.cif.g09.slc.cpg/sg51_6_cif.got.tgz:11033.got - 2010.04.16 13:43:02.
