data_PCOD8206765
_publ_section_title
;
Structure prediction by ZEFSAII (Michael W. Deem and Ramdas Pophale) SiO2 
 PCOD8206765
Probable space group: P M M A
;
_chemical_formula_sum "Si O2"
_cell_formula_units_Z 64
_cell_length_a 8.935103
_cell_length_b 14.177659
_cell_length_c 30.971461
_cell_angle_alpha 90.000000
_cell_angle_beta 90.000000
_cell_angle_gamma 90.000000
_cell_volume 3923.428860
_symmetry_space_group_name_H-M "P M M A"
_symmetry_group_IT_number 51
_symmetry_cell_setting 'orthorhombic'
loop_
_space_group_symop_operation_xyz
x,y,z
1/2-x,-y,z
1/2+x,-y,-z
-x,y,-z
-x,-y,-z
1/2+x,y,-z
1/2-x,y,z
x,-y,z
loop_
_atom_site_type_symbol
_atom_site_label
_atom_site_fract_x
_atom_site_fract_y
_atom_site_fract_z
Si Si1 0.573898 0.607768 0.370757
Si Si2 0.081819 0.612214 0.457763
Si Si3 0.423883 0.107770 0.841119
Si Si4 0.572500 0.719003 0.877562
Si Si5 0.576369 0.292353 0.707665
Si Si6 0.425270 0.391397 0.954859
Si Si7 0.927602 0.394466 0.794264
Si Si8 0.579493 0.105377 0.751990
O O1 0.750000 0.614663 0.375843
O O2 0.523199 0.500000 0.361556
O O3 0.502300 0.646688 0.414849
O O4 0.520873 0.674061 0.332283
O O5 0.250000 0.651765 0.456782
O O6 0.080417 0.500000 0.459885
O O7 0.000000 0.654030 0.500000
O O8 0.250000 0.132278 0.845394
O O9 0.518135 0.173164 0.873524
O O10 0.471936 0.126441 0.791916
O O11 0.457660 0.000000 0.854192
O O12 0.750000 0.714896 0.882228
O O13 0.498809 0.673975 0.919223
O O14 0.513213 0.662926 0.835500
O O15 0.750000 0.315616 0.698737
O O16 0.517451 0.345221 0.750437
O O17 0.548934 0.180329 0.713937
O O18 0.250000 0.370747 0.957909
O O19 0.458104 0.500000 0.942973
O O20 0.500000 0.364430 0.000000
O O21 0.750000 0.396377 0.795312
O O22 0.994037 0.500000 0.796038
O O23 0.750000 0.117880 0.768858
O O24 0.552813 0.000000 0.733435
#
# Coordination Sequence:
#
# PCOD8206765 Si02
#       8
#     8   8   8   8   8   8   8   8
#     4  10  20  31  42  61  91 127 164 200 238 281
#     4   9  16  27  44  64  86 116 155 199 242 283
#     4  10  20  33  50  73 100 128 160 202 249 294
#     4  11  20  33  53  76 101 131 166 204 244 288
#     4  10  18  30  46  65  91 126 162 196 237 285
#     4  10  21  37  56  79 106 135 166 201 241 286
#     4   9  17  28  43  66  95 126 160 195 231 275
#     4   9  17  31  50  70  92 120 159 204 247 292
#
# _framework density 16.312263000000002
#
# number of rings (size 3 to 8) (size 9 to 14) (size 15 to 20)
#    0.000    2.250    1.250    2.625    0.000    5.250 
#    0.000    0.000    0.000    2.625    0.000    0.000 
#    0.000    0.500    0.000    1.375    0.000    2.000 
#
# Total GULP energy -793670.140756 kJ/mol
# GULP energy per Si atom -12401.095949 kJ/mol
# Density = 1.627514 g / cm^3
# Si number density = 16.312263 Si / 1000 Ang^3
#
#
#
# Elastic Constant Matrix: (Units=GPa)
#
#
# Indices 1 2 3 4 5 6 
#
# 1 78.6173 39.2614 53.7752 0.0000 0.0000 0.0000
# 2 39.2614 93.0128 57.5038 0.0000 0.0000 0.0000
# 3 53.7752 57.5038 126.1442 0.0000 0.0000 0.0000
# 4 0.0000 0.0000 0.0000 10.3752 0.0000 0.0000
# 5 0.0000 0.0000 0.0000 0.0000 31.3168 0.0000
# 6 0.0000 0.0000 0.0000 0.0000 0.0000 20.9236
#
#
#
# Elastic Compliance Matrix: (Units=1/GPa)
#
#
# Indices 1 2 3 4 5 6 
#
# 1 0.019070 -0.004210 -0.006210 0.000000 0.000000 0.000000
# 2 -0.004210 0.015900 -0.005453 0.000000 0.000000 0.000000
# 3 -0.006210 -0.005453 0.013061 0.000000 0.000000 0.000000
# 4 0.000000 0.000000 0.000000 0.096384 0.000000 0.000000
# 5 0.000000 0.000000 0.000000 0.000000 0.031932 0.000000
# 6 0.000000 0.000000 0.000000 0.000000 0.000000 0.047793
#
#
# Mechanical properties :
#
#
# Convention : Reuss Voigt Hill
#
# Bulk Modulus (GPa) = 61.41288 66.53947 63.97617
# Shear Modulus (GPa) = 19.13402 22.33873 20.73637
#
# Velocity S-wave (km/s) = 3.42860 3.70461 3.56928
# Velocity P-wave (km/s) = 7.30779 7.69276 7.50274
#
# Compressibility (1/GPa) = 0.01628323
#
# Stress axis : x y z
#
# Youngs Moduli (GPa) = 52.43713 62.89407 76.56492
#
# Poissons Ratio (x) = 0.26480 0.47550
# Poissons Ratio (y) = 0.22077 0.41752
# Poissons Ratio (z) = 0.32566 0.34297
#
# Static dielectric constant tensor:
#      x y z
#    x 3.077980 0.000000 0.000000 
#    y 0.000000 3.114680 0.000000 
#    z 0.000000 0.000000 3.015060 
# 
# 
# High freq. dielectric constant tensor:
#      x y z
#    x 1.629210 0.000000 0.000000 
#    y 0.000000 1.609330 0.000000 
#    z 0.000000 0.000000 1.615140 
# 
# From -- ./inp_files/37612.got.cif
#   From: 2010.03.12/outbox.cif.g09.slc.cpg/sg51_19_cif.got.tgz:37612.got - 2010.04.16 13:43:02.
