data_PCOD8206455
_publ_section_title
;
Structure prediction by ZEFSAII (Michael W. Deem and Ramdas Pophale) SiO2 
 PCOD8206455
Probable space group: P M M A
;
_chemical_formula_sum "Si O2"
_cell_formula_units_Z 64
_cell_length_a 9.101467
_cell_length_b 23.781692
_cell_length_c 18.895864
_cell_angle_alpha 90.000000
_cell_angle_beta 90.000000
_cell_angle_gamma 90.000000
_cell_volume 4089.977355
_symmetry_space_group_name_H-M "P M M A"
_symmetry_group_IT_number 51
_symmetry_cell_setting 'orthorhombic'
loop_
_space_group_symop_operation_xyz
x,y,z
1/2-x,-y,z
1/2+x,-y,-z
-x,y,-z
-x,-y,-z
1/2+x,y,-z
1/2-x,y,z
x,-y,z
loop_
_atom_site_type_symbol
_atom_site_label
_atom_site_fract_x
_atom_site_fract_y
_atom_site_fract_z
Si Si1 0.919628 0.828603 0.849390
Si Si2 0.078264 0.750926 0.571172
Si Si3 0.576427 0.561889 0.288812
Si Si4 0.921069 0.062592 0.928505
Si Si5 0.579126 0.380361 0.430129
Si Si6 0.921592 0.767463 0.709813
Si Si7 0.080192 0.268269 0.929050
Si Si8 0.580186 0.669802 0.210860
O O1 0.750000 0.814866 0.866192
O O2 0.958640 0.893575 0.865810
O O3 0.953428 0.816777 0.766901
O O4 0.016694 0.790069 0.900273
O O5 0.250000 0.764670 0.566491
O O6 0.045811 0.685159 0.582028
O O7 0.000000 0.772911 0.500000
O O8 0.007770 0.783216 0.638138
O O9 0.750000 0.557157 0.294885
O O10 0.508567 0.500000 0.273267
O O11 0.515310 0.585700 0.363161
O O12 0.534841 0.605071 0.225749
O O13 0.750000 0.062867 0.945627
O O14 0.973067 0.000000 0.905064
O O15 0.000000 0.082110 0.000000
O O16 0.500000 0.403303 0.500000
O O17 0.750000 0.391206 0.440591
O O18 0.750000 0.761453 0.692686
O O19 0.978590 0.708946 0.741387
O O20 0.250000 0.258497 0.945844
O O21 0.055876 0.317787 0.871844
O O22 0.000000 0.287954 0.000000
O O23 0.750000 0.680873 0.233153
#
# Coordination Sequence:
#
# PCOD8206455 Si02
#       8
#     8   8   8   8   8   8   8   8
#     4   9  18  30  44  65  92 118 149 183 214 252
#     4  10  18  29  44  63  88 116 146 178 212 258
#     4   9  16  28  46  63  79 103 138 177 211 248
#     4   9  17  29  44  62  88 123 157 186 214 247
#     4   9  17  28  42  60  82 107 135 168 202 241
#     4  10  18  28  44  65  88 115 143 177 218 256
#     4  10  19  29  45  65  87 111 139 175 219 263
#     4   9  17  31  46  62  82 108 139 173 213 261
#
# _framework density 15.648008000000001
#
# number of rings (size 3 to 8) (size 9 to 14) (size 15 to 20)
#    0.000    2.625    1.250    1.500    0.000    3.250 
#    0.000    0.000    0.000    1.500    0.000    0.000 
#    0.000    0.500    0.000    0.875    0.000    1.625 
#
# Total GULP energy -793457.756106 kJ/mol
# GULP energy per Si atom -12397.777439 kJ/mol
# Density = 1.561239 g / cm^3
# Si number density = 15.648008 Si / 1000 Ang^3
#
#
#
# Elastic Constant Matrix: (Units=GPa)
#
#
# Indices 1 2 3 4 5 6 
#
# 1 63.6545 29.9925 53.2105 0.0000 0.0000 0.0000
# 2 29.9925 90.6041 59.7779 0.0000 0.0000 0.0000
# 3 53.2105 59.7779 125.9959 0.0000 0.0000 0.0000
# 4 0.0000 0.0000 0.0000 22.9743 0.0000 0.0000
# 5 0.0000 0.0000 0.0000 0.0000 28.5450 0.0000
# 6 0.0000 0.0000 0.0000 0.0000 0.0000 13.3541
#
#
#
# Elastic Compliance Matrix: (Units=1/GPa)
#
#
# Indices 1 2 3 4 5 6 
#
# 1 0.024497 -0.001868 -0.009459 0.000000 0.000000 0.000000
# 2 -0.001868 0.016209 -0.006901 0.000000 0.000000 0.000000
# 3 -0.009459 -0.006901 0.015206 0.000000 0.000000 0.000000
# 4 0.000000 0.000000 0.000000 0.043527 0.000000 0.000000
# 5 0.000000 0.000000 0.000000 0.000000 0.035032 0.000000
# 6 0.000000 0.000000 0.000000 0.000000 0.000000 0.074883
#
#
# Mechanical properties :
#
#
# Convention : Reuss Voigt Hill
#
# Bulk Modulus (GPa) = 51.40222 62.91292 57.15757
# Shear Modulus (GPa) = 19.81796 22.12627 20.97212
#
# Velocity S-wave (km/s) = 3.56263 3.76440 3.66490
# Velocity P-wave (km/s) = 7.05999 7.69328 7.38343
#
# Compressibility (1/GPa) = 0.01945441
#
# Stress axis : x y z
#
# Youngs Moduli (GPa) = 40.82058 61.69568 65.76457
#
# Poissons Ratio (x) = 0.11527 0.62209
# Poissons Ratio (y) = 0.07627 0.45384
# Poissons Ratio (z) = 0.38613 0.42576
#
# Static dielectric constant tensor:
#      x y z
#    x 2.963030 0.000000 0.000000 
#    y 0.000000 2.966000 0.000000 
#    z 0.000000 0.000000 3.101110 
# 
# 
# High freq. dielectric constant tensor:
#      x y z
#    x 1.597950 0.000000 0.000000 
#    y 0.000000 1.567880 0.000000 
#    z 0.000000 0.000000 1.599020 
# 
# From -- ./inp_files/28614.got.cif
#   From: 2010.03.12/outbox.cif.g09.slc.cpg/sg51_15_cif.got.tgz:28614.got - 2010.04.16 13:43:02.
