data_PCOD8206882
_publ_section_title
;
Structure prediction by ZEFSAII (Michael W. Deem and Ramdas Pophale) SiO2 
 PCOD8206882
Probable space group: P M M A
;
_chemical_formula_sum "Si O2"
_cell_formula_units_Z 48
_cell_length_a 16.625431
_cell_length_b 9.105570
_cell_length_c 16.635234
_cell_angle_alpha 90.000000
_cell_angle_beta 90.000000
_cell_angle_gamma 90.000000
_cell_volume 2518.308692
_symmetry_space_group_name_H-M "P M M A"
_symmetry_group_IT_number 51
_symmetry_cell_setting 'orthorhombic'
loop_
_space_group_symop_operation_xyz
x,y,z
1/2-x,-y,z
1/2+x,-y,-z
-x,y,-z
-x,-y,-z
1/2+x,y,-z
1/2-x,y,z
x,-y,z
loop_
_atom_site_type_symbol
_atom_site_label
_atom_site_fract_x
_atom_site_fract_y
_atom_site_fract_z
Si Si1 0.079923 0.675259 0.048110
Si Si2 0.250000 0.325023 0.974068
Si Si3 0.102509 0.326415 0.689987
Si Si4 0.156282 0.828019 0.535014
Si Si5 0.250000 0.674348 0.793984
Si Si6 0.939500 0.326661 0.772833
Si Si7 0.655459 0.665337 0.622888
O O1 0.079379 0.500000 0.046169
O O2 0.074488 0.740274 0.138669
O O3 0.166262 0.732459 0.013955
O O4 0.000000 0.731685 0.000000
O O5 0.250000 0.500000 0.976331
O O6 0.250000 0.261870 0.883721
O O7 0.107277 0.500000 0.674988
O O8 0.104322 0.247789 0.604181
O O9 0.173648 0.267211 0.745772
O O10 0.024465 0.276782 0.738039
O O11 0.250000 0.788683 0.547630
O O12 0.124508 0.765946 0.450023
O O13 0.140626 0.000000 0.536251
O O14 0.250000 0.500000 0.798783
O O15 0.934711 0.500000 0.782309
O O16 0.873754 0.270431 0.708497
O O17 0.750000 0.664412 0.625558
O O18 0.621384 0.500000 0.610203
#
# Coordination Sequence:
#
# PCOD8206882 Si02
#       7
#     8   4   8   8   4   8   8
#     4   9  16  26  40  63  99 136 166 201 249 299
#     4   9  16  24  40  64  95 134 166 199 249 299
#     4  10  18  30  49  71  99 131 164 200 242 292
#     4  10  20  34  51  72  98 126 162 205 249 294
#     4   9  16  26  43  68  95 128 166 197 235 293
#     4   9  18  29  44  68  97 131 167 203 240 288
#     4   9  18  32  50  69  95 131 169 204 243 291
#
# _framework density 19.060410999999998
#
# number of rings (size 3 to 8) (size 9 to 14) (size 15 to 20)
#    0.000    2.667    0.833    1.500    1.167    5.333 
#    0.000    4.167    0.000    0.000    0.000    0.000 
#    0.000   14.667    0.000    0.000    0.000    0.000 
#
# Total GULP energy -594954.427919 kJ/mol
# GULP energy per Si atom -12394.883915 kJ/mol
# Density = 1.901703 g / cm^3
# Si number density = 19.060411 Si / 1000 Ang^3
#
#
#
# Elastic Constant Matrix: (Units=GPa)
#
#
# Indices 1 2 3 4 5 6 
#
# 1 89.8871 19.3665 64.4838 0.0000 0.0000 0.0000
# 2 19.3665 30.8818 30.6386 0.0000 0.0000 0.0000
# 3 64.4838 30.6386 191.1180 0.0000 0.0000 0.0000
# 4 0.0000 0.0000 0.0000 0.6733 0.0000 0.0000
# 5 0.0000 0.0000 0.0000 0.0000 34.5219 0.0000
# 6 0.0000 0.0000 0.0000 0.0000 0.0000 7.5149
#
#
#
# Elastic Compliance Matrix: (Units=1/GPa)
#
#
# Indices 1 2 3 4 5 6 
#
# 1 0.015387 -0.005349 -0.004334 0.000000 0.000000 0.000000
# 2 -0.005349 0.040366 -0.004666 0.000000 0.000000 0.000000
# 3 -0.004334 -0.004666 0.007443 0.000000 0.000000 0.000000
# 4 0.000000 0.000000 0.000000 1.485282 0.000000 0.000000
# 5 0.000000 0.000000 0.000000 0.000000 0.028967 0.000000
# 6 0.000000 0.000000 0.000000 0.000000 0.000000 0.133068
#
#
# Mechanical properties :
#
#
# Convention : Reuss Voigt Hill
#
# Bulk Modulus (GPa) = 28.98893 60.09606 44.54250
# Shear Modulus (GPa) = 2.85598 21.70190 12.27894
#
# Velocity S-wave (km/s) = 1.22541 3.37795 2.54089
# Velocity P-wave (km/s) = 4.15261 6.84191 5.65933
#
# Compressibility (1/GPa) = 0.03449593
#
# Stress axis : x y z
#
# Youngs Moduli (GPa) = 64.99102 24.77349 134.35981
#
# Poissons Ratio (x) = 0.13253 0.58231
# Poissons Ratio (y) = 0.34767 0.62695
# Poissons Ratio (z) = 0.28167 0.11560
#
# Static dielectric constant tensor:
#      x y z
#    x 3.597710 0.000000 0.000000 
#    y 0.000000 2.874170 0.000000 
#    z 0.000000 0.000000 3.831130 
# 
# 
# High freq. dielectric constant tensor:
#      x y z
#    x 1.746980 0.000000 0.000000 
#    y 0.000000 1.668590 0.000000 
#    z 0.000000 0.000000 1.760220 
# 
# From -- ./inp_files/29496.got.cif
#   From: 2010.03.12/outbox.cif.g09.slc.cpg/sg51_15_cif.got.tgz:29496.got - 2010.04.16 13:43:02.
