data_PCOD8206825
_publ_section_title
;
Structure prediction by ZEFSAII (Michael W. Deem and Ramdas Pophale) SiO2 
 PCOD8206825
Probable space group: P M M A
;
_chemical_formula_sum "Si O2"
_cell_formula_units_Z 36
_cell_length_a 8.952095
_cell_length_b 12.592846
_cell_length_c 20.469849
_cell_angle_alpha 90.000000
_cell_angle_beta 90.000000
_cell_angle_gamma 90.000000
_cell_volume 2307.614258
_symmetry_space_group_name_H-M "P M M A"
_symmetry_group_IT_number 51
_symmetry_cell_setting 'orthorhombic'
loop_
_space_group_symop_operation_xyz
x,y,z
1/2-x,-y,z
1/2+x,-y,-z
-x,y,-z
-x,-y,-z
1/2+x,y,-z
1/2-x,y,z
x,-y,z
loop_
_atom_site_type_symbol
_atom_site_label
_atom_site_fract_x
_atom_site_fract_y
_atom_site_fract_z
Si Si1 0.429448 0.500000 0.071792
Si Si2 0.081871 0.126663 0.564347
Si Si3 0.073249 0.709825 0.930080
Si Si4 0.923530 0.120440 0.177981
Si Si5 0.418027 0.873548 0.307607
O O1 0.250000 0.500000 0.071598
O O2 0.494933 0.392730 0.104447
O O3 0.500000 0.500000 0.000000
O O4 0.250000 0.169408 0.563328
O O5 0.000000 0.170999 0.500000
O O6 0.003032 0.172405 0.629187
O O7 0.077299 0.000000 0.564667
O O8 0.250000 0.690022 0.938255
O O9 0.037097 0.810362 0.885090
O O10 0.000000 0.733905 0.000000
O O11 0.750000 0.124891 0.194996
O O12 0.007344 0.167987 0.240997
O O13 0.974864 0.000000 0.162747
O O14 0.250000 0.830826 0.310205
O O15 0.424689 0.000000 0.308870
#
# Coordination Sequence:
#
# PCOD8206825 Si02
#       5
#     4   8   8   8   8
#     4  10  18  30  48  66  84 104 131 168 211 256
#     4   9  15  22  33  49  70  97 131 170 207 242
#     4  10  19  31  47  65  85 108 137 173 212 253
#     4   9  18  31  44  59  82 113 144 172 206 249
#     4   9  16  25  37  53  74 102 136 171 205 243
#
# _framework density 15.600527
#
# number of rings (size 3 to 8) (size 9 to 14) (size 15 to 20)
#    0.000    2.667    0.000    4.333    0.000    7.556 
#    0.000    0.000    0.000    0.000    0.000    0.000 
#    0.000    0.000    0.000    1.000    0.000   13.556 
#
# Total GULP energy -446260.228871 kJ/mol
# GULP energy per Si atom -12396.117469 kJ/mol
# Density = 1.556502 g / cm^3
# Si number density = 15.600527 Si / 1000 Ang^3
#
#
#
# Elastic Constant Matrix: (Units=GPa)
#
#
# Indices 1 2 3 4 5 6 
#
# 1 125.7662 36.9157 70.0091 0.0000 0.0000 0.0000
# 2 36.9157 53.9401 42.4654 0.0000 0.0000 0.0000
# 3 70.0091 42.4654 120.5862 0.0000 0.0000 0.0000
# 4 0.0000 0.0000 0.0000 0.9422 0.0000 0.0000
# 5 0.0000 0.0000 0.0000 0.0000 31.9317 0.0000
# 6 0.0000 0.0000 0.0000 0.0000 0.0000 15.3427
#
#
#
# Elastic Compliance Matrix: (Units=1/GPa)
#
#
# Indices 1 2 3 4 5 6 
#
# 1 0.012305 -0.003870 -0.005781 0.000000 0.000000 0.000000
# 2 -0.003870 0.026868 -0.007215 0.000000 0.000000 0.000000
# 3 -0.005781 -0.007215 0.014190 0.000000 0.000000 0.000000
# 4 0.000000 0.000000 0.000000 1.061327 0.000000 0.000000
# 5 0.000000 0.000000 0.000000 0.000000 0.031317 0.000000
# 6 0.000000 0.000000 0.000000 0.000000 0.000000 0.065177
#
#
# Mechanical properties :
#
#
# Convention : Reuss Voigt Hill
#
# Bulk Modulus (GPa) = 50.94056 66.56362 58.75209
# Shear Modulus (GPa) = 3.99533 19.70350 11.84942
#
# Velocity S-wave (km/s) = 1.60206 3.55773 2.75899
# Velocity P-wave (km/s) = 6.01216 7.72248 6.92036
#
# Compressibility (1/GPa) = 0.01963072
#
# Stress axis : x y z
#
# Youngs Moduli (GPa) = 81.26450 37.21936 70.47208
#
# Poissons Ratio (x) = 0.14405 0.40742
# Poissons Ratio (y) = 0.31451 0.50844
# Poissons Ratio (z) = 0.46981 0.26853
#
# Static dielectric constant tensor:
#      x y z
#    x 3.162200 0.000000 0.000000 
#    y 0.000000 2.898710 0.000000 
#    z 0.000000 0.000000 2.995340 
# 
# 
# High freq. dielectric constant tensor:
#      x y z
#    x 1.617590 0.000000 0.000000 
#    y 0.000000 1.537620 0.000000 
#    z 0.000000 0.000000 1.594850 
# 
# From -- ./inp_files/31292.got.cif
#   From: 2010.03.12/outbox.cif.g09.slc.cpg/sg51_16_cif.got.tgz:31292.got - 2010.04.16 13:43:02.
