data_PCOD8206372
_publ_section_title
;
Structure prediction by ZEFSAII (Michael W. Deem and Ramdas Pophale) SiO2 
 PCOD8206372
Probable space group: P M M A
;
_chemical_formula_sum "Si O2"
_cell_formula_units_Z 52
_cell_length_a 9.137401
_cell_length_b 12.783977
_cell_length_c 30.195929
_cell_angle_alpha 90.000000
_cell_angle_beta 90.000000
_cell_angle_gamma 90.000000
_cell_volume 3527.256649
_symmetry_space_group_name_H-M "P M M A"
_symmetry_group_IT_number 51
_symmetry_cell_setting 'orthorhombic'
loop_
_space_group_symop_operation_xyz
x,y,z
1/2-x,-y,z
1/2+x,-y,-z
-x,y,-z
-x,-y,-z
1/2+x,y,-z
1/2-x,y,z
x,-y,z
loop_
_atom_site_type_symbol
_atom_site_label
_atom_site_fract_x
_atom_site_fract_y
_atom_site_fract_z
Si Si1 0.584368 0.624683 0.043106
Si Si2 0.421725 0.118284 0.454927
Si Si3 0.415535 0.624741 0.129328
Si Si4 0.076846 0.305867 0.395509
Si Si5 0.084846 0.375423 0.784909
Si Si6 0.575730 0.500000 0.546962
Si Si7 0.919117 0.623080 0.698197
O O1 0.750000 0.667767 0.042855
O O2 0.585179 0.500000 0.043047
O O3 0.501731 0.667336 0.086529
O O4 0.500000 0.667467 0.000000
O O5 0.500000 0.152514 0.500000
O O6 0.250000 0.129907 0.463362
O O7 0.474152 0.194495 0.415455
O O8 0.464472 0.000000 0.441453
O O9 0.250000 0.667635 0.128213
O O10 0.415453 0.500000 0.129464
O O11 0.495313 0.668420 0.173126
O O12 0.250000 0.315362 0.393236
O O13 0.018432 0.398532 0.426661
O O14 0.018104 0.318253 0.345369
O O15 0.250000 0.332648 0.787371
O O16 0.082506 0.500000 0.785695
O O17 0.010429 0.334654 0.739914
O O18 0.750000 0.500000 0.540954
O O19 0.500000 0.500000 0.500000
O O20 0.750000 0.649514 0.707251
O O21 0.940377 0.500000 0.690621
#
# Coordination Sequence:
#
# PCOD8206372 Si02
#       7
#     8   8   8   8   8   4   8
#     4   9  15  21  28  38  53  73  98 133 177 220
#     4   9  17  29  44  60  77  97 121 148 177 210
#     4   9  15  22  31  42  55  75 105 136 167 209
#     4   9  16  27  42  57  74  96 121 146 175 212
#     4   9  16  24  33  46  64  83 103 133 170 207
#     4  10  18  28  40  56  76  98 120 144 173 210
#     4   9  15  25  39  51  64  87 115 139 166 206
#
# _framework density 14.742336
#
# number of rings (size 3 to 8) (size 9 to 14) (size 15 to 20)
#    0.000    2.923    0.769    1.846    0.000    5.538 
#    0.000    1.538    0.000    0.000    0.000    0.000 
#    0.000    0.000    0.000    0.000    0.000    0.000 
#
# Total GULP energy -644648.274896 kJ/mol
# GULP energy per Si atom -12397.082210 kJ/mol
# Density = 1.470878 g / cm^3
# Si number density = 14.742336 Si / 1000 Ang^3
#
#
#
# Elastic Constant Matrix: (Units=GPa)
#
#
# Indices 1 2 3 4 5 6 
#
# 1 92.4413 17.2555 68.7047 0.0000 0.0000 0.0000
# 2 17.2555 36.5209 34.4852 0.0000 0.0000 0.0000
# 3 68.7047 34.4852 165.3452 0.0000 0.0000 0.0000
# 4 0.0000 0.0000 0.0000 7.7241 0.0000 0.0000
# 5 0.0000 0.0000 0.0000 0.0000 29.6604 0.0000
# 6 0.0000 0.0000 0.0000 0.0000 0.0000 5.5963
#
#
#
# Elastic Compliance Matrix: (Units=1/GPa)
#
#
# Indices 1 2 3 4 5 6 
#
# 1 0.015723 -0.001569 -0.006206 0.000000 0.000000 0.000000
# 2 -0.001569 0.034253 -0.006492 0.000000 0.000000 0.000000
# 3 -0.006206 -0.006492 0.009981 0.000000 0.000000 0.000000
# 4 0.000000 0.000000 0.000000 0.129465 0.000000 0.000000
# 5 0.000000 0.000000 0.000000 0.000000 0.033715 0.000000
# 6 0.000000 0.000000 0.000000 0.000000 0.000000 0.178689
#
#
# Mechanical properties :
#
#
# Convention : Reuss Voigt Hill
#
# Bulk Modulus (GPa) = 31.82387 59.46646 45.64516
# Shear Modulus (GPa) = 11.34213 20.18697 15.76455
#
# Velocity S-wave (km/s) = 2.77674 3.70445 3.27362
# Velocity P-wave (km/s) = 5.64924 7.66303 6.73186
#
# Compressibility (1/GPa) = 0.03142296
#
# Stress axis : x y z
#
# Youngs Moduli (GPa) = 63.60098 29.19447 100.19279
#
# Poissons Ratio (x) = 0.04580 0.62181
# Poissons Ratio (y) = 0.09977 0.65047
# Poissons Ratio (z) = 0.39471 0.18953
#
# Static dielectric constant tensor:
#      x y z
#    x 2.877390 0.000000 0.000000 
#    y 0.000000 2.398100 0.000000 
#    z 0.000000 0.000000 3.090420 
# 
# 
# High freq. dielectric constant tensor:
#      x y z
#    x 1.562800 0.000000 0.000000 
#    y 0.000000 1.484040 0.000000 
#    z 0.000000 0.000000 1.578770 
# 
# From -- ./inp_files/36354.got.cif
#   From: 2010.03.12/outbox.cif.g09.slc.cpg/sg51_19_cif.got.tgz:36354.got - 2010.04.16 13:43:02.
