data_PCOD8206304
_publ_section_title
;
Structure prediction by ZEFSAII (Michael W. Deem and Ramdas Pophale) SiO2 
 PCOD8206304
Probable space group: P M M A
;
_chemical_formula_sum "Si O2"
_cell_formula_units_Z 56
_cell_length_a 18.258780
_cell_length_b 9.156667
_cell_length_c 21.142449
_cell_angle_alpha 90.000000
_cell_angle_beta 90.000000
_cell_angle_gamma 90.000000
_cell_volume 3534.796921
_symmetry_space_group_name_H-M "P M M A"
_symmetry_group_IT_number 51
_symmetry_cell_setting 'orthorhombic'
loop_
_space_group_symop_operation_xyz
x,y,z
1/2-x,-y,z
1/2+x,-y,-z
-x,y,-z
-x,-y,-z
1/2+x,y,-z
1/2-x,y,z
x,-y,z
loop_
_atom_site_type_symbol
_atom_site_label
_atom_site_fract_x
_atom_site_fract_y
_atom_site_fract_z
Si Si1 0.165404 0.169628 0.996473
Si Si2 0.452602 0.661677 0.063165
Si Si3 0.534381 0.838693 0.569291
Si Si4 0.332745 0.170478 0.504675
Si Si5 0.402513 0.673272 0.878197
Si Si6 0.593845 0.672887 0.379936
Si Si7 0.332371 0.673399 0.748556
O O1 0.250000 0.197063 0.013609
O O2 0.146442 0.250624 0.931536
O O3 0.147784 0.000000 0.987763
O O4 0.116154 0.230041 0.054808
O O5 0.422000 0.500000 0.078970
O O6 0.510747 0.714333 0.116730
O O7 0.500000 0.656456 0.000000
O O8 0.500000 0.842144 0.500000
O O9 0.618415 0.787951 0.557212
O O10 0.490152 0.727470 0.613795
O O11 0.531025 0.000000 0.600194
O O12 0.250000 0.207552 0.486189
O O13 0.354634 0.262721 0.565859
O O14 0.344213 0.000000 0.521437
O O15 0.392068 0.500000 0.886773
O O16 0.374507 0.730340 0.810582
O O17 0.594832 0.500000 0.385439
O O18 0.624693 0.729251 0.313093
O O19 0.250000 0.737212 0.748021
O O20 0.329722 0.500000 0.748737
#
# Coordination Sequence:
#
# PCOD8206304 Si02
#       7
#     8   8   8   8   8   8   8
#     4  10  19  28  40  62  89 112 134 165 208 251
#     4   8  15  27  43  62  80 103 139 174 203 241
#     4   8  15  28  43  58  79 108 140 171 205 246
#     4   9  17  29  44  61  82 109 139 172 210 247
#     4   9  17  30  46  61  80 110 145 174 199 236
#     4  10  18  27  41  62  87 113 140 168 200 243
#     4   9  17  28  42  61  85 113 141 167 198 236
#
# _framework density 15.842495
#
# number of rings (size 3 to 8) (size 9 to 14) (size 15 to 20)
#    0.000    3.000    0.000    3.429    0.000    7.714 
#    0.000    1.429    0.000    3.429    0.000    1.000 
#    0.000    5.714    0.000    0.000    0.000    0.000 
#
# Total GULP energy -694040.644529 kJ/mol
# GULP energy per Si atom -12393.582938 kJ/mol
# Density = 1.580644 g / cm^3
# Si number density = 15.842495 Si / 1000 Ang^3
#
#
#
# Elastic Constant Matrix: (Units=GPa)
#
#
# Indices 1 2 3 4 5 6 
#
# 1 143.1085 49.5260 64.8598 0.0000 0.0000 0.0000
# 2 49.5260 58.4672 29.6185 0.0000 0.0000 0.0000
# 3 64.8598 29.6185 77.5624 0.0000 0.0000 0.0000
# 4 0.0000 0.0000 0.0000 6.1663 0.0000 0.0000
# 5 0.0000 0.0000 0.0000 0.0000 26.6191 0.0000
# 6 0.0000 0.0000 0.0000 0.0000 0.0000 25.2358
#
#
#
# Elastic Compliance Matrix: (Units=1/GPa)
#
#
# Indices 1 2 3 4 5 6 
#
# 1 0.013180 -0.006920 -0.008379 0.000000 0.000000 0.000000
# 2 -0.006920 0.024839 -0.003699 0.000000 0.000000 0.000000
# 3 -0.008379 -0.003699 0.021312 0.000000 0.000000 0.000000
# 4 0.000000 0.000000 0.000000 0.162172 0.000000 0.000000
# 5 0.000000 0.000000 0.000000 0.000000 0.037567 0.000000
# 6 0.000000 0.000000 0.000000 0.000000 0.000000 0.039626
#
#
# Mechanical properties :
#
#
# Convention : Reuss Voigt Hill
#
# Bulk Modulus (GPa) = 46.86919 63.01630 54.94274
# Shear Modulus (GPa) = 14.54319 20.61314 17.57817
#
# Velocity S-wave (km/s) = 3.03312 3.61103 3.33462
# Velocity P-wave (km/s) = 6.47419 7.56632 7.04146
#
# Compressibility (1/GPa) = 0.02133598
#
# Stress axis : x y z
#
# Youngs Moduli (GPa) = 75.87242 40.25953 46.92183
#
# Poissons Ratio (x) = 0.27859 0.39316
# Poissons Ratio (y) = 0.52502 0.17355
# Poissons Ratio (z) = 0.63574 0.14891
#
# Static dielectric constant tensor:
#      x y z
#    x 3.507260 0.000000 0.000000 
#    y 0.000000 2.922300 0.000000 
#    z 0.000000 0.000000 2.935890 
# 
# 
# High freq. dielectric constant tensor:
#      x y z
#    x 1.615510 0.000000 0.000000 
#    y 0.000000 1.598560 0.000000 
#    z 0.000000 0.000000 1.568220 
# 
# From -- ./inp_files/33679.got.cif
#   From: 2010.03.12/outbox.cif.g09.slc.cpg/sg51_17_cif.got.tgz:33679.got - 2010.04.16 13:43:02.
