data_PCOD8206868
_publ_section_title
;
Structure prediction by ZEFSAII (Michael W. Deem and Ramdas Pophale) SiO2 
 PCOD8206868
Probable space group: P M M A
;
_chemical_formula_sum "Si O2"
_cell_formula_units_Z 64
_cell_length_a 24.206208
_cell_length_b 9.315332
_cell_length_c 15.098488
_cell_angle_alpha 90.000000
_cell_angle_beta 90.000000
_cell_angle_gamma 90.000000
_cell_volume 3404.540907
_symmetry_space_group_name_H-M "P M M A"
_symmetry_group_IT_number 51
_symmetry_cell_setting 'orthorhombic'
loop_
_space_group_symop_operation_xyz
x,y,z
1/2-x,-y,z
1/2+x,-y,-z
-x,y,-z
-x,-y,-z
1/2+x,y,-z
1/2-x,y,z
x,-y,z
loop_
_atom_site_type_symbol
_atom_site_label
_atom_site_fract_x
_atom_site_fract_y
_atom_site_fract_z
Si Si1 0.312603 0.165666 0.778259
Si Si2 0.313777 0.166942 0.467957
Si Si3 0.098118 0.832010 0.324951
Si Si4 0.881143 0.837841 0.057924
Si Si5 0.490959 0.662533 0.661252
Si Si6 0.019380 0.664207 0.867634
Si Si7 0.912730 0.835309 0.872213
Si Si8 0.130004 0.669791 0.625983
O O1 0.250000 0.215705 0.763626
O O2 0.326800 0.187022 0.882447
O O3 0.352423 0.263801 0.719765
O O4 0.320380 0.000000 0.749880
O O5 0.250000 0.199490 0.446982
O O6 0.348710 0.213570 0.381832
O O7 0.332817 0.261199 0.550266
O O8 0.322858 0.000000 0.491406
O O9 0.109806 0.780904 0.223390
O O10 0.042862 0.760484 0.365482
O O11 0.087982 0.000000 0.330725
O O12 0.926745 0.726146 0.087450
O O13 0.903436 0.000000 0.072909
O O14 0.868199 0.815970 0.952324
O O15 0.508588 0.500000 0.640019
O O16 0.475414 0.683224 0.763028
O O17 0.435001 0.703614 0.607820
O O18 0.013205 0.500000 0.895969
O O19 0.965990 0.747087 0.903100
O O20 0.930629 0.000000 0.861385
O O21 0.140191 0.500000 0.629603
#
# Coordination Sequence:
#
# PCOD8206868 Si02
#       8
#     8   8   8   8   8   8   8   8
#     4  10  21  36  53  75 106 144 182 221 267 318
#     4  10  22  40  59  80 106 137 177 223 268 316
#     4   9  19  36  57  79 106 141 180 219 262 317
#     4  10  19  31  49  73 104 140 176 216 260 307
#     4   9  19  34  52  78 112 142 170 213 268 320
#     4  10  18  30  48  74 107 141 175 212 256 309
#     4   9  18  32  50  75 105 137 176 216 258 308
#     4  11  22  37  57  82 109 138 175 218 268 325
#
# _framework density 18.798424000000001
#
# number of rings (size 3 to 8) (size 9 to 14) (size 15 to 20)
#    0.000    2.250    1.250    1.500    0.000    6.500 
#    0.000    3.125    0.000    3.750    0.000    0.000 
#    0.000    5.000    0.000    0.000    0.000    0.000 
#
# Total GULP energy -793392.408126 kJ/mol
# GULP energy per Si atom -12396.756377 kJ/mol
# Density = 1.875564 g / cm^3
# Si number density = 18.798424 Si / 1000 Ang^3
#
#
#
# Elastic Constant Matrix: (Units=GPa)
#
#
# Indices 1 2 3 4 5 6 
#
# 1 114.4824 44.5606 55.4054 0.0000 0.0000 0.0000
# 2 44.5606 64.6386 34.1771 0.0000 0.0000 0.0000
# 3 55.4054 34.1771 76.3828 0.0000 0.0000 0.0000
# 4 0.0000 0.0000 0.0000 15.5749 0.0000 0.0000
# 5 0.0000 0.0000 0.0000 0.0000 29.4631 0.0000
# 6 0.0000 0.0000 0.0000 0.0000 0.0000 14.2171
#
#
#
# Elastic Compliance Matrix: (Units=1/GPa)
#
#
# Indices 1 2 3 4 5 6 
#
# 1 0.015066 -0.006036 -0.008228 0.000000 0.000000 0.000000
# 2 -0.006036 0.022683 -0.005771 0.000000 0.000000 0.000000
# 3 -0.008228 -0.005771 0.021642 0.000000 0.000000 0.000000
# 4 0.000000 0.000000 0.000000 0.064206 0.000000 0.000000
# 5 0.000000 0.000000 0.000000 0.000000 0.033941 0.000000
# 6 0.000000 0.000000 0.000000 0.000000 0.000000 0.070338
#
#
# Mechanical properties :
#
#
# Convention : Reuss Voigt Hill
#
# Bulk Modulus (GPa) = 51.75466 58.19888 54.97677
# Shear Modulus (GPa) = 18.22244 19.94175 19.08209
#
# Velocity S-wave (km/s) = 3.11683 3.26056 3.18950
# Velocity P-wave (km/s) = 6.36742 6.72322 6.54773
#
# Compressibility (1/GPa) = 0.01932193
#
# Stress axis : x y z
#
# Youngs Moduli (GPa) = 66.37292 44.08546 46.20559
#
# Poissons Ratio (x) = 0.26610 0.38017
# Poissons Ratio (y) = 0.40063 0.26666
# Poissons Ratio (z) = 0.54610 0.25442
#
# Static dielectric constant tensor:
#      x y z
#    x 3.389000 0.000000 0.000000 
#    y 0.000000 3.445960 0.000000 
#    z 0.000000 0.000000 3.690680 
# 
# 
# High freq. dielectric constant tensor:
#      x y z
#    x 1.709800 0.000000 0.000000 
#    y 0.000000 1.726840 0.000000 
#    z 0.000000 0.000000 1.736090 
# 
# From -- ./inp_files/26249.got.cif
#   From: 2010.03.12/outbox.cif.g09.slc.cpg/sg51_14_cif.got.tgz:26249.got - 2010.04.16 13:43:02.
