data_PCOD8206064
_publ_section_title
;
Structure prediction by ZEFSAII (Michael W. Deem and Ramdas Pophale) SiO2 
 PCOD8206064
Probable space group: P M M A
;
_chemical_formula_sum "Si O2"
_cell_formula_units_Z 56
_cell_length_a 26.033605
_cell_length_b 11.391524
_cell_length_c 11.978253
_cell_angle_alpha 90.000000
_cell_angle_beta 90.000000
_cell_angle_gamma 90.000000
_cell_volume 3552.299891
_symmetry_space_group_name_H-M "P M M A"
_symmetry_group_IT_number 51
_symmetry_cell_setting 'orthorhombic'
loop_
_space_group_symop_operation_xyz
x,y,z
1/2-x,-y,z
1/2+x,-y,-z
-x,y,-z
-x,-y,-z
1/2+x,y,-z
1/2-x,y,z
x,-y,z
loop_
_atom_site_type_symbol
_atom_site_label
_atom_site_fract_x
_atom_site_fract_y
_atom_site_fract_z
Si Si1 0.914736 0.500000 0.552614
Si Si2 0.620447 0.748559 0.515951
Si Si3 0.065809 0.861694 0.296162
Si Si4 0.809328 0.861279 0.342087
Si Si5 0.961709 0.754446 0.326174
Si Si6 0.016369 0.500000 0.663345
Si Si7 0.554898 0.139871 0.955745
Si Si8 0.112063 0.863721 0.836916
O O1 0.876616 0.388506 0.549027
O O2 0.956245 0.500000 0.455537
O O3 0.953587 0.500000 0.659038
O O4 0.615103 0.823276 0.630627
O O5 0.671489 0.791675 0.451703
O O6 0.571641 0.769220 0.436952
O O7 0.068952 0.815747 0.168282
O O8 0.018165 0.798989 0.356953
O O9 0.059278 0.000000 0.299596
O O10 0.750000 0.832934 0.323567
O O11 0.839228 0.811288 0.231591
O O12 0.819499 0.000000 0.359577
O O13 0.964248 0.620268 0.278415
O O14 0.940072 0.838459 0.230336
O O15 0.552655 0.000000 0.959154
O O16 0.500000 0.189424 0.000000
O O17 0.601268 0.185021 0.037912
O O18 0.122011 0.000000 0.844992
#
# Coordination Sequence:
#
# PCOD8206064 Si02
#       8
#     4   8   8   8   8   4   8   8
#     4   9  16  28  41  57  86 122 150 175 208 257
#     4  10  19  29  43  64  88 115 149 182 218 266
#     4  11  19  25  39  63  91 120 148 178 217 262
#     4   9  18  32  49  68  90 112 137 181 236 275
#     4  10  17  26  41  61  88 119 150 179 212 264
#     4   9  16  26  38  56  87 125 150 171 215 252
#     4   9  16  26  39  59  90 122 150 180 212 254
#     4   9  16  28  46  65  85 116 153 186 222 261
#
# _framework density 15.764435000000001
#
# number of rings (size 3 to 8) (size 9 to 14) (size 15 to 20)
#    0.000    2.429    2.857    1.286    0.000    2.286 
#    0.000    0.357    0.000    3.429    0.000    4.000 
#    0.000    0.000    0.000    0.143    0.000    0.000 
#
# Total GULP energy -693786.242489 kJ/mol
# GULP energy per Si atom -12389.040044 kJ/mol
# Density = 1.572855 g / cm^3
# Si number density = 15.764435 Si / 1000 Ang^3
#
#
#
# Elastic Constant Matrix: (Units=GPa)
#
#
# Indices 1 2 3 4 5 6 
#
# 1 72.6237 16.3554 34.9717 0.0000 0.0000 0.0000
# 2 16.3554 37.0054 19.1889 0.0000 0.0000 0.0000
# 3 34.9717 19.1889 94.2315 0.0000 0.0000 0.0000
# 4 0.0000 0.0000 0.0000 7.5301 0.0000 0.0000
# 5 0.0000 0.0000 0.0000 0.0000 12.8750 0.0000
# 6 0.0000 0.0000 0.0000 0.0000 0.0000 13.7013
#
#
#
# Elastic Compliance Matrix: (Units=1/GPa)
#
#
# Indices 1 2 3 4 5 6 
#
# 1 0.017523 -0.004889 -0.005508 0.000000 0.000000 0.000000
# 2 -0.004889 0.031577 -0.004616 0.000000 0.000000 0.000000
# 3 -0.005508 -0.004616 0.013596 0.000000 0.000000 0.000000
# 4 0.000000 0.000000 0.000000 0.132800 0.000000 0.000000
# 5 0.000000 0.000000 0.000000 0.000000 0.077670 0.000000
# 6 0.000000 0.000000 0.000000 0.000000 0.000000 0.072986
#
#
# Mechanical properties :
#
#
# Convention : Reuss Voigt Hill
#
# Bulk Modulus (GPa) = 30.60751 38.32140 34.46446
# Shear Modulus (GPa) = 12.91766 15.71092 14.31429
#
# Velocity S-wave (km/s) = 2.86565 3.16033 3.01659
# Velocity P-wave (km/s) = 5.51425 6.13828 5.83461
#
# Compressibility (1/GPa) = 0.03267172
#
# Stress axis : x y z
#
# Youngs Moduli (GPa) = 57.06870 31.66829 73.55018
#
# Poissons Ratio (x) = 0.15482 0.40509
# Poissons Ratio (y) = 0.27899 0.33951
# Poissons Ratio (z) = 0.31431 0.14618
#
# Static dielectric constant tensor:
#      x y z
#    x 2.759050 0.000000 0.000000 
#    y 0.000000 3.024370 0.000000 
#    z 0.000000 0.000000 3.175300 
# 
# 
# High freq. dielectric constant tensor:
#      x y z
#    x 1.566700 0.000000 0.000000 
#    y 0.000000 1.588670 0.000000 
#    z 0.000000 0.000000 1.596920 
# 
# From -- ./inp_files/18817.got.cif
#   From: 2010.03.12/outbox.cif.g09.slc.cpg/sg51_10_cif.got.tgz:18817.got - 2010.04.16 13:43:02.
