data_PCOD8206830
_publ_section_title
;
Structure prediction by ZEFSAII (Michael W. Deem and Ramdas Pophale) SiO2 
 PCOD8206830
Probable space group: P M M A
;
_chemical_formula_sum "Si O2"
_cell_formula_units_Z 64
_cell_length_a 8.712785
_cell_length_b 23.539341
_cell_length_c 19.111156
_cell_angle_alpha 90.000000
_cell_angle_beta 90.000000
_cell_angle_gamma 90.000000
_cell_volume 3919.568468
_symmetry_space_group_name_H-M "P M M A"
_symmetry_group_IT_number 51
_symmetry_cell_setting 'orthorhombic'
loop_
_space_group_symop_operation_xyz
x,y,z
1/2-x,-y,z
1/2+x,-y,-z
-x,y,-z
-x,-y,-z
1/2+x,y,-z
1/2-x,y,z
x,-y,z
loop_
_atom_site_type_symbol
_atom_site_label
_atom_site_fract_x
_atom_site_fract_y
_atom_site_fract_z
Si Si1 0.069055 0.670542 0.345420
Si Si2 0.426277 0.934211 0.210780
Si Si3 0.429902 0.888186 0.927309
Si Si4 0.567996 0.436769 0.574735
Si Si5 0.931443 0.263465 0.786796
Si Si6 0.931079 0.838833 0.296321
Si Si7 0.932004 0.781133 0.575390
Si Si8 0.928974 0.755571 0.072305
O O1 0.250000 0.669303 0.352136
O O2 0.003698 0.609099 0.369054
O O3 0.021972 0.684868 0.265489
O O4 0.007388 0.719981 0.396976
O O5 0.250000 0.914326 0.213317
O O6 0.490695 0.923260 0.133672
O O7 0.523267 0.900897 0.269108
O O8 0.443612 0.000000 0.229133
O O9 0.250000 0.900244 0.926354
O O10 0.466460 0.821761 0.917713
O O11 0.500000 0.910268 0.000000
O O12 0.500000 0.420285 0.500000
O O13 0.750000 0.434131 0.568758
O O14 0.514142 0.500000 0.597759
O O15 0.750000 0.253626 0.786917
O O16 0.011433 0.206060 0.761064
O O17 0.991763 0.278591 0.864028
O O18 0.750000 0.833814 0.303984
O O19 0.009276 0.829218 0.371433
O O20 0.750000 0.783449 0.572231
O O21 0.000000 0.794096 0.500000
O O22 0.750000 0.742530 0.072199
O O23 0.000000 0.732789 0.000000
#
# Coordination Sequence:
#
# PCOD8206830 Si02
#       8
#     8   8   8   8   8   8   8   8
#     4   8  16  28  43  67  96 127 161 195 234 272
#     4  11  23  37  53  71  92 120 153 189 229 275
#     4  10  20  33  50  70  94 123 154 190 226 271
#     4   9  16  27  43  63  92 130 169 203 232 268
#     4  10  18  30  48  67  93 124 154 194 236 278
#     4  11  21  34  51  71  94 120 151 187 230 281
#     4  10  19  32  50  72  97 123 152 191 234 280
#     4  10  19  30  46  69  94 123 155 187 227 280
#
# _framework density 16.328327999999999
#
# number of rings (size 3 to 8) (size 9 to 14) (size 15 to 20)
#    0.000    2.125    1.250    4.125    0.000    2.250 
#    0.000    3.125    0.000    0.375    0.000    0.000 
#    0.000    0.500    0.000    0.875    0.000    1.250 
#
# Total GULP energy -793598.628694 kJ/mol
# GULP energy per Si atom -12399.978573 kJ/mol
# Density = 1.629116 g / cm^3
# Si number density = 16.328328 Si / 1000 Ang^3
#
#
#
# Elastic Constant Matrix: (Units=GPa)
#
#
# Indices 1 2 3 4 5 6 
#
# 1 74.7816 26.4510 39.8650 0.0000 0.0000 0.0000
# 2 26.4510 77.9794 52.8288 0.0000 0.0000 0.0000
# 3 39.8650 52.8288 138.5421 0.0000 0.0000 0.0000
# 4 0.0000 0.0000 0.0000 27.4810 0.0000 0.0000
# 5 0.0000 0.0000 0.0000 0.0000 31.4557 0.0000
# 6 0.0000 0.0000 0.0000 0.0000 0.0000 12.8359
#
#
#
# Elastic Compliance Matrix: (Units=1/GPa)
#
#
# Indices 1 2 3 4 5 6 
#
# 1 0.016361 -0.003182 -0.003494 0.000000 0.000000 0.000000
# 2 -0.003182 0.017910 -0.005914 0.000000 0.000000 0.000000
# 3 -0.003494 -0.005914 0.010478 0.000000 0.000000 0.000000
# 4 0.000000 0.000000 0.000000 0.036389 0.000000 0.000000
# 5 0.000000 0.000000 0.000000 0.000000 0.031791 0.000000
# 6 0.000000 0.000000 0.000000 0.000000 0.000000 0.077906
#
#
# Mechanical properties :
#
#
# Convention : Reuss Voigt Hill
#
# Bulk Modulus (GPa) = 51.10288 58.84364 54.97326
# Shear Modulus (GPa) = 22.46811 25.83175 24.14993
#
# Velocity S-wave (km/s) = 3.71350 3.98178 3.84998
# Velocity P-wave (km/s) = 7.05349 7.56673 7.31461
#
# Compressibility (1/GPa) = 0.01956837
#
# Stress axis : x y z
#
# Youngs Moduli (GPa) = 61.12236 55.83575 95.43409
#
# Poissons Ratio (x) = 0.17769 0.33347
# Poissons Ratio (y) = 0.19452 0.56436
# Poissons Ratio (z) = 0.21357 0.33019
#
# Static dielectric constant tensor:
#      x y z
#    x 3.091110 0.000000 0.000000 
#    y 0.000000 3.077910 0.000000 
#    z 0.000000 0.000000 2.958100 
# 
# 
# High freq. dielectric constant tensor:
#      x y z
#    x 1.634960 0.000000 0.000000 
#    y 0.000000 1.592600 0.000000 
#    z 0.000000 0.000000 1.629630 
# 
# From -- ./inp_files/28574.got.cif
#   From: 2010.03.12/outbox.cif.g09.slc.cpg/sg51_15_cif.got.tgz:28574.got - 2010.04.16 13:43:02.
