data_PCOD8206968
_publ_section_title
;
Structure prediction by ZEFSAII (Michael W. Deem and Ramdas Pophale) SiO2 
 PCOD8206968
Probable space group: P M M A
;
_chemical_formula_sum "Si O2"
_cell_formula_units_Z 64
_cell_length_a 23.489841
_cell_length_b 9.464141
_cell_length_c 15.014848
_cell_angle_alpha 90.000000
_cell_angle_beta 90.000000
_cell_angle_gamma 90.000000
_cell_volume 3337.968386
_symmetry_space_group_name_H-M "P M M A"
_symmetry_group_IT_number 51
_symmetry_cell_setting 'orthorhombic'
loop_
_space_group_symop_operation_xyz
x,y,z
1/2-x,-y,z
1/2+x,-y,-z
-x,y,-z
-x,-y,-z
1/2+x,y,-z
1/2-x,y,z
x,-y,z
loop_
_atom_site_type_symbol
_atom_site_label
_atom_site_fract_x
_atom_site_fract_y
_atom_site_fract_z
Si Si1 0.502462 0.333478 0.286643
Si Si2 0.187760 0.158074 0.801771
Si Si3 0.024173 0.339881 0.910286
Si Si4 0.126334 0.665526 0.323285
Si Si5 0.606376 0.166977 0.352621
Si Si6 0.686114 0.332432 0.853445
Si Si7 0.316041 0.165239 0.480193
Si Si8 0.346298 0.659460 0.954880
O O1 0.517283 0.500000 0.286971
O O2 0.504389 0.273597 0.184401
O O3 0.440887 0.303411 0.328983
O O4 0.546991 0.251565 0.349973
O O5 0.250000 0.158562 0.755639
O O6 0.142217 0.218744 0.732582
O O7 0.192999 0.249213 0.890863
O O8 0.169933 0.000000 0.829116
O O9 0.000502 0.500000 0.911294
O O10 0.091345 0.331738 0.914688
O O11 0.000000 0.262816 0.000000
O O12 0.138894 0.500000 0.335458
O O13 0.148376 0.722813 0.228216
O O14 0.161537 0.748480 0.396570
O O15 0.643814 0.209319 0.437774
O O16 0.594105 0.000000 0.351093
O O17 0.750000 0.271286 0.846216
O O18 0.687110 0.500000 0.851487
O O19 0.656990 0.279359 0.944974
O O20 0.250000 0.204003 0.500024
O O21 0.321936 0.000000 0.459477
O O22 0.322878 0.500000 0.954175
#
# Coordination Sequence:
#
# PCOD8206968 Si02
#       8
#     8   8   8   8   8   8   8   8
#     4  10  20  35  55  83 115 146 185 229 274 327
#     4  10  20  34  52  75 106 142 177 218 272 329
#     4   9  16  28  49  76 108 146 184 222 263 312
#     4  10  21  37  58  83 113 148 184 227 280 333
#     4  10  21  38  59  80 108 145 183 224 276 334
#     4   9  17  30  50  78 110 143 182 226 272 324
#     4  10  22  41  63  85 108 140 186 233 278 334
#     4  10  18  30  51  79 108 140 181 225 267 318
#
# _framework density 19.17334
#
# number of rings (size 3 to 8) (size 9 to 14) (size 15 to 20)
#    0.000    2.250    1.250    1.875    0.000    7.500 
#    0.000    3.125    0.000    7.500    0.000    0.000 
#    0.000    0.000    0.000    0.000    0.000    0.000 
#
# Total GULP energy -793396.960294 kJ/mol
# GULP energy per Si atom -12396.827505 kJ/mol
# Density = 1.912970 g / cm^3
# Si number density = 19.173340 Si / 1000 Ang^3
#
#
#
# Elastic Constant Matrix: (Units=GPa)
#
#
# Indices 1 2 3 4 5 6 
#
# 1 93.2806 31.0795 43.0742 0.0000 0.0000 0.0000
# 2 31.0795 38.8722 38.0582 0.0000 0.0000 0.0000
# 3 43.0742 38.0582 116.6844 0.0000 0.0000 0.0000
# 4 0.0000 0.0000 0.0000 17.8444 0.0000 0.0000
# 5 0.0000 0.0000 0.0000 0.0000 38.0459 0.0000
# 6 0.0000 0.0000 0.0000 0.0000 0.0000 25.2019
#
#
#
# Elastic Compliance Matrix: (Units=1/GPa)
#
#
# Indices 1 2 3 4 5 6 
#
# 1 0.015056 -0.009691 -0.002397 0.000000 0.000000 0.000000
# 2 -0.009691 0.044032 -0.010784 0.000000 0.000000 0.000000
# 3 -0.002397 -0.010784 0.012972 0.000000 0.000000 0.000000
# 4 0.000000 0.000000 0.000000 0.056040 0.000000 0.000000
# 5 0.000000 0.000000 0.000000 0.000000 0.026284 0.000000
# 6 0.000000 0.000000 0.000000 0.000000 0.000000 0.039679
#
#
# Mechanical properties :
#
#
# Convention : Reuss Voigt Hill
#
# Bulk Modulus (GPa) = 37.99978 52.58456 45.29217
# Shear Modulus (GPa) = 20.11424 25.32681 22.72053
#
# Velocity S-wave (km/s) = 3.24245 3.63842 3.44613
# Velocity P-wave (km/s) = 5.82066 6.71835 6.28555
#
# Compressibility (1/GPa) = 0.02631594
#
# Stress axis : x y z
#
# Youngs Moduli (GPa) = 66.41817 22.71090 77.08649
#
# Poissons Ratio (x) = 0.22009 0.18479
# Poissons Ratio (y) = 0.64365 0.83131
# Poissons Ratio (z) = 0.15922 0.24492
#
# Static dielectric constant tensor:
#      x y z
#    x 3.569840 0.000000 0.000000 
#    y 0.000000 3.147160 0.000000 
#    z 0.000000 0.000000 3.631090 
# 
# 
# High freq. dielectric constant tensor:
#      x y z
#    x 1.758980 0.000000 0.000000 
#    y 0.000000 1.701740 0.000000 
#    z 0.000000 0.000000 1.752580 
# 
# From -- ./inp_files/26317.got.cif
#   From: 2010.03.12/outbox.cif.g09.slc.cpg/sg51_14_cif.got.tgz:26317.got - 2010.04.16 13:43:02.
