data_PCOD8206972
_publ_section_title
;
Structure prediction by ZEFSAII (Michael W. Deem and Ramdas Pophale) SiO2 
 PCOD8206972
Probable space group: P M M A
;
_chemical_formula_sum "Si O2"
_cell_formula_units_Z 64
_cell_length_a 16.722209
_cell_length_b 12.868873
_cell_length_c 15.797495
_cell_angle_alpha 90.000000
_cell_angle_beta 90.000000
_cell_angle_gamma 90.000000
_cell_volume 3399.557480
_symmetry_space_group_name_H-M "P M M A"
_symmetry_group_IT_number 51
_symmetry_cell_setting 'orthorhombic'
loop_
_space_group_symop_operation_xyz
x,y,z
1/2-x,-y,z
1/2+x,-y,-z
-x,y,-z
-x,-y,-z
1/2+x,y,-z
1/2-x,y,z
x,-y,z
loop_
_atom_site_type_symbol
_atom_site_label
_atom_site_fract_x
_atom_site_fract_y
_atom_site_fract_z
Si Si1 0.159160 0.618081 0.850413
Si Si2 0.917860 0.619026 0.625548
Si Si3 0.158714 0.385857 0.206023
Si Si4 0.502954 0.882444 0.204864
Si Si5 0.419702 0.785545 0.956554
Si Si6 0.573461 0.700330 0.309348
Si Si7 0.658602 0.620206 0.456301
Si Si8 0.157153 0.820899 0.121915
O O1 0.250000 0.643948 0.822622
O O2 0.151337 0.500000 0.880641
O O3 0.134539 0.689269 0.928714
O O4 0.098756 0.638204 0.773867
O O5 0.891336 0.500000 0.623242
O O6 0.879796 0.667518 0.710788
O O7 0.888708 0.667794 0.537222
O O8 0.011988 0.633176 0.634786
O O9 0.250000 0.402003 0.227794
O O10 0.120956 0.500000 0.183260
O O11 0.146925 0.304497 0.129660
O O12 0.555972 0.859115 0.121494
O O13 0.535310 0.811025 0.282321
O O14 0.407383 0.871779 0.186222
O O15 0.519633 0.000000 0.233030
O O16 0.500000 0.741854 0.000000
O O17 0.367304 0.850170 0.025554
O O18 0.646387 0.699476 0.376379
O O19 0.750000 0.624948 0.482335
O O20 0.634464 0.500000 0.434395
O O21 0.250000 0.855230 0.140906
#
# Coordination Sequence:
#
# PCOD8206972 Si02
#       8
#     8   8   8   8   8   8   8   8
#     4  10  20  33  50  74 109 147 177 211 258 314
#     4  10  18  30  51  80 113 143 173 205 243 301
#     4   9  17  29  47  75 113 149 173 200 246 307
#     4  10  22  40  57  75 101 134 176 230 283 321
#     4   9  20  35  53  78 104 135 176 223 270 319
#     4  11  20  34  53  77 103 139 181 218 263 311
#     4  10  20  33  53  83 116 146 175 209 252 304
#     4  10  19  34  55  80 106 137 176 218 265 321
#
# _framework density 18.825980999999999
#
# number of rings (size 3 to 8) (size 9 to 14) (size 15 to 20)
#    0.000    2.125    1.250    2.625    0.000    6.750 
#    0.000    1.250    0.000   14.625    0.000    0.000 
#    0.000    0.000    0.000    0.000    0.000    0.000 
#
# Total GULP energy -793042.155066 kJ/mol
# GULP energy per Si atom -12391.283673 kJ/mol
# Density = 1.878313 g / cm^3
# Si number density = 18.825981 Si / 1000 Ang^3
#
#
#
# Elastic Constant Matrix: (Units=GPa)
#
#
# Indices 1 2 3 4 5 6 
#
# 1 80.8774 38.3859 26.4776 0.0000 0.0000 0.0000
# 2 38.3859 69.5542 20.2220 0.0000 0.0000 0.0000
# 3 26.4776 20.2220 75.4065 0.0000 0.0000 0.0000
# 4 0.0000 0.0000 0.0000 13.0413 0.0000 0.0000
# 5 0.0000 0.0000 0.0000 0.0000 32.9623 0.0000
# 6 0.0000 0.0000 0.0000 0.0000 0.0000 15.6483
#
#
#
# Elastic Compliance Matrix: (Units=1/GPa)
#
#
# Indices 1 2 3 4 5 6 
#
# 1 0.017756 -0.008662 -0.003912 0.000000 0.000000 0.000000
# 2 -0.008662 0.019819 -0.002273 0.000000 0.000000 0.000000
# 3 -0.003912 -0.002273 0.015245 0.000000 0.000000 0.000000
# 4 0.000000 0.000000 0.000000 0.076679 0.000000 0.000000
# 5 0.000000 0.000000 0.000000 0.000000 0.030338 0.000000
# 6 0.000000 0.000000 0.000000 0.000000 0.000000 0.063905
#
#
# Mechanical properties :
#
#
# Convention : Reuss Voigt Hill
#
# Bulk Modulus (GPa) = 43.24299 44.00101 43.62200
# Shear Modulus (GPa) = 19.14651 21.71389 20.43020
#
# Velocity S-wave (km/s) = 3.19254 3.39986 3.29783
# Velocity P-wave (km/s) = 6.05058 6.23180 6.14186
#
# Compressibility (1/GPa) = 0.02312513
#
# Stress axis : x y z
#
# Youngs Moduli (GPa) = 56.31824 50.45746 65.59669
#
# Poissons Ratio (x) = 0.43707 0.25660
# Poissons Ratio (y) = 0.48783 0.14912
# Poissons Ratio (z) = 0.22031 0.11471
#
# Static dielectric constant tensor:
#      x y z
#    x 3.657550 0.000000 0.000000 
#    y 0.000000 3.132850 0.000000 
#    z 0.000000 0.000000 3.507230 
# 
# 
# High freq. dielectric constant tensor:
#      x y z
#    x 1.745520 0.000000 0.000000 
#    y 0.000000 1.683700 0.000000 
#    z 0.000000 0.000000 1.727540 
# 
# From -- ./inp_files/25209.got.cif
#   From: 2010.03.12/outbox.cif.g09.slc.cpg/sg51_13_cif.got.tgz:25209.got - 2010.04.16 13:43:02.
