data_PCOD8206812
_publ_section_title
;
Structure prediction by ZEFSAII (Michael W. Deem and Ramdas Pophale) SiO2 
 PCOD8206812
Probable space group: P M M A
;
_chemical_formula_sum "Si O2"
_cell_formula_units_Z 56
_cell_length_a 8.957477
_cell_length_b 18.902583
_cell_length_c 19.019017
_cell_angle_alpha 90.000000
_cell_angle_beta 90.000000
_cell_angle_gamma 90.000000
_cell_volume 3220.289545
_symmetry_space_group_name_H-M "P M M A"
_symmetry_group_IT_number 51
_symmetry_cell_setting 'orthorhombic'
loop_
_space_group_symop_operation_xyz
x,y,z
1/2-x,-y,z
1/2+x,-y,-z
-x,y,-z
-x,-y,-z
1/2+x,y,-z
1/2-x,y,z
x,-y,z
loop_
_atom_site_type_symbol
_atom_site_label
_atom_site_fract_x
_atom_site_fract_y
_atom_site_fract_z
Si Si1 0.575959 0.919757 0.832387
Si Si2 0.924051 0.713797 0.790617
Si Si3 0.078363 0.793317 0.072240
Si Si4 0.072912 0.159357 0.712140
Si Si5 0.425317 0.188301 0.428329
Si Si6 0.926936 0.577952 0.712459
Si Si7 0.923984 0.646956 0.570398
O O1 0.750000 0.905165 0.816032
O O2 0.521215 0.867630 0.894711
O O3 0.482780 0.904002 0.762188
O O4 0.546955 0.000000 0.856663
O O5 0.750000 0.726410 0.771335
O O6 0.953232 0.729803 0.872706
O O7 0.973405 0.633260 0.773716
O O8 0.020060 0.765630 0.742538
O O9 0.250000 0.800074 0.053835
O O10 0.000000 0.774497 0.000000
O O11 0.250000 0.157982 0.706353
O O12 0.001191 0.146432 0.635796
O O13 0.500000 0.160412 0.500000
O O14 0.250000 0.172548 0.430184
O O15 0.461073 0.270943 0.418154
O O16 0.750000 0.574125 0.707988
O O17 0.993051 0.500000 0.729717
O O18 0.988910 0.604557 0.637280
O O19 0.750000 0.634068 0.561767
O O20 0.000000 0.617300 0.500000
#
# Coordination Sequence:
#
# PCOD8206812 Si02
#       7
#     8   8   8   8   8   8   8
#     4   9  19  36  55  75 102 136 166 193 233 287
#     4   9  17  33  51  69  95 129 166 207 248 294
#     4   9  18  31  51  76 102 130 162 196 238 288
#     4  11  20  30  49  75 100 130 167 207 248 291
#     4  10  18  30  47  69  97 129 167 214 258 297
#     4   9  16  28  48  70  91 123 169 214 253 294
#     4   9  17  28  43  64  92 125 160 202 249 295
#
# _framework density 17.38974
#
# number of rings (size 3 to 8) (size 9 to 14) (size 15 to 20)
#    0.000    2.571    1.429    2.571    0.000    3.714 
#    0.000    0.000    0.000    2.143    0.000    0.000 
#    0.000    0.000    0.000    0.000    0.000    0.286 
#
# Total GULP energy -694279.539505 kJ/mol
# GULP energy per Si atom -12397.848920 kJ/mol
# Density = 1.735016 g / cm^3
# Si number density = 17.389740 Si / 1000 Ang^3
#
#
#
# Elastic Constant Matrix: (Units=GPa)
#
#
# Indices 1 2 3 4 5 6 
#
# 1 60.2600 13.8515 41.4044 0.0000 0.0000 0.0000
# 2 13.8515 81.9950 46.3308 0.0000 0.0000 0.0000
# 3 41.4044 46.3308 132.7203 0.0000 0.0000 0.0000
# 4 0.0000 0.0000 0.0000 19.3449 0.0000 0.0000
# 5 0.0000 0.0000 0.0000 0.0000 31.7862 0.0000
# 6 0.0000 0.0000 0.0000 0.0000 0.0000 12.8933
#
#
#
# Elastic Compliance Matrix: (Units=1/GPa)
#
#
# Indices 1 2 3 4 5 6 
#
# 1 0.021125 0.000193 -0.006658 0.000000 0.000000 0.000000
# 2 0.000193 0.015194 -0.005364 0.000000 0.000000 0.000000
# 3 -0.006658 -0.005364 0.011484 0.000000 0.000000 0.000000
# 4 0.000000 0.000000 0.000000 0.051693 0.000000 0.000000
# 5 0.000000 0.000000 0.000000 0.000000 0.031460 0.000000
# 6 0.000000 0.000000 0.000000 0.000000 0.000000 0.077560
#
#
# Mechanical properties :
#
#
# Convention : Reuss Voigt Hill
#
# Bulk Modulus (GPa) = 41.41526 53.12763 47.27145
# Shear Modulus (GPa) = 20.81398 24.36411 22.58905
#
# Velocity S-wave (km/s) = 3.46339 3.74714 3.60806
# Velocity P-wave (km/s) = 6.31356 7.02416 6.67832
#
# Compressibility (1/GPa) = 0.02414569
#
# Stress axis : x y z
#
# Youngs Moduli (GPa) = 47.33764 65.81394 87.07558
#
# Poissons Ratio (x) = -0.01272 0.57972
# Poissons Ratio (y) = -0.00915 0.46711
# Poissons Ratio (z) = 0.31516 0.35305
#
# Static dielectric constant tensor:
#      x y z
#    x 3.050890 0.000000 0.000000 
#    y 0.000000 3.246200 0.000000 
#    z 0.000000 0.000000 3.291750 
# 
# 
# High freq. dielectric constant tensor:
#      x y z
#    x 1.654670 0.000000 0.000000 
#    y 0.000000 1.648590 0.000000 
#    z 0.000000 0.000000 1.670060 
# 
# From -- ./inp_files/21766.got.cif
#   From: 2010.03.12/outbox.cif.g09.slc.cpg/sg51_11_cif.got.tgz:21766.got - 2010.04.16 13:43:02.
