data_PCOD8206536
_publ_section_title
;
Structure prediction by ZEFSAII (Michael W. Deem and Ramdas Pophale) SiO2 
 PCOD8206536
Probable space group: P M M A
;
_chemical_formula_sum "Si O2"
_cell_formula_units_Z 64
_cell_length_a 23.022894
_cell_length_b 9.423715
_cell_length_c 15.948530
_cell_angle_alpha 90.000000
_cell_angle_beta 90.000000
_cell_angle_gamma 90.000000
_cell_volume 3460.212072
_symmetry_space_group_name_H-M "P M M A"
_symmetry_group_IT_number 51
_symmetry_cell_setting 'orthorhombic'
loop_
_space_group_symop_operation_xyz
x,y,z
1/2-x,-y,z
1/2+x,-y,-z
-x,y,-z
-x,-y,-z
1/2+x,y,-z
1/2-x,y,z
x,-y,z
loop_
_atom_site_type_symbol
_atom_site_label
_atom_site_fract_x
_atom_site_fract_y
_atom_site_fract_z
Si Si1 0.533205 0.667865 0.878392
Si Si2 0.415791 0.160599 0.267845
Si Si3 0.006361 0.161627 0.595196
Si Si4 0.609221 0.331228 0.335086
Si Si5 0.186882 0.667353 0.515258
Si Si6 0.182644 0.662072 0.326988
Si Si7 0.588625 0.667166 0.046801
Si Si8 0.816435 0.331285 0.173183
O O1 0.535201 0.500000 0.860795
O O2 0.543855 0.754422 0.795177
O O3 0.469147 0.718048 0.905529
O O4 0.581563 0.710209 0.949098
O O5 0.443624 0.167498 0.360508
O O6 0.352851 0.234089 0.267089
O O7 0.408589 0.000000 0.236561
O O8 0.047444 0.254803 0.656083
O O9 0.000000 0.222355 0.500000
O O10 0.029856 0.000000 0.591585
O O11 0.599191 0.500000 0.333448
O O12 0.642287 0.273698 0.417248
O O13 0.646868 0.282106 0.254702
O O14 0.250000 0.735570 0.532948
O O15 0.192317 0.500000 0.525234
O O16 0.166733 0.705242 0.421904
O O17 0.250000 0.684193 0.308006
O O18 0.164403 0.500000 0.309125
O O19 0.590665 0.500000 0.054053
O O20 0.647584 0.726131 0.091397
O O21 0.750000 0.269784 0.173438
O O22 0.812327 0.500000 0.172772
#
# Coordination Sequence:
#
# PCOD8206536 Si02
#       8
#     8   8   8   8   8   8   8   8
#     4   9  17  32  54  75  97 126 164 209 249 292
#     4  11  22  34  50  73  99 127 160 199 246 294
#     4  10  22  37  49  66  99 139 171 203 247 295
#     4  10  18  28  48  76 100 127 165 205 246 290
#     4   8  14  26  45  70  98 125 158 202 244 280
#     4   9  18  33  52  71  93 125 162 198 237 282
#     4   8  15  29  49  72  97 129 165 202 249 298
#     4   9  16  26  44  74 108 134 160 201 252 306
#
# _framework density 18.495977
#
# number of rings (size 3 to 8) (size 9 to 14) (size 15 to 20)
#    0.000    2.750    0.000    3.750    0.000    4.000 
#    0.000    1.875    0.000    5.250    0.000    0.000 
#    0.000    0.000    0.000    0.000    0.000    0.000 
#
# Total GULP energy -793101.607002 kJ/mol
# GULP energy per Si atom -12392.212609 kJ/mol
# Density = 1.845388 g / cm^3
# Si number density = 18.495977 Si / 1000 Ang^3
#
#
#
# Elastic Constant Matrix: (Units=GPa)
#
#
# Indices 1 2 3 4 5 6 
#
# 1 97.9410 34.1655 39.8410 0.0000 0.0000 0.0000
# 2 34.1655 24.0850 9.5038 0.0000 0.0000 0.0000
# 3 39.8410 9.5038 67.9593 0.0000 0.0000 0.0000
# 4 0.0000 0.0000 0.0000 14.5682 0.0000 0.0000
# 5 0.0000 0.0000 0.0000 0.0000 26.9285 0.0000
# 6 0.0000 0.0000 0.0000 0.0000 0.0000 8.0611
#
#
#
# Elastic Compliance Matrix: (Units=1/GPa)
#
#
# Indices 1 2 3 4 5 6 
#
# 1 0.025870 -0.032507 -0.010620 0.000000 0.000000 0.000000
# 2 -0.032507 0.084792 0.007200 0.000000 0.000000 0.000000
# 3 -0.010620 0.007200 0.019934 0.000000 0.000000 0.000000
# 4 0.000000 0.000000 0.000000 0.068643 0.000000 0.000000
# 5 0.000000 0.000000 0.000000 0.000000 0.037135 0.000000
# 6 0.000000 0.000000 0.000000 0.000000 0.000000 0.124053
#
#
# Mechanical properties :
#
#
# Convention : Reuss Voigt Hill
#
# Bulk Modulus (GPa) = 17.02425 39.66733 28.34579
# Shear Modulus (GPa) = 11.06531 17.00988 14.03760
#
# Velocity S-wave (km/s) = 2.44858 3.03587 2.75790
# Velocity P-wave (km/s) = 4.14950 5.81220 5.04975
#
# Compressibility (1/GPa) = 0.05873976
#
# Stress axis : x y z
#
# Youngs Moduli (GPa) = 38.65457 11.79363 50.16549
#
# Poissons Ratio (x) = 0.38338 0.53277
# Poissons Ratio (y) = 1.25655 -0.36117
# Poissons Ratio (z) = 0.41052 -0.08491
#
# Static dielectric constant tensor:
#      x y z
#    x 3.876500 0.000000 0.000000 
#    y 0.000000 2.947990 0.000000 
#    z 0.000000 0.000000 4.163570 
# 
# 
# High freq. dielectric constant tensor:
#      x y z
#    x 1.720190 0.000000 0.000000 
#    y 0.000000 1.667630 0.000000 
#    z 0.000000 0.000000 1.716990 
# 
# From -- ./inp_files/30827.got.cif
#   From: 2010.03.12/outbox.cif.g09.slc.cpg/sg51_16_cif.got.tgz:30827.got - 2010.04.16 13:43:02.
