data_PCOD8206705
_publ_section_title
;
Structure prediction by ZEFSAII (Michael W. Deem and Ramdas Pophale) SiO2 
 PCOD8206705
Probable space group: P M M A
;
_chemical_formula_sum "Si O2"
_cell_formula_units_Z 46
_cell_length_a 15.331085
_cell_length_b 11.830748
_cell_length_c 13.819836
_cell_angle_alpha 90.000000
_cell_angle_beta 90.000000
_cell_angle_gamma 90.000000
_cell_volume 2506.617022
_symmetry_space_group_name_H-M "P M M A"
_symmetry_group_IT_number 51
_symmetry_cell_setting 'orthorhombic'
loop_
_space_group_symop_operation_xyz
x,y,z
1/2-x,-y,z
1/2+x,-y,-z
-x,y,-z
-x,-y,-z
1/2+x,y,-z
1/2-x,y,z
x,-y,z
loop_
_atom_site_type_symbol
_atom_site_label
_atom_site_fract_x
_atom_site_fract_y
_atom_site_fract_z
Si Si1 0.606255 0.000000 0.511872
Si Si2 0.600074 0.758088 0.465299
Si Si3 0.750000 0.370501 0.964690
Si Si4 0.250000 0.759976 0.227030
Si Si5 0.125972 0.374961 0.353458
Si Si6 0.431030 0.625788 0.713416
Si Si7 0.250000 0.000000 0.322776
Si Si8 0.928765 0.630675 0.072100
O O1 0.500000 0.000000 0.500000
O O2 0.638940 0.114833 0.461009
O O3 0.657972 0.000000 0.616293
O O4 0.500000 0.762791 0.500000
O O5 0.650035 0.682017 0.544106
O O6 0.621148 0.706505 0.359889
O O7 0.750000 0.500000 0.921981
O O8 0.750000 0.271008 0.886097
O O9 0.667071 0.351285 0.031865
O O10 0.335931 0.702108 0.269337
O O11 0.250000 0.892895 0.249995
O O12 0.167676 0.500000 0.352292
O O13 0.024535 0.384556 0.334969
O O14 0.388426 0.500000 0.718554
O O15 0.433835 0.683209 0.819812
O O16 0.954633 0.500000 0.083807
O O17 0.000000 0.687769 0.000000
#
# Coordination Sequence:
#
# PCOD8206705 Si02
#       8
#     4   8   4   4   8   8   2   8
#     4  10  20  38  56  75 108 148 187 226 261 314
#     4   9  17  30  50  75 106 143 182 222 264 316
#     4  10  20  34  54  81 108 136 177 226 275 324
#     4  12  22  34  51  77 106 136 175 224 279 326
#     4  10  18  29  48  78 112 140 169 216 274 329
#     4   9  17  30  51  78 107 144 183 216 266 327
#     4  12  24  40  58  82 106 142 190 226 262 326
#     4   9  17  31  50  74 107 143 178 219 266 324
#
# _framework density 18.351427000000001
#
# number of rings (size 3 to 8) (size 9 to 14) (size 15 to 20)
#    0.000    2.261    1.739    2.348    0.000    4.870 
#    0.000    1.739    0.000    3.130    0.000    2.435 
#    0.000    0.000    0.000    0.000    0.000    0.000 
#
# Total GULP energy -569852.499830 kJ/mol
# GULP energy per Si atom -12388.097822 kJ/mol
# Density = 1.830966 g / cm^3
# Si number density = 18.351427 Si / 1000 Ang^3
#
#
#
# Elastic Constant Matrix: (Units=GPa)
#
#
# Indices 1 2 3 4 5 6 
#
# 1 55.0330 11.9205 20.1581 0.0000 0.0000 0.0000
# 2 11.9205 131.0246 58.9059 0.0000 0.0000 0.0000
# 3 20.1581 58.9059 159.0806 0.0000 0.0000 0.0000
# 4 0.0000 0.0000 0.0000 22.9066 0.0000 0.0000
# 5 0.0000 0.0000 0.0000 0.0000 10.1314 0.0000
# 6 0.0000 0.0000 0.0000 0.0000 0.0000 3.9954
#
#
#
# Elastic Compliance Matrix: (Units=1/GPa)
#
#
# Indices 1 2 3 4 5 6 
#
# 1 0.019122 -0.000780 -0.002134 0.000000 0.000000 0.000000
# 2 -0.000780 0.009188 -0.003303 0.000000 0.000000 0.000000
# 3 -0.002134 -0.003303 0.007780 0.000000 0.000000 0.000000
# 4 0.000000 0.000000 0.000000 0.043656 0.000000 0.000000
# 5 0.000000 0.000000 0.000000 0.000000 0.098703 0.000000
# 6 0.000000 0.000000 0.000000 0.000000 0.000000 0.250290
#
#
# Mechanical properties :
#
#
# Convention : Reuss Voigt Hill
#
# Bulk Modulus (GPa) = 42.27596 58.56748 50.42172
# Shear Modulus (GPa) = 11.13443 24.35026 17.74234
#
# Velocity S-wave (km/s) = 2.46587 3.64660 3.11273
# Velocity P-wave (km/s) = 5.58518 7.05081 6.36035
#
# Compressibility (1/GPa) = 0.02365411
#
# Stress axis : x y z
#
# Youngs Moduli (GPa) = 52.29684 108.83391 128.53813
#
# Poissons Ratio (x) = 0.08491 0.27432
# Poissons Ratio (y) = 0.04080 0.42462
# Poissons Ratio (z) = 0.11161 0.35953
#
# Static dielectric constant tensor:
#      x y z
#    x 3.273720 0.000000 0.000000 
#    y 0.000000 3.526460 0.000000 
#    z 0.000000 0.000000 3.420610 
# 
# 
# High freq. dielectric constant tensor:
#      x y z
#    x 1.702560 0.000000 0.000000 
#    y 0.000000 1.686100 0.000000 
#    z 0.000000 0.000000 1.705510 
# 
# From -- ./inp_files/17364.got.cif
#   From: 2010.03.12/outbox.cif.g09.slc.cpg/sg51_9_cif.got.tgz:17364.got - 2010.04.16 13:43:02.
