data_PCOD8206755
_publ_section_title
;
Structure prediction by ZEFSAII (Michael W. Deem and Ramdas Pophale) SiO2 
 PCOD8206755
Probable space group: P M M A
;
_chemical_formula_sum "Si O2"
_cell_formula_units_Z 40
_cell_length_a 8.781634
_cell_length_b 15.509478
_cell_length_c 19.848661
_cell_angle_alpha 90.000000
_cell_angle_beta 90.000000
_cell_angle_gamma 90.000000
_cell_volume 2703.359033
_symmetry_space_group_name_H-M "P M M A"
_symmetry_group_IT_number 51
_symmetry_cell_setting 'orthorhombic'
loop_
_space_group_symop_operation_xyz
x,y,z
1/2-x,-y,z
1/2+x,-y,-z
-x,y,-z
-x,-y,-z
1/2+x,y,-z
1/2-x,y,z
x,-y,z
loop_
_atom_site_type_symbol
_atom_site_label
_atom_site_fract_x
_atom_site_fract_y
_atom_site_fract_z
Si Si1 0.068068 0.000000 0.074341
Si Si2 0.928495 0.500000 0.927241
Si Si3 0.069567 0.826594 0.926398
Si Si4 0.918206 0.602848 0.565274
Si Si5 0.068946 0.595834 0.289413
Si Si6 0.570334 0.328909 0.849106
O O1 0.003071 0.912622 0.107933
O O2 0.250000 0.000000 0.074839
O O3 0.000000 0.000000 0.000000
O O4 0.750000 0.500000 0.935938
O O5 0.980688 0.584540 0.887163
O O6 0.000000 0.500000 0.000000
O O7 0.250000 0.836864 0.933366
O O8 0.028804 0.748655 0.877517
O O9 0.000000 0.808493 0.000000
O O10 0.750000 0.641437 0.562206
O O11 0.916505 0.500000 0.561045
O O12 0.994255 0.628991 0.637629
O O13 0.000000 0.643110 0.500000
O O14 0.250000 0.588704 0.294905
O O15 0.004705 0.500000 0.273344
O O16 0.024398 0.660797 0.229494
O O17 0.750000 0.310774 0.858301
#
# Coordination Sequence:
#
# PCOD8206755 Si02
#       6
#     4   4   8   8   8   8
#     4  10  18  32  52  70  84 102 129 166 211 258
#     4  10  20  30  42  56  75 104 142 182 215 242
#     4  11  21  33  47  65  86 108 135 171 214 259
#     4   8  13  21  35  54  74  99 132 170 207 244
#     4   8  13  24  41  57  76 106 143 176 208 246
#     4  10  18  30  45  61  80 109 145 180 213 249
#
# _framework density 14.796407
#
# number of rings (size 3 to 8) (size 9 to 14) (size 15 to 20)
#    0.000    2.600    1.000    5.700    0.000    2.400 
#    0.000    1.000    0.000    1.200    0.000    0.000 
#    0.000    0.000    0.000    0.900    0.000   10.800 
#
# Total GULP energy -495626.857440 kJ/mol
# GULP energy per Si atom -12390.671436 kJ/mol
# Density = 1.476273 g / cm^3
# Si number density = 14.796407 Si / 1000 Ang^3
#
#
#
# Elastic Constant Matrix: (Units=GPa)
#
#
# Indices 1 2 3 4 5 6 
#
# 1 71.1350 35.9149 34.9776 0.0000 0.0000 0.0000
# 2 35.9149 88.2207 44.5983 0.0000 0.0000 0.0000
# 3 34.9776 44.5983 120.2045 0.0000 0.0000 0.0000
# 4 0.0000 0.0000 0.0000 3.3180 0.0000 0.0000
# 5 0.0000 0.0000 0.0000 0.0000 19.8255 0.0000
# 6 0.0000 0.0000 0.0000 0.0000 0.0000 20.0011
#
#
#
# Elastic Compliance Matrix: (Units=1/GPa)
#
#
# Indices 1 2 3 4 5 6 
#
# 1 0.018651 -0.005969 -0.003213 0.000000 0.000000 0.000000
# 2 -0.005969 0.015862 -0.004148 0.000000 0.000000 0.000000
# 3 -0.003213 -0.004148 0.010793 0.000000 0.000000 0.000000
# 4 0.000000 0.000000 0.000000 0.301382 0.000000 0.000000
# 5 0.000000 0.000000 0.000000 0.000000 0.050440 0.000000
# 6 0.000000 0.000000 0.000000 0.000000 0.000000 0.049997
#
#
# Mechanical properties :
#
#
# Convention : Reuss Voigt Hill
#
# Bulk Modulus (GPa) = 53.62858 56.72687 55.17772
# Shear Modulus (GPa) = 10.41664 19.56689 14.99176
#
# Velocity S-wave (km/s) = 2.65617 3.64044 3.18654
# Velocity P-wave (km/s) = 6.76240 7.48945 7.13519
#
# Compressibility (1/GPa) = 0.01864678
#
# Stress axis : x y z
#
# Youngs Moduli (GPa) = 53.61644 63.04262 92.65168
#
# Poissons Ratio (x) = 0.37629 0.29765
# Poissons Ratio (y) = 0.32003 0.38436
# Poissons Ratio (z) = 0.17225 0.26153
#
# Static dielectric constant tensor:
#      x y z
#    x 2.754330 0.000000 0.000000 
#    y 0.000000 2.954350 0.000000 
#    z 0.000000 0.000000 3.090320 
# 
# 
# High freq. dielectric constant tensor:
#      x y z
#    x 1.555000 0.000000 0.000000 
#    y 0.000000 1.529160 0.000000 
#    z 0.000000 0.000000 1.560020 
# 
# From -- ./inp_files/27790.got.cif
#   From: 2010.03.12/outbox.cif.g09.slc.cpg/sg51_14_cif.got.tgz:27790.got - 2010.04.16 13:43:02.
