data_PCOD8206889
_publ_section_title
;
Structure prediction by ZEFSAII (Michael W. Deem and Ramdas Pophale) SiO2 
 PCOD8206889
Probable space group: P M M A
;
_chemical_formula_sum "Si O2"
_cell_formula_units_Z 40
_cell_length_a 8.843587
_cell_length_b 25.693873
_cell_length_c 9.428457
_cell_angle_alpha 90.000000
_cell_angle_beta 90.000000
_cell_angle_gamma 90.000000
_cell_volume 2142.390582
_symmetry_space_group_name_H-M "P M M A"
_symmetry_group_IT_number 51
_symmetry_cell_setting 'orthorhombic'
loop_
_space_group_symop_operation_xyz
x,y,z
1/2-x,-y,z
1/2+x,-y,-z
-x,y,-z
-x,-y,-z
1/2+x,y,-z
1/2-x,y,z
x,-y,z
loop_
_atom_site_type_symbol
_atom_site_label
_atom_site_fract_x
_atom_site_fract_y
_atom_site_fract_z
Si Si1 0.069083 0.000000 0.342913
Si Si2 0.928397 0.403844 0.346352
Si Si3 0.571398 0.500000 0.154991
Si Si4 0.071723 0.687827 0.852054
Si Si5 0.070412 0.103118 0.653347
Si Si6 0.927228 0.195338 0.145438
O O1 0.000000 0.000000 0.500000
O O2 0.004280 0.947522 0.269179
O O3 0.250000 0.000000 0.343960
O O4 0.750000 0.405800 0.366331
O O5 0.983772 0.449850 0.243133
O O6 0.982109 0.349679 0.274957
O O7 0.000000 0.410093 0.500000
O O8 0.750000 0.500000 0.135124
O O9 0.500000 0.500000 0.000000
O O10 0.250000 0.684168 0.871943
O O11 0.018387 0.746433 0.813030
O O12 0.000000 0.669333 0.000000
O O13 0.250000 0.095687 0.644591
O O14 0.021452 0.154945 0.735423
O O15 0.000000 0.110141 0.500000
O O16 0.750000 0.194381 0.123613
O O17 0.000000 0.176606 0.000000
#
# Coordination Sequence:
#
# PCOD8206889 Si02
#       6
#     4   8   4   8   8   8
#     4  10  18  30  49  72  97 128 164 202 244 294
#     4  10  21  35  52  76 107 136 169 211 255 299
#     4  10  21  36  54  78 104 136 175 214 252 300
#     4   9  18  34  53  74  99 131 169 208 248 298
#     4  10  19  32  50  73  99 128 162 203 247 295
#     4   9  19  34  52  73 100 131 165 205 250 296
#
# _framework density 18.670732999999998
#
# number of rings (size 3 to 8) (size 9 to 14) (size 15 to 20)
#    0.000    2.400    0.000    3.600    0.000    4.000 
#    0.000    0.500    0.000    0.000    0.000    0.000 
#    0.000    0.000    0.000    0.000    0.000    0.000 
#
# Total GULP energy -495908.965374 kJ/mol
# GULP energy per Si atom -12397.724134 kJ/mol
# Density = 1.862824 g / cm^3
# Si number density = 18.670733 Si / 1000 Ang^3
#
#
#
# Elastic Constant Matrix: (Units=GPa)
#
#
# Indices 1 2 3 4 5 6 
#
# 1 53.0071 47.5314 40.2719 0.0000 0.0000 0.0000
# 2 47.5314 154.7045 91.2521 0.0000 0.0000 0.0000
# 3 40.2719 91.2521 133.7102 0.0000 0.0000 0.0000
# 4 0.0000 0.0000 0.0000 40.1686 0.0000 0.0000
# 5 0.0000 0.0000 0.0000 0.0000 33.3186 0.0000
# 6 0.0000 0.0000 0.0000 0.0000 0.0000 -22.6546
#
#
#
# Elastic Compliance Matrix: (Units=1/GPa)
#
#
# Indices 1 2 3 4 5 6 
#
# 1 0.027375 -0.005938 -0.004193 0.000000 0.000000 0.000000
# 2 -0.005938 0.012107 -0.006474 0.000000 0.000000 0.000000
# 3 -0.004193 -0.006474 0.013160 0.000000 0.000000 0.000000
# 4 0.000000 0.000000 0.000000 0.024895 0.000000 0.000000
# 5 0.000000 0.000000 0.000000 0.000000 0.030013 0.000000
# 6 0.000000 0.000000 0.000000 0.000000 0.000000 -0.044141
#
#
# Mechanical properties :
#
#
# Convention : Reuss Voigt Hill
#
# Bulk Modulus (GPa) = 51.45922 77.72584 64.59253
# Shear Modulus (GPa) = 48.49828 20.99096 34.74462
#
# Velocity S-wave (km/s) = 5.10215 3.35665 4.31851
# Velocity P-wave (km/s) = 7.89497 7.53279 7.71601
#
# Compressibility (1/GPa) = 0.01943287
#
# Stress axis : x y z
#
# Youngs Moduli (GPa) = 36.52946 82.59680 75.98701
#
# Poissons Ratio (x) = 0.49042 0.31861
# Poissons Ratio (y) = 0.21690 0.49196
# Poissons Ratio (z) = 0.15317 0.53475
#
# Static dielectric constant tensor:
#      x y z
#    x 3.335190 0.000000 0.000000 
#    y 0.000000 4.246030 0.000000 
#    z 0.000000 0.000000 3.204040 
# 
# 
# High freq. dielectric constant tensor:
#      x y z
#    x 1.720460 0.000000 0.000000 
#    y 0.000000 1.747040 0.000000 
#    z 0.000000 0.000000 1.706380 
# 
# From -- ./inp_files/5604.got.cif
#   From: 2010.03.12/outbox.cif.g09.slc.cpg/sg51_3_cif.got.tgz:5604.got - 2010.04.16 13:43:02.
