data_PCOD8206171
_publ_section_title
;
Structure prediction by ZEFSAII (Michael W. Deem and Ramdas Pophale) SiO2 
 PCOD8206171
Probable space group: P M M A
;
_chemical_formula_sum "Si O2"
_cell_formula_units_Z 64
_cell_length_a 16.685582
_cell_length_b 17.748658
_cell_length_c 12.530452
_cell_angle_alpha 90.000000
_cell_angle_beta 90.000000
_cell_angle_gamma 90.000000
_cell_volume 3710.851865
_symmetry_space_group_name_H-M "P M M A"
_symmetry_group_IT_number 51
_symmetry_cell_setting 'orthorhombic'
loop_
_space_group_symop_operation_xyz
x,y,z
1/2-x,-y,z
1/2+x,-y,-z
-x,y,-z
-x,-y,-z
1/2+x,y,-z
1/2-x,y,z
x,-y,z
loop_
_atom_site_type_symbol
_atom_site_label
_atom_site_fract_x
_atom_site_fract_y
_atom_site_fract_z
Si Si1 0.104950 0.413863 0.719289
Si Si2 0.917478 0.587818 0.045327
Si Si3 0.506875 0.179007 0.627287
Si Si4 0.660587 0.086245 0.621410
Si Si5 0.658834 0.584797 0.831759
Si Si6 0.947026 0.346279 0.661686
Si Si7 0.661653 0.844019 0.402474
Si Si8 0.336908 0.324945 0.529102
O O1 0.134987 0.500000 0.715588
O O2 0.107855 0.378813 0.839524
O O3 0.161348 0.362970 0.645501
O O4 0.014976 0.409207 0.673371
O O5 0.932022 0.500000 0.066978
O O6 0.849440 0.604139 0.957479
O O7 0.000000 0.623696 0.000000
O O8 0.500000 0.172829 0.500000
O O9 0.585277 0.133584 0.670047
O O10 0.513366 0.264205 0.667509
O O11 0.419322 0.147014 0.670870
O O12 0.750000 0.112784 0.663026
O O13 0.661034 0.092154 0.493083
O O14 0.646393 0.000000 0.653849
O O15 0.750000 0.589744 0.798358
O O16 0.625232 0.500000 0.811664
O O17 0.613145 0.645352 0.760366
O O18 0.903299 0.359781 0.548946
O O19 0.750000 0.846401 0.343016
O O20 0.650550 0.764312 0.463276
O O21 0.250000 0.341564 0.478814
#
# Coordination Sequence:
#
# PCOD8206171 Si02
#       8
#     8   8   8   8   8   8   8   8
#     4  11  22  34  52  69  87 121 166 212 253 295
#     4   9  17  34  53  67  84 110 150 204 259 301
#     4  10  17  29  46  65  91 130 166 190 236 288
#     4   9  17  28  45  69  93 122 164 205 235 272
#     4  10  21  34  50  71  92 119 157 205 257 304
#     4  12  19  32  49  70  95 127 162 195 242 301
#     4   9  17  30  44  62  91 126 162 197 237 284
#     4  11  22  34  46  65  97 131 163 198 243 296
#
# _framework density 17.246714000000001
#
# number of rings (size 3 to 8) (size 9 to 14) (size 15 to 20)
#    0.000    1.875    5.000    1.125    0.000    5.000 
#    0.000    1.250    0.000    0.000    0.000    0.000 
#    0.000    0.000    0.000    3.375    0.000   11.375 
#
# Total GULP energy -792894.537045 kJ/mol
# GULP energy per Si atom -12388.977141 kJ/mol
# Density = 1.720746 g / cm^3
# Si number density = 17.246714 Si / 1000 Ang^3
#
#
#
# Elastic Constant Matrix: (Units=GPa)
#
#
# Indices 1 2 3 4 5 6 
#
# 1 124.5770 16.9410 11.7158 0.0000 0.0000 0.0000
# 2 16.9410 36.2886 9.9319 0.0000 0.0000 0.0000
# 3 11.7158 9.9319 55.0506 0.0000 0.0000 0.0000
# 4 0.0000 0.0000 0.0000 2.4723 0.0000 0.0000
# 5 0.0000 0.0000 0.0000 0.0000 19.1312 0.0000
# 6 0.0000 0.0000 0.0000 0.0000 0.0000 20.0037
#
#
#
# Elastic Compliance Matrix: (Units=1/GPa)
#
#
# Indices 1 2 3 4 5 6 
#
# 1 0.008642 -0.003715 -0.001169 0.000000 0.000000 0.000000
# 2 -0.003715 0.030585 -0.004727 0.000000 0.000000 0.000000
# 3 -0.001169 -0.004727 0.019267 0.000000 0.000000 0.000000
# 4 0.000000 0.000000 0.000000 0.404489 0.000000 0.000000
# 5 0.000000 0.000000 0.000000 0.000000 0.052271 0.000000
# 6 0.000000 0.000000 0.000000 0.000000 0.000000 0.049991
#
#
# Mechanical properties :
#
#
# Convention : Reuss Voigt Hill
#
# Bulk Modulus (GPa) = 25.46358 32.56596 29.01477
# Shear Modulus (GPa) = 8.36740 20.14326 14.25533
#
# Velocity S-wave (km/s) = 2.20502 3.42123 2.87810
# Velocity P-wave (km/s) = 4.61294 5.87621 5.28247
#
# Compressibility (1/GPa) = 0.03927178
#
# Stress axis : x y z
#
# Youngs Moduli (GPa) = 115.71057 32.69590 51.90278
#
# Poissons Ratio (x) = 0.12145 0.06068
# Poissons Ratio (y) = 0.42982 0.24536
# Poissons Ratio (z) = 0.13527 0.15457
#
# Static dielectric constant tensor:
#      x y z
#    x 3.789780 0.000000 0.000000 
#    y 0.000000 2.934370 0.000000 
#    z 0.000000 0.000000 2.893130 
# 
# 
# High freq. dielectric constant tensor:
#      x y z
#    x 1.696690 0.000000 0.000000 
#    y 0.000000 1.630640 0.000000 
#    z 0.000000 0.000000 1.609440 
# 
# From -- ./inp_files/17689.got.cif
#   From: 2010.03.12/outbox.cif.g09.slc.cpg/sg51_9_cif.got.tgz:17689.got - 2010.04.16 13:43:02.
