data_PCOD8206976
_publ_section_title
;
Structure prediction by ZEFSAII (Michael W. Deem and Ramdas Pophale) SiO2 
 PCOD8206976
Probable space group: P M M A
;
_chemical_formula_sum "Si O2"
_cell_formula_units_Z 48
_cell_length_a 18.252642
_cell_length_b 8.911262
_cell_length_c 16.522430
_cell_angle_alpha 90.000000
_cell_angle_beta 90.000000
_cell_angle_gamma 90.000000
_cell_volume 2687.440569
_symmetry_space_group_name_H-M "P M M A"
_symmetry_group_IT_number 51
_symmetry_cell_setting 'orthorhombic'
loop_
_space_group_symop_operation_xyz
x,y,z
1/2-x,-y,z
1/2+x,-y,-z
-x,y,-z
-x,-y,-z
1/2+x,y,-z
1/2-x,y,z
x,-y,z
loop_
_atom_site_type_symbol
_atom_site_label
_atom_site_fract_x
_atom_site_fract_y
_atom_site_fract_z
Si Si1 0.166496 0.321747 0.152695
Si Si2 0.168083 0.175827 0.674092
Si Si3 0.953419 0.176679 0.748324
Si Si4 0.905600 0.324599 0.182284
Si Si5 0.527133 0.176148 0.415947
Si Si6 0.918689 0.675541 0.002466
O O1 0.250000 0.267631 0.156935
O O2 0.160492 0.500000 0.159022
O O3 0.124291 0.248132 0.228323
O O4 0.132225 0.258378 0.068721
O O5 0.250000 0.210299 0.642029
O O6 0.156657 0.257057 0.759899
O O7 0.108237 0.236200 0.609275
O O8 0.155802 0.000000 0.689476
O O9 0.016043 0.248064 0.803963
O O10 0.969191 0.215296 0.654337
O O11 0.952580 0.000000 0.763024
O O12 0.914387 0.500000 0.199690
O O13 0.881611 0.293307 0.089662
O O14 0.500000 0.252161 0.500000
O O15 0.533499 0.000000 0.429210
O O16 0.926510 0.500000 0.986170
O O17 0.000000 0.748224 0.000000
#
# Coordination Sequence:
#
# PCOD8206976 Si02
#       6
#     8   8   8   8   8   8
#     4  10  20  34  51  70  96 133 173 210 248 289
#     4   9  18  32  49  72 104 134 160 201 258 305
#     4  10  19  32  51  74 100 127 158 200 250 299
#     4  10  18  30  52  75  96 127 169 206 240 289
#     4   8  15  30  52  75  96 124 165 204 239 292
#     4   9  16  29  49  71  94 125 169 212 241 279
#
# _framework density 17.860861
#
# number of rings (size 3 to 8) (size 9 to 14) (size 15 to 20)
#    0.000    2.667    1.667    2.000    0.000    1.333 
#    0.000    5.000    0.000   15.500    0.000    0.000 
#    0.000    0.000    0.000    0.000    0.000    0.000 
#
# Total GULP energy -595008.943951 kJ/mol
# GULP energy per Si atom -12396.019666 kJ/mol
# Density = 1.782021 g / cm^3
# Si number density = 17.860861 Si / 1000 Ang^3
#
#
#
# Elastic Constant Matrix: (Units=GPa)
#
#
# Indices 1 2 3 4 5 6 
#
# 1 145.5625 33.4367 77.3170 0.0000 0.0000 0.0000
# 2 33.4367 40.0002 29.2078 0.0000 0.0000 0.0000
# 3 77.3170 29.2078 127.9563 0.0000 0.0000 0.0000
# 4 0.0000 0.0000 0.0000 16.8039 0.0000 0.0000
# 5 0.0000 0.0000 0.0000 0.0000 23.7741 0.0000
# 6 0.0000 0.0000 0.0000 0.0000 0.0000 24.2056
#
#
#
# Elastic Compliance Matrix: (Units=1/GPa)
#
#
# Indices 1 2 3 4 5 6 
#
# 1 0.010945 -0.005184 -0.005430 0.000000 0.000000 0.000000
# 2 -0.005184 0.032456 -0.004276 0.000000 0.000000 0.000000
# 3 -0.005430 -0.004276 0.012072 0.000000 0.000000 0.000000
# 4 0.000000 0.000000 0.000000 0.059510 0.000000 0.000000
# 5 0.000000 0.000000 0.000000 0.000000 0.042063 0.000000
# 6 0.000000 0.000000 0.000000 0.000000 0.000000 0.041313
#
#
# Mechanical properties :
#
#
# Convention : Reuss Voigt Hill
#
# Bulk Modulus (GPa) = 38.92176 65.93801 52.42988
# Shear Modulus (GPa) = 21.12356 24.52723 22.82540
#
# Velocity S-wave (km/s) = 3.44273 3.70974 3.57873
# Velocity P-wave (km/s) = 6.13532 7.43958 6.81871
#
# Compressibility (1/GPa) = 0.02569257
#
# Stress axis : x y z
#
# Youngs Moduli (GPa) = 91.36620 30.81136 82.83390
#
# Poissons Ratio (x) = 0.15973 0.44980
# Poissons Ratio (y) = 0.47364 0.35420
# Poissons Ratio (z) = 0.49613 0.13175
#
# Static dielectric constant tensor:
#      x y z
#    x 3.395920 0.000000 0.000000 
#    y 0.000000 3.040010 0.000000 
#    z 0.000000 0.000000 3.476790 
# 
# 
# High freq. dielectric constant tensor:
#      x y z
#    x 1.685550 0.000000 0.000000 
#    y 0.000000 1.661320 0.000000 
#    z 0.000000 0.000000 1.687180 
# 
# From -- ./inp_files/30079.got.cif
#   From: 2010.03.12/outbox.cif.g09.slc.cpg/sg51_16_cif.got.tgz:30079.got - 2010.04.16 13:43:02.
