data_PCOD8206447
_publ_section_title
;
Structure prediction by ZEFSAII (Michael W. Deem and Ramdas Pophale) SiO2 
 PCOD8206447
Probable space group: P M M A
;
_chemical_formula_sum "Si O2"
_cell_formula_units_Z 52
_cell_length_a 8.636423
_cell_length_b 18.714853
_cell_length_c 18.856828
_cell_angle_alpha 90.000000
_cell_angle_beta 90.000000
_cell_angle_gamma 90.000000
_cell_volume 3047.817548
_symmetry_space_group_name_H-M "P M M A"
_symmetry_group_IT_number 51
_symmetry_cell_setting 'orthorhombic'
loop_
_space_group_symop_operation_xyz
x,y,z
1/2-x,-y,z
1/2+x,-y,-z
-x,y,-z
-x,-y,-z
1/2+x,y,-z
1/2-x,y,z
x,-y,z
loop_
_atom_site_type_symbol
_atom_site_label
_atom_site_fract_x
_atom_site_fract_y
_atom_site_fract_z
Si Si1 0.432664 0.844170 0.922207
Si Si2 0.930074 0.081486 0.797134
Si Si3 0.568917 0.713625 0.839280
Si Si4 0.567032 0.000000 0.578217
Si Si5 0.571507 0.210867 0.282386
Si Si6 0.430093 0.144877 0.576092
Si Si7 0.932069 0.579476 0.925608
O O1 0.250000 0.855285 0.924066
O O2 0.512591 0.907956 0.877891
O O3 0.471826 0.768520 0.886333
O O4 0.500000 0.846209 0.000000
O O5 0.750000 0.102244 0.791418
O O6 0.029267 0.132996 0.747438
O O7 0.957438 0.000000 0.773020
O O8 0.750000 0.726969 0.851900
O O9 0.527468 0.726722 0.756193
O O10 0.520378 0.633616 0.862606
O O11 0.500000 0.000000 0.500000
O O12 0.505795 0.073805 0.611796
O O13 0.750000 0.000000 0.581352
O O14 0.750000 0.226096 0.266143
O O15 0.540669 0.208961 0.367424
O O16 0.500000 0.166624 0.500000
O O17 0.250000 0.129629 0.564798
O O18 0.750000 0.577468 0.934777
O O19 0.995796 0.500000 0.907029
O O20 0.000000 0.607105 0.000000
#
# Coordination Sequence:
#
# PCOD8206447 Si02
#       7
#     8   8   8   4   8   8   8
#     4  11  21  33  49  66  87 116 151 192 235 278
#     4  10  21  35  49  66  86 111 149 193 237 283
#     4  10  19  32  50  70  95 125 157 191 227 273
#     4  10  18  28  44  64  88 116 147 186 233 282
#     4  10  21  34  49  68  92 122 155 191 233 281
#     4  10  20  33  48  68  92 120 153 193 236 284
#     4   9  18  31  48  73 102 131 161 192 227 268
#
# _framework density 17.061388999999998
#
# number of rings (size 3 to 8) (size 9 to 14) (size 15 to 20)
#    0.000    2.000    0.000    7.154    1.077    6.462 
#    0.000    0.000    0.000    0.000    0.000    0.000 
#    0.000    0.615    0.000    1.385    0.000    2.154 
#
# Total GULP energy -644575.772351 kJ/mol
# GULP energy per Si atom -12395.687930 kJ/mol
# Density = 1.702256 g / cm^3
# Si number density = 17.061389 Si / 1000 Ang^3
#
#
#
# Elastic Constant Matrix: (Units=GPa)
#
#
# Indices 1 2 3 4 5 6 
#
# 1 60.8887 18.5521 17.7304 0.0000 0.0000 0.0000
# 2 18.5521 80.1617 33.8712 0.0000 0.0000 0.0000
# 3 17.7304 33.8712 89.1471 0.0000 0.0000 0.0000
# 4 0.0000 0.0000 0.0000 23.3459 0.0000 0.0000
# 5 0.0000 0.0000 0.0000 0.0000 26.3867 0.0000
# 6 0.0000 0.0000 0.0000 0.0000 0.0000 18.6730
#
#
#
# Elastic Compliance Matrix: (Units=1/GPa)
#
#
# Indices 1 2 3 4 5 6 
#
# 1 0.018087 -0.003176 -0.002391 0.000000 0.000000 0.000000
# 2 -0.003176 0.015418 -0.005226 0.000000 0.000000 0.000000
# 3 -0.002391 -0.005226 0.013679 0.000000 0.000000 0.000000
# 4 0.000000 0.000000 0.000000 0.042834 0.000000 0.000000
# 5 0.000000 0.000000 0.000000 0.000000 0.037898 0.000000
# 6 0.000000 0.000000 0.000000 0.000000 0.000000 0.053553
#
#
# Mechanical properties :
#
#
# Convention : Reuss Voigt Hill
#
# Bulk Modulus (GPa) = 39.06545 41.16722 40.11634
# Shear Modulus (GPa) = 23.63084 24.35070 23.99077
#
# Velocity S-wave (km/s) = 3.72566 3.78198 3.75393
# Velocity P-wave (km/s) = 6.43849 6.57666 6.50794
#
# Compressibility (1/GPa) = 0.02559807
#
# Stress axis : x y z
#
# Youngs Moduli (GPa) = 55.28769 64.85862 73.10644
#
# Poissons Ratio (x) = 0.20598 0.17478
# Poissons Ratio (y) = 0.17558 0.38209
# Poissons Ratio (z) = 0.13218 0.33898
#
# Static dielectric constant tensor:
#      x y z
#    x 3.356830 0.000000 0.000000 
#    y 0.000000 3.303000 0.000000 
#    z 0.000000 0.000000 3.206940 
# 
# 
# High freq. dielectric constant tensor:
#      x y z
#    x 1.674770 0.000000 0.000000 
#    y 0.000000 1.621170 0.000000 
#    z 0.000000 0.000000 1.653400 
# 
# From -- ./inp_files/32218.got.cif
#   From: 2010.03.12/outbox.cif.g09.slc.cpg/sg51_17_cif.got.tgz:32218.got - 2010.04.16 13:43:02.
