data_PCOD8206009
_publ_section_title
;
Structure prediction by ZEFSAII (Michael W. Deem and Ramdas Pophale) SiO2 
 PCOD8206009
Probable space group: P M M A
;
_chemical_formula_sum "Si O2"
_cell_formula_units_Z 56
_cell_length_a 22.066477
_cell_length_b 8.783455
_cell_length_c 17.849378
_cell_angle_alpha 90.000000
_cell_angle_beta 90.000000
_cell_angle_gamma 90.000000
_cell_volume 3459.564797
_symmetry_space_group_name_H-M "P M M A"
_symmetry_group_IT_number 51
_symmetry_cell_setting 'orthorhombic'
loop_
_space_group_symop_operation_xyz
x,y,z
1/2-x,-y,z
1/2+x,-y,-z
-x,y,-z
-x,-y,-z
1/2+x,y,-z
1/2-x,y,z
x,-y,z
loop_
_atom_site_type_symbol
_atom_site_label
_atom_site_fract_x
_atom_site_fract_y
_atom_site_fract_z
Si Si1 0.036141 0.821392 0.238159
Si Si2 0.557131 0.679240 0.910955
Si Si3 0.397032 0.825568 0.784560
Si Si4 0.317618 0.319805 0.662647
Si Si5 0.957664 0.680044 0.608835
Si Si6 0.414273 0.680181 0.547646
Si Si7 0.428915 0.823117 0.944634
O O1 0.074297 0.741659 0.171404
O O2 0.064382 0.765376 0.316570
O O3 0.965477 0.773369 0.234564
O O4 0.044085 0.000000 0.228725
O O5 0.566686 0.500000 0.913480
O O6 0.488276 0.725439 0.926689
O O7 0.598310 0.757504 0.977024
O O8 0.349109 0.723893 0.740500
O O9 0.383960 0.802962 0.873711
O O10 0.387646 0.000000 0.760733
O O11 0.250000 0.250165 0.658871
O O12 0.314662 0.500000 0.658387
O O13 0.356118 0.254062 0.592075
O O14 0.956620 0.500000 0.622976
O O15 0.913117 0.727311 0.540071
O O16 0.024836 0.739521 0.587787
O O17 0.415758 0.500000 0.552607
O O18 0.446747 0.000000 0.953138
#
# Coordination Sequence:
#
# PCOD8206009 Si02
#       7
#     8   8   8   8   8   8   8
#     4  10  18  27  39  59  86 112 140 175 213 252
#     4  10  17  24  37  58  81 110 143 168 200 245
#     4   9  18  29  41  57  80 112 143 172 211 252
#     4  10  19  30  45  63  83 109 143 182 217 251
#     4   9  15  26  44  60  79 110 142 175 212 258
#     4   8  15  27  42  61  82 106 139 176 218 259
#     4   9  16  27  39  54  80 110 140 173 207 240
#
# _framework density 16.187006
#
# number of rings (size 3 to 8) (size 9 to 14) (size 15 to 20)
#    0.000    2.714    1.429    4.714    0.000    3.143 
#    0.000    2.143    0.000    0.000    0.000    0.000 
#    0.000    1.143    0.000    6.000    0.000    3.286 
#
# Total GULP energy -693919.673090 kJ/mol
# GULP energy per Si atom -12391.422734 kJ/mol
# Density = 1.615016 g / cm^3
# Si number density = 16.187006 Si / 1000 Ang^3
#
#
#
# Elastic Constant Matrix: (Units=GPa)
#
#
# Indices 1 2 3 4 5 6 
#
# 1 50.2325 15.2816 38.9113 0.0000 0.0000 0.0000
# 2 15.2816 51.9039 39.1635 0.0000 0.0000 0.0000
# 3 38.9113 39.1635 163.5172 0.0000 0.0000 0.0000
# 4 0.0000 0.0000 0.0000 24.2839 0.0000 0.0000
# 5 0.0000 0.0000 0.0000 0.0000 12.5102 0.0000
# 6 0.0000 0.0000 0.0000 0.0000 0.0000 9.4754
#
#
#
# Elastic Compliance Matrix: (Units=1/GPa)
#
#
# Indices 1 2 3 4 5 6 
#
# 1 0.024915 -0.003493 -0.005092 0.000000 0.000000 0.000000
# 2 -0.003493 0.024006 -0.004918 0.000000 0.000000 0.000000
# 3 -0.005092 -0.004918 0.008505 0.000000 0.000000 0.000000
# 4 0.000000 0.000000 0.000000 0.041180 0.000000 0.000000
# 5 0.000000 0.000000 0.000000 0.000000 0.079935 0.000000
# 6 0.000000 0.000000 0.000000 0.000000 0.000000 0.105537
#
#
# Mechanical properties :
#
#
# Convention : Reuss Voigt Hill
#
# Bulk Modulus (GPa) = 32.87469 50.26292 41.56881
# Shear Modulus (GPa) = 15.56546 20.74037 18.15291
#
# Velocity S-wave (km/s) = 3.10434 3.58340 3.35244
# Velocity P-wave (km/s) = 5.76217 6.94549 6.38132
#
# Compressibility (1/GPa) = 0.03041853
#
# Stress axis : x y z
#
# Youngs Moduli (GPa) = 40.13705 41.65645 117.57379
#
# Poissons Ratio (x) = 0.14551 0.59871
# Poissons Ratio (y) = 0.14020 0.57827
# Poissons Ratio (z) = 0.20438 0.20488
#
# Static dielectric constant tensor:
#      x y z
#    x 2.704850 0.000000 0.000000 
#    y 0.000000 2.881020 0.000000 
#    z 0.000000 0.000000 3.701570 
# 
# 
# High freq. dielectric constant tensor:
#      x y z
#    x 1.540700 0.000000 0.000000 
#    y 0.000000 1.615080 0.000000 
#    z 0.000000 0.000000 1.647830 
# 
# From -- ./inp_files/30776.got.cif
#   From: 2010.03.12/outbox.cif.g09.slc.cpg/sg51_16_cif.got.tgz:30776.got - 2010.04.16 13:43:02.
