data_PCOD8206946
_publ_section_title
;
Structure prediction by ZEFSAII (Michael W. Deem and Ramdas Pophale) SiO2 
 PCOD8206946
Probable space group: P M M A
;
_chemical_formula_sum "Si O2"
_cell_formula_units_Z 56
_cell_length_a 9.063168
_cell_length_b 18.590855
_cell_length_c 18.817143
_cell_angle_alpha 90.000000
_cell_angle_beta 90.000000
_cell_angle_gamma 90.000000
_cell_volume 3170.538851
_symmetry_space_group_name_H-M "P M M A"
_symmetry_group_IT_number 51
_symmetry_cell_setting 'orthorhombic'
loop_
_space_group_symop_operation_xyz
x,y,z
1/2-x,-y,z
1/2+x,-y,-z
-x,y,-z
-x,-y,-z
1/2+x,y,-z
1/2-x,y,z
x,-y,z
loop_
_atom_site_type_symbol
_atom_site_label
_atom_site_fract_x
_atom_site_fract_y
_atom_site_fract_z
Si Si1 0.077063 0.714443 0.574622
Si Si2 0.419662 0.209180 0.303734
Si Si3 0.079149 0.346572 0.209847
Si Si4 0.580973 0.918277 0.794705
Si Si5 0.077870 0.140548 0.928591
Si Si6 0.419612 0.580963 0.667513
Si Si7 0.077095 0.692434 0.928190
O O1 0.250000 0.723227 0.564114
O O2 0.033763 0.635776 0.605112
O O3 0.000000 0.725364 0.500000
O O4 0.021244 0.776094 0.628181
O O5 0.250000 0.210340 0.328652
O O6 0.448610 0.268411 0.243375
O O7 0.466485 0.132508 0.270863
O O8 0.250000 0.361158 0.194618
O O9 0.019017 0.407244 0.263085
O O10 0.990367 0.352688 0.136559
O O11 0.750000 0.901153 0.815901
O O12 0.480364 0.905353 0.862892
O O13 0.560990 0.000000 0.768800
O O14 0.250000 0.126713 0.937217
O O15 0.040816 0.223928 0.915568
O O16 0.000000 0.112581 0.000000
O O17 0.250000 0.594699 0.689055
O O18 0.444752 0.500000 0.639301
O O19 0.250000 0.677515 0.933634
O O20 0.000000 0.665112 0.000000
#
# Coordination Sequence:
#
# PCOD8206946 Si02
#       7
#     8   8   8   8   8   8   8
#     4  10  20  34  55  81 107 136 168 202 244 292
#     4   9  18  33  52  74 101 131 167 209 251 299
#     4  10  18  30  51  75 100 132 170 213 255 299
#     4  10  20  34  52  73 100 135 172 213 262 311
#     4  10  20  32  48  69  98 134 173 216 262 310
#     4   9  19  35  53  76 108 142 171 200 239 292
#     4  10  19  30  47  71  98 130 170 217 264 306
#
# _framework density 17.662613
#
# number of rings (size 3 to 8) (size 9 to 14) (size 15 to 20)
#    0.000    2.286    1.429    1.714    0.000    4.000 
#    0.000    0.000    0.000    0.857    0.000    0.000 
#    0.000    0.000    0.000    0.000    0.000    0.000 
#
# Total GULP energy -694591.157539 kJ/mol
# GULP energy per Si atom -12403.413527 kJ/mol
# Density = 1.762241 g / cm^3
# Si number density = 17.662613 Si / 1000 Ang^3
#
#
#
# Elastic Constant Matrix: (Units=GPa)
#
#
# Indices 1 2 3 4 5 6 
#
# 1 86.1675 28.5299 63.0482 0.0000 0.0000 0.0000
# 2 28.5299 69.3652 43.1578 0.0000 0.0000 0.0000
# 3 63.0482 43.1578 132.3051 0.0000 0.0000 0.0000
# 4 0.0000 0.0000 0.0000 18.1063 0.0000 0.0000
# 5 0.0000 0.0000 0.0000 0.0000 34.1668 0.0000
# 6 0.0000 0.0000 0.0000 0.0000 0.0000 21.0712
#
#
#
# Elastic Compliance Matrix: (Units=1/GPa)
#
#
# Indices 1 2 3 4 5 6 
#
# 1 0.018190 -0.002620 -0.007813 0.000000 0.000000 0.000000
# 2 -0.002620 0.018465 -0.004775 0.000000 0.000000 0.000000
# 3 -0.007813 -0.004775 0.012839 0.000000 0.000000 0.000000
# 4 0.000000 0.000000 0.000000 0.055229 0.000000 0.000000
# 5 0.000000 0.000000 0.000000 0.000000 0.029268 0.000000
# 6 0.000000 0.000000 0.000000 0.000000 0.000000 0.047458
#
#
# Mechanical properties :
#
#
# Convention : Reuss Voigt Hill
#
# Bulk Modulus (GPa) = 52.41787 61.92328 57.17057
# Shear Modulus (GPa) = 22.91212 24.87565 23.89389
#
# Velocity S-wave (km/s) = 3.60559 3.75691 3.68203
# Velocity P-wave (km/s) = 6.86115 7.34535 7.10738
#
# Compressibility (1/GPa) = 0.01907747
#
# Stress axis : x y z
#
# Youngs Moduli (GPa) = 54.97563 54.15711 77.88662
#
# Poissons Ratio (x) = 0.14190 0.60857
# Poissons Ratio (y) = 0.14404 0.37188
# Poissons Ratio (z) = 0.42955 0.25858
#
# Static dielectric constant tensor:
#      x y z
#    x 3.323590 0.000000 0.000000 
#    y 0.000000 3.116350 0.000000 
#    z 0.000000 0.000000 3.155660 
# 
# 
# High freq. dielectric constant tensor:
#      x y z
#    x 1.692250 0.000000 0.000000 
#    y 0.000000 1.658060 0.000000 
#    z 0.000000 0.000000 1.675280 
# 
# From -- ./inp_files/28170.got.cif
#   From: 2010.03.12/outbox.cif.g09.slc.cpg/sg51_15_cif.got.tgz:28170.got - 2010.04.16 13:43:02.
