data_PCOD8206077
_publ_section_title
;
Structure prediction by ZEFSAII (Michael W. Deem and Ramdas Pophale) SiO2 
 PCOD8206077
Probable space group: P M M A
;
_chemical_formula_sum "Si O2"
_cell_formula_units_Z 52
_cell_length_a 8.950362
_cell_length_b 22.394484
_cell_length_c 15.482528
_cell_angle_alpha 90.000000
_cell_angle_beta 90.000000
_cell_angle_gamma 90.000000
_cell_volume 3103.298383
_symmetry_space_group_name_H-M "P M M A"
_symmetry_group_IT_number 51
_symmetry_cell_setting 'orthorhombic'
loop_
_space_group_symop_operation_xyz
x,y,z
1/2-x,-y,z
1/2+x,-y,-z
-x,y,-z
-x,-y,-z
1/2+x,y,-z
1/2-x,y,z
x,-y,z
loop_
_atom_site_type_symbol
_atom_site_label
_atom_site_fract_x
_atom_site_fract_y
_atom_site_fract_z
Si Si1 0.925166 0.129296 0.093096
Si Si2 0.072729 0.654053 0.584193
Si Si3 0.425522 0.432119 0.087582
Si Si4 0.425191 0.649363 0.244317
Si Si5 0.922919 0.000000 0.090169
Si Si6 0.575246 0.782783 0.580950
Si Si7 0.420664 0.787801 0.228129
O O1 0.750000 0.136395 0.078697
O O2 0.975525 0.178199 0.161430
O O3 0.965928 0.063451 0.134752
O O4 0.000000 0.139436 0.000000
O O5 0.250000 0.650315 0.579059
O O6 0.000000 0.621738 0.500000
O O7 0.013724 0.624171 0.672443
O O8 0.015707 0.721686 0.585314
O O9 0.250000 0.426887 0.075544
O O10 0.474796 0.500000 0.107747
O O11 0.481649 0.390017 0.164466
O O12 0.500000 0.408666 0.000000
O O13 0.250000 0.641632 0.262478
O O14 0.464025 0.718206 0.225118
O O15 0.750000 0.000000 0.070608
O O16 0.000000 0.000000 0.000000
O O17 0.500000 0.819535 0.500000
O O18 0.750000 0.770419 0.563163
O O19 0.555313 0.814238 0.674406
O O20 0.250000 0.796970 0.199451
#
# Coordination Sequence:
#
# PCOD8206077 Si02
#       7
#     8   8   8   8   4   8   8
#     4  10  19  31  47  65  89 119 151 186 222 264
#     4  10  17  26  43  66  91 119 150 182 219 266
#     4   9  18  33  52  70  88 115 152 191 228 266
#     4   9  18  32  47  66  94 122 148 184 227 268
#     4   8  16  30  46  64  83 110 149 188 223 258
#     4   9  16  27  43  63  90 121 151 185 221 261
#     4   9  18  30  43  65  96 123 147 179 222 268
#
# _framework density 16.756364999999999
#
# number of rings (size 3 to 8) (size 9 to 14) (size 15 to 20)
#    0.000    2.769    0.000    4.154    0.000    4.923 
#    0.000    1.538    0.000    0.462    0.000    0.538 
#    0.000    0.000    0.000    0.000    0.000    0.000 
#
# Total GULP energy -644239.444883 kJ/mol
# GULP energy per Si atom -12389.220094 kJ/mol
# Density = 1.671823 g / cm^3
# Si number density = 16.756365 Si / 1000 Ang^3
#
#
#
# Elastic Constant Matrix: (Units=GPa)
#
#
# Indices 1 2 3 4 5 6 
#
# 1 82.3256 31.9095 64.0637 0.0000 0.0000 0.0000
# 2 31.9095 56.6829 58.8904 0.0000 0.0000 0.0000
# 3 64.0637 58.8904 153.4661 0.0000 0.0000 0.0000
# 4 0.0000 0.0000 0.0000 0.4916 0.0000 0.0000
# 5 0.0000 0.0000 0.0000 0.0000 35.1682 0.0000
# 6 0.0000 0.0000 0.0000 0.0000 0.0000 15.9417
#
#
#
# Elastic Compliance Matrix: (Units=1/GPa)
#
#
# Indices 1 2 3 4 5 6 
#
# 1 0.018516 -0.003980 -0.006202 0.000000 0.000000 0.000000
# 2 -0.003980 0.030194 -0.009925 0.000000 0.000000 0.000000
# 3 -0.006202 -0.009925 0.012914 0.000000 0.000000 0.000000
# 4 0.000000 0.000000 0.000000 2.034303 0.000000 0.000000
# 5 0.000000 0.000000 0.000000 0.000000 0.028435 0.000000
# 6 0.000000 0.000000 0.000000 0.000000 0.000000 0.062728
#
#
# Mechanical properties :
#
#
# Convention : Reuss Voigt Hill
#
# Bulk Modulus (GPa) = 46.70815 66.91131 56.80973
# Shear Modulus (GPa) = 2.23770 19.49435 10.86602
#
# Velocity S-wave (km/s) = 1.15686 3.41457 2.54927
# Velocity P-wave (km/s) = 5.45159 7.45414 6.53009
#
# Compressibility (1/GPa) = 0.02140954
#
# Stress axis : x y z
#
# Youngs Moduli (GPa) = 54.00793 33.11892 77.43614
#
# Poissons Ratio (x) = 0.13180 0.48027
# Poissons Ratio (y) = 0.21493 0.76858
# Poissons Ratio (z) = 0.33497 0.32872
#
# Static dielectric constant tensor:
#      x y z
#    x 3.197260 0.000000 0.000000 
#    y 0.000000 3.157230 0.000000 
#    z 0.000000 0.000000 3.671650 
# 
# 
# High freq. dielectric constant tensor:
#      x y z
#    x 1.652910 0.000000 0.000000 
#    y 0.000000 1.601260 0.000000 
#    z 0.000000 0.000000 1.653690 
# 
# From -- ./inp_files/21560.got.cif
#   From: 2010.03.12/outbox.cif.g09.slc.cpg/sg51_11_cif.got.tgz:21560.got - 2010.04.16 13:43:02.
