data_PCOD8206971
_publ_section_title
;
Structure prediction by ZEFSAII (Michael W. Deem and Ramdas Pophale) SiO2 
 PCOD8206971
Probable space group: P M M A
;
_chemical_formula_sum "Si O2"
_cell_formula_units_Z 40
_cell_length_a 8.713848
_cell_length_b 26.122104
_cell_length_c 9.187390
_cell_angle_alpha 90.000000
_cell_angle_beta 90.000000
_cell_angle_gamma 90.000000
_cell_volume 2091.270863
_symmetry_space_group_name_H-M "P M M A"
_symmetry_group_IT_number 51
_symmetry_cell_setting 'orthorhombic'
loop_
_space_group_symop_operation_xyz
x,y,z
1/2-x,-y,z
1/2+x,-y,-z
-x,y,-z
-x,-y,-z
1/2+x,y,-z
1/2-x,y,z
x,-y,z
loop_
_atom_site_type_symbol
_atom_site_label
_atom_site_fract_x
_atom_site_fract_y
_atom_site_fract_z
Si Si1 0.927189 0.500000 0.154607
Si Si2 0.932242 0.103118 0.659715
Si Si3 0.568206 0.298153 0.658478
Si Si4 0.569169 0.798936 0.841489
Si Si5 0.932769 0.000000 0.338655
Si Si6 0.431466 0.388927 0.838838
O O1 0.750000 0.500000 0.123446
O O2 0.970954 0.554311 0.229733
O O3 0.000000 0.500000 0.000000
O O4 0.750000 0.098119 0.648458
O O5 0.985941 0.150304 0.758312
O O6 0.000000 0.111950 0.500000
O O7 0.002435 0.051824 0.735388
O O8 0.500000 0.291086 0.500000
O O9 0.750000 0.299908 0.647785
O O10 0.509822 0.250555 0.754578
O O11 0.508530 0.350141 0.728573
O O12 0.750000 0.797898 0.855348
O O13 0.500000 0.798107 0.000000
O O14 0.000000 0.000000 0.500000
O O15 0.750000 0.000000 0.337913
O O16 0.250000 0.379025 0.847047
O O17 0.500000 0.381986 0.000000
#
# Coordination Sequence:
#
# PCOD8206971 Si02
#       6
#     4   8   8   8   4   8
#     4   8  16  30  51  78 109 142 180 220 264 314
#     4  10  19  34  55  81 109 141 178 219 262 311
#     4  11  23  39  57  81 109 142 181 225 274 326
#     4  10  23  39  57  80 108 140 178 220 268 320
#     4  10  18  30  51  80 109 142 178 216 260 310
#     4  10  19  34  56  83 112 145 182 224 268 319
#
# _framework density 19.127126000000001
#
# number of rings (size 3 to 8) (size 9 to 14) (size 15 to 20)
#    0.000    2.000    0.000    5.100    0.000    5.600 
#    0.000    1.000    0.000    0.000    0.000    0.000 
#    0.000    0.000    0.000    0.000    0.000    0.000 
#
# Total GULP energy -495801.340674 kJ/mol
# GULP energy per Si atom -12395.033517 kJ/mol
# Density = 1.908359 g / cm^3
# Si number density = 19.127126 Si / 1000 Ang^3
#
#
#
# Elastic Constant Matrix: (Units=GPa)
#
#
# Indices 1 2 3 4 5 6 
#
# 1 81.9315 62.1939 40.6736 0.0000 0.0000 0.0000
# 2 62.1939 207.2475 85.5199 0.0000 0.0000 0.0000
# 3 40.6736 85.5199 117.9360 0.0000 0.0000 0.0000
# 4 0.0000 0.0000 0.0000 33.0155 0.0000 0.0000
# 5 0.0000 0.0000 0.0000 0.0000 32.1320 0.0000
# 6 0.0000 0.0000 0.0000 0.0000 0.0000 58.5839
#
#
#
# Elastic Compliance Matrix: (Units=1/GPa)
#
#
# Indices 1 2 3 4 5 6 
#
# 1 0.016518 -0.003719 -0.003000 0.000000 0.000000 0.000000
# 2 -0.003719 0.007723 -0.004317 0.000000 0.000000 0.000000
# 3 -0.003000 -0.004317 0.012645 0.000000 0.000000 0.000000
# 4 0.000000 0.000000 0.000000 0.030289 0.000000 0.000000
# 5 0.000000 0.000000 0.000000 0.000000 0.031122 0.000000
# 6 0.000000 0.000000 0.000000 0.000000 0.000000 0.017070
#
#
# Mechanical properties :
#
#
# Convention : Reuss Voigt Hill
#
# Bulk Modulus (GPa) = 67.51113 87.09885 77.30499
# Shear Modulus (GPa) = 35.11856 39.32811 37.22334
#
# Velocity S-wave (km/s) = 4.28958 4.53939 4.41625
# Velocity P-wave (km/s) = 7.73993 8.55046 8.15528
#
# Compressibility (1/GPa) = 0.01481237
#
# Stress axis : x y z
#
# Youngs Moduli (GPa) = 60.54151 129.48670 79.08573
#
# Poissons Ratio (x) = 0.48156 0.23724
# Poissons Ratio (y) = 0.22515 0.34145
# Poissons Ratio (z) = 0.18161 0.55906
#
# Static dielectric constant tensor:
#      x y z
#    x 3.586430 0.000000 0.000000 
#    y 0.000000 4.370660 0.000000 
#    z 0.000000 0.000000 3.187530 
# 
# 
# High freq. dielectric constant tensor:
#      x y z
#    x 1.753980 0.000000 0.000000 
#    y 0.000000 1.775570 0.000000 
#    z 0.000000 0.000000 1.712890 
# 
# From -- ./inp_files/5615.got.cif
#   From: 2010.03.12/outbox.cif.g09.slc.cpg/sg51_3_cif.got.tgz:5615.got - 2010.04.16 13:43:02.
