data_PCOD8206510
_publ_section_title
;
Structure prediction by ZEFSAII (Michael W. Deem and Ramdas Pophale) SiO2 
 PCOD8206510
Probable space group: P M M A
;
_chemical_formula_sum "Si O2"
_cell_formula_units_Z 64
_cell_length_a 8.939869
_cell_length_b 14.408477
_cell_length_c 28.809753
_cell_angle_alpha 90.000000
_cell_angle_beta 90.000000
_cell_angle_gamma 90.000000
_cell_volume 3710.981313
_symmetry_space_group_name_H-M "P M M A"
_symmetry_group_IT_number 51
_symmetry_cell_setting 'orthorhombic'
loop_
_space_group_symop_operation_xyz
x,y,z
1/2-x,-y,z
1/2+x,-y,-z
-x,y,-z
-x,-y,-z
1/2+x,y,-z
1/2-x,y,z
x,-y,z
loop_
_atom_site_type_symbol
_atom_site_label
_atom_site_fract_x
_atom_site_fract_y
_atom_site_fract_z
Si Si1 0.579721 0.891263 0.686190
Si Si2 0.425788 0.893222 0.592004
Si Si3 0.082067 0.110477 0.045302
Si Si4 0.920757 0.608437 0.375859
Si Si5 0.573187 0.272404 0.546919
Si Si6 0.925271 0.105911 0.138253
Si Si7 0.426373 0.399066 0.728093
Si Si8 0.574084 0.789603 0.230339
O O1 0.750000 0.859958 0.676811
O O2 0.478598 0.860267 0.642876
O O3 0.518455 0.845345 0.732251
O O4 0.568393 0.000000 0.694210
O O5 0.250000 0.876644 0.587844
O O6 0.511683 0.831946 0.554168
O O7 0.469820 0.000000 0.583136
O O8 0.250000 0.148570 0.045080
O O9 0.003008 0.145395 0.092126
O O10 0.077066 0.000000 0.043695
O O11 0.000000 0.151706 0.000000
O O12 0.750000 0.643962 0.381893
O O13 0.930414 0.500000 0.387195
O O14 0.981498 0.628033 0.323677
O O15 0.028255 0.662615 0.410446
O O16 0.500000 0.312771 0.500000
O O17 0.750000 0.270383 0.541545
O O18 0.750000 0.109688 0.129320
O O19 0.974211 0.173215 0.180026
O O20 0.975365 0.000000 0.149431
O O21 0.250000 0.409339 0.724597
O O22 0.493329 0.500000 0.743344
O O23 0.470023 0.319382 0.765073
O O24 0.750000 0.805939 0.238951
#
# Coordination Sequence:
#
# PCOD8206510 Si02
#       8
#     8   8   8   8   8   8   8   8
#     4  10  20  32  47  70  99 128 158 193 233 278
#     4  10  21  38  58  76  96 125 161 198 234 276
#     4   9  16  26  41  59  81 115 158 200 240 280
#     4   9  18  35  58  80 102 128 159 196 237 283
#     4  12  25  39  56  77 102 128 155 191 235 285
#     4   9  17  27  38  58  91 127 163 200 235 275
#     4   8  15  29  50  74  96 120 153 192 232 274
#     4  10  18  28  46  69  95 129 164 198 236 279
#
# _framework density 17.246113000000001
#
# number of rings (size 3 to 8) (size 9 to 14) (size 15 to 20)
#    0.000    2.375    0.000    4.125    0.000    5.750 
#    0.000    1.250    0.000    1.125    0.000    0.000 
#    0.000    0.500    0.000    0.875    0.000    1.250 
#
# Total GULP energy -793556.113228 kJ/mol
# GULP energy per Si atom -12399.314269 kJ/mol
# Density = 1.720686 g / cm^3
# Si number density = 17.246113 Si / 1000 Ang^3
#
#
#
# Elastic Constant Matrix: (Units=GPa)
#
#
# Indices 1 2 3 4 5 6 
#
# 1 76.7828 33.2495 37.2779 0.0000 0.0000 0.0000
# 2 33.2495 63.5159 61.0094 0.0000 0.0000 0.0000
# 3 37.2779 61.0094 107.7814 0.0000 0.0000 0.0000
# 4 0.0000 0.0000 0.0000 13.3701 0.0000 0.0000
# 5 0.0000 0.0000 0.0000 0.0000 28.6086 0.0000
# 6 0.0000 0.0000 0.0000 0.0000 0.0000 17.3217
#
#
#
# Elastic Compliance Matrix: (Units=1/GPa)
#
#
# Indices 1 2 3 4 5 6 
#
# 1 0.017008 -0.007129 -0.001847 0.000000 0.000000 0.000000
# 2 -0.007129 0.037493 -0.018757 0.000000 0.000000 0.000000
# 3 -0.001847 -0.018757 0.020534 0.000000 0.000000 0.000000
# 4 0.000000 0.000000 0.000000 0.074794 0.000000 0.000000
# 5 0.000000 0.000000 0.000000 0.000000 0.034954 0.000000
# 6 0.000000 0.000000 0.000000 0.000000 0.000000 0.057731
#
#
# Mechanical properties :
#
#
# Convention : Reuss Voigt Hill
#
# Bulk Modulus (GPa) = 51.10258 56.79485 53.94871
# Shear Modulus (GPa) = 16.42022 19.62966 18.02494
#
# Velocity S-wave (km/s) = 3.08898 3.37739 3.23640
# Velocity P-wave (km/s) = 6.51292 6.94352 6.73166
#
# Compressibility (1/GPa) = 0.01956849
#
# Stress axis : x y z
#
# Youngs Moduli (GPa) = 58.79734 26.67169 48.69931
#
# Poissons Ratio (x) = 0.19015 0.08994
# Poissons Ratio (y) = 0.41918 0.91345
# Poissons Ratio (z) = 0.10859 0.50028
#
# Static dielectric constant tensor:
#      x y z
#    x 3.166980 0.000000 0.000000 
#    y 0.000000 3.398530 0.000000 
#    z 0.000000 0.000000 3.225800 
# 
# 
# High freq. dielectric constant tensor:
#      x y z
#    x 1.659700 0.000000 0.000000 
#    y 0.000000 1.646270 0.000000 
#    z 0.000000 0.000000 1.655990 
# 
# From -- ./inp_files/37594.got.cif
#   From: 2010.03.12/outbox.cif.g09.slc.cpg/sg51_19_cif.got.tgz:37594.got - 2010.04.16 13:43:02.
