data_PCOD8206996
_publ_section_title
;
Structure prediction by ZEFSAII (Michael W. Deem and Ramdas Pophale) SiO2 
 PCOD8206996
Probable space group: P M M A
;
_chemical_formula_sum "Si O2"
_cell_formula_units_Z 56
_cell_length_a 8.909709
_cell_length_b 15.332743
_cell_length_c 20.168732
_cell_angle_alpha 90.000000
_cell_angle_beta 90.000000
_cell_angle_gamma 90.000000
_cell_volume 2755.256092
_symmetry_space_group_name_H-M "P M M A"
_symmetry_group_IT_number 51
_symmetry_cell_setting 'orthorhombic'
loop_
_space_group_symop_operation_xyz
x,y,z
1/2-x,-y,z
1/2+x,-y,-z
-x,y,-z
-x,-y,-z
1/2+x,y,-z
1/2-x,y,z
x,-y,z
loop_
_atom_site_type_symbol
_atom_site_label
_atom_site_fract_x
_atom_site_fract_y
_atom_site_fract_z
Si Si1 0.078779 0.404052 0.399562
Si Si2 0.076302 0.230501 0.564476
Si Si3 0.421415 0.194671 0.709018
Si Si4 0.072448 0.233074 0.068165
Si Si5 0.576834 0.403055 0.121021
Si Si6 0.422386 0.902182 0.835871
Si Si7 0.421781 0.363934 0.251514
O O1 0.250000 0.376223 0.414826
O O2 0.042505 0.500000 0.429359
O O3 0.054456 0.412186 0.320824
O O4 0.970118 0.332231 0.430805
O O5 0.250000 0.225896 0.550873
O O6 0.031478 0.178256 0.631970
O O7 0.000000 0.186601 0.500000
O O8 0.250000 0.230487 0.709261
O O9 0.436188 0.109862 0.755763
O O10 0.532572 0.263610 0.741544
O O11 0.250000 0.231769 0.061750
O O12 0.020668 0.332052 0.081892
O O13 0.023523 0.167574 0.126136
O O14 0.000000 0.199545 0.000000
O O15 0.750000 0.373978 0.117682
O O16 0.555192 0.500000 0.089807
O O17 0.525932 0.409221 0.197231
O O18 0.250000 0.888439 0.857682
O O19 0.476710 0.000000 0.852655
O O20 0.250000 0.368598 0.227186
#
# Coordination Sequence:
#
# PCOD8206996 Si02
#       7
#     8   8   8   8   8   8   8
#     4   9  18  31  46  68 102 142 187 240 293 348
#     4  10  20  33  50  74 104 146 193 239 291 351
#     4   9  18  34  57  83 115 151 192 239 291 352
#     4  12  26  44  66  91 124 164 202 248 300 354
#     4  11  23  38  58  85 120 162 206 251 297 350
#     4  10  21  40  68  98 126 156 193 242 300 363
#     4  10  18  30  52  81 112 149 192 242 298 350
#
# _framework density 20.324788999999999
#
# number of rings (size 3 to 8) (size 9 to 14) (size 15 to 20)
#    0.000    1.857    1.429    3.000    0.000    4.286 
#    0.000    0.000    0.000    0.429    0.000    0.000 
#    0.000    0.000    0.000    0.000    0.000    0.429 
#
# Total GULP energy -694223.556320 kJ/mol
# GULP energy per Si atom -12396.849220 kJ/mol
# Density = 2.027853 g / cm^3
# Si number density = 20.324789 Si / 1000 Ang^3
#
#
#
# Elastic Constant Matrix: (Units=GPa)
#
#
# Indices 1 2 3 4 5 6 
#
# 1 106.8488 39.3129 45.3538 0.0000 0.0000 0.0000
# 2 39.3129 82.7945 34.5840 0.0000 0.0000 0.0000
# 3 45.3538 34.5840 115.9305 0.0000 0.0000 0.0000
# 4 0.0000 0.0000 0.0000 -5.3768 0.0000 0.0000
# 5 0.0000 0.0000 0.0000 0.0000 34.5026 0.0000
# 6 0.0000 0.0000 0.0000 0.0000 0.0000 14.8205
#
#
#
# Elastic Compliance Matrix: (Units=1/GPa)
#
#
# Indices 1 2 3 4 5 6 
#
# 1 0.012510 -0.004450 -0.003567 0.000000 0.000000 0.000000
# 2 -0.004450 0.015381 -0.002847 0.000000 0.000000 0.000000
# 3 -0.003567 -0.002847 0.010871 0.000000 0.000000 0.000000
# 4 0.000000 0.000000 0.000000 -0.185984 0.000000 0.000000
# 5 0.000000 0.000000 0.000000 0.000000 0.028983 0.000000
# 6 0.000000 0.000000 0.000000 0.000000 0.000000 0.067474
#
#
# Mechanical properties :
#
#
# Convention : Reuss Voigt Hill
#
# Bulk Modulus (GPa) = 58.70960 60.45280 59.58120
# Shear Modulus (GPa) = -214.04828 21.21082 -96.41873
#
# Velocity S-wave (km/s) = -10.27339 3.23397 -6.89507
# Velocity P-wave (km/s) = 10.57237 6.61459 5.83190
#
# Compressibility (1/GPa) = 0.01703299
#
# Stress axis : x y z
#
# Youngs Moduli (GPa) = 79.93373 65.01711 91.99183
#
# Poissons Ratio (x) = 0.28935 0.32810
# Poissons Ratio (y) = 0.35574 0.26192
# Poissons Ratio (z) = 0.28509 0.18512
#
# Static dielectric constant tensor:
#      x y z
#    x 3.673220 0.000000 0.000000 
#    y 0.000000 3.398220 0.000000 
#    z 0.000000 0.000000 3.901690 
# 
# 
# High freq. dielectric constant tensor:
#      x y z
#    x 1.794480 0.000000 0.000000 
#    y 0.000000 1.762130 0.000000 
#    z 0.000000 0.000000 1.801320 
# 
# From -- ./inp_files/31904.got.cif
#   From: 2010.03.12/outbox.cif.g09.slc.cpg/sg51_16_cif.got.tgz:31904.got - 2010.04.16 13:43:02.
