data_PCOD8206700
_publ_section_title
;
Structure prediction by ZEFSAII (Michael W. Deem and Ramdas Pophale) SiO2 
 PCOD8206700
Probable space group: P M M A
;
_chemical_formula_sum "Si O2"
_cell_formula_units_Z 64
_cell_length_a 9.301162
_cell_length_b 15.063523
_cell_length_c 25.015341
_cell_angle_alpha 90.000000
_cell_angle_beta 90.000000
_cell_angle_gamma 90.000000
_cell_volume 3504.856094
_symmetry_space_group_name_H-M "P M M A"
_symmetry_group_IT_number 51
_symmetry_cell_setting 'orthorhombic'
loop_
_space_group_symop_operation_xyz
x,y,z
1/2-x,-y,z
1/2+x,-y,-z
-x,y,-z
-x,-y,-z
1/2+x,y,-z
1/2-x,y,z
x,-y,z
loop_
_atom_site_type_symbol
_atom_site_label
_atom_site_fract_x
_atom_site_fract_y
_atom_site_fract_z
Si Si1 0.915228 0.095860 0.685730
Si Si2 0.088751 0.329893 0.756116
Si Si3 0.418826 0.277518 0.053515
Si Si4 0.580977 0.287273 0.653858
Si Si5 0.915457 0.399948 0.133606
Si Si6 0.912656 0.097600 0.893019
Si Si7 0.413340 0.868499 0.788672
Si Si8 0.917957 0.602079 0.553160
O O1 0.750000 0.109887 0.702131
O O2 0.963744 0.182312 0.651182
O O3 0.006227 0.087555 0.739175
O O4 0.934569 0.000000 0.655119
O O5 0.250000 0.345711 0.734518
O O6 0.047701 0.399220 0.802774
O O7 0.074586 0.236596 0.785887
O O8 0.984527 0.336390 0.705394
O O9 0.250000 0.295513 0.046475
O O10 0.477013 0.336314 0.102148
O O11 0.453367 0.173932 0.064649
O O12 0.500000 0.306757 0.000000
O O13 0.750000 0.300249 0.658183
O O14 0.523435 0.335504 0.600747
O O15 0.750000 0.368625 0.125166
O O16 0.937156 0.500000 0.112801
O O17 0.750000 0.114315 0.872586
O O18 0.017564 0.098619 0.843032
O O19 0.926155 0.000000 0.920386
O O20 0.250000 0.901651 0.787255
O O21 0.750000 0.616828 0.543042
O O22 0.951930 0.500000 0.567868
O O23 0.000000 0.631749 0.500000
#
# Coordination Sequence:
#
# PCOD8206700 Si02
#       8
#     8   8   8   8   8   8   8   8
#     4   9  17  29  45  67  99 138 174 207 247 298
#     4   9  18  32  50  76 109 139 168 205 252 305
#     4  11  24  41  61  80 103 134 171 217 263 311
#     4   9  18  31  49  74 103 136 173 212 253 300
#     4  10  21  39  61  82 107 138 171 211 259 313
#     4  10  21  36  54  77 104 135 170 208 255 311
#     4  10  18  29  48  74 104 136 170 209 251 298
#     4   9  18  33  52  74 100 131 170 216 261 304
#
# _framework density 18.260380000000001
#
# number of rings (size 3 to 8) (size 9 to 14) (size 15 to 20)
#    0.000    2.375    1.250    1.125    0.000    5.250 
#    0.000    0.000    0.000    0.375    0.000    0.000 
#    0.000    0.000    0.000    0.000    0.000    0.000 
#
# Total GULP energy -793367.927917 kJ/mol
# GULP energy per Si atom -12396.373874 kJ/mol
# Density = 1.821882 g / cm^3
# Si number density = 18.260380 Si / 1000 Ang^3
#
#
#
# Elastic Constant Matrix: (Units=GPa)
#
#
# Indices 1 2 3 4 5 6 
#
# 1 68.5467 38.1241 46.1863 0.0000 0.0000 0.0000
# 2 38.1241 86.8919 47.7399 0.0000 0.0000 0.0000
# 3 46.1863 47.7399 101.7997 0.0000 0.0000 0.0000
# 4 0.0000 0.0000 0.0000 15.6853 0.0000 0.0000
# 5 0.0000 0.0000 0.0000 0.0000 28.7135 0.0000
# 6 0.0000 0.0000 0.0000 0.0000 0.0000 18.6250
#
#
#
# Elastic Compliance Matrix: (Units=1/GPa)
#
#
# Indices 1 2 3 4 5 6 
#
# 1 0.023047 -0.005883 -0.007698 0.000000 0.000000 0.000000
# 2 -0.005883 0.017005 -0.005305 0.000000 0.000000 0.000000
# 3 -0.007698 -0.005305 0.015804 0.000000 0.000000 0.000000
# 4 0.000000 0.000000 0.000000 0.063754 0.000000 0.000000
# 5 0.000000 0.000000 0.000000 0.000000 0.034827 0.000000
# 6 0.000000 0.000000 0.000000 0.000000 0.000000 0.053691
#
#
# Mechanical properties :
#
#
# Convention : Reuss Voigt Hill
#
# Bulk Modulus (GPa) = 55.29874 57.92653 56.61263
# Shear Modulus (GPa) = 19.84702 20.95062 20.39882
#
# Velocity S-wave (km/s) = 3.30038 3.39090 3.34594
# Velocity P-wave (km/s) = 6.69870 6.86457 6.78214
#
# Compressibility (1/GPa) = 0.01808360
#
# Stress axis : x y z
#
# Youngs Moduli (GPa) = 43.38947 58.80786 63.27655
#
# Poissons Ratio (x) = 0.34595 0.48708
# Poissons Ratio (y) = 0.25525 0.33571
# Poissons Ratio (z) = 0.33400 0.31200
#
# Static dielectric constant tensor:
#      x y z
#    x 3.382990 0.000000 0.000000 
#    y 0.000000 3.622130 0.000000 
#    z 0.000000 0.000000 3.128630 
# 
# 
# High freq. dielectric constant tensor:
#      x y z
#    x 1.707650 0.000000 0.000000 
#    y 0.000000 1.717790 0.000000 
#    z 0.000000 0.000000 1.677300 
# 
# From -- ./inp_files/35005.got.cif
#   From: 2010.03.12/outbox.cif.g09.slc.cpg/sg51_18_cif.got.tgz:35005.got - 2010.04.16 13:43:02.
