data_PCOD8206242
_publ_section_title
;
Structure prediction by ZEFSAII (Michael W. Deem and Ramdas Pophale) SiO2 
 PCOD8206242
Probable space group: P M M A
;
_chemical_formula_sum "Si O2"
_cell_formula_units_Z 36
_cell_length_a 9.593817
_cell_length_b 12.878929
_cell_length_c 19.885040
_cell_angle_alpha 90.000000
_cell_angle_beta 90.000000
_cell_angle_gamma 90.000000
_cell_volume 2456.957522
_symmetry_space_group_name_H-M "P M M A"
_symmetry_group_IT_number 51
_symmetry_cell_setting 'orthorhombic'
loop_
_space_group_symop_operation_xyz
x,y,z
1/2-x,-y,z
1/2+x,-y,-z
-x,y,-z
-x,-y,-z
1/2+x,y,-z
1/2-x,y,z
x,-y,z
loop_
_atom_site_type_symbol
_atom_site_label
_atom_site_fract_x
_atom_site_fract_y
_atom_site_fract_z
Si Si1 0.915790 0.000000 0.431394
Si Si2 0.914684 0.196342 0.344046
Si Si3 0.912166 0.382290 0.434221
Si Si4 0.916291 0.116220 0.205935
Si Si5 0.905705 0.124088 0.059668
O O1 0.964755 0.898964 0.390059
O O2 0.000000 0.000000 0.500000
O O3 0.750000 0.000000 0.445379
O O4 0.750000 0.192340 0.339769
O O5 0.964486 0.305692 0.375295
O O6 0.973982 0.186180 0.267750
O O7 0.750000 0.363718 0.451436
O O8 0.939048 0.500000 0.409928
O O9 0.000000 0.355805 0.500000
O O10 0.750000 0.112617 0.205253
O O11 0.964996 0.160162 0.132939
O O12 0.974073 0.000000 0.217265
O O13 0.750000 0.166873 0.048181
O O14 0.905243 0.000000 0.058410
O O15 0.000000 0.170564 0.000000
#
# Coordination Sequence:
#
# PCOD8206242 Si02
#       5
#     4   8   8   8   8
#     4  10  18  26  38  54  71  94 122 150 179 212
#     4   9  15  24  38  55  73  94 122 153 180 211
#     4   9  17  28  41  56  73  94 120 152 189 222
#     4   8  12  20  34  52  71  92 121 150 174 205
#     4   8  13  20  32  49  68  91 117 143 169 202
#
# _framework density 14.652267999999999
#
# number of rings (size 3 to 8) (size 9 to 14) (size 15 to 20)
#    0.000    3.333    1.111    2.000    0.000    0.000 
#    0.000    0.000    0.000    2.667    0.000    0.000 
#    0.000    0.889    0.000    0.667    0.000    1.333 
#
# Total GULP energy -446038.844480 kJ/mol
# GULP energy per Si atom -12389.967902 kJ/mol
# Density = 1.461892 g / cm^3
# Si number density = 14.652268 Si / 1000 Ang^3
#
#
#
# Elastic Constant Matrix: (Units=GPa)
#
#
# Indices 1 2 3 4 5 6 
#
# 1 27.9571 17.0383 38.9428 0.0000 0.0000 0.0000
# 2 17.0383 70.3402 62.7756 0.0000 0.0000 0.0000
# 3 38.9428 62.7756 170.7126 0.0000 0.0000 0.0000
# 4 0.0000 0.0000 0.0000 15.5233 0.0000 0.0000
# 5 0.0000 0.0000 0.0000 0.0000 20.6770 0.0000
# 6 0.0000 0.0000 0.0000 0.0000 0.0000 8.2212
#
#
#
# Elastic Compliance Matrix: (Units=1/GPa)
#
#
# Indices 1 2 3 4 5 6 
#
# 1 0.052862 -0.003040 -0.010941 0.000000 0.000000 0.000000
# 2 -0.003040 0.021336 -0.007152 0.000000 0.000000 0.000000
# 3 -0.010941 -0.007152 0.010984 0.000000 0.000000 0.000000
# 4 0.000000 0.000000 0.000000 0.064419 0.000000 0.000000
# 5 0.000000 0.000000 0.000000 0.000000 0.048363 0.000000
# 6 0.000000 0.000000 0.000000 0.000000 0.000000 0.121636
#
#
# Mechanical properties :
#
#
# Convention : Reuss Voigt Hill
#
# Bulk Modulus (GPa) = 23.30192 56.28038 39.79115
# Shear Modulus (GPa) = 13.29176 18.90117 16.09647
#
# Velocity S-wave (km/s) = 3.01516 3.59553 3.31806
# Velocity P-wave (km/s) = 5.29711 7.46533 6.47266
#
# Compressibility (1/GPa) = 0.04291491
#
# Stress axis : x y z
#
# Youngs Moduli (GPa) = 18.91715 46.86859 91.04386
#
# Poissons Ratio (x) = 0.14250 0.99609
# Poissons Ratio (y) = 0.05752 0.65118
# Poissons Ratio (z) = 0.20697 0.33522
#
# Static dielectric constant tensor:
#      x y z
#    x 2.311060 0.000000 0.000000 
#    y 0.000000 2.740570 0.000000 
#    z 0.000000 0.000000 3.317750 
# 
# 
# High freq. dielectric constant tensor:
#      x y z
#    x 1.520270 0.000000 0.000000 
#    y 0.000000 1.519930 0.000000 
#    z 0.000000 0.000000 1.572410 
# 
# From -- ./inp_files/28891.got.cif
#   From: 2010.03.12/outbox.cif.g09.slc.cpg/sg51_15_cif.got.tgz:28891.got - 2010.04.16 13:43:02.
