data_PCOD8206686
_publ_section_title
;
Structure prediction by ZEFSAII (Michael W. Deem and Ramdas Pophale) SiO2 
 PCOD8206686
Probable space group: P M M A
;
_chemical_formula_sum "Si O2"
_cell_formula_units_Z 48
_cell_length_a 20.576622
_cell_length_b 9.204462
_cell_length_c 14.203199
_cell_angle_alpha 90.000000
_cell_angle_beta 90.000000
_cell_angle_gamma 90.000000
_cell_volume 2690.039521
_symmetry_space_group_name_H-M "P M M A"
_symmetry_group_IT_number 51
_symmetry_cell_setting 'orthorhombic'
loop_
_space_group_symop_operation_xyz
x,y,z
1/2-x,-y,z
1/2+x,-y,-z
-x,y,-z
-x,-y,-z
1/2+x,y,-z
1/2-x,y,z
x,-y,z
loop_
_atom_site_type_symbol
_atom_site_label
_atom_site_fract_x
_atom_site_fract_y
_atom_site_fract_z
Si Si1 0.950364 0.829616 0.422256
Si Si2 0.174571 0.340082 0.289996
Si Si3 0.571910 0.336104 0.041299
Si Si4 0.675926 0.168752 0.529338
Si Si5 0.970621 0.833183 0.213073
Si Si6 0.613603 0.833598 0.869299
O O1 0.874774 0.795587 0.445966
O O2 0.964466 0.766532 0.318173
O O3 0.000000 0.761606 0.500000
O O4 0.963890 0.000000 0.418333
O O5 0.250000 0.360304 0.305215
O O6 0.141313 0.500000 0.282960
O O7 0.148109 0.254322 0.380598
O O8 0.164545 0.249010 0.195718
O O9 0.599035 0.500000 0.049194
O O10 0.574282 0.261859 0.143844
O O11 0.500000 0.336651 0.000000
O O12 0.616212 0.241925 0.971212
O O13 0.750000 0.212711 0.500005
O O14 0.673389 0.000000 0.556650
O O15 0.044442 0.820281 0.180749
O O16 0.946694 0.000000 0.208492
O O17 0.634696 0.000000 0.882083
#
# Coordination Sequence:
#
# PCOD8206686 Si02
#       6
#     8   8   8   8   8   8
#     4   9  16  27  45  69  95 121 152 194 240 278
#     4  10  20  32  46  66  93 123 152 185 230 282
#     4   9  17  29  45  66  93 122 150 183 228 282
#     4   9  17  30  48  68  90 120 158 193 225 270
#     4   9  17  29  46  68  93 122 156 192 232 277
#     4  10  18  29  48  70  91 117 152 192 231 275
#
# _framework density 17.843603999999999
#
# number of rings (size 3 to 8) (size 9 to 14) (size 15 to 20)
#    0.000    2.667    0.000    2.500    0.000    6.333 
#    0.000    0.833    0.000    3.000    0.000    2.333 
#    0.000    0.000    0.000    0.000    0.000    0.000 
#
# Total GULP energy -595035.426620 kJ/mol
# GULP energy per Si atom -12396.571388 kJ/mol
# Density = 1.780299 g / cm^3
# Si number density = 17.843604 Si / 1000 Ang^3
#
#
#
# Elastic Constant Matrix: (Units=GPa)
#
#
# Indices 1 2 3 4 5 6 
#
# 1 39.5557 16.4482 28.2269 0.0000 0.0000 0.0000
# 2 16.4482 97.5625 50.6927 0.0000 0.0000 0.0000
# 3 28.2269 50.6927 151.0479 0.0000 0.0000 0.0000
# 4 0.0000 0.0000 0.0000 12.8723 0.0000 0.0000
# 5 0.0000 0.0000 0.0000 0.0000 26.6768 0.0000
# 6 0.0000 0.0000 0.0000 0.0000 0.0000 15.2018
#
#
#
# Elastic Compliance Matrix: (Units=1/GPa)
#
#
# Indices 1 2 3 4 5 6 
#
# 1 0.029694 -0.002571 -0.004686 0.000000 0.000000 0.000000
# 2 -0.002571 0.012637 -0.003761 0.000000 0.000000 0.000000
# 3 -0.004686 -0.003761 0.008758 0.000000 0.000000 0.000000
# 4 0.000000 0.000000 0.000000 0.077686 0.000000 0.000000
# 5 0.000000 0.000000 0.000000 0.000000 0.037486 0.000000
# 6 0.000000 0.000000 0.000000 0.000000 0.000000 0.065782
#
#
# Mechanical properties :
#
#
# Convention : Reuss Voigt Hill
#
# Bulk Modulus (GPa) = 34.41932 53.21132 43.81532
# Shear Modulus (GPa) = 18.95638 23.80342 21.37990
#
# Velocity S-wave (km/s) = 3.26293 3.65636 3.46523
# Velocity P-wave (km/s) = 5.79024 6.90732 6.37330
#
# Compressibility (1/GPa) = 0.02905345
#
# Stress axis : x y z
#
# Youngs Moduli (GPa) = 33.67684 79.13043 114.17831
#
# Poissons Ratio (x) = 0.20347 0.53505
# Poissons Ratio (y) = 0.08659 0.42939
# Poissons Ratio (z) = 0.15781 0.29758
#
# Static dielectric constant tensor:
#      x y z
#    x 3.024200 0.000000 0.000000 
#    y 0.000000 3.473420 0.000000 
#    z 0.000000 0.000000 3.431130 
# 
# 
# High freq. dielectric constant tensor:
#      x y z
#    x 1.654240 0.000000 0.000000 
#    y 0.000000 1.682200 0.000000 
#    z 0.000000 0.000000 1.690990 
# 
# From -- ./inp_files/18531.got.cif
#   From: 2010.03.12/outbox.cif.g09.slc.cpg/sg51_10_cif.got.tgz:18531.got - 2010.04.16 13:43:02.
