data_PCOD8206894
_publ_section_title
;
Structure prediction by ZEFSAII (Michael W. Deem and Ramdas Pophale) SiO2 
 PCOD8206894
Probable space group: P M M A
;
_chemical_formula_sum "Si O2"
_cell_formula_units_Z 56
_cell_length_a 21.560118
_cell_length_b 9.140621
_cell_length_c 16.727026
_cell_angle_alpha 90.000000
_cell_angle_beta 90.000000
_cell_angle_gamma 90.000000
_cell_volume 3296.442976
_symmetry_space_group_name_H-M "P M M A"
_symmetry_group_IT_number 51
_symmetry_cell_setting 'orthorhombic'
loop_
_space_group_symop_operation_xyz
x,y,z
1/2-x,-y,z
1/2+x,-y,-z
-x,y,-z
-x,-y,-z
1/2+x,y,-z
1/2-x,y,z
x,-y,z
loop_
_atom_site_type_symbol
_atom_site_label
_atom_site_fract_x
_atom_site_fract_y
_atom_site_fract_z
Si Si1 0.087536 0.827634 0.972975
Si Si2 0.063172 0.667730 0.458776
Si Si3 0.971377 0.826972 0.870658
Si Si4 0.489679 0.667658 0.290778
Si Si5 0.182457 0.174056 0.850529
Si Si6 0.820656 0.169375 0.467606
Si Si7 0.386017 0.169163 0.694764
O O1 0.152648 0.777441 0.935226
O O2 0.034676 0.771584 0.912108
O O3 0.079283 0.000000 0.974201
O O4 0.081586 0.776070 0.065277
O O5 0.069780 0.500000 0.486552
O O6 0.059125 0.681923 0.362955
O O7 0.126591 0.748907 0.482019
O O8 0.000000 0.732556 0.500000
O O9 0.961290 0.747118 0.786660
O O10 0.970753 0.000000 0.853830
O O11 0.502646 0.500000 0.268952
O O12 0.552791 0.739073 0.323310
O O13 0.250000 0.246259 0.847245
O O14 0.142492 0.232137 0.776529
O O15 0.186688 0.000000 0.844413
O O16 0.750000 0.227386 0.483796
O O17 0.835157 0.191177 0.374019
O O18 0.824473 0.000000 0.491358
O O19 0.405455 0.000000 0.703642
#
# Coordination Sequence:
#
# PCOD8206894 Si02
#       7
#     8   8   8   8   8   8   8
#     4   8  14  25  44  69  94 123 159 193 230 288
#     4  10  21  37  53  72 101 138 177 213 252 304
#     4   9  16  29  48  68  93 124 159 198 243 289
#     4  11  21  32  49  73 101 129 167 213 248 290
#     4   9  15  24  43  71  99 126 157 193 233 287
#     4  10  21  35  53  80 108 132 167 214 260 309
#     4  10  18  30  49  73 103 135 161 192 248 309
#
# _framework density 16.988007
#
# number of rings (size 3 to 8) (size 9 to 14) (size 15 to 20)
#    0.000    2.429    2.857    1.714    0.000    3.429 
#    0.000    1.429    0.000    2.143    0.000    2.000 
#    0.000    0.000    0.000    0.000    0.000    0.000 
#
# Total GULP energy -693965.514719 kJ/mol
# GULP energy per Si atom -12392.241334 kJ/mol
# Density = 1.694934 g / cm^3
# Si number density = 16.988007 Si / 1000 Ang^3
#
#
#
# Elastic Constant Matrix: (Units=GPa)
#
#
# Indices 1 2 3 4 5 6 
#
# 1 113.0772 37.3695 49.9058 0.0000 0.0000 0.0000
# 2 37.3695 52.5925 36.9369 0.0000 0.0000 0.0000
# 3 49.9058 36.9369 105.0697 0.0000 0.0000 0.0000
# 4 0.0000 0.0000 0.0000 19.7927 0.0000 0.0000
# 5 0.0000 0.0000 0.0000 0.0000 23.0261 0.0000
# 6 0.0000 0.0000 0.0000 0.0000 0.0000 14.5893
#
#
#
# Elastic Compliance Matrix: (Units=1/GPa)
#
#
# Indices 1 2 3 4 5 6 
#
# 1 0.012587 -0.006300 -0.003764 0.000000 0.000000 0.000000
# 2 -0.006300 0.028401 -0.006992 0.000000 0.000000 0.000000
# 3 -0.003764 -0.006992 0.013763 0.000000 0.000000 0.000000
# 4 0.000000 0.000000 0.000000 0.050524 0.000000 0.000000
# 5 0.000000 0.000000 0.000000 0.000000 0.043429 0.000000
# 6 0.000000 0.000000 0.000000 0.000000 0.000000 0.068543
#
#
# Mechanical properties :
#
#
# Convention : Reuss Voigt Hill
#
# Bulk Modulus (GPa) = 48.45042 57.68486 53.06764
# Shear Modulus (GPa) = 19.36197 21.25010 20.30604
#
# Velocity S-wave (km/s) = 3.37967 3.54063 3.46108
# Velocity P-wave (km/s) = 6.61905 7.12353 6.87592
#
# Compressibility (1/GPa) = 0.02063966
#
# Stress axis : x y z
#
# Youngs Moduli (GPa) = 79.44960 35.20975 72.65807
#
# Poissons Ratio (x) = 0.22183 0.27345
# Poissons Ratio (y) = 0.50054 0.50802
# Poissons Ratio (z) = 0.29901 0.24618
#
# Static dielectric constant tensor:
#      x y z
#    x 3.198810 0.000000 0.000000 
#    y 0.000000 2.879330 0.000000 
#    z 0.000000 0.000000 3.298390 
# 
# 
# High freq. dielectric constant tensor:
#      x y z
#    x 1.637950 0.000000 0.000000 
#    y 0.000000 1.620630 0.000000 
#    z 0.000000 0.000000 1.661530 
# 
# From -- ./inp_files/30391.got.cif
#   From: 2010.03.12/outbox.cif.g09.slc.cpg/sg51_16_cif.got.tgz:30391.got - 2010.04.16 13:43:02.
