data_PCOD8206828
_publ_section_title
;
Structure prediction by ZEFSAII (Michael W. Deem and Ramdas Pophale) SiO2 
 PCOD8206828
Probable space group: P M M A
;
_chemical_formula_sum "Si O2"
_cell_formula_units_Z 36
_cell_length_a 9.335882
_cell_length_b 12.371982
_cell_length_c 19.879638
_cell_angle_alpha 90.000000
_cell_angle_beta 90.000000
_cell_angle_gamma 90.000000
_cell_volume 2296.165065
_symmetry_space_group_name_H-M "P M M A"
_symmetry_group_IT_number 51
_symmetry_cell_setting 'orthorhombic'
loop_
_space_group_symop_operation_xyz
x,y,z
1/2-x,-y,z
1/2+x,-y,-z
-x,y,-z
-x,-y,-z
1/2+x,y,-z
1/2-x,y,z
x,-y,z
loop_
_atom_site_type_symbol
_atom_site_label
_atom_site_fract_x
_atom_site_fract_y
_atom_site_fract_z
Si Si1 0.920172 0.380394 0.207423
Si Si2 0.581865 0.287673 0.346337
Si Si3 0.583791 0.500000 0.430731
Si Si4 0.084171 0.873691 0.433234
Si Si5 0.590589 0.370855 0.061554
O O1 0.750000 0.391092 0.204899
O O2 0.984949 0.500000 0.220116
O O3 0.965209 0.303076 0.268647
O O4 0.972688 0.334448 0.134681
O O5 0.750000 0.260300 0.352902
O O6 0.542532 0.394923 0.387782
O O7 0.486978 0.188082 0.371215
O O8 0.750000 0.500000 0.448631
O O9 0.500000 0.500000 0.500000
O O10 0.250000 0.840927 0.441732
O O11 0.000000 0.838287 0.500000
O O12 0.066654 0.000000 0.418889
O O13 0.750000 0.325235 0.052186
O O14 0.590595 0.500000 0.059611
O O15 0.500000 0.321713 0.000000
#
# Coordination Sequence:
#
# PCOD8206828 Si02
#       5
#     8   8   4   8   8
#     4   8  13  24  41  60  85 117 148 174 208 253
#     4  10  18  30  48  67  88 115 147 180 215 260
#     4  10  20  30  42  62  87 114 142 174 211 254
#     4  10  21  36  51  66  85 110 143 184 227 266
#     4   8  13  21  35  54  78 111 147 178 204 238
#
# _framework density 15.678315
#
# number of rings (size 3 to 8) (size 9 to 14) (size 15 to 20)
#    0.000    2.889    1.111    2.667    0.000    4.000 
#    0.000    1.111    0.000    1.333    0.000    0.000 
#    0.000    0.889    0.000    2.000    0.000    3.556 
#
# Total GULP energy -446191.298051 kJ/mol
# GULP energy per Si atom -12394.202724 kJ/mol
# Density = 1.564263 g / cm^3
# Si number density = 15.678315 Si / 1000 Ang^3
#
#
#
# Elastic Constant Matrix: (Units=GPa)
#
#
# Indices 1 2 3 4 5 6 
#
# 1 66.1588 29.8206 59.3560 0.0000 0.0000 0.0000
# 2 29.8206 40.2226 41.9830 0.0000 0.0000 0.0000
# 3 59.3560 41.9830 165.9962 0.0000 0.0000 0.0000
# 4 0.0000 0.0000 0.0000 14.3847 0.0000 0.0000
# 5 0.0000 0.0000 0.0000 0.0000 26.2246 0.0000
# 6 0.0000 0.0000 0.0000 0.0000 0.0000 20.2597
#
#
#
# Elastic Compliance Matrix: (Units=1/GPa)
#
#
# Indices 1 2 3 4 5 6 
#
# 1 0.026647 -0.013329 -0.006157 0.000000 0.000000 0.000000
# 2 -0.013329 0.040446 -0.005463 0.000000 0.000000 0.000000
# 3 -0.006157 -0.005463 0.009608 0.000000 0.000000 0.000000
# 4 0.000000 0.000000 0.000000 0.069518 0.000000 0.000000
# 5 0.000000 0.000000 0.000000 0.000000 0.038132 0.000000
# 6 0.000000 0.000000 0.000000 0.000000 0.000000 0.049359
#
#
# Mechanical properties :
#
#
# Convention : Reuss Voigt Hill
#
# Bulk Modulus (GPa) = 37.31122 59.41075 48.36099
# Shear Modulus (GPa) = 17.09142 21.58832 19.33987
#
# Velocity S-wave (km/s) = 3.30530 3.71476 3.51599
# Velocity P-wave (km/s) = 6.19809 7.50833 6.88445
#
# Compressibility (1/GPa) = 0.02680159
#
# Stress axis : x y z
#
# Youngs Moduli (GPa) = 37.52716 24.72418 104.08401
#
# Poissons Ratio (x) = 0.32956 0.64087
# Poissons Ratio (y) = 0.50021 0.56863
# Poissons Ratio (z) = 0.23106 0.13507
#
# Static dielectric constant tensor:
#      x y z
#    x 2.894160 0.000000 0.000000 
#    y 0.000000 2.642010 0.000000 
#    z 0.000000 0.000000 3.402860 
# 
# 
# High freq. dielectric constant tensor:
#      x y z
#    x 1.583680 0.000000 0.000000 
#    y 0.000000 1.553890 0.000000 
#    z 0.000000 0.000000 1.615110 
# 
# From -- ./inp_files/31296.got.cif
#   From: 2010.03.12/outbox.cif.g09.slc.cpg/sg51_16_cif.got.tgz:31296.got - 2010.04.16 13:43:02.
