data_PCOD8206017
_publ_section_title
;
Structure prediction by ZEFSAII (Michael W. Deem and Ramdas Pophale) SiO2 
 PCOD8206017
Probable space group: P M M A
;
_chemical_formula_sum "Si O2"
_cell_formula_units_Z 48
_cell_length_a 20.209796
_cell_length_b 8.930859
_cell_length_c 15.238464
_cell_angle_alpha 90.000000
_cell_angle_beta 90.000000
_cell_angle_gamma 90.000000
_cell_volume 2750.403145
_symmetry_space_group_name_H-M "P M M A"
_symmetry_group_IT_number 51
_symmetry_cell_setting 'orthorhombic'
loop_
_space_group_symop_operation_xyz
x,y,z
1/2-x,-y,z
1/2+x,-y,-z
-x,y,-z
-x,-y,-z
1/2+x,y,-z
1/2-x,y,z
x,-y,z
loop_
_atom_site_type_symbol
_atom_site_label
_atom_site_fract_x
_atom_site_fract_y
_atom_site_fract_z
Si Si1 0.174116 0.826366 0.917564
Si Si2 0.894888 0.174047 0.258893
Si Si3 0.043477 0.828134 0.213761
Si Si4 0.559070 0.174886 0.594137
Si Si5 0.416729 0.322491 0.570915
Si Si6 0.431234 0.323558 0.039386
O O1 0.250000 0.785009 0.934778
O O2 0.157342 0.786881 0.816823
O O3 0.159340 0.000000 0.935276
O O4 0.130521 0.731110 0.983505
O O5 0.873511 0.267256 0.345814
O O6 0.967343 0.222361 0.224877
O O7 0.894868 0.000000 0.284690
O O8 0.083611 0.803922 0.305424
O O9 0.077950 0.729520 0.139351
O O10 0.046656 0.000000 0.183856
O O11 0.489860 0.260425 0.586681
O O12 0.608469 0.250241 0.522101
O O13 0.549095 0.000000 0.573302
O O14 0.415039 0.500000 0.563934
O O15 0.431954 0.500000 0.037305
O O16 0.500000 0.258644 0.000000
#
# Coordination Sequence:
#
# PCOD8206017 Si02
#       6
#     8   8   8   8   8   8
#     4  10  21  37  56  75  97 131 175 217 256 303
#     4   9  17  30  47  68  95 128 163 203 250 296
#     4   9  17  29  48  70  94 130 168 207 250 297
#     4   9  16  27  41  62  93 127 161 199 244 286
#     4  10  17  24  39  64  94 128 160 193 238 292
#     4  11  22  33  49  75 104 135 168 208 260 314
#
# _framework density 17.451986999999999
#
# number of rings (size 3 to 8) (size 9 to 14) (size 15 to 20)
#    0.000    2.333    1.667    4.500    0.000    5.000 
#    0.000    0.000    0.000    0.000    0.000    1.167 
#    0.000    4.000    0.000    0.000    0.000    0.000 
#
# Total GULP energy -594952.468292 kJ/mol
# GULP energy per Si atom -12394.843089 kJ/mol
# Density = 1.741227 g / cm^3
# Si number density = 17.451987 Si / 1000 Ang^3
#
#
#
# Elastic Constant Matrix: (Units=GPa)
#
#
# Indices 1 2 3 4 5 6 
#
# 1 46.9079 30.3998 38.5712 0.0000 0.0000 0.0000
# 2 30.3998 90.4618 68.6336 0.0000 0.0000 0.0000
# 3 38.5712 68.6336 144.2114 0.0000 0.0000 0.0000
# 4 0.0000 0.0000 0.0000 13.8475 0.0000 0.0000
# 5 0.0000 0.0000 0.0000 0.0000 16.4806 0.0000
# 6 0.0000 0.0000 0.0000 0.0000 0.0000 12.8163
#
#
#
# Elastic Compliance Matrix: (Units=1/GPa)
#
#
# Indices 1 2 3 4 5 6 
#
# 1 0.029341 -0.006114 -0.004938 0.000000 0.000000 0.000000
# 2 -0.006114 0.018576 -0.007205 0.000000 0.000000 0.000000
# 3 -0.004938 -0.007205 0.011684 0.000000 0.000000 0.000000
# 4 0.000000 0.000000 0.000000 0.072215 0.000000 0.000000
# 5 0.000000 0.000000 0.000000 0.000000 0.060677 0.000000
# 6 0.000000 0.000000 0.000000 0.000000 0.000000 0.078025
#
#
# Mechanical properties :
#
#
# Convention : Reuss Voigt Hill
#
# Bulk Modulus (GPa) = 43.31495 61.86560 52.59027
# Shear Modulus (GPa) = 15.88673 18.22733 17.05703
#
# Velocity S-wave (km/s) = 3.02041 3.23527 3.12968
# Velocity P-wave (km/s) = 6.08582 7.03434 6.57720
#
# Compressibility (1/GPa) = 0.02308672
#
# Stress axis : x y z
#
# Youngs Moduli (GPa) = 34.08222 53.83394 85.58538
#
# Poissons Ratio (x) = 0.32912 0.42262
# Poissons Ratio (y) = 0.20836 0.61668
# Poissons Ratio (z) = 0.16830 0.38790
#
# Static dielectric constant tensor:
#      x y z
#    x 2.745970 0.000000 0.000000 
#    y 0.000000 3.188580 0.000000 
#    z 0.000000 0.000000 3.955970 
# 
# 
# High freq. dielectric constant tensor:
#      x y z
#    x 1.600690 0.000000 0.000000 
#    y 0.000000 1.676310 0.000000 
#    z 0.000000 0.000000 1.699660 
# 
# From -- ./inp_files/25496.got.cif
#   From: 2010.03.12/outbox.cif.g09.slc.cpg/sg51_13_cif.got.tgz:25496.got - 2010.04.16 13:43:02.
