data_PCOD8206356
_publ_section_title
;
Structure prediction by ZEFSAII (Michael W. Deem and Ramdas Pophale) SiO2 
 PCOD8206356
Probable space group: P M M A
;
_chemical_formula_sum "Si O2"
_cell_formula_units_Z 56
_cell_length_a 23.616201
_cell_length_b 9.519921
_cell_length_c 15.379199
_cell_angle_alpha 90.000000
_cell_angle_beta 90.000000
_cell_angle_gamma 90.000000
_cell_volume 3457.618693
_symmetry_space_group_name_H-M "P M M A"
_symmetry_group_IT_number 51
_symmetry_cell_setting 'orthorhombic'
loop_
_space_group_symop_operation_xyz
x,y,z
1/2-x,-y,z
1/2+x,-y,-z
-x,y,-z
-x,-y,-z
1/2+x,y,-z
1/2-x,y,z
x,-y,z
loop_
_atom_site_type_symbol
_atom_site_label
_atom_site_fract_x
_atom_site_fract_y
_atom_site_fract_z
Si Si1 0.499629 0.833405 0.901650
Si Si2 0.618987 0.167185 0.837014
Si Si3 0.684744 0.665279 0.313586
Si Si4 0.184189 0.835633 0.331634
Si Si5 0.817021 0.654519 0.508519
Si Si6 0.186923 0.832985 0.998669
Si Si7 0.880134 0.166371 0.170461
O O1 0.554353 0.780293 0.847755
O O2 0.444477 0.785755 0.848197
O O3 0.500539 0.000000 0.910023
O O4 0.500000 0.771039 0.000000
O O5 0.646756 0.223649 0.748089
O O6 0.622204 0.000000 0.837772
O O7 0.654328 0.228437 0.918040
O O8 0.750000 0.709563 0.296482
O O9 0.677314 0.500000 0.296304
O O10 0.665896 0.703941 0.411860
O O11 0.642637 0.753611 0.254162
O O12 0.250000 0.800632 0.312984
O O13 0.160770 0.762326 0.418900
O O14 0.175240 0.000000 0.344927
O O15 0.750000 0.645677 0.512285
O O16 0.842521 0.500000 0.527882
O O17 0.250000 0.770852 0.998822
O O18 0.156512 0.783076 0.911393
O O19 0.187485 0.000000 0.003129
O O20 0.875288 0.000000 0.186128
#
# Coordination Sequence:
#
# PCOD8206356 Si02
#       7
#     8   8   8   8   8   8   8
#     4   9  15  26  42  62  89 122 158 188 216 254
#     4   9  15  24  39  60  90 122 148 177 217 267
#     4   9  18  32  48  66  90 120 148 175 220 279
#     4   9  16  25  41  68  94 113 140 183 230 266
#     4   8  15  29  47  64  85 116 148 175 213 273
#     4   9  15  22  35  60  92 118 140 175 222 264
#     4  10  18  27  44  69  92 115 150 193 223 248
#
# _framework density 16.196118999999999
#
# number of rings (size 3 to 8) (size 9 to 14) (size 15 to 20)
#    0.000    3.000    1.429    1.714    0.000    3.143 
#    0.000    1.429    0.000    3.000    0.000    8.000 
#    0.000    0.000    0.000    0.000    0.000    0.000 
#
# Total GULP energy -694122.268338 kJ/mol
# GULP energy per Si atom -12395.040506 kJ/mol
# Density = 1.615926 g / cm^3
# Si number density = 16.196119 Si / 1000 Ang^3
#
#
#
# Elastic Constant Matrix: (Units=GPa)
#
#
# Indices 1 2 3 4 5 6 
#
# 1 121.8785 27.7482 74.1921 0.0000 0.0000 0.0000
# 2 27.7482 29.2393 44.8943 0.0000 0.0000 0.0000
# 3 74.1921 44.8943 156.1403 0.0000 0.0000 0.0000
# 4 0.0000 0.0000 0.0000 0.9616 0.0000 0.0000
# 5 0.0000 0.0000 0.0000 0.0000 13.3628 0.0000
# 6 0.0000 0.0000 0.0000 0.0000 0.0000 10.3645
#
#
#
# Elastic Compliance Matrix: (Units=1/GPa)
#
#
# Indices 1 2 3 4 5 6 
#
# 1 0.011890 -0.004671 -0.004307 0.000000 0.000000 0.000000
# 2 -0.004671 0.063068 -0.015914 0.000000 0.000000 0.000000
# 3 -0.004307 -0.015914 0.013027 0.000000 0.000000 0.000000
# 4 0.000000 0.000000 0.000000 1.039929 0.000000 0.000000
# 5 0.000000 0.000000 0.000000 0.000000 0.074835 0.000000
# 6 0.000000 0.000000 0.000000 0.000000 0.000000 0.096483
#
#
# Mechanical properties :
#
#
# Convention : Reuss Voigt Hill
#
# Bulk Modulus (GPa) = 26.17739 66.76970 46.47354
# Shear Modulus (GPa) = 3.67175 15.63266 9.65221
#
# Velocity S-wave (km/s) = 1.50731 3.11015 2.44387
# Velocity P-wave (km/s) = 4.38488 7.36292 6.05969
#
# Compressibility (1/GPa) = 0.03820091
#
# Stress axis : x y z
#
# Youngs Moduli (GPa) = 84.10445 15.85580 76.76628
#
# Poissons Ratio (x) = 0.07407 0.33060
# Poissons Ratio (y) = 0.39287 1.22167
# Poissons Ratio (z) = 0.36220 0.25233
#
# Static dielectric constant tensor:
#      x y z
#    x 3.110360 0.000000 0.000000 
#    y 0.000000 2.682260 0.000000 
#    z 0.000000 0.000000 3.250110 
# 
# 
# High freq. dielectric constant tensor:
#      x y z
#    x 1.609330 0.000000 0.000000 
#    y 0.000000 1.573830 0.000000 
#    z 0.000000 0.000000 1.630520 
# 
# From -- ./inp_files/18783.got.cif
#   From: 2010.03.12/outbox.cif.g09.slc.cpg/sg51_10_cif.got.tgz:18783.got - 2010.04.16 13:43:02.
