data_PCOD8206986
_publ_section_title
;
Structure prediction by ZEFSAII (Michael W. Deem and Ramdas Pophale) SiO2 
 PCOD8206986
Probable space group: P M M A
;
_chemical_formula_sum "Si O2"
_cell_formula_units_Z 40
_cell_length_a 15.646537
_cell_length_b 8.583551
_cell_length_c 14.669059
_cell_angle_alpha 90.000000
_cell_angle_beta 90.000000
_cell_angle_gamma 90.000000
_cell_volume 1970.096406
_symmetry_space_group_name_H-M "P M M A"
_symmetry_group_IT_number 51
_symmetry_cell_setting 'orthorhombic'
loop_
_space_group_symop_operation_xyz
x,y,z
1/2-x,-y,z
1/2+x,-y,-z
-x,y,-z
-x,-y,-z
1/2+x,y,-z
1/2-x,y,z
x,-y,z
loop_
_atom_site_type_symbol
_atom_site_label
_atom_site_fract_x
_atom_site_fract_y
_atom_site_fract_z
Si Si1 0.843834 0.815061 0.219526
Si Si2 0.653892 0.680286 0.789721
Si Si3 0.401605 0.181812 0.586854
Si Si4 0.500380 0.183649 0.101809
Si Si5 0.915300 0.319944 0.595936
O O1 0.750000 0.763874 0.183034
O O2 0.852986 0.755891 0.323460
O O3 0.918582 0.742676 0.156112
O O4 0.853178 0.000000 0.219143
O O5 0.750000 0.727584 0.818200
O O6 0.636103 0.500000 0.810150
O O7 0.588207 0.779921 0.848495
O O8 0.644506 0.714992 0.682172
O O9 0.366688 0.274027 0.497924
O O10 0.501701 0.211897 0.603035
O O11 0.385290 0.000000 0.571386
O O12 0.511332 0.000000 0.096801
O O13 0.500000 0.254958 0.000000
O O14 0.943075 0.500000 0.592595
#
# Coordination Sequence:
#
# PCOD8206986 Si02
#       5
#     8   8   8   8   8
#     4   9  18  33  53  79 112 144 176 220 276 332
#     4  10  22  39  58  81 113 152 188 225 276 332
#     4  10  18  30  52  78 107 145 185 222 270 327
#     4  10  21  38  61  86 110 141 183 233 285 332
#     4  10  19  32  52  77 109 146 183 224 271 318
#
# _framework density 20.303574999999999
#
# number of rings (size 3 to 8) (size 9 to 14) (size 15 to 20)
#    0.000    2.200    2.000    2.400    0.000    3.200 
#    0.000    2.000    0.000    4.800    0.000    0.000 
#    0.000    0.000    0.000    0.000    0.000    0.000 
#
# Total GULP energy -495884.302462 kJ/mol
# GULP energy per Si atom -12397.107562 kJ/mol
# Density = 2.025736 g / cm^3
# Si number density = 20.303575 Si / 1000 Ang^3
#
#
#
# Elastic Constant Matrix: (Units=GPa)
#
#
# Indices 1 2 3 4 5 6 
#
# 1 120.2898 5.2098 66.8643 0.0000 0.0000 0.0000
# 2 5.2098 23.4509 21.3993 0.0000 0.0000 0.0000
# 3 66.8643 21.3993 153.2788 0.0000 0.0000 0.0000
# 4 0.0000 0.0000 0.0000 22.7304 0.0000 0.0000
# 5 0.0000 0.0000 0.0000 0.0000 12.5835 0.0000
# 6 0.0000 0.0000 0.0000 0.0000 0.0000 16.3351
#
#
#
# Elastic Compliance Matrix: (Units=1/GPa)
#
#
# Indices 1 2 3 4 5 6 
#
# 1 0.011075 0.002233 -0.005143 0.000000 0.000000 0.000000
# 2 0.002233 0.049318 -0.007859 0.000000 0.000000 0.000000
# 3 -0.005143 -0.007859 0.009865 0.000000 0.000000 0.000000
# 4 0.000000 0.000000 0.000000 0.043994 0.000000 0.000000
# 5 0.000000 0.000000 0.000000 0.000000 0.079469 0.000000
# 6 0.000000 0.000000 0.000000 0.000000 0.000000 0.061218
#
#
# Mechanical properties :
#
#
# Convention : Reuss Voigt Hill
#
# Bulk Modulus (GPa) = 20.52593 53.77404 37.14998
# Shear Modulus (GPa) = 17.08126 23.89952 20.49039
#
# Velocity S-wave (km/s) = 2.90365 3.43462 3.18024
# Velocity P-wave (km/s) = 4.62310 6.50164 5.64112
#
# Compressibility (1/GPa) = 0.04871886
#
# Stress axis : x y z
#
# Youngs Moduli (GPa) = 90.29023 20.27659 101.37006
#
# Poissons Ratio (x) = -0.04527 0.52136
# Poissons Ratio (y) = -0.20159 0.79669
# Poissons Ratio (z) = 0.46437 0.15936
#
# Static dielectric constant tensor:
#      x y z
#    x 3.607530 0.000000 0.000000 
#    y 0.000000 3.345870 0.000000 
#    z 0.000000 0.000000 4.061700 
# 
# 
# High freq. dielectric constant tensor:
#      x y z
#    x 1.785420 0.000000 0.000000 
#    y 0.000000 1.762390 0.000000 
#    z 0.000000 0.000000 1.800420 
# 
# From -- ./inp_files/23707.got.cif
#   From: 2010.03.12/outbox.cif.g09.slc.cpg/sg51_12_cif.got.tgz:23707.got - 2010.04.16 13:43:02.
