data_PCOD8206772
_publ_section_title
;
Structure prediction by ZEFSAII (Michael W. Deem and Ramdas Pophale) SiO2 
 PCOD8206772
Probable space group: P M M A
;
_chemical_formula_sum "Si O2"
_cell_formula_units_Z 52
_cell_length_a 8.721938
_cell_length_b 18.357454
_cell_length_c 18.791246
_cell_angle_alpha 90.000000
_cell_angle_beta 90.000000
_cell_angle_gamma 90.000000
_cell_volume 3008.714796
_symmetry_space_group_name_H-M "P M M A"
_symmetry_group_IT_number 51
_symmetry_cell_setting 'orthorhombic'
loop_
_space_group_symop_operation_xyz
x,y,z
1/2-x,-y,z
1/2+x,-y,-z
-x,y,-z
-x,-y,-z
1/2+x,y,-z
1/2-x,y,z
x,-y,z
loop_
_atom_site_type_symbol
_atom_site_label
_atom_site_fract_x
_atom_site_fract_y
_atom_site_fract_z
Si Si1 0.570894 0.662847 0.576831
Si Si2 0.566499 0.500000 0.078620
Si Si3 0.572294 0.418561 0.303191
Si Si4 0.931986 0.351443 0.922126
Si Si5 0.571720 0.085038 0.425495
Si Si6 0.430756 0.715030 0.793388
Si Si7 0.931085 0.201152 0.670813
O O1 0.500000 0.658366 0.500000
O O2 0.750000 0.661122 0.567964
O O3 0.518087 0.593808 0.623316
O O4 0.516092 0.736706 0.615539
O O5 0.750000 0.500000 0.081613
O O6 0.502166 0.574314 0.113025
O O7 0.500000 0.500000 0.000000
O O8 0.750000 0.408149 0.320499
O O9 0.537644 0.500000 0.274318
O O10 0.519186 0.359895 0.245209
O O11 0.750000 0.357213 0.927684
O O12 0.984366 0.285998 0.869956
O O13 0.000000 0.336030 0.000000
O O14 0.500000 0.111740 0.500000
O O15 0.750000 0.104633 0.426912
O O16 0.490930 0.124700 0.359432
O O17 0.541367 0.000000 0.414117
O O18 0.250000 0.721929 0.804949
O O19 0.491085 0.783374 0.747362
O O20 0.750000 0.198692 0.681366
#
# Coordination Sequence:
#
# PCOD8206772 Si02
#       7
#     8   4   8   8   8   8   8
#     4  10  20  32  47  66  87 116 154 197 241 287
#     4  10  18  30  46  66  92 122 157 198 249 302
#     4   9  19  34  49  65  85 114 152 196 245 294
#     4  11  21  34  50  72  98 127 163 205 252 303
#     4  10  20  33  51  77 107 138 171 206 246 293
#     4  10  20  34  52  72  96 128 162 202 249 299
#     4  10  20  34  51  72  99 130 165 202 242 293
#
# _framework density 17.283127
#
# number of rings (size 3 to 8) (size 9 to 14) (size 15 to 20)
#    0.000    2.000    0.000    5.308    1.077    5.231 
#    0.000    0.000    0.000    0.000    0.000    0.000 
#    0.000    0.615    0.000    2.308    0.000    3.538 
#
# Total GULP energy -644839.084522 kJ/mol
# GULP energy per Si atom -12400.751625 kJ/mol
# Density = 1.724379 g / cm^3
# Si number density = 17.283127 Si / 1000 Ang^3
#
#
#
# Elastic Constant Matrix: (Units=GPa)
#
#
# Indices 1 2 3 4 5 6 
#
# 1 97.7195 28.4707 43.8311 0.0000 0.0000 0.0000
# 2 28.4707 53.9181 33.1095 0.0000 0.0000 0.0000
# 3 43.8311 33.1095 103.0820 0.0000 0.0000 0.0000
# 4 0.0000 0.0000 0.0000 24.9488 0.0000 0.0000
# 5 0.0000 0.0000 0.0000 0.0000 29.7214 0.0000
# 6 0.0000 0.0000 0.0000 0.0000 0.0000 24.4315
#
#
#
# Elastic Compliance Matrix: (Units=1/GPa)
#
#
# Indices 1 2 3 4 5 6 
#
# 1 0.013460 -0.004475 -0.004286 0.000000 0.000000 0.000000
# 2 -0.004475 0.024592 -0.005996 0.000000 0.000000 0.000000
# 3 -0.004286 -0.005996 0.013449 0.000000 0.000000 0.000000
# 4 0.000000 0.000000 0.000000 0.040082 0.000000 0.000000
# 5 0.000000 0.000000 0.000000 0.000000 0.033646 0.000000
# 6 0.000000 0.000000 0.000000 0.000000 0.000000 0.040931
#
#
# Mechanical properties :
#
#
# Convention : Reuss Voigt Hill
#
# Bulk Modulus (GPa) = 45.48202 51.72689 48.60446
# Shear Modulus (GPa) = 24.63038 25.77424 25.20231
#
# Velocity S-wave (km/s) = 3.77916 3.86592 3.82279
# Velocity P-wave (km/s) = 6.73912 7.06549 6.90423
#
# Compressibility (1/GPa) = 0.02198671
#
# Stress axis : x y z
#
# Youngs Moduli (GPa) = 74.29664 40.66419 74.35463
#
# Poissons Ratio (x) = 0.18199 0.31865
# Poissons Ratio (y) = 0.33251 0.44581
# Poissons Ratio (z) = 0.31840 0.24381
#
# Static dielectric constant tensor:
#      x y z
#    x 3.278180 0.000000 0.000000 
#    y 0.000000 3.150460 0.000000 
#    z 0.000000 0.000000 3.220190 
# 
# 
# High freq. dielectric constant tensor:
#      x y z
#    x 1.683750 0.000000 0.000000 
#    y 0.000000 1.631050 0.000000 
#    z 0.000000 0.000000 1.661800 
# 
# From -- ./inp_files/27912.got.cif
#   From: 2010.03.12/outbox.cif.g09.slc.cpg/sg51_14_cif.got.tgz:27912.got - 2010.04.16 13:43:02.
