data_PCOD8206873
_publ_section_title
;
Structure prediction by ZEFSAII (Michael W. Deem and Ramdas Pophale) SiO2 
 PCOD8206873
Probable space group: P M M A
;
_chemical_formula_sum "Si O2"
_cell_formula_units_Z 36
_cell_length_a 9.220299
_cell_length_b 16.318017
_cell_length_c 13.551767
_cell_angle_alpha 90.000000
_cell_angle_beta 90.000000
_cell_angle_gamma 90.000000
_cell_volume 2038.958151
_symmetry_space_group_name_H-M "P M M A"
_symmetry_group_IT_number 51
_symmetry_cell_setting 'orthorhombic'
loop_
_space_group_symop_operation_xyz
x,y,z
1/2-x,-y,z
1/2+x,-y,-z
-x,y,-z
-x,-y,-z
1/2+x,y,-z
1/2-x,y,z
x,-y,z
loop_
_atom_site_type_symbol
_atom_site_label
_atom_site_fract_x
_atom_site_fract_y
_atom_site_fract_z
Si Si1 0.921913 0.589864 0.797638
Si Si2 0.921039 0.671800 0.598441
Si Si3 0.923299 0.000000 0.604761
Si Si4 0.078522 0.166361 0.297436
Si Si5 0.077842 0.248028 0.099207
O O1 0.750000 0.589231 0.801347
O O2 0.984913 0.500000 0.826568
O O3 0.969257 0.611036 0.686100
O O4 0.976273 0.659815 0.873146
O O5 0.750000 0.669090 0.580663
O O6 0.974541 0.763387 0.627141
O O7 0.000000 0.642272 0.500000
O O8 0.979024 0.921401 0.666257
O O9 0.000000 0.000000 0.500000
O O10 0.750000 0.000000 0.590197
O O11 0.250000 0.167795 0.296295
O O12 0.026290 0.186326 0.186075
O O13 0.250000 0.245093 0.084441
O O14 0.000000 0.218966 0.000000
#
# Coordination Sequence:
#
# PCOD8206873 Si02
#       5
#     8   8   4   8   8
#     4   8  15  28  44  61  84 115 146 174 211 263
#     4   9  16  27  43  62  85 114 146 176 210 254
#     4  10  18  30  49  70  92 118 147 176 209 250
#     4   8  16  30  46  64  88 118 146 172 210 263
#     4   9  17  31  49  66  85 112 146 180 216 257
#
# _framework density 17.656078000000001
#
# number of rings (size 3 to 8) (size 9 to 14) (size 15 to 20)
#    0.000    3.333    0.000    3.333    0.000    0.889 
#    0.000    6.111    0.000    1.333    0.000    0.000 
#    0.000    0.000    0.000    0.000    0.000    0.000 
#
# Total GULP energy -446138.346368 kJ/mol
# GULP energy per Si atom -12392.731844 kJ/mol
# Density = 1.761589 g / cm^3
# Si number density = 17.656078 Si / 1000 Ang^3
#
#
#
# Elastic Constant Matrix: (Units=GPa)
#
#
# Indices 1 2 3 4 5 6 
#
# 1 23.6363 12.4629 26.9839 0.0000 0.0000 0.0000
# 2 12.4629 113.2306 39.2406 0.0000 0.0000 0.0000
# 3 26.9839 39.2406 122.8660 0.0000 0.0000 0.0000
# 4 0.0000 0.0000 0.0000 18.6162 0.0000 0.0000
# 5 0.0000 0.0000 0.0000 0.0000 32.8177 0.0000
# 6 0.0000 0.0000 0.0000 0.0000 0.0000 12.1406
#
#
#
# Elastic Compliance Matrix: (Units=1/GPa)
#
#
# Indices 1 2 3 4 5 6 
#
# 1 0.056937 -0.002174 -0.011810 0.000000 0.000000 0.000000
# 2 -0.002174 0.010014 -0.002721 0.000000 0.000000 0.000000
# 3 -0.011810 -0.002721 0.011602 0.000000 0.000000 0.000000
# 4 0.000000 0.000000 0.000000 0.053717 0.000000 0.000000
# 5 0.000000 0.000000 0.000000 0.000000 0.030471 0.000000
# 6 0.000000 0.000000 0.000000 0.000000 0.000000 0.082368
#
#
# Mechanical properties :
#
#
# Convention : Reuss Voigt Hill
#
# Bulk Modulus (GPa) = 22.15201 46.34531 34.24866
# Shear Modulus (GPa) = 17.03193 24.78460 20.90827
#
# Velocity S-wave (km/s) = 3.10925 3.75072 3.44495
# Velocity P-wave (km/s) = 5.04614 6.71291 5.93829
#
# Compressibility (1/GPa) = 0.04514263
#
# Stress axis : x y z
#
# Youngs Moduli (GPa) = 17.56323 99.86335 86.19460
#
# Poissons Ratio (x) = 0.21710 1.01798
# Poissons Ratio (y) = 0.03818 0.23451
# Poissons Ratio (z) = 0.20743 0.27170
#
# Static dielectric constant tensor:
#      x y z
#    x 2.736090 0.000000 0.000000 
#    y 0.000000 3.861560 0.000000 
#    z 0.000000 0.000000 3.280520 
# 
# 
# High freq. dielectric constant tensor:
#      x y z
#    x 1.631700 0.000000 0.000000 
#    y 0.000000 1.683400 0.000000 
#    z 0.000000 0.000000 1.685270 
# 
# From -- ./inp_files/15327.got.cif
#   From: 2010.03.12/outbox.cif.g09.slc.cpg/sg51_8_cif.got.tgz:15327.got - 2010.04.16 13:43:02.
