data_PCOD8206247
_publ_section_title
;
Structure prediction by ZEFSAII (Michael W. Deem and Ramdas Pophale) SiO2 
 PCOD8206247
Probable space group: P M M A
;
_chemical_formula_sum "Si O2"
_cell_formula_units_Z 64
_cell_length_a 26.547970
_cell_length_b 9.110583
_cell_length_c 18.371905
_cell_angle_alpha 90.000000
_cell_angle_beta 90.000000
_cell_angle_gamma 90.000000
_cell_volume 4443.566442
_symmetry_space_group_name_H-M "P M M A"
_symmetry_group_IT_number 51
_symmetry_cell_setting 'orthorhombic'
loop_
_space_group_symop_operation_xyz
x,y,z
1/2-x,-y,z
1/2+x,-y,-z
-x,y,-z
-x,-y,-z
1/2+x,y,-z
1/2-x,y,z
x,-y,z
loop_
_atom_site_type_symbol
_atom_site_label
_atom_site_fract_x
_atom_site_fract_y
_atom_site_fract_z
Si Si1 0.307967 0.168902 0.833248
Si Si2 0.949122 0.665644 0.545585
Si Si3 0.550333 0.659915 0.954119
Si Si4 0.101135 0.171531 0.577779
Si Si5 0.001452 0.828354 0.668038
Si Si6 0.694461 0.174566 0.330082
Si Si7 0.894561 0.674667 0.088842
Si Si8 0.991287 0.324583 0.178657
O O1 0.250000 0.187766 0.856029
O O2 0.316618 0.231172 0.751614
O O3 0.340887 0.260901 0.889590
O O4 0.324629 0.000000 0.837524
O O5 0.932651 0.500000 0.564635
O O6 0.905662 0.742217 0.497793
O O7 0.957404 0.756526 0.619436
O O8 0.000000 0.667503 0.500000
O O9 0.572306 0.500000 0.934345
O O10 0.534649 0.735944 0.877566
O O11 0.500000 0.638207 0.000000
O O12 0.590438 0.739719 0.008159
O O13 0.152179 0.233324 0.614626
O O14 0.055815 0.203268 0.633248
O O15 0.104645 0.000000 0.559368
O O16 0.999288 0.755434 0.746237
O O17 0.990517 0.000000 0.674346
O O18 0.750000 0.228810 0.355550
O O19 0.693371 0.000000 0.327576
O O20 0.891403 0.500000 0.083906
O O21 0.936318 0.720613 0.148536
O O22 0.994975 0.500000 0.187991
#
# Coordination Sequence:
#
# PCOD8206247 Si02
#       8
#     8   8   8   8   8   8   8   8
#     4   9  17  28  40  55  78 107 136 165 196 228
#     4   9  17  28  40  54  74 100 129 160 193 230
#     4   7  12  24  39  54  74 101 130 158 190 229
#     4   9  16  26  40  56  75 101 131 161 192 225
#     4  10  18  26  38  57  80 104 131 162 193 227
#     4   8  14  25  40  56  75 102 134 162 188 223
#     4   9  16  26  41  58  76 102 135 166 194 227
#     4   9  16  26  40  57  78 104 132 160 192 232
#
# _framework density 14.402846
#
# number of rings (size 3 to 8) (size 9 to 14) (size 15 to 20)
#    0.000    3.250    0.000    3.750    0.000    3.750 
#    0.000    1.250    0.000    3.375    0.000    0.000 
#    0.000    1.000    0.000    7.250    0.000    3.750 
#
# Total GULP energy -792984.338929 kJ/mol
# GULP energy per Si atom -12390.380296 kJ/mol
# Density = 1.437006 g / cm^3
# Si number density = 14.402846 Si / 1000 Ang^3
#
#
#
# Elastic Constant Matrix: (Units=GPa)
#
#
# Indices 1 2 3 4 5 6 
#
# 1 76.9003 28.5633 52.0886 0.0000 0.0000 0.0000
# 2 28.5633 46.7576 44.0290 0.0000 0.0000 0.0000
# 3 52.0886 44.0290 106.0342 0.0000 0.0000 0.0000
# 4 0.0000 0.0000 0.0000 18.1209 0.0000 0.0000
# 5 0.0000 0.0000 0.0000 0.0000 26.8265 0.0000
# 6 0.0000 0.0000 0.0000 0.0000 0.0000 15.9788
#
#
#
# Elastic Compliance Matrix: (Units=1/GPa)
#
#
# Indices 1 2 3 4 5 6 
#
# 1 0.020152 -0.004907 -0.007862 0.000000 0.000000 0.000000
# 2 -0.004907 0.036313 -0.012668 0.000000 0.000000 0.000000
# 3 -0.007862 -0.012668 0.018553 0.000000 0.000000 0.000000
# 4 0.000000 0.000000 0.000000 0.055185 0.000000 0.000000
# 5 0.000000 0.000000 0.000000 0.000000 0.037277 0.000000
# 6 0.000000 0.000000 0.000000 0.000000 0.000000 0.062583
#
#
# Mechanical properties :
#
#
# Convention : Reuss Voigt Hill
#
# Bulk Modulus (GPa) = 41.41764 53.22822 47.32293
# Shear Modulus (GPa) = 17.30197 19.18598 18.24398
#
# Velocity S-wave (km/s) = 3.46972 3.65375 3.56292
# Velocity P-wave (km/s) = 6.69858 7.40519 7.06073
#
# Compressibility (1/GPa) = 0.02414430
#
# Stress axis : x y z
#
# Youngs Moduli (GPa) = 49.62341 27.53810 53.89955
#
# Poissons Ratio (x) = 0.13514 0.42374
# Poissons Ratio (y) = 0.24352 0.68279
# Poissons Ratio (z) = 0.39012 0.34885
#
# Static dielectric constant tensor:
#      x y z
#    x 2.772560 0.000000 0.000000 
#    y 0.000000 2.635520 0.000000 
#    z 0.000000 0.000000 2.909100 
# 
# 
# High freq. dielectric constant tensor:
#      x y z
#    x 1.520370 0.000000 0.000000 
#    y 0.000000 1.533240 0.000000 
#    z 0.000000 0.000000 1.543390 
# 
# From -- ./inp_files/30966.got.cif
#   From: 2010.03.12/outbox.cif.g09.slc.cpg/sg51_16_cif.got.tgz:30966.got - 2010.04.16 13:43:02.
