data_PCOD8206023
_publ_section_title
;
Structure prediction by ZEFSAII (Michael W. Deem and Ramdas Pophale) SiO2 
 PCOD8206023
Probable space group: P M M A
;
_chemical_formula_sum "Si O2"
_cell_formula_units_Z 32
_cell_length_a 8.706791
_cell_length_b 20.886391
_cell_length_c 9.946962
_cell_angle_alpha 90.000000
_cell_angle_beta 90.000000
_cell_angle_gamma 90.000000
_cell_volume 1808.889269
_symmetry_space_group_name_H-M "P M M A"
_symmetry_group_IT_number 51
_symmetry_cell_setting 'orthorhombic'
loop_
_space_group_symop_operation_xyz
x,y,z
1/2-x,-y,z
1/2+x,-y,-z
-x,y,-z
-x,-y,-z
1/2+x,y,-z
1/2-x,y,z
x,-y,z
loop_
_atom_site_type_symbol
_atom_site_label
_atom_site_fract_x
_atom_site_fract_y
_atom_site_fract_z
Si Si1 0.068913 0.072142 0.360370
Si Si2 0.929128 0.569420 0.853185
Si Si3 0.068075 0.305534 0.850789
Si Si4 0.067802 0.176051 0.147226
O O1 0.250000 0.074413 0.373876
O O2 0.012737 0.117423 0.239833
O O3 0.000000 0.097542 0.500000
O O4 0.010900 0.000000 0.329774
O O5 0.750000 0.584946 0.865501
O O6 0.955630 0.500000 0.780490
O O7 0.011498 0.629007 0.775447
O O8 0.000000 0.564194 0.000000
O O9 0.250000 0.301694 0.851290
O O10 0.998963 0.241145 0.784788
O O11 0.000000 0.308434 0.000000
O O12 0.250000 0.181375 0.137063
O O13 0.000000 0.164096 0.000000
#
# Coordination Sequence:
#
# PCOD8206023 Si02
#       4
#     8   8   8   8
#     4   9  19  35  53  72  94 121 153 190 232 277
#     4   9  15  22  33  50  75 109 147 184 223 268
#     4  10  17  25  38  56  82 115 150 187 227 270
#     4  10  19  31  47  68  95 124 155 191 231 276
#
# _framework density 17.690415000000002
#
# number of rings (size 3 to 8) (size 9 to 14) (size 15 to 20)
#    0.000    2.500    0.000    6.750    0.000    4.000 
#    0.000    0.000    0.000    0.000    0.000    0.000 
#    0.000    1.000    0.000    3.250    0.000   12.250 
#
# Total GULP energy -396483.110234 kJ/mol
# GULP energy per Si atom -12390.097195 kJ/mol
# Density = 1.765015 g / cm^3
# Si number density = 17.690415 Si / 1000 Ang^3
#
#
#
# Elastic Constant Matrix: (Units=GPa)
#
#
# Indices 1 2 3 4 5 6 
#
# 1 101.3579 60.4026 26.9749 0.0000 0.0000 0.0000
# 2 60.4026 173.9213 60.7902 0.0000 0.0000 0.0000
# 3 26.9749 60.7902 52.5118 0.0000 0.0000 0.0000
# 4 0.0000 0.0000 0.0000 1.9538 0.0000 0.0000
# 5 0.0000 0.0000 0.0000 0.0000 16.4978 0.0000
# 6 0.0000 0.0000 0.0000 0.0000 0.0000 29.4069
#
#
#
# Elastic Compliance Matrix: (Units=1/GPa)
#
#
# Indices 1 2 3 4 5 6 
#
# 1 0.012613 -0.003554 -0.002365 0.000000 0.000000 0.000000
# 2 -0.003554 0.010659 -0.010513 0.000000 0.000000 0.000000
# 3 -0.002365 -0.010513 0.032429 0.000000 0.000000 0.000000
# 4 0.000000 0.000000 0.000000 0.511822 0.000000 0.000000
# 5 0.000000 0.000000 0.000000 0.000000 0.060614 0.000000
# 6 0.000000 0.000000 0.000000 0.000000 0.000000 0.034006
#
#
# Mechanical properties :
#
#
# Convention : Reuss Voigt Hill
#
# Bulk Modulus (GPa) = 43.79012 69.34737 56.56875
# Shear Modulus (GPa) = 7.11622 21.54660 14.33141
#
# Velocity S-wave (km/s) = 2.00783 3.49375 2.84935
# Velocity P-wave (km/s) = 5.49386 7.45390 6.54764
#
# Compressibility (1/GPa) = 0.02283620
#
# Stress axis : x y z
#
# Youngs Moduli (GPa) = 79.28087 93.81970 30.83634
#
# Poissons Ratio (x) = 0.33343 0.07293
# Poissons Ratio (y) = 0.28176 0.32420
# Poissons Ratio (z) = 0.18752 0.98637
#
# Static dielectric constant tensor:
#      x y z
#    x 3.282040 0.000000 0.000000 
#    y 0.000000 4.799470 0.000000 
#    z 0.000000 0.000000 2.657460 
# 
# 
# High freq. dielectric constant tensor:
#      x y z
#    x 1.698270 0.000000 0.000000 
#    y 0.000000 1.718180 0.000000 
#    z 0.000000 0.000000 1.600660 
# 
# From -- ./inp_files/4858.got.cif
#   From: 2010.03.12/outbox.cif.g09.slc.cpg/sg51_3_cif.got.tgz:4858.got - 2010.04.16 13:43:02.
