data_PCOD8206113
_publ_section_title
;
Structure prediction by ZEFSAII (Michael W. Deem and Ramdas Pophale) SiO2 
 PCOD8206113
Probable space group: P M M A
;
_chemical_formula_sum "Si O2"
_cell_formula_units_Z 52
_cell_length_a 13.356322
_cell_length_b 19.931651
_cell_length_c 11.358957
_cell_angle_alpha 90.000000
_cell_angle_beta 90.000000
_cell_angle_gamma 90.000000
_cell_volume 3023.908253
_symmetry_space_group_name_H-M "P M M A"
_symmetry_group_IT_number 51
_symmetry_cell_setting 'orthorhombic'
loop_
_space_group_symop_operation_xyz
x,y,z
1/2-x,-y,z
1/2+x,-y,-z
-x,y,-z
-x,-y,-z
1/2+x,y,-z
1/2-x,y,z
x,-y,z
loop_
_atom_site_type_symbol
_atom_site_label
_atom_site_fract_x
_atom_site_fract_y
_atom_site_fract_z
Si Si1 0.636023 0.298936 0.923154
Si Si2 0.861828 0.660789 0.184237
Si Si3 0.022231 0.831822 0.131795
Si Si4 0.135518 0.205630 0.689385
Si Si5 0.500000 0.143653 0.500000
Si Si6 0.634724 0.922117 0.694614
Si Si7 0.967619 0.426751 0.866333
O O1 0.750000 0.277032 0.907660
O O2 0.567732 0.243102 0.861918
O O3 0.619708 0.370911 0.858909
O O4 0.606425 0.303121 0.061193
O O5 0.750000 0.631164 0.171509
O O6 0.866988 0.714502 0.288942
O O7 0.937031 0.599363 0.209450
O O8 0.101913 0.882310 0.188799
O O9 0.918172 0.833466 0.203604
O O10 0.000000 0.856165 0.000000
O O11 0.250000 0.179838 0.681461
O O12 0.076631 0.191609 0.569275
O O13 0.434800 0.096962 0.415323
O O14 0.750000 0.904982 0.664758
O O15 0.620445 0.000000 0.721897
O O16 0.932844 0.500000 0.817566
O O17 0.000000 0.435623 0.000000
#
# Coordination Sequence:
#
# PCOD8206113 Si02
#       7
#     8   8   8   8   4   8   8
#     4  10  17  27  44  69 101 137 173 204 242 294
#     4   9  16  27  44  67  98 131 168 209 250 294
#     4  11  19  32  53  77 106 136 170 207 252 306
#     4  10  19  32  52  77 101 129 168 216 260 299
#     4  10  21  36  58  76  99 132 170 218 263 310
#     4  10  22  38  55  77 105 136 169 208 258 311
#     4   9  16  26  39  62 101 140 172 203 241 295
#
# _framework density 17.196289
#
# number of rings (size 3 to 8) (size 9 to 14) (size 15 to 20)
#    0.000    2.154    3.077    1.615    0.000    1.538 
#    0.000    3.077    0.000    4.154    0.000    0.538 
#    0.000    0.000    0.000    0.000    0.000    0.000 
#
# Total GULP energy -644672.408999 kJ/mol
# GULP energy per Si atom -12397.546327 kJ/mol
# Density = 1.715715 g / cm^3
# Si number density = 17.196289 Si / 1000 Ang^3
#
#
#
# Elastic Constant Matrix: (Units=GPa)
#
#
# Indices 1 2 3 4 5 6 
#
# 1 109.7356 51.0671 42.6405 0.0000 0.0000 0.0000
# 2 51.0671 99.8379 36.9700 0.0000 0.0000 0.0000
# 3 42.6405 36.9700 73.2359 0.0000 0.0000 0.0000
# 4 0.0000 0.0000 0.0000 12.8695 0.0000 0.0000
# 5 0.0000 0.0000 0.0000 0.0000 23.9956 0.0000
# 6 0.0000 0.0000 0.0000 0.0000 0.0000 25.7102
#
#
#
# Elastic Compliance Matrix: (Units=1/GPa)
#
#
# Indices 1 2 3 4 5 6 
#
# 1 0.013485 -0.004907 -0.005374 0.000000 0.000000 0.000000
# 2 -0.004907 0.014105 -0.004263 0.000000 0.000000 0.000000
# 3 -0.005374 -0.004263 0.018935 0.000000 0.000000 0.000000
# 4 0.000000 0.000000 0.000000 0.077703 0.000000 0.000000
# 5 0.000000 0.000000 0.000000 0.000000 0.041674 0.000000
# 6 0.000000 0.000000 0.000000 0.000000 0.000000 0.038895
#
#
# Mechanical properties :
#
#
# Convention : Reuss Voigt Hill
#
# Bulk Modulus (GPa) = 57.35167 60.46273 58.90720
# Shear Modulus (GPa) = 20.85954 22.65719 21.75836
#
# Velocity S-wave (km/s) = 3.48663 3.63376 3.56096
# Velocity P-wave (km/s) = 7.04503 7.26927 7.15803
#
# Compressibility (1/GPa) = 0.01743628
#
# Stress axis : x y z
#
# Youngs Moduli (GPa) = 74.15769 70.89673 52.81107
#
# Poissons Ratio (x) = 0.34792 0.28380
# Poissons Ratio (y) = 0.36393 0.22513
# Poissons Ratio (z) = 0.39852 0.30223
#
# Static dielectric constant tensor:
#      x y z
#    x 3.393210 0.000000 0.000000 
#    y 0.000000 3.239850 0.000000 
#    z 0.000000 0.000000 2.935010 
# 
# 
# High freq. dielectric constant tensor:
#      x y z
#    x 1.681750 0.000000 0.000000 
#    y 0.000000 1.653100 0.000000 
#    z 0.000000 0.000000 1.622550 
# 
# From -- ./inp_files/16735.got.cif
#   From: 2010.03.12/outbox.cif.g09.slc.cpg/sg51_9_cif.got.tgz:16735.got - 2010.04.16 13:43:02.
