data_PCOD8206467
_publ_section_title
;
Structure prediction by ZEFSAII (Michael W. Deem and Ramdas Pophale) SiO2 
 PCOD8206467
Probable space group: P M M A
;
_chemical_formula_sum "Si O2"
_cell_formula_units_Z 52
_cell_length_a 8.973632
_cell_length_b 18.429808
_cell_length_c 18.296236
_cell_angle_alpha 90.000000
_cell_angle_beta 90.000000
_cell_angle_gamma 90.000000
_cell_volume 3025.873862
_symmetry_space_group_name_H-M "P M M A"
_symmetry_group_IT_number 51
_symmetry_cell_setting 'orthorhombic'
loop_
_space_group_symop_operation_xyz
x,y,z
1/2-x,-y,z
1/2+x,-y,-z
-x,y,-z
-x,-y,-z
1/2+x,y,-z
1/2-x,y,z
x,-y,z
loop_
_atom_site_type_symbol
_atom_site_label
_atom_site_fract_x
_atom_site_fract_y
_atom_site_fract_z
Si Si1 0.427842 0.208927 0.076328
Si Si2 0.582717 0.860023 0.705564
Si Si3 0.578700 0.917590 0.160603
Si Si4 0.586040 0.292474 0.785969
Si Si5 0.572513 0.500000 0.421267
Si Si6 0.426613 0.210113 0.577998
Si Si7 0.575631 0.643517 0.341012
O O1 0.250000 0.201442 0.070651
O O2 0.492456 0.131843 0.102325
O O3 0.473531 0.273382 0.132773
O O4 0.500000 0.231321 0.000000
O O5 0.750000 0.889512 0.690639
O O6 0.495048 0.914058 0.759119
O O7 0.591222 0.782494 0.743140
O O8 0.492256 0.852864 0.629913
O O9 0.750000 0.891593 0.166106
O O10 0.568276 0.000000 0.132395
O O11 0.750000 0.327075 0.790824
O O12 0.484641 0.349209 0.741888
O O13 0.750000 0.500000 0.429973
O O14 0.500000 0.500000 0.500000
O O15 0.513887 0.570374 0.377710
O O16 0.500000 0.199840 0.500000
O O17 0.250000 0.201550 0.572614
O O18 0.473230 0.289091 0.608568
O O19 0.750000 0.639506 0.333179
#
# Coordination Sequence:
#
# PCOD8206467 Si02
#       7
#     8   8   8   8   4   8   8
#     4  10  20  33  50  73  99 125 153 190 233 276
#     4   9  17  30  47  66  88 116 152 194 234 275
#     4  10  20  33  49  69  94 125 157 187 223 273
#     4   8  16  30  47  67  90 117 153 192 229 272
#     4  10  20  32  44  66  99 132 165 196 231 274
#     4  10  18  28  44  66  90 118 153 194 239 281
#     4   9  18  30  45  65  92 126 160 193 229 274
#
# _framework density 17.185119
#
# number of rings (size 3 to 8) (size 9 to 14) (size 15 to 20)
#    0.000    2.615    0.000    3.231    0.000    7.077 
#    0.000    0.000    0.000    0.462    0.000    0.538 
#    0.000    0.000    0.000    0.000    0.000    0.000 
#
# Total GULP energy -644662.186845 kJ/mol
# GULP energy per Si atom -12397.349747 kJ/mol
# Density = 1.714600 g / cm^3
# Si number density = 17.185119 Si / 1000 Ang^3
#
#
#
# Elastic Constant Matrix: (Units=GPa)
#
#
# Indices 1 2 3 4 5 6 
#
# 1 75.6097 18.9182 48.2211 0.0000 0.0000 0.0000
# 2 18.9182 44.2302 36.2183 0.0000 0.0000 0.0000
# 3 48.2211 36.2183 144.8163 0.0000 0.0000 0.0000
# 4 0.0000 0.0000 0.0000 21.6861 0.0000 0.0000
# 5 0.0000 0.0000 0.0000 0.0000 35.9304 0.0000
# 6 0.0000 0.0000 0.0000 0.0000 0.0000 19.0042
#
#
#
# Elastic Compliance Matrix: (Units=1/GPa)
#
#
# Indices 1 2 3 4 5 6 
#
# 1 0.017177 -0.003349 -0.004882 0.000000 0.000000 0.000000
# 2 -0.003349 0.029085 -0.006159 0.000000 0.000000 0.000000
# 3 -0.004882 -0.006159 0.010071 0.000000 0.000000 0.000000
# 4 0.000000 0.000000 0.000000 0.046113 0.000000 0.000000
# 5 0.000000 0.000000 0.000000 0.000000 0.027832 0.000000
# 6 0.000000 0.000000 0.000000 0.000000 0.000000 0.052620
#
#
# Mechanical properties :
#
#
# Convention : Reuss Voigt Hill
#
# Bulk Modulus (GPa) = 36.29377 52.37460 44.33419
# Shear Modulus (GPa) = 22.63851 26.07737 24.35794
#
# Velocity S-wave (km/s) = 3.63344 3.89966 3.76890
# Velocity P-wave (km/s) = 6.22637 7.12877 6.69280
#
# Compressibility (1/GPa) = 0.02755294
#
# Stress axis : x y z
#
# Youngs Moduli (GPa) = 58.21576 34.38221 99.29272
#
# Poissons Ratio (x) = 0.11516 0.48475
# Poissons Ratio (y) = 0.19499 0.61152
# Poissons Ratio (z) = 0.28421 0.21175
#
# Static dielectric constant tensor:
#      x y z
#    x 3.388290 0.000000 0.000000 
#    y 0.000000 3.075710 0.000000 
#    z 0.000000 0.000000 3.362720 
# 
# 
# High freq. dielectric constant tensor:
#      x y z
#    x 1.674280 0.000000 0.000000 
#    y 0.000000 1.623590 0.000000 
#    z 0.000000 0.000000 1.662710 
# 
# From -- ./inp_files/21545.got.cif
#   From: 2010.03.12/outbox.cif.g09.slc.cpg/sg51_11_cif.got.tgz:21545.got - 2010.04.16 13:43:02.
