data_PCOD8206622
_publ_section_title
;
Structure prediction by ZEFSAII (Michael W. Deem and Ramdas Pophale) SiO2 
 PCOD8206622
Probable space group: P M M A
;
_chemical_formula_sum "Si O2"
_cell_formula_units_Z 56
_cell_length_a 24.389131
_cell_length_b 8.612642
_cell_length_c 16.435526
_cell_angle_alpha 90.000000
_cell_angle_beta 90.000000
_cell_angle_gamma 90.000000
_cell_volume 3452.362014
_symmetry_space_group_name_H-M "P M M A"
_symmetry_group_IT_number 51
_symmetry_cell_setting 'orthorhombic'
loop_
_space_group_symop_operation_xyz
x,y,z
1/2-x,-y,z
1/2+x,-y,-z
-x,y,-z
-x,-y,-z
1/2+x,y,-z
1/2-x,y,z
x,-y,z
loop_
_atom_site_type_symbol
_atom_site_label
_atom_site_fract_x
_atom_site_fract_y
_atom_site_fract_z
Si Si1 0.687429 0.318256 0.408453
Si Si2 0.559015 0.329664 0.958971
Si Si3 0.582379 0.817431 0.478864
Si Si4 0.604476 0.685500 0.120243
Si Si5 0.015136 0.684263 0.380202
Si Si6 0.492310 0.685212 0.197472
Si Si7 0.186457 0.824618 0.761531
O O1 0.750000 0.262772 0.426261
O O2 0.681317 0.500000 0.423207
O O3 0.645933 0.229552 0.468448
O O4 0.670955 0.280271 0.315863
O O5 0.583643 0.500000 0.942130
O O6 0.550795 0.245913 0.870556
O O7 0.500000 0.347028 0.000000
O O8 0.597886 0.248366 0.026991
O O9 0.562925 0.765780 0.568284
O O10 0.544998 0.732573 0.411540
O O11 0.574989 0.000000 0.469131
O O12 0.608705 0.500000 0.118725
O O13 0.553516 0.741115 0.175788
O O14 0.658414 0.759805 0.157684
O O15 0.020635 0.500000 0.388029
O O16 0.022935 0.742684 0.287597
O O17 0.490397 0.500000 0.192211
O O18 0.250000 0.815711 0.780988
O O19 0.167629 0.000000 0.742593
#
# Coordination Sequence:
#
# PCOD8206622 Si02
#       7
#     8   8   8   8   8   8   8
#     4  10  20  34  51  68  86 111 147 187 223 264
#     4   7  11  21  38  62  87 108 135 171 209 247
#     4  11  21  32  45  64  93 122 149 182 225 273
#     4   9  15  25  44  65  86 114 145 176 210 251
#     4  10  18  29  46  66  91 123 158 190 220 260
#     4   8  14  24  41  65  88 111 141 178 217 252
#     4  10  20  31  42  60  88 118 145 174 211 253
#
# _framework density 16.220777999999999
#
# number of rings (size 3 to 8) (size 9 to 14) (size 15 to 20)
#    0.000    2.714    0.000    6.000    0.000    2.857 
#    0.000    0.714    0.000    5.571    0.000    1.000 
#    0.000    3.429    0.000    0.000    0.000    0.000 
#
# Total GULP energy -693909.798057 kJ/mol
# GULP energy per Si atom -12391.246394 kJ/mol
# Density = 1.618386 g / cm^3
# Si number density = 16.220778 Si / 1000 Ang^3
#
#
#
# Elastic Constant Matrix: (Units=GPa)
#
#
# Indices 1 2 3 4 5 6 
#
# 1 70.5229 19.7230 47.1576 0.0000 0.0000 0.0000
# 2 19.7230 37.6016 17.0616 0.0000 0.0000 0.0000
# 3 47.1576 17.0616 130.2640 0.0000 0.0000 0.0000
# 4 0.0000 0.0000 0.0000 2.2485 0.0000 0.0000
# 5 0.0000 0.0000 0.0000 0.0000 28.5296 0.0000
# 6 0.0000 0.0000 0.0000 0.0000 0.0000 18.3494
#
#
#
# Elastic Compliance Matrix: (Units=1/GPa)
#
#
# Indices 1 2 3 4 5 6 
#
# 1 0.020720 -0.007936 -0.006461 0.000000 0.000000 0.000000
# 2 -0.007936 0.031315 -0.001228 0.000000 0.000000 0.000000
# 3 -0.006461 -0.001228 0.010177 0.000000 0.000000 0.000000
# 4 0.000000 0.000000 0.000000 0.444748 0.000000 0.000000
# 5 0.000000 0.000000 0.000000 0.000000 0.035051 0.000000
# 6 0.000000 0.000000 0.000000 0.000000 0.000000 0.054498
#
#
# Mechanical properties :
#
#
# Convention : Reuss Voigt Hill
#
# Bulk Modulus (GPa) = 32.30066 45.14143 38.72105
# Shear Modulus (GPa) = 7.83600 20.12192 13.97896
#
# Velocity S-wave (km/s) = 2.20030 3.52590 2.93882
# Velocity P-wave (km/s) = 5.13921 6.66826 5.95303
#
# Compressibility (1/GPa) = 0.03095912
#
# Stress axis : x y z
#
# Youngs Moduli (GPa) = 48.26247 31.93370 98.26295
#
# Poissons Ratio (x) = 0.25344 0.63492
# Poissons Ratio (y) = 0.38303 0.12071
# Poissons Ratio (z) = 0.31185 0.03923
#
# Static dielectric constant tensor:
#      x y z
#    x 2.954130 0.000000 0.000000 
#    y 0.000000 2.871000 0.000000 
#    z 0.000000 0.000000 3.371130 
# 
# 
# High freq. dielectric constant tensor:
#      x y z
#    x 1.595400 0.000000 0.000000 
#    y 0.000000 1.607260 0.000000 
#    z 0.000000 0.000000 1.623030 
# 
# From -- ./inp_files/30381.got.cif
#   From: 2010.03.12/outbox.cif.g09.slc.cpg/sg51_16_cif.got.tgz:30381.got - 2010.04.16 13:43:02.
