data_PCOD8206862
_publ_section_title
;
Structure prediction by ZEFSAII (Michael W. Deem and Ramdas Pophale) SiO2 
 PCOD8206862
Probable space group: P M M A
;
_chemical_formula_sum "Si O2"
_cell_formula_units_Z 48
_cell_length_a 20.585828
_cell_length_b 8.501425
_cell_length_c 15.125182
_cell_angle_alpha 90.000000
_cell_angle_beta 90.000000
_cell_angle_gamma 90.000000
_cell_volume 2647.041053
_symmetry_space_group_name_H-M "P M M A"
_symmetry_group_IT_number 51
_symmetry_cell_setting 'orthorhombic'
loop_
_space_group_symop_operation_xyz
x,y,z
1/2-x,-y,z
1/2+x,-y,-z
-x,y,-z
-x,-y,-z
1/2+x,y,-z
1/2-x,y,z
x,-y,z
loop_
_atom_site_type_symbol
_atom_site_label
_atom_site_fract_x
_atom_site_fract_y
_atom_site_fract_z
Si Si1 0.850053 0.682122 0.181975
Si Si2 0.483518 0.816799 0.771155
Si Si3 0.460848 0.687382 0.585611
Si Si4 0.680650 0.314604 0.378107
Si Si5 0.948289 0.317514 0.926353
Si Si6 0.821946 0.179550 0.002620
O O1 0.838235 0.500000 0.159869
O O2 0.926550 0.714391 0.185561
O O3 0.818896 0.730614 0.275096
O O4 0.817223 0.786551 0.106984
O O5 0.496301 0.762004 0.670563
O O6 0.544473 0.779518 0.834651
O O7 0.466402 0.000000 0.771805
O O8 0.500000 0.744674 0.500000
O O9 0.462096 0.500000 0.596036
O O10 0.385782 0.750509 0.577137
O O11 0.750000 0.249542 0.417954
O O12 0.679453 0.500000 0.389744
O O13 0.959377 0.500000 0.907031
O O14 0.874652 0.292413 0.958155
O O15 0.000000 0.257139 0.000000
O O16 0.750000 0.209829 0.962072
O O17 0.843380 0.000000 0.987791
#
# Coordination Sequence:
#
# PCOD8206862 Si02
#       6
#     8   8   8   8   8   8
#     4  10  18  30  48  72 102 137 174 209 255 316
#     4  11  21  33  53  78 105 136 172 220 271 320
#     4   9  18  33  53  76 103 134 171 216 262 315
#     4   8  14  25  44  70  98 127 161 202 250 304
#     4  11  22  36  56  78 102 139 185 225 259 311
#     4  11  23  35  49  74 108 143 178 220 270 320
#
# _framework density 18.133454
#
# number of rings (size 3 to 8) (size 9 to 14) (size 15 to 20)
#    0.000    2.000    1.667    4.500    0.000    3.000 
#    0.000    0.000    0.000    5.500    0.000    2.333 
#    0.000    0.000    0.000    0.000    0.000    0.000 
#
# Total GULP energy -594945.138053 kJ/mol
# GULP energy per Si atom -12394.690376 kJ/mol
# Density = 1.809218 g / cm^3
# Si number density = 18.133454 Si / 1000 Ang^3
#
#
#
# Elastic Constant Matrix: (Units=GPa)
#
#
# Indices 1 2 3 4 5 6 
#
# 1 119.1996 18.9007 59.3632 0.0000 0.0000 0.0000
# 2 18.9007 40.6060 22.5886 0.0000 0.0000 0.0000
# 3 59.3632 22.5886 95.8691 0.0000 0.0000 0.0000
# 4 0.0000 0.0000 0.0000 18.0957 0.0000 0.0000
# 5 0.0000 0.0000 0.0000 0.0000 19.8038 0.0000
# 6 0.0000 0.0000 0.0000 0.0000 0.0000 15.7019
#
#
#
# Elastic Compliance Matrix: (Units=1/GPa)
#
#
# Indices 1 2 3 4 5 6 
#
# 1 0.012231 -0.001703 -0.007172 0.000000 0.000000 0.000000
# 2 -0.001703 0.028579 -0.005679 0.000000 0.000000 0.000000
# 3 -0.007172 -0.005679 0.016210 0.000000 0.000000 0.000000
# 4 0.000000 0.000000 0.000000 0.055262 0.000000 0.000000
# 5 0.000000 0.000000 0.000000 0.000000 0.050495 0.000000
# 6 0.000000 0.000000 0.000000 0.000000 0.000000 0.063687
#
#
# Mechanical properties :
#
#
# Convention : Reuss Voigt Hill
#
# Bulk Modulus (GPa) = 35.82826 50.81995 43.32411
# Shear Modulus (GPa) = 18.87662 21.04173 19.95918
#
# Velocity S-wave (km/s) = 3.22993 3.41013 3.32125
# Velocity P-wave (km/s) = 5.80611 6.60240 6.21702
#
# Compressibility (1/GPa) = 0.02791093
#
# Stress axis : x y z
#
# Youngs Moduli (GPa) = 81.75692 34.99081 61.68939
#
# Poissons Ratio (x) = 0.05960 0.44247
# Poissons Ratio (y) = 0.13926 0.35033
# Poissons Ratio (z) = 0.58640 0.19871
#
# Static dielectric constant tensor:
#      x y z
#    x 3.508480 0.000000 0.000000 
#    y 0.000000 3.135970 0.000000 
#    z 0.000000 0.000000 3.204200 
# 
# 
# High freq. dielectric constant tensor:
#      x y z
#    x 1.703600 0.000000 0.000000 
#    y 0.000000 1.691420 0.000000 
#    z 0.000000 0.000000 1.669020 
# 
# From -- ./inp_files/25435.got.cif
#   From: 2010.03.12/outbox.cif.g09.slc.cpg/sg51_13_cif.got.tgz:25435.got - 2010.04.16 13:43:02.
