data_PCOD8206036
_publ_section_title
;
Structure prediction by ZEFSAII (Michael W. Deem and Ramdas Pophale) SiO2 
 PCOD8206036
Probable space group: P M M A
;
_chemical_formula_sum "Si O2"
_cell_formula_units_Z 64
_cell_length_a 8.821702
_cell_length_b 20.499348
_cell_length_c 20.058622
_cell_angle_alpha 90.000000
_cell_angle_beta 90.000000
_cell_angle_gamma 90.000000
_cell_volume 3627.383937
_symmetry_space_group_name_H-M "P M M A"
_symmetry_group_IT_number 51
_symmetry_cell_setting 'orthorhombic'
loop_
_space_group_symop_operation_xyz
x,y,z
1/2-x,-y,z
1/2+x,-y,-z
-x,y,-z
-x,-y,-z
1/2+x,y,-z
1/2-x,y,z
x,-y,z
loop_
_atom_site_type_symbol
_atom_site_label
_atom_site_fract_x
_atom_site_fract_y
_atom_site_fract_z
Si Si1 0.072191 0.074585 0.431358
Si Si2 0.070287 0.378323 0.066104
Si Si3 0.926518 0.766598 0.207832
Si Si4 0.427899 0.235743 0.936608
Si Si5 0.429971 0.619515 0.800407
Si Si6 0.429063 0.308428 0.572248
Si Si7 0.071145 0.818864 0.655740
Si Si8 0.429673 0.428160 0.658671
O O1 0.250000 0.082795 0.437968
O O2 0.000000 0.100262 0.500000
O O3 0.011801 0.117224 0.370648
O O4 0.024375 0.000000 0.417664
O O5 0.250000 0.382614 0.063119
O O6 0.013139 0.304167 0.066659
O O7 0.009174 0.411955 0.134124
O O8 0.000000 0.412999 0.000000
O O9 0.750000 0.759824 0.222585
O O10 0.956837 0.799868 0.134937
O O11 0.991162 0.693351 0.209033
O O12 0.992216 0.809393 0.268604
O O13 0.250000 0.247196 0.947968
O O14 0.500000 0.196240 0.000000
O O15 0.250000 0.617024 0.811302
O O16 0.483583 0.580616 0.734984
O O17 0.500000 0.303947 0.500000
O O18 0.250000 0.313584 0.565088
O O19 0.475887 0.244475 0.613373
O O20 0.496090 0.372255 0.610200
O O21 0.250000 0.831051 0.652706
O O22 0.250000 0.421979 0.657789
O O23 0.482747 0.500000 0.633992
#
# Coordination Sequence:
#
# PCOD8206036 Si02
#       8
#     8   8   8   8   8   8   8   8
#     4  10  21  36  52  72  99 130 163 198 237 283
#     4  10  17  25  39  62  89 117 150 187 231 281
#     4   8  14  25  43  65  90 124 157 191 233 278
#     4   9  15  24  39  60  91 126 159 192 231 276
#     4   9  15  28  47  65  88 117 152 193 236 280
#     4  10  20  33  50  72  97 123 156 197 240 285
#     4  10  18  31  51  73  99 129 163 199 236 279
#     4   9  17  31  52  72  89 118 160 198 237 291
#
# _framework density 17.64357
#
# number of rings (size 3 to 8) (size 9 to 14) (size 15 to 20)
#    0.000    2.625    1.250    3.750    0.000    2.500 
#    0.000    3.750    0.000    1.500    0.000    0.000 
#    0.000    0.500    0.000    1.125    0.000    2.125 
#
# Total GULP energy -793065.481170 kJ/mol
# GULP energy per Si atom -12391.648143 kJ/mol
# Density = 1.760341 g / cm^3
# Si number density = 17.643570 Si / 1000 Ang^3
#
#
#
# Elastic Constant Matrix: (Units=GPa)
#
#
# Indices 1 2 3 4 5 6 
#
# 1 58.1915 20.4444 39.5813 0.0000 0.0000 0.0000
# 2 20.4444 64.9553 45.6034 0.0000 0.0000 0.0000
# 3 39.5813 45.6034 154.5907 0.0000 0.0000 0.0000
# 4 0.0000 0.0000 0.0000 27.2759 0.0000 0.0000
# 5 0.0000 0.0000 0.0000 0.0000 28.2894 0.0000
# 6 0.0000 0.0000 0.0000 0.0000 0.0000 10.8357
#
#
#
# Elastic Compliance Matrix: (Units=1/GPa)
#
#
# Indices 1 2 3 4 5 6 
#
# 1 0.021476 -0.003656 -0.004420 0.000000 0.000000 0.000000
# 2 -0.003656 0.020039 -0.004975 0.000000 0.000000 0.000000
# 3 -0.004420 -0.004975 0.009068 0.000000 0.000000 0.000000
# 4 0.000000 0.000000 0.000000 0.036662 0.000000 0.000000
# 5 0.000000 0.000000 0.000000 0.000000 0.035349 0.000000
# 6 0.000000 0.000000 0.000000 0.000000 0.000000 0.092287
#
#
# Mechanical properties :
#
#
# Convention : Reuss Voigt Hill
#
# Bulk Modulus (GPa) = 40.85014 54.33285 47.59150
# Shear Modulus (GPa) = 20.06871 24.75410 22.41141
#
# Velocity S-wave (km/s) = 3.37627 3.74974 3.56790
# Velocity P-wave (km/s) = 6.19695 7.04336 6.63367
#
# Compressibility (1/GPa) = 0.02447972
#
# Stress axis : x y z
#
# Youngs Moduli (GPa) = 46.56437 49.90275 110.27694
#
# Poissons Ratio (x) = 0.18245 0.48743
# Poissons Ratio (y) = 0.17025 0.54866
# Poissons Ratio (z) = 0.20582 0.24828
#
# Static dielectric constant tensor:
#      x y z
#    x 3.111170 0.000000 0.000000 
#    y 0.000000 2.985500 0.000000 
#    z 0.000000 0.000000 3.994160 
# 
# 
# High freq. dielectric constant tensor:
#      x y z
#    x 1.658860 0.000000 0.000000 
#    y 0.000000 1.630310 0.000000 
#    z 0.000000 0.000000 1.705300 
# 
# From -- ./inp_files/32579.got.cif
#   From: 2010.03.12/outbox.cif.g09.slc.cpg/sg51_17_cif.got.tgz:32579.got - 2010.04.16 13:43:02.
