data_PCOD8206645
_publ_section_title
;
Structure prediction by ZEFSAII (Michael W. Deem and Ramdas Pophale) SiO2 
 PCOD8206645
Probable space group: P M M A
;
_chemical_formula_sum "Si O2"
_cell_formula_units_Z 56
_cell_length_a 27.752504
_cell_length_b 9.183220
_cell_length_c 13.413442
_cell_angle_alpha 90.000000
_cell_angle_beta 90.000000
_cell_angle_gamma 90.000000
_cell_volume 3418.514280
_symmetry_space_group_name_H-M "P M M A"
_symmetry_group_IT_number 51
_symmetry_cell_setting 'orthorhombic'
loop_
_space_group_symop_operation_xyz
x,y,z
1/2-x,-y,z
1/2+x,-y,-z
-x,y,-z
-x,-y,-z
1/2+x,y,-z
1/2-x,y,z
x,-y,z
loop_
_atom_site_type_symbol
_atom_site_label
_atom_site_fract_x
_atom_site_fract_y
_atom_site_fract_z
Si Si1 0.108762 0.666889 0.194211
Si Si2 0.695126 0.831070 0.729136
Si Si3 0.032817 0.170588 0.699311
Si Si4 0.476241 0.830097 0.103075
Si Si5 0.050754 0.665176 0.393664
Si Si6 0.890079 0.670326 0.410055
Si Si7 0.694829 0.832127 0.500726
O O1 0.114381 0.500000 0.162349
O O2 0.161288 0.740757 0.195883
O O3 0.073804 0.744256 0.114956
O O4 0.087601 0.686469 0.303968
O O5 0.750000 0.802916 0.762474
O O6 0.688016 0.780093 0.614841
O O7 0.681715 0.000000 0.738617
O O8 0.083912 0.251443 0.683448
O O9 0.013856 0.209114 0.809567
O O10 0.994731 0.229147 0.617971
O O11 0.039913 0.000000 0.683570
O O12 0.463622 0.000000 0.103857
O O13 0.500000 0.780234 0.000000
O O14 0.030998 0.500000 0.397432
O O15 0.078496 0.707550 0.493102
O O16 0.885532 0.500000 0.388493
O O17 0.836988 0.735226 0.426258
O O18 0.750000 0.810857 0.467940
O O19 0.679339 0.000000 0.490640
#
# Coordination Sequence:
#
# PCOD8206645 Si02
#       7
#     8   8   8   8   8   8   8
#     4  10  18  29  46  70  97 126 158 192 233 279
#     4   9  17  29  45  66  94 128 163 196 229 268
#     4  10  20  31  46  68  89 116 155 194 229 273
#     4   9  19  36  54  70  91 120 155 196 242 290
#     4   9  18  30  41  60  93 128 156 184 222 266
#     4  11  20  30  44  64  94 129 158 188 227 272
#     4   9  18  31  46  65  91 125 165 203 231 261
#
# _framework density 16.381385999999999
#
# number of rings (size 3 to 8) (size 9 to 14) (size 15 to 20)
#    0.000    2.429    1.429    2.571    0.000    4.857 
#    0.000    1.429    0.000    0.000    0.000    1.000 
#    0.000    8.000    0.000    0.000    0.000    0.000 
#
# Total GULP energy -694464.165003 kJ/mol
# GULP energy per Si atom -12401.145804 kJ/mol
# Density = 1.634410 g / cm^3
# Si number density = 16.381386 Si / 1000 Ang^3
#
#
#
# Elastic Constant Matrix: (Units=GPa)
#
#
# Indices 1 2 3 4 5 6 
#
# 1 112.4374 63.6959 39.3391 0.0000 0.0000 0.0000
# 2 63.6959 86.0442 28.5354 0.0000 0.0000 0.0000
# 3 39.3391 28.5354 45.6072 0.0000 0.0000 0.0000
# 4 0.0000 0.0000 0.0000 16.9924 0.0000 0.0000
# 5 0.0000 0.0000 0.0000 0.0000 21.7408 0.0000
# 6 0.0000 0.0000 0.0000 0.0000 0.0000 24.8233
#
#
#
# Elastic Compliance Matrix: (Units=1/GPa)
#
#
# Indices 1 2 3 4 5 6 
#
# 1 0.017824 -0.010215 -0.008982 0.000000 0.000000 0.000000
# 2 -0.010215 0.020520 -0.004027 0.000000 0.000000 0.000000
# 3 -0.008982 -0.004027 0.032194 0.000000 0.000000 0.000000
# 4 0.000000 0.000000 0.000000 0.058850 0.000000 0.000000
# 5 0.000000 0.000000 0.000000 0.000000 0.045996 0.000000
# 6 0.000000 0.000000 0.000000 0.000000 0.000000 0.040285
#
#
# Mechanical properties :
#
#
# Convention : Reuss Voigt Hill
#
# Bulk Modulus (GPa) = 41.51596 56.35883 48.93740
# Shear Modulus (GPa) = 18.50840 20.21253 19.36046
#
# Velocity S-wave (km/s) = 3.36496 3.51646 3.44154
# Velocity P-wave (km/s) = 6.36362 7.13906 6.76247
#
# Compressibility (1/GPa) = 0.02408712
#
# Stress axis : x y z
#
# Youngs Moduli (GPa) = 56.10550 48.73386 31.06160
#
# Poissons Ratio (x) = 0.49783 0.27901
# Poissons Ratio (y) = 0.57314 0.12509
# Poissons Ratio (z) = 0.50396 0.19627
#
# Static dielectric constant tensor:
#      x y z
#    x 3.086600 0.000000 0.000000 
#    y 0.000000 3.098020 0.000000 
#    z 0.000000 0.000000 2.801620 
# 
# 
# High freq. dielectric constant tensor:
#      x y z
#    x 1.630310 0.000000 0.000000 
#    y 0.000000 1.637260 0.000000 
#    z 0.000000 0.000000 1.585200 
# 
# From -- ./inp_files/26478.got.cif
#   From: 2010.03.12/outbox.cif.g09.slc.cpg/sg51_14_cif.got.tgz:26478.got - 2010.04.16 13:43:02.
