data_PCOD8206227
_publ_section_title
;
Structure prediction by ZEFSAII (Michael W. Deem and Ramdas Pophale) SiO2 
 PCOD8206227
Probable space group: P M M A
;
_chemical_formula_sum "Si O2"
_cell_formula_units_Z 56
_cell_length_a 21.428738
_cell_length_b 16.068695
_cell_length_c 9.181255
_cell_angle_alpha 90.000000
_cell_angle_beta 90.000000
_cell_angle_gamma 90.000000
_cell_volume 3161.398567
_symmetry_space_group_name_H-M "P M M A"
_symmetry_group_IT_number 51
_symmetry_cell_setting 'orthorhombic'
loop_
_space_group_symop_operation_xyz
x,y,z
1/2-x,-y,z
1/2+x,-y,-z
-x,y,-z
-x,-y,-z
1/2+x,y,-z
1/2-x,y,z
x,-y,z
loop_
_atom_site_type_symbol
_atom_site_label
_atom_site_fract_x
_atom_site_fract_y
_atom_site_fract_z
Si Si1 0.178102 0.269886 0.436068
Si Si2 0.983136 0.719887 0.836631
Si Si3 0.822776 0.906198 0.094475
Si Si4 0.617441 0.246219 0.257276
Si Si5 0.140956 0.186530 0.163422
Si Si6 0.113767 0.593836 0.248816
Si Si7 0.679722 0.341264 0.013313
O O1 0.250000 0.274158 0.481665
O O2 0.136754 0.255431 0.576984
O O3 0.165526 0.190525 0.329401
O O4 0.159031 0.356277 0.358378
O O5 0.932923 0.794702 0.842240
O O6 0.953170 0.639792 0.756361
O O7 0.042625 0.750879 0.747238
O O8 0.000000 0.693530 0.000000
O O9 0.750000 0.886873 0.112643
O O10 0.860630 0.842677 0.195653
O O11 0.838329 0.000000 0.143931
O O12 0.843751 0.898185 0.923489
O O13 0.645214 0.324411 0.166704
O O14 0.180204 0.255550 0.075452
O O15 0.105197 0.500000 0.305700
O O16 0.143298 0.591488 0.085628
O O17 0.750000 0.371967 0.043560
#
# Coordination Sequence:
#
# PCOD8206227 Si02
#       7
#     8   8   8   8   8   8   8
#     4  10  20  34  55  78 104 145 181 214 266 326
#     4  10  17  35  55  79 102 140 185 220 262 314
#     4  10  19  32  54  83 110 137 177 229 272 308
#     4  11  19  34  54  78 109 140 180 220 264 324
#     4   9  17  31  52  74 103 138 180 212 251 316
#     4  10  21  35  54  76 102 139 179 228 273 311
#     4   9  16  29  51  73  95 132 176 215 258 310
#
# _framework density 17.71368
#
# number of rings (size 3 to 8) (size 9 to 14) (size 15 to 20)
#    0.000    2.429    4.286    4.714    0.000    3.714 
#    0.000    4.286    0.000    4.286    0.000    5.000 
#    0.000    0.000    0.000    0.000    0.000    0.000 
#
# Total GULP energy -694084.290135 kJ/mol
# GULP energy per Si atom -12394.362324 kJ/mol
# Density = 1.767336 g / cm^3
# Si number density = 17.713680 Si / 1000 Ang^3
#
#
#
# Elastic Constant Matrix: (Units=GPa)
#
#
# Indices 1 2 3 4 5 6 
#
# 1 122.8774 34.3341 9.9066 0.0000 0.0000 0.0000
# 2 34.3341 70.4496 13.3396 0.0000 0.0000 0.0000
# 3 9.9066 13.3396 79.5359 0.0000 0.0000 0.0000
# 4 0.0000 0.0000 0.0000 14.1811 0.0000 0.0000
# 5 0.0000 0.0000 0.0000 0.0000 29.7205 0.0000
# 6 0.0000 0.0000 0.0000 0.0000 0.0000 17.5506
#
#
#
# Elastic Compliance Matrix: (Units=1/GPa)
#
#
# Indices 1 2 3 4 5 6 
#
# 1 0.009435 -0.004519 -0.000417 0.000000 0.000000 0.000000
# 2 -0.004519 0.016825 -0.002259 0.000000 0.000000 0.000000
# 3 -0.000417 -0.002259 0.013004 0.000000 0.000000 0.000000
# 4 0.000000 0.000000 0.000000 0.070516 0.000000 0.000000
# 5 0.000000 0.000000 0.000000 0.000000 0.033647 0.000000
# 6 0.000000 0.000000 0.000000 0.000000 0.000000 0.056978
#
#
# Mechanical properties :
#
#
# Convention : Reuss Voigt Hill
#
# Bulk Modulus (GPa) = 40.20477 43.11375 41.65926
# Shear Modulus (GPa) = 22.41297 26.64263 24.52780
#
# Velocity S-wave (km/s) = 3.56095 3.88244 3.72517
# Velocity P-wave (km/s) = 6.29710 6.67007 6.48627
#
# Compressibility (1/GPa) = 0.02487267
#
# Stress axis : x y z
#
# Youngs Moduli (GPa) = 105.99385 59.43671 76.90083
#
# Poissons Ratio (x) = 0.26859 0.03208
# Poissons Ratio (y) = 0.47898 0.17371
# Poissons Ratio (z) = 0.04422 0.13426
#
# Static dielectric constant tensor:
#      x y z
#    x 3.421050 0.000000 0.000000 
#    y 0.000000 3.068290 0.000000 
#    z 0.000000 0.000000 3.350170 
# 
# 
# High freq. dielectric constant tensor:
#      x y z
#    x 1.697910 0.000000 0.000000 
#    y 0.000000 1.644390 0.000000 
#    z 0.000000 0.000000 1.676420 
# 
# From -- ./inp_files/11159.got.cif
#   From: 2010.03.12/outbox.cif.g09.slc.cpg/sg51_6_cif.got.tgz:11159.got - 2010.04.16 13:43:02.
