data_PCOD8206661
_publ_section_title
;
Structure prediction by ZEFSAII (Michael W. Deem and Ramdas Pophale) SiO2 
 PCOD8206661
Probable space group: P M M A
;
_chemical_formula_sum "Si O2"
_cell_formula_units_Z 64
_cell_length_a 18.334387
_cell_length_b 9.003470
_cell_length_c 21.732868
_cell_angle_alpha 90.000000
_cell_angle_beta 90.000000
_cell_angle_gamma 90.000000
_cell_volume 3587.511965
_symmetry_space_group_name_H-M "P M M A"
_symmetry_group_IT_number 51
_symmetry_cell_setting 'orthorhombic'
loop_
_space_group_symop_operation_xyz
x,y,z
1/2-x,-y,z
1/2+x,-y,-z
-x,y,-z
-x,-y,-z
1/2+x,y,-z
1/2-x,y,z
x,-y,z
loop_
_atom_site_type_symbol
_atom_site_label
_atom_site_fract_x
_atom_site_fract_y
_atom_site_fract_z
Si Si1 0.663262 0.834009 0.381832
Si Si2 0.335076 0.672574 0.740831
Si Si3 0.332611 0.173706 0.134159
Si Si4 0.330869 0.323545 0.366069
Si Si5 0.454632 0.824288 0.811801
Si Si6 0.662974 0.665751 0.499863
Si Si7 0.028160 0.174666 0.063545
Si Si8 0.091188 0.323408 0.244072
O O1 0.750000 0.834116 0.385022
O O2 0.637215 0.734424 0.324651
O O3 0.631136 0.768231 0.445399
O O4 0.632750 0.000000 0.372917
O O5 0.250000 0.703189 0.750593
O O6 0.354261 0.500000 0.743405
O O7 0.375721 0.758258 0.795829
O O8 0.250000 0.205480 0.112032
O O9 0.389041 0.224773 0.080510
O O10 0.348845 0.266106 0.195566
O O11 0.344857 0.000000 0.149229
O O12 0.250000 0.257409 0.353966
O O13 0.325203 0.500000 0.367651
O O14 0.360997 0.270494 0.433034
O O15 0.384157 0.271224 0.311877
O O16 0.473572 0.778565 0.881746
O O17 0.513395 0.751854 0.766332
O O18 0.455187 0.000000 0.802857
O O19 0.750000 0.661378 0.497685
O O20 0.632001 0.500000 0.489467
O O21 0.027301 0.000000 0.054825
O O22 0.000000 0.250471 0.000000
O O23 0.084674 0.500000 0.238260
#
# Coordination Sequence:
#
# PCOD8206661 Si02
#       8
#     8   8   8   8   8   8   8   8
#     4   9  16  26  42  66  94 121 152 193 240 286
#     4  10  20  34  53  75  97 123 157 196 239 288
#     4   9  17  29  46  70  99 129 164 208 252 288
#     4   8  14  24  40  64  92 123 161 202 238 276
#     4  10  20  34  52  74  99 125 155 194 240 286
#     4   8  13  23  39  59  86 120 157 195 235 280
#     4   8  15  30  51  73  98 130 166 201 238 285
#     4  10  18  29  47  69  95 129 166 200 238 287
#
# _framework density 17.839662000000001
#
# number of rings (size 3 to 8) (size 9 to 14) (size 15 to 20)
#    0.000    3.000    0.000    3.375    0.000    3.000 
#    0.000    1.875    0.000   15.375    0.000    5.250 
#    0.000    0.000    0.000    0.000    0.000    0.000 
#
# Total GULP energy -793274.565340 kJ/mol
# GULP energy per Si atom -12394.915083 kJ/mol
# Density = 1.779906 g / cm^3
# Si number density = 17.839662 Si / 1000 Ang^3
#
#
#
# Elastic Constant Matrix: (Units=GPa)
#
#
# Indices 1 2 3 4 5 6 
#
# 1 73.6170 36.5709 65.3366 0.0000 0.0000 0.0000
# 2 36.5709 74.1896 45.9422 0.0000 0.0000 0.0000
# 3 65.3366 45.9422 143.3038 0.0000 0.0000 0.0000
# 4 0.0000 0.0000 0.0000 21.6974 0.0000 0.0000
# 5 0.0000 0.0000 0.0000 0.0000 22.4255 0.0000
# 6 0.0000 0.0000 0.0000 0.0000 0.0000 22.8771
#
#
#
# Elastic Compliance Matrix: (Units=1/GPa)
#
#
# Indices 1 2 3 4 5 6 
#
# 1 0.025175 -0.006615 -0.009357 0.000000 0.000000 0.000000
# 2 -0.006615 0.018556 -0.002933 0.000000 0.000000 0.000000
# 3 -0.009357 -0.002933 0.012185 0.000000 0.000000 0.000000
# 4 0.000000 0.000000 0.000000 0.046089 0.000000 0.000000
# 5 0.000000 0.000000 0.000000 0.000000 0.044592 0.000000
# 6 0.000000 0.000000 0.000000 0.000000 0.000000 0.043712
#
#
# Mechanical properties :
#
#
# Convention : Reuss Voigt Hill
#
# Bulk Modulus (GPa) = 55.23321 65.20108 60.21715
# Shear Modulus (GPa) = 21.35356 22.95073 22.15214
#
# Velocity S-wave (km/s) = 3.46348 3.59067 3.52765
# Velocity P-wave (km/s) = 6.85729 7.33610 7.10073
#
# Compressibility (1/GPa) = 0.01810505
#
# Stress axis : x y z
#
# Youngs Moduli (GPa) = 39.72240 53.89088 82.07036
#
# Poissons Ratio (x) = 0.35649 0.76795
# Poissons Ratio (y) = 0.26277 0.24070
# Poissons Ratio (z) = 0.37169 0.15806
#
# Static dielectric constant tensor:
#      x y z
#    x 3.118290 0.000000 0.000000 
#    y 0.000000 3.187060 0.000000 
#    z 0.000000 0.000000 3.601980 
# 
# 
# High freq. dielectric constant tensor:
#      x y z
#    x 1.662200 0.000000 0.000000 
#    y 0.000000 1.673470 0.000000 
#    z 0.000000 0.000000 1.690480 
# 
# From -- ./inp_files/34118.got.cif
#   From: 2010.03.12/outbox.cif.g09.slc.cpg/sg51_18_cif.got.tgz:34118.got - 2010.04.16 13:43:02.
