data_PCOD8206223
_publ_section_title
;
Structure prediction by ZEFSAII (Michael W. Deem and Ramdas Pophale) SiO2 
 PCOD8206223
Probable space group: P M M A
;
_chemical_formula_sum "Si O2"
_cell_formula_units_Z 64
_cell_length_a 17.364974
_cell_length_b 21.780018
_cell_length_c 9.023280
_cell_angle_alpha 90.000000
_cell_angle_beta 90.000000
_cell_angle_gamma 90.000000
_cell_volume 3412.689733
_symmetry_space_group_name_H-M "P M M A"
_symmetry_group_IT_number 51
_symmetry_cell_setting 'orthorhombic'
loop_
_space_group_symop_operation_xyz
x,y,z
1/2-x,-y,z
1/2+x,-y,-z
-x,y,-z
-x,-y,-z
1/2+x,y,-z
1/2-x,y,z
x,-y,z
loop_
_atom_site_type_symbol
_atom_site_label
_atom_site_fract_x
_atom_site_fract_y
_atom_site_fract_z
Si Si1 0.083924 0.856404 0.968525
Si Si2 0.944720 0.752493 0.261077
Si Si3 0.566855 0.630991 0.108105
Si Si4 0.031039 0.570424 0.338569
Si Si5 0.619992 0.223745 0.765602
Si Si6 0.662066 0.360075 0.832778
Si Si7 0.664133 0.818627 0.461073
Si Si8 0.659697 0.932423 0.275160
O O1 0.077960 0.795696 0.872239
O O2 0.132776 0.908101 0.885310
O O3 0.123374 0.831637 0.116856
O O4 0.000000 0.884998 0.000000
O O5 0.915632 0.684722 0.222863
O O6 0.896353 0.768544 0.405835
O O7 0.035208 0.757817 0.291125
O O8 0.535721 0.575115 0.211025
O O9 0.500000 0.656029 0.000000
O O10 0.638510 0.615729 0.999031
O O11 0.057118 0.500000 0.348912
O O12 0.105648 0.610509 0.291325
O O13 0.000000 0.592822 0.500000
O O14 0.659366 0.285955 0.825472
O O15 0.667606 0.190801 0.635950
O O16 0.750000 0.381356 0.803517
O O17 0.750000 0.807864 0.395273
O O18 0.634990 0.886347 0.408385
O O19 0.750000 0.938622 0.267566
O O20 0.623436 0.000000 0.305478
#
# Coordination Sequence:
#
# PCOD8206223 Si02
#       8
#     8   8   8   8   8   8   8   8
#     4   9  18  32  55  79 106 137 176 229 277 325
#     4  10  17  33  56  78 107 148 182 217 272 342
#     4  10  18  36  59  83 113 149 190 229 278 349
#     4  10  23  42  64  87 114 158 207 243 281 344
#     4  11  19  34  53  83 117 142 181 231 292 345
#     4  11  23  36  58  91 124 154 188 247 303 345
#     4  10  22  33  49  81 113 145 183 230 287 337
#     4   9  19  37  55  72 103 150 193 224 270 341
#
# _framework density 18.753537000000001
#
# number of rings (size 3 to 8) (size 9 to 14) (size 15 to 20)
#    0.000    2.000    3.750    1.125    1.750    4.250 
#    0.000    1.250    0.000   12.000    0.000    0.000 
#    0.000    0.000    0.000    0.000    0.000    0.000 
#
# Total GULP energy -793143.704885 kJ/mol
# GULP energy per Si atom -12392.870389 kJ/mol
# Density = 1.871085 g / cm^3
# Si number density = 18.753537 Si / 1000 Ang^3
#
#
#
# Elastic Constant Matrix: (Units=GPa)
#
#
# Indices 1 2 3 4 5 6 
#
# 1 76.9574 24.2390 37.8384 0.0000 0.0000 0.0000
# 2 24.2390 79.9491 32.7706 0.0000 0.0000 0.0000
# 3 37.8384 32.7706 104.5433 0.0000 0.0000 0.0000
# 4 0.0000 0.0000 0.0000 14.5735 0.0000 0.0000
# 5 0.0000 0.0000 0.0000 0.0000 25.2812 0.0000
# 6 0.0000 0.0000 0.0000 0.0000 0.0000 19.7872
#
#
#
# Elastic Compliance Matrix: (Units=1/GPa)
#
#
# Indices 1 2 3 4 5 6 
#
# 1 0.016376 -0.002909 -0.005015 0.000000 0.000000 0.000000
# 2 -0.002909 0.014869 -0.003608 0.000000 0.000000 0.000000
# 3 -0.005015 -0.003608 0.012512 0.000000 0.000000 0.000000
# 4 0.000000 0.000000 0.000000 0.068618 0.000000 0.000000
# 5 0.000000 0.000000 0.000000 0.000000 0.039555 0.000000
# 6 0.000000 0.000000 0.000000 0.000000 0.000000 0.050538
#
#
# Mechanical properties :
#
#
# Convention : Reuss Voigt Hill
#
# Bulk Modulus (GPa) = 48.32799 50.12732 49.22766
# Shear Modulus (GPa) = 21.51187 23.03516 22.27351
#
# Velocity S-wave (km/s) = 3.39054 3.50853 3.45004
# Velocity P-wave (km/s) = 6.41511 6.57271 6.49439
#
# Compressibility (1/GPa) = 0.02069194
#
# Stress axis : x y z
#
# Youngs Moduli (GPa) = 61.06317 67.25482 79.92570
#
# Poissons Ratio (x) = 0.19566 0.40086
# Poissons Ratio (y) = 0.17765 0.28836
# Poissons Ratio (z) = 0.30625 0.24265
#
# Static dielectric constant tensor:
#      x y z
#    x 3.603210 0.000000 0.000000 
#    y 0.000000 3.385410 0.000000 
#    z 0.000000 0.000000 3.664680 
# 
# 
# High freq. dielectric constant tensor:
#      x y z
#    x 1.715200 0.000000 0.000000 
#    y 0.000000 1.711700 0.000000 
#    z 0.000000 0.000000 1.731070 
# 
# From -- ./inp_files/10062.got.cif
#   From: 2010.03.12/outbox.cif.g09.slc.cpg/sg51_6_cif.got.tgz:10062.got - 2010.04.16 13:43:02.
