data_PCOD8206297
_publ_section_title
;
Structure prediction by ZEFSAII (Michael W. Deem and Ramdas Pophale) SiO2 
 PCOD8206297
Probable space group: P M M A
;
_chemical_formula_sum "Si O2"
_cell_formula_units_Z 52
_cell_length_a 8.742426
_cell_length_b 26.713089
_cell_length_c 13.520579
_cell_angle_alpha 90.000000
_cell_angle_beta 90.000000
_cell_angle_gamma 90.000000
_cell_volume 3157.558214
_symmetry_space_group_name_H-M "P M M A"
_symmetry_group_IT_number 51
_symmetry_cell_setting 'orthorhombic'
loop_
_space_group_symop_operation_xyz
x,y,z
1/2-x,-y,z
1/2+x,-y,-z
-x,y,-z
-x,-y,-z
1/2+x,y,-z
1/2-x,y,z
x,-y,z
loop_
_atom_site_type_symbol
_atom_site_label
_atom_site_fract_x
_atom_site_fract_y
_atom_site_fract_z
Si Si1 0.429195 0.554180 0.608170
Si Si2 0.430570 0.756898 0.302698
Si Si3 0.430229 0.096324 0.208166
Si Si4 0.073476 0.197098 0.102146
Si Si5 0.429400 0.652332 0.392199
Si Si6 0.068102 0.851433 0.604561
Si Si7 0.569048 0.000000 0.108950
O O1 0.500000 0.552661 0.500000
O O2 0.250000 0.563484 0.599794
O O3 0.462856 0.500000 0.660405
O O4 0.505164 0.602151 0.662531
O O5 0.250000 0.767826 0.315162
O O6 0.485292 0.767235 0.190609
O O7 0.474744 0.700012 0.326599
O O8 0.519614 0.793994 0.375992
O O9 0.250000 0.086363 0.218712
O O10 0.464753 0.139784 0.128740
O O11 0.497282 0.111620 0.314045
O O12 0.515578 0.047737 0.170084
O O13 0.250000 0.205384 0.087252
O O14 0.000000 0.213744 0.000000
O O15 0.500000 0.659439 0.500000
O O16 0.250000 0.646867 0.403323
O O17 0.250000 0.856048 0.604389
O O18 0.000000 0.868790 0.500000
O O19 0.750000 0.000000 0.098820
O O20 0.500000 0.000000 0.000000
#
# Coordination Sequence:
#
# PCOD8206297 Si02
#       7
#     8   8   8   8   8   8   4
#     4   9  16  25  37  54  79 112 149 187 226 269
#     4   9  19  33  46  66  95 125 157 195 234 275
#     4  10  21  38  56  76 102 130 160 198 238 280
#     4   9  18  32  50  70  94 121 151 186 228 276
#     4  10  18  27  41  60  86 119 154 191 229 268
#     4  11  21  34  53  75  99 130 164 197 234 280
#     4  12  24  38  57  82 107 132 162 198 242 288
#
# _framework density 16.468422
#
# number of rings (size 3 to 8) (size 9 to 14) (size 15 to 20)
#    0.000    2.154    0.000    6.231    0.000    7.692 
#    0.000    0.385    0.000    0.000    0.000    0.000 
#    0.000    0.615    0.000    1.385    0.000    2.769 
#
# Total GULP energy -644609.768099 kJ/mol
# GULP energy per Si atom -12396.341694 kJ/mol
# Density = 1.643094 g / cm^3
# Si number density = 16.468422 Si / 1000 Ang^3
#
#
#
# Elastic Constant Matrix: (Units=GPa)
#
#
# Indices 1 2 3 4 5 6 
#
# 1 96.3638 63.1984 43.8920 0.0000 0.0000 0.0000
# 2 63.1984 126.3025 39.6417 0.0000 0.0000 0.0000
# 3 43.8920 39.6417 86.2190 0.0000 0.0000 0.0000
# 4 0.0000 0.0000 0.0000 11.5695 0.0000 0.0000
# 5 0.0000 0.0000 0.0000 0.0000 26.2299 0.0000
# 6 0.0000 0.0000 0.0000 0.0000 0.0000 24.5788
#
#
#
# Elastic Compliance Matrix: (Units=1/GPa)
#
#
# Indices 1 2 3 4 5 6 
#
# 1 0.017576 -0.006996 -0.005731 0.000000 0.000000 0.000000
# 2 -0.006996 0.012037 -0.001973 0.000000 0.000000 0.000000
# 3 -0.005731 -0.001973 0.015423 0.000000 0.000000 0.000000
# 4 0.000000 0.000000 0.000000 0.086434 0.000000 0.000000
# 5 0.000000 0.000000 0.000000 0.000000 0.038124 0.000000
# 6 0.000000 0.000000 0.000000 0.000000 0.000000 0.040685
#
#
# Mechanical properties :
#
#
# Convention : Reuss Voigt Hill
#
# Bulk Modulus (GPa) = 63.95278 66.92772 65.44025
# Shear Modulus (GPa) = 20.41717 23.28583 21.85150
#
# Velocity S-wave (km/s) = 3.52487 3.76436 3.64658
# Velocity P-wave (km/s) = 7.44877 7.72153 7.58638
#
# Compressibility (1/GPa) = 0.01563654
#
# Stress axis : x y z
#
# Youngs Moduli (GPa) = 56.89697 83.07552 64.83803
#
# Poissons Ratio (x) = 0.58117 0.37158
# Poissons Ratio (y) = 0.39803 0.12794
# Poissons Ratio (z) = 0.32607 0.16392
#
# Static dielectric constant tensor:
#      x y z
#    x 3.212010 0.000000 0.000000 
#    y 0.000000 3.569280 0.000000 
#    z 0.000000 0.000000 3.095480 
# 
# 
# High freq. dielectric constant tensor:
#      x y z
#    x 1.648440 0.000000 0.000000 
#    y 0.000000 1.637510 0.000000 
#    z 0.000000 0.000000 1.602960 
# 
# From -- ./inp_files/14627.got.cif
#   From: 2010.03.12/outbox.cif.g09.slc.cpg/sg51_8_cif.got.tgz:14627.got - 2010.04.16 13:43:02.
