data_PCOD8206145
_publ_section_title
;
Structure prediction by ZEFSAII (Michael W. Deem and Ramdas Pophale) SiO2 
 PCOD8206145
Probable space group: P M M A
;
_chemical_formula_sum "Si O2"
_cell_formula_units_Z 56
_cell_length_a 20.473403
_cell_length_b 9.094168
_cell_length_c 17.798055
_cell_angle_alpha 90.000000
_cell_angle_beta 90.000000
_cell_angle_gamma 90.000000
_cell_volume 3313.794345
_symmetry_space_group_name_H-M "P M M A"
_symmetry_group_IT_number 51
_symmetry_cell_setting 'orthorhombic'
loop_
_space_group_symop_operation_xyz
x,y,z
1/2-x,-y,z
1/2+x,-y,-z
-x,y,-z
-x,-y,-z
1/2+x,y,-z
1/2-x,y,z
x,-y,z
loop_
_atom_site_type_symbol
_atom_site_label
_atom_site_fract_x
_atom_site_fract_y
_atom_site_fract_z
Si Si1 0.061950 0.662649 0.348234
Si Si2 0.534621 0.674034 0.814316
Si Si3 0.600199 0.826495 0.219038
Si Si4 0.068506 0.826817 0.039169
Si Si5 0.177886 0.173246 0.925547
Si Si6 0.922567 0.164772 0.510622
Si Si7 0.592842 0.334767 0.367012
O O1 0.089334 0.500000 0.364947
O O2 0.075835 0.708387 0.261874
O O3 0.096039 0.772194 0.407183
O O4 0.984527 0.663558 0.358750
O O5 0.522120 0.500000 0.821965
O O6 0.465882 0.756636 0.812359
O O7 0.575816 0.737066 0.883604
O O8 0.656184 0.788727 0.159045
O O9 0.623025 0.757548 0.298139
O O10 0.588968 0.000000 0.229016
O O11 0.074294 0.000000 0.055652
O O12 0.126312 0.765487 0.986115
O O13 0.000000 0.789766 0.000000
O O14 0.250000 0.241346 0.939439
O O15 0.180067 0.000000 0.935498
O O16 0.887491 0.259546 0.445819
O O17 0.000000 0.169042 0.500000
O O18 0.895467 0.000000 0.505742
O O19 0.621111 0.500000 0.365736
#
# Coordination Sequence:
#
# PCOD8206145 Si02
#       7
#     8   8   8   8   8   8   8
#     4   8  15  25  35  51  80 115 146 178 220 270
#     4  10  19  29  43  65  91 120 152 188 234 280
#     4  10  17  28  45  64  87 115 154 194 227 269
#     4  10  18  31  49  70  90 116 156 197 234 276
#     4   9  18  32  49  68  92 121 152 191 240 284
#     4   9  15  22  34  54  79 111 149 184 220 262
#     4   9  16  25  37  55  82 116 150 182 222 268
#
# _framework density 16.899056999999999
#
# number of rings (size 3 to 8) (size 9 to 14) (size 15 to 20)
#    0.000    2.714    1.429    2.571    0.000    6.000 
#    0.000    0.000    0.000    3.857    0.000    0.000 
#    0.000    1.143    0.000   11.143    0.000    5.143 
#
# Total GULP energy -694167.319174 kJ/mol
# GULP energy per Si atom -12395.844985 kJ/mol
# Density = 1.686059 g / cm^3
# Si number density = 16.899057 Si / 1000 Ang^3
#
#
#
# Elastic Constant Matrix: (Units=GPa)
#
#
# Indices 1 2 3 4 5 6 
#
# 1 58.0786 24.6668 43.7627 0.0000 0.0000 0.0000
# 2 24.6668 103.4274 72.9730 0.0000 0.0000 0.0000
# 3 43.7627 72.9730 164.8691 0.0000 0.0000 0.0000
# 4 0.0000 0.0000 0.0000 34.4592 0.0000 0.0000
# 5 0.0000 0.0000 0.0000 0.0000 9.9447 0.0000
# 6 0.0000 0.0000 0.0000 0.0000 0.0000 3.6972
#
#
#
# Elastic Compliance Matrix: (Units=1/GPa)
#
#
# Indices 1 2 3 4 5 6 
#
# 1 0.021707 -0.001617 -0.005046 0.000000 0.000000 0.000000
# 2 -0.001617 0.014179 -0.005847 0.000000 0.000000 0.000000
# 3 -0.005046 -0.005847 0.009993 0.000000 0.000000 0.000000
# 4 0.000000 0.000000 0.000000 0.029020 0.000000 0.000000
# 5 0.000000 0.000000 0.000000 0.000000 0.100556 0.000000
# 6 0.000000 0.000000 0.000000 0.000000 0.000000 0.270478
#
#
# Mechanical properties :
#
#
# Convention : Reuss Voigt Hill
#
# Bulk Modulus (GPa) = 47.93929 67.68669 57.81299
# Shear Modulus (GPa) = 10.46229 21.95170 16.20699
#
# Velocity S-wave (km/s) = 2.49088 3.60806 3.10021
# Velocity P-wave (km/s) = 6.05824 7.58274 6.86295
#
# Compressibility (1/GPa) = 0.02085972
#
# Stress axis : x y z
#
# Youngs Moduli (GPa) = 46.06777 70.52478 100.07155
#
# Poissons Ratio (x) = 0.11400 0.50501
# Poissons Ratio (y) = 0.07447 0.58511
# Poissons Ratio (z) = 0.23248 0.41235
#
# Static dielectric constant tensor:
#      x y z
#    x 2.696930 0.000000 0.000000 
#    y 0.000000 3.191580 0.000000 
#    z 0.000000 0.000000 3.505750 
# 
# 
# High freq. dielectric constant tensor:
#      x y z
#    x 1.573880 0.000000 0.000000 
#    y 0.000000 1.650790 0.000000 
#    z 0.000000 0.000000 1.671400 
# 
# From -- ./inp_files/30434.got.cif
#   From: 2010.03.12/outbox.cif.g09.slc.cpg/sg51_16_cif.got.tgz:30434.got - 2010.04.16 13:43:02.
