data_PCOD8206035
_publ_section_title
;
Structure prediction by ZEFSAII (Michael W. Deem and Ramdas Pophale) SiO2 
 PCOD8206035
Probable space group: P M M A
;
_chemical_formula_sum "Si O2"
_cell_formula_units_Z 56
_cell_length_a 26.899574
_cell_length_b 9.116206
_cell_length_c 14.571860
_cell_angle_alpha 90.000000
_cell_angle_beta 90.000000
_cell_angle_gamma 90.000000
_cell_volume 3573.341497
_symmetry_space_group_name_H-M "P M M A"
_symmetry_group_IT_number 51
_symmetry_cell_setting 'orthorhombic'
loop_
_space_group_symop_operation_xyz
x,y,z
1/2-x,-y,z
1/2+x,-y,-z
-x,y,-z
-x,-y,-z
1/2+x,y,-z
1/2-x,y,z
x,-y,z
loop_
_atom_site_type_symbol
_atom_site_label
_atom_site_fract_x
_atom_site_fract_y
_atom_site_fract_z
Si Si1 0.124848 0.828073 0.757943
Si Si2 0.806581 0.325852 0.374103
Si Si3 0.954705 0.666600 0.355897
Si Si4 0.065640 0.672257 0.305322
Si Si5 0.614751 0.667499 0.517185
Si Si6 0.955920 0.173482 0.875261
Si Si7 0.564165 0.172462 0.074978
O O1 0.173159 0.741875 0.721336
O O2 0.075933 0.783420 0.702582
O O3 0.112513 0.785338 0.864204
O O4 0.134695 0.000000 0.746779
O O5 0.750000 0.276758 0.389153
O O6 0.812194 0.500000 0.366062
O O7 0.839369 0.261754 0.459337
O O8 0.944195 0.500000 0.321024
O O9 0.936812 0.681038 0.461094
O O10 0.011982 0.707824 0.347978
O O11 0.072734 0.500000 0.289762
O O12 0.105400 0.734313 0.380910
O O13 0.073385 0.752363 0.208695
O O14 0.629432 0.500000 0.532199
O O15 0.012780 0.233867 0.880426
O O16 0.953270 0.000000 0.861048
O O17 0.928722 0.224453 0.969842
O O18 0.555981 0.000000 0.073641
#
# Coordination Sequence:
#
# PCOD8206035 Si02
#       7
#     8   8   8   8   8   8   8
#     4  10  17  27  45  66  86 110 143 180 215 249
#     4   9  18  33  50  66  84 109 140 173 215 267
#     4   9  16  26  39  57  84 118 147 170 202 248
#     4  10  17  25  39  61  86 113 146 182 210 238
#     4   8  15  27  42  59  82 112 142 171 208 255
#     4   9  16  28  42  56  82 119 152 175 201 243
#     4   8  15  27  42  58  81 117 150 173 203 248
#
# _framework density 15.671606000000001
#
# number of rings (size 3 to 8) (size 9 to 14) (size 15 to 20)
#    0.000    3.000    1.429    2.571    0.000    2.000 
#    0.000    5.714    0.000    4.286    0.000    1.000 
#    0.000    3.429    0.000    0.000    0.000    0.000 
#
# Total GULP energy -693761.390866 kJ/mol
# GULP energy per Si atom -12388.596265 kJ/mol
# Density = 1.563594 g / cm^3
# Si number density = 15.671606 Si / 1000 Ang^3
#
#
#
# Elastic Constant Matrix: (Units=GPa)
#
#
# Indices 1 2 3 4 5 6 
#
# 1 78.3994 22.2327 58.9010 0.0000 0.0000 0.0000
# 2 22.2327 27.4763 28.9954 0.0000 0.0000 0.0000
# 3 58.9010 28.9954 130.8232 0.0000 0.0000 0.0000
# 4 0.0000 0.0000 0.0000 22.9416 0.0000 0.0000
# 5 0.0000 0.0000 0.0000 0.0000 16.5319 0.0000
# 6 0.0000 0.0000 0.0000 0.0000 0.0000 11.4906
#
#
#
# Elastic Compliance Matrix: (Units=1/GPa)
#
#
# Indices 1 2 3 4 5 6 
#
# 1 0.020886 -0.009107 -0.007385 0.000000 0.000000 0.000000
# 2 -0.009107 0.051477 -0.007309 0.000000 0.000000 0.000000
# 3 -0.007385 -0.007309 0.012589 0.000000 0.000000 0.000000
# 4 0.000000 0.000000 0.000000 0.043589 0.000000 0.000000
# 5 0.000000 0.000000 0.000000 0.000000 0.060489 0.000000
# 6 0.000000 0.000000 0.000000 0.000000 0.000000 0.087028
#
#
# Mechanical properties :
#
#
# Convention : Reuss Voigt Hill
#
# Bulk Modulus (GPa) = 26.77372 50.77301 38.77337
# Shear Modulus (GPa) = 14.87606 18.63080 16.75343
#
# Velocity S-wave (km/s) = 3.08431 3.45168 3.27315
# Velocity P-wave (km/s) = 5.45942 6.95369 6.25136
#
# Compressibility (1/GPa) = 0.03735006
#
# Stress axis : x y z
#
# Youngs Moduli (GPa) = 47.87851 19.42612 79.43445
#
# Poissons Ratio (x) = 0.17691 0.58665
# Poissons Ratio (y) = 0.43601 0.58060
# Poissons Ratio (z) = 0.35360 0.14199
#
# Static dielectric constant tensor:
#      x y z
#    x 2.831860 0.000000 0.000000 
#    y 0.000000 2.737870 0.000000 
#    z 0.000000 0.000000 3.288510 
# 
# 
# High freq. dielectric constant tensor:
#      x y z
#    x 1.560060 0.000000 0.000000 
#    y 0.000000 1.575980 0.000000 
#    z 0.000000 0.000000 1.605670 
# 
# From -- ./inp_files/26496.got.cif
#   From: 2010.03.12/outbox.cif.g09.slc.cpg/sg51_14_cif.got.tgz:26496.got - 2010.04.16 13:43:02.
