data_PCOD8206366
_publ_section_title
;
Structure prediction by ZEFSAII (Michael W. Deem and Ramdas Pophale) SiO2 
 PCOD8206366
Probable space group: P M M A
;
_chemical_formula_sum "Si O2"
_cell_formula_units_Z 32
_cell_length_a 10.410715
_cell_length_b 18.421774
_cell_length_c 8.527963
_cell_angle_alpha 90.000000
_cell_angle_beta 90.000000
_cell_angle_gamma 90.000000
_cell_volume 1635.525482
_symmetry_space_group_name_H-M "P M M A"
_symmetry_group_IT_number 51
_symmetry_cell_setting 'orthorhombic'
loop_
_space_group_symop_operation_xyz
x,y,z
1/2-x,-y,z
1/2+x,-y,-z
-x,y,-z
-x,-y,-z
1/2+x,y,-z
1/2-x,y,z
x,-y,z
loop_
_atom_site_type_symbol
_atom_site_label
_atom_site_fract_x
_atom_site_fract_y
_atom_site_fract_z
Si Si1 0.979759 0.320396 0.812735
Si Si2 0.014208 0.166707 0.315664
Si Si3 0.750000 0.414921 0.842808
Si Si4 0.250000 0.167655 0.858487
Si Si5 0.750000 0.914636 0.817854
Si Si6 0.250000 0.665338 0.839211
O O1 0.876882 0.381017 0.763351
O O2 0.933132 0.243578 0.747695
O O3 0.119063 0.343012 0.737795
O O4 0.000000 0.315725 0.000000
O O5 0.876525 0.147512 0.240830
O O6 0.000000 0.170728 0.500000
O O7 0.120808 0.107219 0.274022
O O8 0.750000 0.500000 0.816405
O O9 0.750000 0.395127 0.025757
O O10 0.250000 0.252353 0.909468
O O11 0.250000 0.119784 0.011705
O O12 0.750000 0.000000 0.836581
#
# Coordination Sequence:
#
# PCOD8206366 Si02
#       6
#     8   8   4   4   4   4
#     4   9  17  32  53  77 106 141 187 234 278 332
#     4  11  22  39  63  89 115 147 193 247 291 332
#     4  10  18  27  46  78 112 144 181 230 282 330
#     4  10  21  40  62  85 114 151 199 243 283 337
#     4  12  25  40  60  86 118 156 190 225 285 359
#     4   8  16  29  48  73 102 135 180 236 276 312
#
# _framework density 19.565577999999999
#
# number of rings (size 3 to 8) (size 9 to 14) (size 15 to 20)
#    0.000    2.000    0.000    6.750    0.000    7.000 
#    0.000    1.250    0.000    0.750    0.000   15.750 
#    0.000    0.000    0.000    0.000    0.000    0.000 
#
# Total GULP energy -396650.683815 kJ/mol
# GULP energy per Si atom -12395.333869 kJ/mol
# Density = 1.952105 g / cm^3
# Si number density = 19.565578 Si / 1000 Ang^3
#
#
#
# Elastic Constant Matrix: (Units=GPa)
#
#
# Indices 1 2 3 4 5 6 
#
# 1 174.8232 76.7163 31.4461 0.0000 0.0000 0.0000
# 2 76.7163 138.6489 35.2029 0.0000 0.0000 0.0000
# 3 31.4461 35.2029 84.3108 0.0000 0.0000 0.0000
# 4 0.0000 0.0000 0.0000 0.8112 0.0000 0.0000
# 5 0.0000 0.0000 0.0000 0.0000 19.4684 0.0000
# 6 0.0000 0.0000 0.0000 0.0000 0.0000 15.3370
#
#
#
# Elastic Compliance Matrix: (Units=1/GPa)
#
#
# Indices 1 2 3 4 5 6 
#
# 1 0.007664 -0.003932 -0.001217 0.000000 0.000000 0.000000
# 2 -0.003932 0.010085 -0.002744 0.000000 0.000000 0.000000
# 3 -0.001217 -0.002744 0.013461 0.000000 0.000000 0.000000
# 4 0.000000 0.000000 0.000000 1.232784 0.000000 0.000000
# 5 0.000000 0.000000 0.000000 0.000000 0.051365 0.000000
# 6 0.000000 0.000000 0.000000 0.000000 0.000000 0.065202
#
#
# Mechanical properties :
#
#
# Convention : Reuss Voigt Hill
#
# Bulk Modulus (GPa) = 64.83561 76.05705 70.44633
# Shear Modulus (GPa) = 3.56763 24.08448 13.82606
#
# Velocity S-wave (km/s) = 1.35181 3.51231 2.66118
# Velocity P-wave (km/s) = 5.97043 7.44350 6.74729
#
# Compressibility (1/GPa) = 0.01542362
#
# Stress axis : x y z
#
# Youngs Moduli (GPa) = 130.47475 99.15963 74.29082
#
# Poissons Ratio (x) = 0.38987 0.09041
# Poissons Ratio (y) = 0.51300 0.20388
# Poissons Ratio (z) = 0.15878 0.27212
#
# Static dielectric constant tensor:
#      x y z
#    x 4.252260 0.000000 0.000000 
#    y 0.000000 3.330230 0.000000 
#    z 0.000000 0.000000 3.179280 
# 
# 
# High freq. dielectric constant tensor:
#      x y z
#    x 1.799640 0.000000 0.000000 
#    y 0.000000 1.740310 0.000000 
#    z 0.000000 0.000000 1.721830 
# 
# From -- ./inp_files/6775.got.cif
#   From: 2010.03.12/outbox.cif.g09.slc.cpg/sg51_4_cif.got.tgz:6775.got - 2010.04.16 13:43:02.
