data_PCOD8206524
_publ_section_title
;
Structure prediction by ZEFSAII (Michael W. Deem and Ramdas Pophale) SiO2 
 PCOD8206524
Probable space group: P M M A
;
_chemical_formula_sum "Si O2"
_cell_formula_units_Z 40
_cell_length_a 24.477249
_cell_length_b 9.051173
_cell_length_c 10.335443
_cell_angle_alpha 90.000000
_cell_angle_beta 90.000000
_cell_angle_gamma 90.000000
_cell_volume 2289.794816
_symmetry_space_group_name_H-M "P M M A"
_symmetry_group_IT_number 51
_symmetry_cell_setting 'orthorhombic'
loop_
_space_group_symop_operation_xyz
x,y,z
1/2-x,-y,z
1/2+x,-y,-z
-x,y,-z
-x,-y,-z
1/2+x,y,-z
1/2-x,y,z
x,-y,z
loop_
_atom_site_type_symbol
_atom_site_label
_atom_site_fract_x
_atom_site_fract_y
_atom_site_fract_z
Si Si1 0.631356 0.667908 0.723679
Si Si2 0.970931 0.825729 0.628608
Si Si3 0.358798 0.326256 0.975791
Si Si4 0.537678 0.172393 0.121283
Si Si5 0.750000 0.331490 0.749203
Si Si6 0.750000 0.174287 0.012850
O O1 0.612006 0.500000 0.709148
O O2 0.590651 0.765771 0.638984
O O3 0.630101 0.715368 0.874334
O O4 0.693667 0.689214 0.668520
O O5 0.006266 0.774051 0.751001
O O6 0.000000 0.763354 0.500000
O O7 0.965989 0.000000 0.622904
O O8 0.352213 0.500000 0.956959
O O9 0.304077 0.246208 0.924432
O O10 0.407553 0.267038 0.887298
O O11 0.552789 0.000000 0.126520
O O12 0.500000 0.209805 0.000000
O O13 0.750000 0.500000 0.808750
O O14 0.750000 0.210870 0.861241
O O15 0.750000 0.000000 0.036071
#
# Coordination Sequence:
#
# PCOD8206524 Si02
#       6
#     8   8   8   8   4   4
#     4   9  17  30  49  72 100 130 164 206 249 299
#     4  10  21  35  50  71 103 136 167 209 257 300
#     4  10  19  31  49  74 104 133 167 210 256 301
#     4  10  19  32  51  74  99 130 170 212 248 294
#     4   8  16  30  46  71 102 131 162 206 256 294
#     4  10  18  28  46  73 104 135 166 204 254 304
#
# _framework density 17.468812
#
# number of rings (size 3 to 8) (size 9 to 14) (size 15 to 20)
#    0.000    2.400    2.000    2.700    0.000    4.800 
#    0.000    0.000    0.000    1.200    0.000    7.000 
#    0.000    0.000    0.000    0.000    0.000    0.000 
#
# Total GULP energy -495893.993313 kJ/mol
# GULP energy per Si atom -12397.349833 kJ/mol
# Density = 1.742905 g / cm^3
# Si number density = 17.468812 Si / 1000 Ang^3
#
#
#
# Elastic Constant Matrix: (Units=GPa)
#
#
# Indices 1 2 3 4 5 6 
#
# 1 168.0031 59.7499 53.2386 0.0000 0.0000 0.0000
# 2 59.7499 65.7695 24.5793 0.0000 0.0000 0.0000
# 3 53.2386 24.5793 80.4002 0.0000 0.0000 0.0000
# 4 0.0000 0.0000 0.0000 12.4758 0.0000 0.0000
# 5 0.0000 0.0000 0.0000 0.0000 19.4227 0.0000
# 6 0.0000 0.0000 0.0000 0.0000 0.0000 37.3154
#
#
#
# Elastic Compliance Matrix: (Units=1/GPa)
#
#
# Indices 1 2 3 4 5 6 
#
# 1 0.009969 -0.007440 -0.004327 0.000000 0.000000 0.000000
# 2 -0.007440 0.022718 -0.002019 0.000000 0.000000 0.000000
# 3 -0.004327 -0.002019 0.015920 0.000000 0.000000 0.000000
# 4 0.000000 0.000000 0.000000 0.080155 0.000000 0.000000
# 5 0.000000 0.000000 0.000000 0.000000 0.051486 0.000000
# 6 0.000000 0.000000 0.000000 0.000000 0.000000 0.026799
#
#
# Mechanical properties :
#
#
# Convention : Reuss Voigt Hill
#
# Bulk Modulus (GPa) = 47.53667 65.47870 56.50769
# Shear Modulus (GPa) = 20.69271 25.61643 23.15457
#
# Velocity S-wave (km/s) = 3.44547 3.83353 3.64466
# Velocity P-wave (km/s) = 6.56504 7.56037 7.08021
#
# Compressibility (1/GPa) = 0.02103639
#
# Stress axis : x y z
#
# Youngs Moduli (GPa) = 100.30659 44.01798 62.81356
#
# Poissons Ratio (x) = 0.32749 0.27179
# Poissons Ratio (y) = 0.74627 0.12680
# Poissons Ratio (z) = 0.43403 0.08886
#
# Static dielectric constant tensor:
#      x y z
#    x 3.553650 0.000000 0.000000 
#    y 0.000000 3.132360 0.000000 
#    z 0.000000 0.000000 2.927810 
# 
# 
# High freq. dielectric constant tensor:
#      x y z
#    x 1.696430 0.000000 0.000000 
#    y 0.000000 1.674130 0.000000 
#    z 0.000000 0.000000 1.617950 
# 
# From -- ./inp_files/12214.got.cif
#   From: 2010.03.12/outbox.cif.g09.slc.cpg/sg51_7_cif.got.tgz:12214.got - 2010.04.16 13:43:02.
