data_PCOD8206692
_publ_section_title
;
Structure prediction by ZEFSAII (Michael W. Deem and Ramdas Pophale) SiO2 
 PCOD8206692
Probable space group: P M M A
;
_chemical_formula_sum "Si O2"
_cell_formula_units_Z 32
_cell_length_a 17.394341
_cell_length_b 12.397662
_cell_length_c 7.646092
_cell_angle_alpha 90.000000
_cell_angle_beta 90.000000
_cell_angle_gamma 90.000000
_cell_volume 1648.873320
_symmetry_space_group_name_H-M "P M M A"
_symmetry_group_IT_number 51
_symmetry_cell_setting 'orthorhombic'
loop_
_space_group_symop_operation_xyz
x,y,z
1/2-x,-y,z
1/2+x,-y,-z
-x,y,-z
-x,-y,-z
1/2+x,y,-z
1/2-x,y,z
x,-y,z
loop_
_atom_site_type_symbol
_atom_site_label
_atom_site_fract_x
_atom_site_fract_y
_atom_site_fract_z
Si Si1 0.841803 0.121333 0.245801
Si Si2 0.588740 0.500000 0.542674
Si Si3 0.661067 0.266146 0.938617
Si Si4 0.658815 0.721203 0.545197
Si Si5 0.837749 0.500000 0.905834
O O1 0.750000 0.121613 0.238646
O O2 0.869555 0.181740 0.421300
O O3 0.874432 0.000000 0.248111
O O4 0.877002 0.182995 0.075754
O O5 0.500000 0.500000 0.500000
O O6 0.626661 0.609067 0.466112
O O7 0.601654 0.500000 0.749865
O O8 0.750000 0.236595 0.927731
O O9 0.626786 0.255829 0.741994
O O10 0.649401 0.389030 0.013421
O O11 0.750000 0.711415 0.547766
O O12 0.750000 0.500000 0.829082
#
# Coordination Sequence:
#
# PCOD8206692 Si02
#       5
#     8   4   8   8   4
#     4   9  17  27  42  69  97 119 152 192 226 268
#     4  10  18  29  48  72  95 119 152 193 233 276
#     4   8  14  25  42  64  91 119 146 182 223 263
#     4   9  17  30  48  69  95 125 152 184 231 279
#     4   8  14  27  46  67  89 115 149 184 227 281
#
# _framework density 19.407192999999999
#
# number of rings (size 3 to 8) (size 9 to 14) (size 15 to 20)
#    0.000    3.250    0.000    2.625    0.000    2.000 
#    0.000    8.750    0.000   12.750    0.000    7.000 
#    0.000    0.000    0.000    0.000    0.000    0.000 
#
# Total GULP energy -396417.903940 kJ/mol
# GULP energy per Si atom -12388.059498 kJ/mol
# Density = 1.936302 g / cm^3
# Si number density = 19.407193 Si / 1000 Ang^3
#
#
#
# Elastic Constant Matrix: (Units=GPa)
#
#
# Indices 1 2 3 4 5 6 
#
# 1 18.3039 13.9365 10.6720 0.0000 0.0000 0.0000
# 2 13.9365 207.0092 97.1133 0.0000 0.0000 0.0000
# 3 10.6720 97.1133 116.8085 0.0000 0.0000 0.0000
# 4 0.0000 0.0000 0.0000 39.6551 0.0000 0.0000
# 5 0.0000 0.0000 0.0000 0.0000 4.9603 0.0000
# 6 0.0000 0.0000 0.0000 0.0000 0.0000 5.4296
#
#
#
# Elastic Compliance Matrix: (Units=1/GPa)
#
#
# Indices 1 2 3 4 5 6 
#
# 1 0.058391 -0.002342 -0.003388 0.000000 0.000000 0.000000
# 2 -0.002342 0.008013 -0.006448 0.000000 0.000000 0.000000
# 3 -0.003388 -0.006448 0.014232 0.000000 0.000000 0.000000
# 4 0.000000 0.000000 0.000000 0.025217 0.000000 0.000000
# 5 0.000000 0.000000 0.000000 0.000000 0.201600 0.000000
# 6 0.000000 0.000000 0.000000 0.000000 0.000000 0.184175
#
#
# Mechanical properties :
#
#
# Convention : Reuss Voigt Hill
#
# Bulk Modulus (GPa) = 17.76814 65.06279 41.41547
# Shear Modulus (GPa) = 9.35025 24.70232 17.02629
#
# Velocity S-wave (km/s) = 2.19736 3.57156 2.96517
# Velocity P-wave (km/s) = 3.95135 7.11379 5.75409
#
# Compressibility (1/GPa) = 0.05628052
#
# Stress axis : x y z
#
# Youngs Moduli (GPa) = 17.12578 124.79053 70.26604
#
# Poissons Ratio (x) = 0.29222 0.23806
# Poissons Ratio (y) = 0.04010 0.45310
# Poissons Ratio (z) = 0.05802 0.80469
#
# Static dielectric constant tensor:
#      x y z
#    x 2.799840 0.000000 0.000000 
#    y 0.000000 3.958570 0.000000 
#    z 0.000000 0.000000 3.663930 
# 
# 
# High freq. dielectric constant tensor:
#      x y z
#    x 1.679750 0.000000 0.000000 
#    y 0.000000 1.766960 0.000000 
#    z 0.000000 0.000000 1.746460 
# 
# From -- ./inp_files/9191.got.cif
#   From: 2010.03.12/outbox.cif.g09.slc.cpg/sg51_5_cif.got.tgz:9191.got - 2010.04.16 13:43:02.
