data_PCOD8206086
_publ_section_title
;
Structure prediction by ZEFSAII (Michael W. Deem and Ramdas Pophale) SiO2 
 PCOD8206086
Probable space group: P M M A
;
_chemical_formula_sum "Si O2"
_cell_formula_units_Z 44
_cell_length_a 8.851232
_cell_length_b 17.353101
_cell_length_c 15.230452
_cell_angle_alpha 90.000000
_cell_angle_beta 90.000000
_cell_angle_gamma 90.000000
_cell_volume 2339.341423
_symmetry_space_group_name_H-M "P M M A"
_symmetry_group_IT_number 51
_symmetry_cell_setting 'orthorhombic'
loop_
_space_group_symop_operation_xyz
x,y,z
1/2-x,-y,z
1/2+x,-y,-z
-x,y,-z
-x,-y,-z
1/2+x,y,-z
1/2-x,y,z
x,-y,z
loop_
_atom_site_type_symbol
_atom_site_label
_atom_site_fract_x
_atom_site_fract_y
_atom_site_fract_z
Si Si1 0.927630 0.701609 0.760415
Si Si2 0.427248 0.126054 0.416270
Si Si3 0.428189 0.000000 0.903550
Si Si4 0.424579 0.879241 0.221368
Si Si5 0.071816 0.706876 0.585450
Si Si6 0.572205 0.586706 0.909624
O O1 0.750000 0.695530 0.743102
O O2 0.971875 0.789615 0.782843
O O3 0.985335 0.646576 0.837438
O O4 0.012413 0.668541 0.674788
O O5 0.500000 0.079220 0.500000
O O6 0.250000 0.139608 0.432843
O O7 0.451235 0.086749 0.320596
O O8 0.514805 0.205913 0.413122
O O9 0.476306 0.924470 0.849226
O O10 0.250000 0.000000 0.915081
O O11 0.500000 0.000000 0.000000
O O12 0.250000 0.890061 0.195329
O O13 0.250000 0.702089 0.579973
O O14 0.000000 0.664706 0.500000
O O15 0.750000 0.590992 0.920091
O O16 0.520083 0.500000 0.884730
O O17 0.500000 0.613994 0.000000
#
# Coordination Sequence:
#
# PCOD8206086 Si02
#       6
#     8   8   4   8   8   8
#     4   9  18  33  53  78 106 136 170 209 252 297
#     4   9  16  28  49  76 106 137 166 203 249 298
#     4  12  26  42  59  74  95 130 171 216 264 312
#     4   9  19  36  55  76 104 135 170 212 254 298
#     4  10  17  26  44  71 103 137 172 210 250 296
#     4   9  18  33  53  77 106 137 167 204 253 306
#
# _framework density 18.808712
#
# number of rings (size 3 to 8) (size 9 to 14) (size 15 to 20)
#    0.000    2.545    0.000    5.182    0.000    5.091 
#    0.000    2.273    0.000    0.545    0.000    0.000 
#    0.000    0.000    0.000    0.000    0.000    0.000 
#
# Total GULP energy -545274.232358 kJ/mol
# GULP energy per Si atom -12392.596190 kJ/mol
# Density = 1.876590 g / cm^3
# Si number density = 18.808712 Si / 1000 Ang^3
#
#
#
# Elastic Constant Matrix: (Units=GPa)
#
#
# Indices 1 2 3 4 5 6 
#
# 1 104.0395 33.3993 79.8413 0.0000 0.0000 0.0000
# 2 33.3993 70.1287 70.8133 0.0000 0.0000 0.0000
# 3 79.8413 70.8133 197.5791 0.0000 0.0000 0.0000
# 4 0.0000 0.0000 0.0000 -38.1353 0.0000 0.0000
# 5 0.0000 0.0000 0.0000 0.0000 39.5865 0.0000
# 6 0.0000 0.0000 0.0000 0.0000 0.0000 17.2889
#
#
#
# Elastic Compliance Matrix: (Units=1/GPa)
#
#
# Indices 1 2 3 4 5 6 
#
# 1 0.014032 -0.001500 -0.005133 0.000000 0.000000 0.000000
# 2 -0.001500 0.022507 -0.007461 0.000000 0.000000 0.000000
# 3 -0.005133 -0.007461 0.009809 0.000000 0.000000 0.000000
# 4 0.000000 0.000000 0.000000 -0.026222 0.000000 0.000000
# 5 0.000000 0.000000 0.000000 0.000000 0.025261 0.000000
# 6 0.000000 0.000000 0.000000 0.000000 0.000000 0.057841
#
#
# Mechanical properties :
#
#
# Convention : Reuss Voigt Hill
#
# Bulk Modulus (GPa) = 55.05981 82.20610 68.63296
# Shear Modulus (GPa) = 36.37184 16.26092 26.31638
#
# Velocity S-wave (km/s) = 4.40224 2.94350 3.74459
# Velocity P-wave (km/s) = 7.42811 7.43999 7.43405
#
# Compressibility (1/GPa) = 0.01816207
#
# Stress axis : x y z
#
# Youngs Moduli (GPa) = 71.26435 44.43001 101.94411
#
# Poissons Ratio (x) = 0.06665 0.52326
# Poissons Ratio (y) = 0.10690 0.76056
# Poissons Ratio (z) = 0.36578 0.33147
#
# Static dielectric constant tensor:
#      x y z
#    x 3.461620 0.000000 0.000000 
#    y 0.000000 3.194910 0.000000 
#    z 0.000000 0.000000 4.400040 
# 
# 
# High freq. dielectric constant tensor:
#      x y z
#    x 1.728960 0.000000 0.000000 
#    y 0.000000 1.690070 0.000000 
#    z 0.000000 0.000000 1.750430 
# 
# From -- ./inp_files/20915.got.cif
#   From: 2010.03.12/outbox.cif.g09.slc.cpg/sg51_11_cif.got.tgz:20915.got - 2010.04.16 13:43:02.
