data_PCOD8206060
_publ_section_title
;
Structure prediction by ZEFSAII (Michael W. Deem and Ramdas Pophale) SiO2 
 PCOD8206060
Probable space group: P M M A
;
_chemical_formula_sum "Si O2"
_cell_formula_units_Z 44
_cell_length_a 8.639920
_cell_length_b 28.929013
_cell_length_c 9.417375
_cell_angle_alpha 90.000000
_cell_angle_beta 90.000000
_cell_angle_gamma 90.000000
_cell_volume 2353.819748
_symmetry_space_group_name_H-M "P M M A"
_symmetry_group_IT_number 51
_symmetry_cell_setting 'orthorhombic'
loop_
_space_group_symop_operation_xyz
x,y,z
1/2-x,-y,z
1/2+x,-y,-z
-x,y,-z
-x,-y,-z
1/2+x,y,-z
1/2-x,y,z
x,-y,z
loop_
_atom_site_type_symbol
_atom_site_label
_atom_site_fract_x
_atom_site_fract_y
_atom_site_fract_z
Si Si1 0.566932 0.190014 0.157792
Si Si2 0.066619 0.365444 0.656188
Si Si3 0.932595 0.098726 0.842557
Si Si4 0.569541 0.000000 0.845844
Si Si5 0.931971 0.448349 0.148057
Si Si6 0.566692 0.715933 0.842995
O O1 0.750000 0.193846 0.157726
O O2 0.512305 0.142599 0.237640
O O3 0.495408 0.236210 0.227566
O O4 0.500000 0.187368 0.000000
O O5 0.250000 0.358305 0.654939
O O6 0.017494 0.414112 0.726566
O O7 0.000000 0.365325 0.500000
O O8 0.987950 0.324860 0.743158
O O9 0.750000 0.107572 0.847678
O O10 0.974111 0.048822 0.766971
O O11 0.000000 0.095961 0.000000
O O12 0.750000 0.000000 0.871841
O O13 0.500000 0.000000 0.000000
O O14 0.750000 0.448833 0.130453
O O15 0.994686 0.500000 0.183037
O O16 0.000000 0.429929 0.000000
O O17 0.750000 0.717267 0.852431
O O18 0.500000 0.708394 0.000000
#
# Coordination Sequence:
#
# PCOD8206060 Si02
#       6
#     8   8   8   4   8   8
#     4  10  17  26  40  60  84 113 152 199 247 295
#     4  11  23  38  55  78 108 140 174 212 256 305
#     4   9  14  21  31  47  72 105 145 189 236 287
#     4   8  14  20  28  42  66 102 143 184 229 284
#     4   9  19  36  58  83 110 140 175 213 252 296
#     4  11  21  35  54  75  99 130 169 213 259 307
#
# _framework density 18.693020000000001
#
# number of rings (size 3 to 8) (size 9 to 14) (size 15 to 20)
#    0.000    2.182    0.000    7.091    0.000    4.000 
#    0.000    0.000    0.000    0.000    0.000    0.000 
#    0.000    0.000    0.000    0.818    0.000   11.273 
#
# Total GULP energy -545122.208890 kJ/mol
# GULP energy per Si atom -12389.141111 kJ/mol
# Density = 1.865047 g / cm^3
# Si number density = 18.693020 Si / 1000 Ang^3
#
#
#
# Elastic Constant Matrix: (Units=GPa)
#
#
# Indices 1 2 3 4 5 6 
#
# 1 122.0407 73.4284 35.9947 0.0000 0.0000 0.0000
# 2 73.4284 188.3304 62.4094 0.0000 0.0000 0.0000
# 3 35.9947 62.4094 67.8445 0.0000 0.0000 0.0000
# 4 0.0000 0.0000 0.0000 -30.4253 0.0000 0.0000
# 5 0.0000 0.0000 0.0000 0.0000 19.6787 0.0000
# 6 0.0000 0.0000 0.0000 0.0000 0.0000 29.2826
#
#
#
# Elastic Compliance Matrix: (Units=1/GPa)
#
#
# Indices 1 2 3 4 5 6 
#
# 1 0.011046 -0.003402 -0.002731 0.000000 0.000000 0.000000
# 2 -0.003402 0.008686 -0.006185 0.000000 0.000000 0.000000
# 3 -0.002731 -0.006185 0.021878 0.000000 0.000000 0.000000
# 4 0.000000 0.000000 0.000000 -0.032867 0.000000 0.000000
# 5 0.000000 0.000000 0.000000 0.000000 0.050816 0.000000
# 6 0.000000 0.000000 0.000000 0.000000 0.000000 0.034150
#
#
# Mechanical properties :
#
#
# Convention : Reuss Voigt Hill
#
# Bulk Modulus (GPa) = 58.91393 80.20894 69.56144
# Shear Modulus (GPa) = 40.32135 17.46609 28.89372
#
# Velocity S-wave (km/s) = 4.64942 3.06005 3.93580
# Velocity P-wave (km/s) = 7.77224 7.44895 7.61231
#
# Compressibility (1/GPa) = 0.01697391
#
# Stress axis : x y z
#
# Youngs Moduli (GPa) = 90.52802 115.13066 45.70724
#
# Poissons Ratio (x) = 0.39164 0.12484
# Poissons Ratio (y) = 0.30795 0.28271
# Poissons Ratio (z) = 0.24727 0.71210
#
# Static dielectric constant tensor:
#      x y z
#    x 3.440820 0.000000 0.000000 
#    y 0.000000 5.068890 0.000000 
#    z 0.000000 0.000000 2.849580 
# 
# 
# High freq. dielectric constant tensor:
#      x y z
#    x 1.739620 0.000000 0.000000 
#    y 0.000000 1.766730 0.000000 
#    z 0.000000 0.000000 1.646710 
# 
# From -- ./inp_files/5722.got.cif
#   From: 2010.03.12/outbox.cif.g09.slc.cpg/sg51_3_cif.got.tgz:5722.got - 2010.04.16 13:43:02.
