data_PCOD8206056
_publ_section_title
;
Structure prediction by ZEFSAII (Michael W. Deem and Ramdas Pophale) SiO2 
 PCOD8206056
Probable space group: P M M A
;
_chemical_formula_sum "Si O2"
_cell_formula_units_Z 64
_cell_length_a 8.710962
_cell_length_b 31.340548
_cell_length_c 14.362362
_cell_angle_alpha 90.000000
_cell_angle_beta 90.000000
_cell_angle_gamma 90.000000
_cell_volume 3921.015635
_symmetry_space_group_name_H-M "P M M A"
_symmetry_group_IT_number 51
_symmetry_cell_setting 'orthorhombic'
loop_
_space_group_symop_operation_xyz
x,y,z
1/2-x,-y,z
1/2+x,-y,-z
-x,y,-z
-x,-y,-z
1/2+x,y,-z
1/2-x,y,z
x,-y,z
loop_
_atom_site_type_symbol
_atom_site_label
_atom_site_fract_x
_atom_site_fract_y
_atom_site_fract_z
Si Si1 0.431903 0.629575 0.896702
Si Si2 0.568901 0.792127 0.216458
Si Si3 0.429007 0.546268 0.101607
Si Si4 0.430084 0.874960 0.899523
Si Si5 0.432019 0.178901 0.402526
Si Si6 0.927890 0.047820 0.222456
Si Si7 0.429448 0.919140 0.404425
Si Si8 0.068343 0.284149 0.102175
O O1 0.250000 0.632296 0.896879
O O2 0.488309 0.585926 0.844550
O O3 0.501170 0.672448 0.850980
O O4 0.500000 0.627501 0.000000
O O5 0.750000 0.783770 0.211095
O O6 0.521075 0.835889 0.165896
O O7 0.513354 0.793677 0.322620
O O8 0.477886 0.754330 0.167961
O O9 0.250000 0.556733 0.092987
O O10 0.454951 0.500000 0.152058
O O11 0.500000 0.542661 0.000000
O O12 0.250000 0.877420 0.912390
O O13 0.493512 0.918666 0.853130
O O14 0.500000 0.868078 0.000000
O O15 0.500000 0.195586 0.500000
O O16 0.250000 0.185561 0.399899
O O17 0.479876 0.129704 0.387660
O O18 0.750000 0.057568 0.241127
O O19 0.013783 0.052058 0.319952
O O20 0.954088 0.000000 0.183685
O O21 0.500000 0.936900 0.500000
O O22 0.250000 0.923464 0.413365
O O23 0.250000 0.287562 0.093651
O O24 0.000000 0.276210 0.000000
#
# Coordination Sequence:
#
# PCOD8206056 Si02
#       8
#     8   8   8   8   8   8   8   8
#     4  10  17  26  39  55  79 112 151 195 243 287
#     4  11  21  35  54  75  98 124 155 192 233 278
#     4   9  15  22  33  50  73 104 145 193 242 287
#     4  10  22  37  54  74  96 123 154 191 231 270
#     4  10  20  34  54  79 102 126 151 184 224 272
#     4  10  21  38  56  74  98 127 157 189 228 273
#     4  10  20  34  55  79 103 127 153 183 222 269
#     4  11  21  33  47  66  93 124 161 200 242 288
#
# _framework density 16.322301
#
# number of rings (size 3 to 8) (size 9 to 14) (size 15 to 20)
#    0.000    1.875    1.250    5.625    0.000    5.000 
#    0.000    0.000    0.000    0.000    0.000    0.000 
#    0.000    0.000    0.000    0.000    0.000    0.625 
#
# Total GULP energy -793469.725975 kJ/mol
# GULP energy per Si atom -12397.964468 kJ/mol
# Density = 1.628515 g / cm^3
# Si number density = 16.322301 Si / 1000 Ang^3
#
#
#
# Elastic Constant Matrix: (Units=GPa)
#
#
# Indices 1 2 3 4 5 6 
#
# 1 96.3089 49.3578 28.5650 0.0000 0.0000 0.0000
# 2 49.3578 118.4973 36.4362 0.0000 0.0000 0.0000
# 3 28.5650 36.4362 76.9862 0.0000 0.0000 0.0000
# 4 0.0000 0.0000 0.0000 158.6817 0.0000 0.0000
# 5 0.0000 0.0000 0.0000 0.0000 23.5546 0.0000
# 6 0.0000 0.0000 0.0000 0.0000 0.0000 23.5405
#
#
#
# Elastic Compliance Matrix: (Units=1/GPa)
#
#
# Indices 1 2 3 4 5 6 
#
# 1 0.013694 -0.004847 -0.002787 0.000000 0.000000 0.000000
# 2 -0.004847 0.011592 -0.003688 0.000000 0.000000 0.000000
# 3 -0.002787 -0.003688 0.015769 0.000000 0.000000 0.000000
# 4 0.000000 0.000000 0.000000 0.006302 0.000000 0.000000
# 5 0.000000 0.000000 0.000000 0.000000 0.042455 0.000000
# 6 0.000000 0.000000 0.000000 0.000000 0.000000 0.042480
#
#
# Mechanical properties :
#
#
# Convention : Reuss Voigt Hill
#
# Bulk Modulus (GPa) = 54.31531 57.83451 56.07491
# Shear Modulus (GPa) = 31.04207 52.98425 42.01316
#
# Velocity S-wave (km/s) = 4.36572 5.70366 5.07894
# Velocity P-wave (km/s) = 7.66561 8.88174 8.29599
#
# Compressibility (1/GPa) = 0.01841102
#
# Stress axis : x y z
#
# Youngs Moduli (GPa) = 73.02510 86.26734 63.41632
#
# Poissons Ratio (x) = 0.41814 0.17674
# Poissons Ratio (y) = 0.35395 0.23387
# Poissons Ratio (z) = 0.20352 0.31814
#
# Static dielectric constant tensor:
#      x y z
#    x 3.158200 0.000000 0.000000 
#    y 0.000000 3.801070 0.000000 
#    z 0.000000 0.000000 2.149110 
# 
# 
# High freq. dielectric constant tensor:
#      x y z
#    x 1.644040 0.000000 0.000000 
#    y 0.000000 1.632200 0.000000 
#    z 0.000000 0.000000 1.580540 
# 
# From -- ./inp_files/22581.got.cif
#   From: 2010.03.12/outbox.cif.g09.slc.cpg/sg51_12_cif.got.tgz:22581.got - 2010.04.16 13:43:02.
