data_PCOD8206597
_publ_section_title
;
Structure prediction by ZEFSAII (Michael W. Deem and Ramdas Pophale) SiO2 
 PCOD8206597
Probable space group: P M M A
;
_chemical_formula_sum "Si O2"
_cell_formula_units_Z 52
_cell_length_a 8.767916
_cell_length_b 26.405613
_cell_length_c 13.677238
_cell_angle_alpha 90.000000
_cell_angle_beta 90.000000
_cell_angle_gamma 90.000000
_cell_volume 3166.584187
_symmetry_space_group_name_H-M "P M M A"
_symmetry_group_IT_number 51
_symmetry_cell_setting 'orthorhombic'
loop_
_space_group_symop_operation_xyz
x,y,z
1/2-x,-y,z
1/2+x,-y,-z
-x,y,-z
-x,-y,-z
1/2+x,y,-z
1/2-x,y,z
x,-y,z
loop_
_atom_site_type_symbol
_atom_site_label
_atom_site_fract_x
_atom_site_fract_y
_atom_site_fract_z
Si Si1 0.069709 0.390208 0.392069
Si Si2 0.069674 0.295704 0.703296
Si Si3 0.427181 0.758181 0.897831
Si Si4 0.068948 0.200823 0.396931
Si Si5 0.574262 0.500000 0.603349
Si Si6 0.930352 0.144934 0.219770
Si Si7 0.427047 0.058590 0.103483
O O1 0.250000 0.379941 0.397975
O O2 0.032143 0.446299 0.345435
O O3 0.000000 0.384009 0.500000
O O4 0.991030 0.351588 0.317951
O O5 0.250000 0.292006 0.687187
O O6 0.024641 0.282148 0.814728
O O7 0.991209 0.256592 0.629525
O O8 0.250000 0.756699 0.915675
O O9 0.477362 0.814208 0.863083
O O10 0.500000 0.742769 0.000000
O O11 0.250000 0.201682 0.401563
O O12 0.000000 0.184198 0.500000
O O13 0.013179 0.158986 0.320074
O O14 0.750000 0.500000 0.580415
O O15 0.500000 0.500000 0.500000
O O16 0.750000 0.145017 0.237690
O O17 0.988034 0.090003 0.187300
O O18 0.250000 0.073154 0.099714
O O19 0.452229 0.000000 0.129225
O O20 0.500000 0.072534 0.000000
#
# Coordination Sequence:
#
# PCOD8206597 Si02
#       7
#     8   8   8   8   4   8   8
#     4  10  18  29  45  66  92 124 156 191 232 276
#     4  10  20  33  46  67  96 125 157 193 232 277
#     4   9  19  32  47  67  93 121 151 188 229 275
#     4  11  21  34  51  71  96 127 161 196 234 278
#     4   8  16  28  42  62  89 118 153 190 229 276
#     4  10  20  34  51  73  99 127 159 195 236 284
#     4  10  20  33  50  74 102 131 163 199 240 285
#
# _framework density 16.421481
#
# number of rings (size 3 to 8) (size 9 to 14) (size 15 to 20)
#    0.000    2.154    0.000    5.077    0.000    6.462 
#    0.000    0.000    0.000    0.462    0.000    0.538 
#    0.000    0.000    0.000    0.000    0.000    0.000 
#
# Total GULP energy -644677.283050 kJ/mol
# GULP energy per Si atom -12397.640059 kJ/mol
# Density = 1.638410 g / cm^3
# Si number density = 16.421481 Si / 1000 Ang^3
#
#
#
# Elastic Constant Matrix: (Units=GPa)
#
#
# Indices 1 2 3 4 5 6 
#
# 1 100.2749 49.1694 48.3923 0.0000 0.0000 0.0000
# 2 49.1694 110.7316 54.9374 0.0000 0.0000 0.0000
# 3 48.3923 54.9374 102.9774 0.0000 0.0000 0.0000
# 4 0.0000 0.0000 0.0000 31.4392 0.0000 0.0000
# 5 0.0000 0.0000 0.0000 0.0000 30.0553 0.0000
# 6 0.0000 0.0000 0.0000 0.0000 0.0000 26.6946
#
#
#
# Elastic Compliance Matrix: (Units=1/GPa)
#
#
# Indices 1 2 3 4 5 6 
#
# 1 0.014117 -0.004049 -0.004474 0.000000 0.000000 0.000000
# 2 -0.004049 0.013443 -0.005269 0.000000 0.000000 0.000000
# 3 -0.004474 -0.005269 0.014624 0.000000 0.000000 0.000000
# 4 0.000000 0.000000 0.000000 0.031807 0.000000 0.000000
# 5 0.000000 0.000000 0.000000 0.000000 0.033272 0.000000
# 6 0.000000 0.000000 0.000000 0.000000 0.000000 0.037461
#
#
# Mechanical properties :
#
#
# Convention : Reuss Voigt Hill
#
# Bulk Modulus (GPa) = 68.49063 68.77577 68.63320
# Shear Modulus (GPa) = 28.22073 28.40347 28.31210
#
# Velocity S-wave (km/s) = 4.15001 4.16342 4.15672
# Velocity P-wave (km/s) = 8.04748 8.06750 8.05750
#
# Compressibility (1/GPa) = 0.01460054
#
# Stress axis : x y z
#
# Youngs Moduli (GPa) = 70.83620 74.38942 68.37952
#
# Poissons Ratio (x) = 0.30119 0.30593
# Poissons Ratio (y) = 0.28681 0.36028
# Poissons Ratio (z) = 0.31692 0.39195
#
# Static dielectric constant tensor:
#      x y z
#    x 3.198750 0.000000 0.000000 
#    y 0.000000 2.605390 0.000000 
#    z 0.000000 0.000000 2.905070 
# 
# 
# High freq. dielectric constant tensor:
#      x y z
#    x 1.649980 0.000000 0.000000 
#    y 0.000000 1.629610 0.000000 
#    z 0.000000 0.000000 1.609180 
# 
# From -- ./inp_files/14633.got.cif
#   From: 2010.03.12/outbox.cif.g09.slc.cpg/sg51_8_cif.got.tgz:14633.got - 2010.04.16 13:43:02.
