data_PCOD8206053
_publ_section_title
;
Structure prediction by ZEFSAII (Michael W. Deem and Ramdas Pophale) SiO2 
 PCOD8206053
Probable space group: P M M A
;
_chemical_formula_sum "Si O2"
_cell_formula_units_Z 48
_cell_length_a 8.760489
_cell_length_b 20.494161
_cell_length_c 20.432809
_cell_angle_alpha 90.000000
_cell_angle_beta 90.000000
_cell_angle_gamma 90.000000
_cell_volume 3668.483480
_symmetry_space_group_name_H-M "P M M A"
_symmetry_group_IT_number 51
_symmetry_cell_setting 'orthorhombic'
loop_
_space_group_symop_operation_xyz
x,y,z
1/2-x,-y,z
1/2+x,-y,-z
-x,y,-z
-x,-y,-z
1/2+x,y,-z
1/2-x,y,z
x,-y,z
loop_
_atom_site_type_symbol
_atom_site_label
_atom_site_fract_x
_atom_site_fract_y
_atom_site_fract_z
Si Si1 0.421100 0.922451 0.303715
Si Si2 0.078142 0.077830 0.565697
Si Si3 0.568834 0.302274 0.072560
Si Si4 0.930197 0.828802 0.928713
Si Si5 0.928011 0.570796 0.928799
Si Si6 0.074523 0.076846 0.828970
O O1 0.250000 0.895195 0.295443
O O2 0.491074 0.894143 0.370842
O O3 0.522352 0.898854 0.242634
O O4 0.420287 0.000000 0.307291
O O5 0.250000 0.104062 0.567789
O O6 0.000000 0.105162 0.500000
O O7 0.074304 0.000000 0.565837
O O8 0.750000 0.299359 0.072250
O O9 0.501515 0.236468 0.105008
O O10 0.510658 0.368736 0.109120
O O11 0.500000 0.304334 0.000000
O O12 0.750000 0.821032 0.935365
O O13 0.970382 0.889988 0.883645
O O14 0.000000 0.841373 0.000000
O O15 0.750000 0.586934 0.935348
O O16 0.952879 0.500000 0.893360
O O17 0.000000 0.565440 0.000000
O O18 0.250000 0.096579 0.839104
O O19 0.049404 0.000000 0.836240
#
# Coordination Sequence:
#
# PCOD8206053 Si02
#       6
#     8   8   8   8   8   8
#     4   9  16  26  39  54  71  90 111 135 166 205
#     4   9  15  22  33  50  71  93 114 135 160 193
#     4  10  17  26  39  53  70  89 110 135 166 204
#     4  11  21  33  46  57  70  87 111 143 181 223
#     4   9  15  22  33  50  71  92 112 132 156 190
#     4  10  20  33  46  58  71  87 110 142 181 223
#
# _framework density 13.084426000000001
#
# number of rings (size 3 to 8) (size 9 to 14) (size 15 to 20)
#    0.000    2.333    0.000    7.000    0.000    6.333 
#    0.000    0.000    0.000    0.000    0.000    0.000 
#    0.000    0.000    0.000    0.000    0.000    0.000 
#
# Total GULP energy -594879.066331 kJ/mol
# GULP energy per Si atom -12393.313882 kJ/mol
# Density = 1.305465 g / cm^3
# Si number density = 13.084426 Si / 1000 Ang^3
#
#
#
# Elastic Constant Matrix: (Units=GPa)
#
#
# Indices 1 2 3 4 5 6 
#
# 1 117.1843 32.8829 29.8949 0.0000 0.0000 0.0000
# 2 32.8829 47.4644 26.4994 0.0000 0.0000 0.0000
# 3 29.8949 26.4994 60.1572 0.0000 0.0000 0.0000
# 4 0.0000 0.0000 0.0000 0.1958 0.0000 0.0000
# 5 0.0000 0.0000 0.0000 0.0000 20.3142 0.0000
# 6 0.0000 0.0000 0.0000 0.0000 0.0000 17.6054
#
#
#
# Elastic Compliance Matrix: (Units=1/GPa)
#
#
# Indices 1 2 3 4 5 6 
#
# 1 0.010933 -0.006022 -0.002780 0.000000 0.000000 0.000000
# 2 -0.006022 0.031257 -0.010776 0.000000 0.000000 0.000000
# 3 -0.002780 -0.010776 0.022752 0.000000 0.000000 0.000000
# 4 0.000000 0.000000 0.000000 5.108327 0.000000 0.000000
# 5 0.000000 0.000000 0.000000 0.000000 0.049227 0.000000
# 6 0.000000 0.000000 0.000000 0.000000 0.000000 0.056801
#
#
# Mechanical properties :
#
#
# Convention : Reuss Voigt Hill
#
# Bulk Modulus (GPa) = 38.78298 44.81779 41.80039
# Shear Modulus (GPa) = 0.93861 16.65833 8.79847
#
# Velocity S-wave (km/s) = 0.84788 3.57198 2.59595
# Velocity P-wave (km/s) = 5.53746 7.16514 6.40323
#
# Compressibility (1/GPa) = 0.02578450
#
# Stress axis : x y z
#
# Youngs Moduli (GPa) = 91.46946 31.99330 43.95285
#
# Poissons Ratio (x) = 0.19266 0.12220
# Poissons Ratio (y) = 0.55081 0.47364
# Poissons Ratio (z) = 0.25431 0.34476
#
# Static dielectric constant tensor:
#      x y z
#    x 2.856000 0.000000 0.000000 
#    y 0.000000 3.020180 0.000000 
#    z 0.000000 0.000000 2.410390 
# 
# 
# High freq. dielectric constant tensor:
#      x y z
#    x 1.523840 0.000000 0.000000 
#    y 0.000000 1.465190 0.000000 
#    z 0.000000 0.000000 1.453440 
# 
# From -- ./inp_files/32169.got.cif
#   From: 2010.03.12/outbox.cif.g09.slc.cpg/sg51_17_cif.got.tgz:32169.got - 2010.04.16 13:43:02.
