data_PCOD8206933
_publ_section_title
;
Structure prediction by ZEFSAII (Michael W. Deem and Ramdas Pophale) SiO2 
 PCOD8206933
Probable space group: P M M A
;
_chemical_formula_sum "Si O2"
_cell_formula_units_Z 48
_cell_length_a 16.154017
_cell_length_b 9.829866
_cell_length_c 16.302056
_cell_angle_alpha 90.000000
_cell_angle_beta 90.000000
_cell_angle_gamma 90.000000
_cell_volume 2588.633182
_symmetry_space_group_name_H-M "P M M A"
_symmetry_group_IT_number 51
_symmetry_cell_setting 'orthorhombic'
loop_
_space_group_symop_operation_xyz
x,y,z
1/2-x,-y,z
1/2+x,-y,-z
-x,y,-z
-x,-y,-z
1/2+x,y,-z
1/2-x,y,z
x,-y,z
loop_
_atom_site_type_symbol
_atom_site_label
_atom_site_fract_x
_atom_site_fract_y
_atom_site_fract_z
Si Si1 0.066083 0.839145 0.565195
Si Si2 0.750000 0.160095 0.405098
Si Si3 0.157791 0.846105 0.178856
Si Si4 0.588887 0.346108 0.143242
Si Si5 0.250000 0.650567 0.749984
Si Si6 0.154628 0.344112 0.031624
Si Si7 0.498327 0.155011 0.738045
O O1 0.163489 0.800923 0.547280
O O2 0.000000 0.776406 0.500000
O O3 0.038456 0.781713 0.654202
O O4 0.055112 0.000000 0.564961
O O5 0.750000 0.235179 0.318950
O O6 0.750000 0.000000 0.386391
O O7 0.250000 0.802868 0.207139
O O8 0.124982 0.749565 0.106260
O O9 0.098682 0.836415 0.259215
O O10 0.157105 0.000000 0.144583
O O11 0.554687 0.500000 0.151356
O O12 0.673418 0.329814 0.191344
O O13 0.526490 0.239932 0.182474
O O14 0.600551 0.308374 0.048103
O O15 0.250000 0.500000 0.708976
O O16 0.250000 0.316395 0.009879
O O17 0.140661 0.500000 0.057856
O O18 0.467166 0.000000 0.747526
#
# Coordination Sequence:
#
# PCOD8206933 Si02
#       7
#     8   4   8   8   4   8   8
#     4   9  18  33  52  79 109 131 161 207 253 301
#     4  10  18  32  56  80 103 134 168 204 253 308
#     4   9  19  35  50  67  95 134 175 211 252 299
#     4  10  19  31  50  76 104 132 167 209 254 302
#     4  10  18  30  50  76 105 134 164 204 251 304
#     4   9  17  31  50  71  97 133 174 213 251 295
#     4  10  20  34  52  73 102 133 165 211 256 303
#
# _framework density 18.542604000000001
#
# number of rings (size 3 to 8) (size 9 to 14) (size 15 to 20)
#    0.000    2.500    2.500    0.000    0.000    2.000 
#    1.500    3.333    0.000    2.000    0.000    0.000 
#    0.000    0.000    0.000    0.000    0.000    0.000 
#
# Total GULP energy -594799.263144 kJ/mol
# GULP energy per Si atom -12391.651315 kJ/mol
# Density = 1.850040 g / cm^3
# Si number density = 18.542604 Si / 1000 Ang^3
#
#
#
# Elastic Constant Matrix: (Units=GPa)
#
#
# Indices 1 2 3 4 5 6 
#
# 1 116.2412 29.6080 57.3124 0.0000 0.0000 0.0000
# 2 29.6080 45.9554 24.5136 0.0000 0.0000 0.0000
# 3 57.3124 24.5136 67.7581 0.0000 0.0000 0.0000
# 4 0.0000 0.0000 0.0000 14.1421 0.0000 0.0000
# 5 0.0000 0.0000 0.0000 0.0000 3.5729 0.0000
# 6 0.0000 0.0000 0.0000 0.0000 0.0000 16.7442
#
#
#
# Elastic Compliance Matrix: (Units=1/GPa)
#
#
# Indices 1 2 3 4 5 6 
#
# 1 0.015234 -0.003645 -0.011567 0.000000 0.000000 0.000000
# 2 -0.003645 0.027836 -0.006987 0.000000 0.000000 0.000000
# 3 -0.011567 -0.006987 0.027070 0.000000 0.000000 0.000000
# 4 0.000000 0.000000 0.000000 0.070711 0.000000 0.000000
# 5 0.000000 0.000000 0.000000 0.000000 0.279888 0.000000
# 6 0.000000 0.000000 0.000000 0.000000 0.000000 0.059722
#
#
# Mechanical properties :
#
#
# Convention : Reuss Voigt Hill
#
# Bulk Modulus (GPa) = 38.84796 50.31362 44.58079
# Shear Modulus (GPa) = 9.37311 14.79322 12.08316
#
# Velocity S-wave (km/s) = 2.25075 2.82759 2.55550
# Velocity P-wave (km/s) = 5.26789 6.15251 5.72730
#
# Compressibility (1/GPa) = 0.02574138
#
# Stress axis : x y z
#
# Youngs Moduli (GPa) = 65.64116 35.92494 36.94103
#
# Poissons Ratio (x) = 0.13095 0.42730
# Poissons Ratio (y) = 0.23926 0.25812
# Poissons Ratio (z) = 0.75928 0.25102
#
# Static dielectric constant tensor:
#      x y z
#    x 3.597200 0.000000 0.000000 
#    y 0.000000 3.307500 0.000000 
#    z 0.000000 0.000000 3.305690 
# 
# 
# High freq. dielectric constant tensor:
#      x y z
#    x 1.736970 0.000000 0.000000 
#    y 0.000000 1.696210 0.000000 
#    z 0.000000 0.000000 1.693340 
# 
# From -- ./inp_files/24108.got.cif
#   From: 2010.03.12/outbox.cif.g09.slc.cpg/sg51_13_cif.got.tgz:24108.got - 2010.04.16 13:43:02.
