data_PCOD8206893
_publ_section_title
;
Structure prediction by ZEFSAII (Michael W. Deem and Ramdas Pophale) SiO2 
 PCOD8206893
Probable space group: P M M A
;
_chemical_formula_sum "Si O2"
_cell_formula_units_Z 48
_cell_length_a 19.324457
_cell_length_b 8.917583
_cell_length_c 15.186348
_cell_angle_alpha 90.000000
_cell_angle_beta 90.000000
_cell_angle_gamma 90.000000
_cell_volume 2617.024614
_symmetry_space_group_name_H-M "P M M A"
_symmetry_group_IT_number 51
_symmetry_cell_setting 'orthorhombic'
loop_
_space_group_symop_operation_xyz
x,y,z
1/2-x,-y,z
1/2+x,-y,-z
-x,y,-z
-x,-y,-z
1/2+x,y,-z
1/2-x,y,z
x,-y,z
loop_
_atom_site_type_symbol
_atom_site_label
_atom_site_fract_x
_atom_site_fract_y
_atom_site_fract_z
Si Si1 0.089547 0.178013 0.278447
Si Si2 0.827478 0.178574 0.891536
Si Si3 0.928522 0.178773 0.040316
Si Si4 0.064262 0.821943 0.763394
Si Si5 0.670933 0.323557 0.564913
Si Si6 0.170713 0.174905 0.617795
O O1 0.132496 0.237274 0.194522
O O2 0.120300 0.248279 0.365967
O O3 0.010780 0.233952 0.268560
O O4 0.093999 0.000000 0.285944
O O5 0.750000 0.244605 0.890976
O O6 0.826416 0.000000 0.890818
O O7 0.865752 0.237184 0.979433
O O8 0.919199 0.242031 0.139192
O O9 0.930318 0.000000 0.041280
O O10 0.000000 0.240283 0.000000
O O11 0.122915 0.763599 0.696736
O O12 0.064684 0.000000 0.767494
O O13 0.750000 0.277265 0.586371
O O14 0.660820 0.500000 0.567598
O O15 0.649742 0.265100 0.468993
O O16 0.250000 0.205165 0.644795
O O17 0.157426 0.000000 0.599461
#
# Coordination Sequence:
#
# PCOD8206893 Si02
#       6
#     8   8   8   8   8   8
#     4  10  18  30  49  73 101 130 161 199 243 292
#     4   9  16  24  39  67  98 127 161 198 235 282
#     4   9  14  24  40  62  97 133 156 185 237 287
#     4   9  17  28  46  71  99 132 164 197 243 292
#     4  10  21  36  52  70  95 128 163 201 248 296
#     4   9  18  33  51  71  96 127 165 206 244 286
#
# _framework density 18.341441
#
# number of rings (size 3 to 8) (size 9 to 14) (size 15 to 20)
#    0.000    2.667    1.667    1.000    0.000    3.000 
#    0.000    7.500    0.000    0.000    0.000    3.500 
#    0.000    2.667    0.000    0.000    0.000    0.000 
#
# Total GULP energy -595155.309169 kJ/mol
# GULP energy per Si atom -12399.068941 kJ/mol
# Density = 1.829970 g / cm^3
# Si number density = 18.341441 Si / 1000 Ang^3
#
#
#
# Elastic Constant Matrix: (Units=GPa)
#
#
# Indices 1 2 3 4 5 6 
#
# 1 153.7287 19.1225 103.0354 0.0000 0.0000 0.0000
# 2 19.1225 17.3530 21.8353 0.0000 0.0000 0.0000
# 3 103.0354 21.8353 171.6396 0.0000 0.0000 0.0000
# 4 0.0000 0.0000 0.0000 -2.6992 0.0000 0.0000
# 5 0.0000 0.0000 0.0000 0.0000 43.5591 0.0000
# 6 0.0000 0.0000 0.0000 0.0000 0.0000 9.5625
#
#
#
# Elastic Compliance Matrix: (Units=1/GPa)
#
#
# Indices 1 2 3 4 5 6 
#
# 1 0.011186 -0.004616 -0.006128 0.000000 0.000000 0.000000
# 2 -0.004616 0.070514 -0.006199 0.000000 0.000000 0.000000
# 3 -0.006128 -0.006199 0.010293 0.000000 0.000000 0.000000
# 4 0.000000 0.000000 0.000000 -0.370477 0.000000 0.000000
# 5 0.000000 0.000000 0.000000 0.000000 0.022957 0.000000
# 6 0.000000 0.000000 0.000000 0.000000 0.000000 0.104575
#
#
# Mechanical properties :
#
#
# Convention : Reuss Voigt Hill
#
# Bulk Modulus (GPa) = 17.20962 70.07865 43.64414
# Shear Modulus (GPa) = -51.17986 23.33303 -13.92341
#
# Velocity S-wave (km/s) = -5.28815 3.57059 -2.75821
# Velocity P-wave (km/s) = 5.28041 7.43570 3.70181
#
# Compressibility (1/GPa) = 0.05810703
#
# Stress axis : x y z
#
# Youngs Moduli (GPa) = 89.39422 14.18149 97.14940
#
# Poissons Ratio (x) = 0.06547 0.59533
# Poissons Ratio (y) = 0.41267 0.60226
# Poissons Ratio (z) = 0.54780 0.08792
#
# Static dielectric constant tensor:
#      x y z
#    x 3.587090 0.000000 0.000000 
#    y 0.000000 2.781950 0.000000 
#    z 0.000000 0.000000 3.597540 
# 
# 
# High freq. dielectric constant tensor:
#      x y z
#    x 1.718660 0.000000 0.000000 
#    y 0.000000 1.648660 0.000000 
#    z 0.000000 0.000000 1.724960 
# 
# From -- ./inp_files/24776.got.cif
#   From: 2010.03.12/outbox.cif.g09.slc.cpg/sg51_13_cif.got.tgz:24776.got - 2010.04.16 13:43:02.
