data_PCOD8206426
_publ_section_title
;
Structure prediction by ZEFSAII (Michael W. Deem and Ramdas Pophale) SiO2 
 PCOD8206426
Probable space group: P M M A
;
_chemical_formula_sum "Si O2"
_cell_formula_units_Z 56
_cell_length_a 27.924472
_cell_length_b 9.194751
_cell_length_c 13.813778
_cell_angle_alpha 90.000000
_cell_angle_beta 90.000000
_cell_angle_gamma 90.000000
_cell_volume 3546.805842
_symmetry_space_group_name_H-M "P M M A"
_symmetry_group_IT_number 51
_symmetry_cell_setting 'orthorhombic'
loop_
_space_group_symop_operation_xyz
x,y,z
1/2-x,-y,z
1/2+x,-y,-z
-x,y,-z
-x,-y,-z
1/2+x,y,-z
1/2-x,y,z
x,-y,z
loop_
_atom_site_type_symbol
_atom_site_label
_atom_site_fract_x
_atom_site_fract_y
_atom_site_fract_z
Si Si1 0.511482 0.828411 0.890862
Si Si2 0.803931 0.669778 0.739767
Si Si3 0.550913 0.166527 0.607846
Si Si4 0.529537 0.332038 0.280690
Si Si5 0.301708 0.327945 0.479018
Si Si6 0.399720 0.667976 0.560274
Si Si7 0.891202 0.163902 0.796841
O O1 0.472661 0.749657 0.822255
O O2 0.565303 0.776189 0.863905
O O3 0.506691 0.000000 0.872398
O O4 0.500000 0.783645 0.000000
O O5 0.750000 0.705961 0.775483
O O6 0.814093 0.500000 0.745008
O O7 0.810957 0.728479 0.630181
O O8 0.842499 0.745126 0.810833
O O9 0.506820 0.261891 0.643643
O O10 0.567780 0.231239 0.506700
O O11 0.593594 0.175181 0.685099
O O12 0.534288 0.000000 0.593320
O O13 0.516088 0.500000 0.264635
O O14 0.582464 0.315793 0.328629
O O15 0.250000 0.267158 0.516287
O O16 0.298576 0.500000 0.474213
O O17 0.344410 0.278974 0.550952
O O18 0.404592 0.500000 0.526002
O O19 0.879544 0.000000 0.827780
#
# Coordination Sequence:
#
# PCOD8206426 Si02
#       7
#     8   8   8   8   8   8   8
#     4   9  19  36  53  67  87 114 146 184 227 277
#     4   9  16  26  42  63  87 119 154 181 211 255
#     4  10  19  29  41  60  89 124 156 181 212 257
#     4  10  20  30  43  66  91 114 145 184 223 264
#     4   8  14  25  41  60  84 118 156 185 212 250
#     4  10  18  28  43  63  89 119 151 186 219 252
#     4   9  17  28  43  65  88 114 147 182 222 260
#
# _framework density 15.788855
#
# number of rings (size 3 to 8) (size 9 to 14) (size 15 to 20)
#    0.000    2.714    1.429    3.000    0.000    5.714 
#    0.000    0.000    0.000    0.429    0.000    1.000 
#    0.000    3.429    0.000    0.000    0.000    0.000 
#
# Total GULP energy -694031.963550 kJ/mol
# GULP energy per Si atom -12393.427921 kJ/mol
# Density = 1.575292 g / cm^3
# Si number density = 15.788855 Si / 1000 Ang^3
#
#
#
# Elastic Constant Matrix: (Units=GPa)
#
#
# Indices 1 2 3 4 5 6 
#
# 1 99.3424 34.4384 55.3773 0.0000 0.0000 0.0000
# 2 34.4384 52.6246 34.5509 0.0000 0.0000 0.0000
# 3 55.3773 34.5509 87.3772 0.0000 0.0000 0.0000
# 4 0.0000 0.0000 0.0000 19.0183 0.0000 0.0000
# 5 0.0000 0.0000 0.0000 0.0000 16.1596 0.0000
# 6 0.0000 0.0000 0.0000 0.0000 0.0000 18.8736
#
#
#
# Elastic Compliance Matrix: (Units=1/GPa)
#
#
# Indices 1 2 3 4 5 6 
#
# 1 0.016609 -0.005346 -0.008412 0.000000 0.000000 0.000000
# 2 -0.005346 0.027386 -0.007441 0.000000 0.000000 0.000000
# 3 -0.008412 -0.007441 0.019719 0.000000 0.000000 0.000000
# 4 0.000000 0.000000 0.000000 0.052581 0.000000 0.000000
# 5 0.000000 0.000000 0.000000 0.000000 0.061883 0.000000
# 6 0.000000 0.000000 0.000000 0.000000 0.000000 0.052984
#
#
# Mechanical properties :
#
#
# Convention : Reuss Voigt Hill
#
# Bulk Modulus (GPa) = 46.91514 54.23081 50.57297
# Shear Modulus (GPa) = 17.81481 18.47547 18.14514
#
# Velocity S-wave (km/s) = 3.36269 3.42447 3.39372
# Velocity P-wave (km/s) = 6.69742 7.07517 6.88889
#
# Compressibility (1/GPa) = 0.02131508
#
# Stress axis : x y z
#
# Youngs Moduli (GPa) = 60.20909 36.51436 50.71376
#
# Poissons Ratio (x) = 0.19520 0.42662
# Poissons Ratio (y) = 0.32187 0.37737
# Poissons Ratio (z) = 0.50650 0.27171
#
# Static dielectric constant tensor:
#      x y z
#    x 3.269890 0.000000 0.000000 
#    y 0.000000 2.914990 0.000000 
#    z 0.000000 0.000000 2.741580 
# 
# 
# High freq. dielectric constant tensor:
#      x y z
#    x 1.605880 0.000000 0.000000 
#    y 0.000000 1.599300 0.000000 
#    z 0.000000 0.000000 1.561970 
# 
# From -- ./inp_files/26536.got.cif
#   From: 2010.03.12/outbox.cif.g09.slc.cpg/sg51_14_cif.got.tgz:26536.got - 2010.04.16 13:43:02.
