data_PCOD8206498
_publ_section_title
;
Structure prediction by ZEFSAII (Michael W. Deem and Ramdas Pophale) SiO2 
 PCOD8206498
Probable space group: P M M A
;
_chemical_formula_sum "Si O2"
_cell_formula_units_Z 64
_cell_length_a 8.784337
_cell_length_b 19.941277
_cell_length_c 20.694116
_cell_angle_alpha 90.000000
_cell_angle_beta 90.000000
_cell_angle_gamma 90.000000
_cell_volume 3625.006870
_symmetry_space_group_name_H-M "P M M A"
_symmetry_group_IT_number 51
_symmetry_cell_setting 'orthorhombic'
loop_
_space_group_symop_operation_xyz
x,y,z
1/2-x,-y,z
1/2+x,-y,-z
-x,y,-z
-x,-y,-z
1/2+x,y,-z
1/2-x,y,z
x,-y,z
loop_
_atom_site_type_symbol
_atom_site_label
_atom_site_fract_x
_atom_site_fract_y
_atom_site_fract_z
Si Si1 0.073342 0.216450 0.261648
Si Si2 0.570108 0.423670 0.433869
Si Si3 0.931886 0.784424 0.120276
Si Si4 0.570242 0.656859 0.310439
Si Si5 0.922879 0.071399 0.750199
Si Si6 0.927854 0.577236 0.806325
Si Si7 0.572263 0.070683 0.115458
Si Si8 0.929118 0.654966 0.934920
O O1 0.250000 0.234935 0.255984
O O2 0.047468 0.140338 0.289669
O O3 0.001328 0.225542 0.191137
O O4 0.995208 0.267825 0.310983
O O5 0.500000 0.394738 0.500000
O O6 0.750000 0.419262 0.438881
O O7 0.515489 0.500000 0.422713
O O8 0.507341 0.380252 0.374129
O O9 0.750000 0.780169 0.125560
O O10 0.986001 0.856952 0.089518
O O11 0.995863 0.727823 0.073673
O O12 0.750000 0.660175 0.311546
O O13 0.520375 0.617156 0.247068
O O14 0.750000 0.075315 0.777590
O O15 0.040505 0.070670 0.808477
O O16 0.943089 0.000000 0.711077
O O17 0.750000 0.586525 0.792444
O O18 0.977230 0.500000 0.804190
O O19 0.972068 0.605974 0.876308
O O20 0.750000 0.067536 0.104065
O O21 0.501812 0.000000 0.085875
O O22 0.750000 0.663412 0.942480
O O23 0.000000 0.623208 0.000000
#
# Coordination Sequence:
#
# PCOD8206498 Si02
#       8
#     8   8   8   8   8   8   8   8
#     4  10  18  28  45  70 100 133 168 206 248 293
#     4   9  19  35  53  75 103 136 173 209 245 289
#     4  10  18  30  49  71  96 126 161 201 247 298
#     4  11  21  33  52  78 108 138 170 206 245 292
#     4   8  14  24  38  59  90 127 164 201 241 286
#     4  10  22  39  57  77 100 127 161 202 250 303
#     4   8  14  24  40  64  92 121 153 191 237 289
#     4  11  23  38  55  73  96 125 162 207 253 306
#
# _framework density 17.655138000000001
#
# number of rings (size 3 to 8) (size 9 to 14) (size 15 to 20)
#    0.000    2.375    1.250    1.875    0.000    3.500 
#    0.000    1.250    0.000    0.375    0.000    0.000 
#    0.000    0.500    0.000    1.125    0.000    2.000 
#
# Total GULP energy -792880.658728 kJ/mol
# GULP energy per Si atom -12388.760293 kJ/mol
# Density = 1.761495 g / cm^3
# Si number density = 17.655138 Si / 1000 Ang^3
#
#
#
# Elastic Constant Matrix: (Units=GPa)
#
#
# Indices 1 2 3 4 5 6 
#
# 1 45.9335 29.3173 29.1493 0.0000 0.0000 0.0000
# 2 29.3173 135.4614 44.0420 0.0000 0.0000 0.0000
# 3 29.1493 44.0420 83.1320 0.0000 0.0000 0.0000
# 4 0.0000 0.0000 0.0000 10.0755 0.0000 0.0000
# 5 0.0000 0.0000 0.0000 0.0000 22.4791 0.0000
# 6 0.0000 0.0000 0.0000 0.0000 0.0000 21.7898
#
#
#
# Elastic Compliance Matrix: (Units=1/GPa)
#
#
# Indices 1 2 3 4 5 6 
#
# 1 0.029415 -0.003640 -0.008386 0.000000 0.000000 0.000000
# 2 -0.003640 0.009369 -0.003687 0.000000 0.000000 0.000000
# 3 -0.008386 -0.003687 0.016923 0.000000 0.000000 0.000000
# 4 0.000000 0.000000 0.000000 0.099250 0.000000 0.000000
# 5 0.000000 0.000000 0.000000 0.000000 0.044486 0.000000
# 6 0.000000 0.000000 0.000000 0.000000 0.000000 0.045893
#
#
# Mechanical properties :
#
#
# Convention : Reuss Voigt Hill
#
# Bulk Modulus (GPa) = 41.18383 52.17154 46.67768
# Shear Modulus (GPa) = 17.55276 21.67012 19.61144
#
# Velocity S-wave (km/s) = 3.15652 3.50724 3.33649
# Velocity P-wave (km/s) = 6.05494 6.78347 6.42953
#
# Compressibility (1/GPa) = 0.02428137
#
# Stress axis : x y z
#
# Youngs Moduli (GPa) = 33.99583 106.73842 59.09171
#
# Poissons Ratio (x) = 0.38850 0.49553
# Poissons Ratio (y) = 0.12374 0.21788
# Poissons Ratio (z) = 0.28508 0.39356
#
# Static dielectric constant tensor:
#      x y z
#    x 3.272680 0.000000 0.000000 
#    y 0.000000 3.986700 0.000000 
#    z 0.000000 0.000000 2.953770 
# 
# 
# High freq. dielectric constant tensor:
#      x y z
#    x 1.686080 0.000000 0.000000 
#    y 0.000000 1.707090 0.000000 
#    z 0.000000 0.000000 1.625240 
# 
# From -- ./inp_files/32633.got.cif
#   From: 2010.03.12/outbox.cif.g09.slc.cpg/sg51_17_cif.got.tgz:32633.got - 2010.04.16 13:43:02.
