data_PCOD8206930
_publ_section_title
;
Structure prediction by ZEFSAII (Michael W. Deem and Ramdas Pophale) SiO2 
 PCOD8206930
Probable space group: P M M A
;
_chemical_formula_sum "Si O2"
_cell_formula_units_Z 64
_cell_length_a 23.899491
_cell_length_b 8.813241
_cell_length_c 15.242673
_cell_angle_alpha 90.000000
_cell_angle_beta 90.000000
_cell_angle_gamma 90.000000
_cell_volume 3210.594302
_symmetry_space_group_name_H-M "P M M A"
_symmetry_group_IT_number 51
_symmetry_cell_setting 'orthorhombic'
loop_
_space_group_symop_operation_xyz
x,y,z
1/2-x,-y,z
1/2+x,-y,-z
-x,y,-z
-x,-y,-z
1/2+x,y,-z
1/2-x,y,z
x,-y,z
loop_
_atom_site_type_symbol
_atom_site_label
_atom_site_fract_x
_atom_site_fract_y
_atom_site_fract_z
Si Si1 0.888945 0.181015 0.644101
Si Si2 0.126990 0.820161 0.690865
Si Si3 0.185459 0.677016 0.856361
Si Si4 0.497324 0.180802 0.722626
Si Si5 0.189372 0.177736 0.207273
Si Si6 0.686042 0.180885 0.484318
Si Si7 0.150639 0.828644 0.029173
Si Si8 0.974490 0.828548 0.913691
O O1 0.953734 0.234638 0.654546
O O2 0.856635 0.249604 0.728508
O O3 0.856920 0.244301 0.558127
O O4 0.885247 0.000000 0.641904
O O5 0.156857 0.765454 0.777963
O O6 0.161575 0.757684 0.607748
O O7 0.062638 0.761257 0.687282
O O8 0.126976 0.000000 0.691055
O O9 0.250000 0.726190 0.863240
O O10 0.178729 0.500000 0.839214
O O11 0.153976 0.720350 0.945728
O O12 0.507680 0.248201 0.820990
O O13 0.499763 0.000000 0.728132
O O14 0.250000 0.210684 0.249328
O O15 0.189455 0.238799 0.107011
O O16 0.176872 0.000000 0.199897
O O17 0.750000 0.240925 0.497431
O O18 0.686780 0.000000 0.485727
O O19 0.091310 0.826110 0.076600
O O20 0.166881 0.000000 0.999848
O O21 0.998542 0.000000 0.912114
O O22 0.000000 0.744365 0.000000
#
# Coordination Sequence:
#
# PCOD8206930 Si02
#       8
#     8   8   8   8   8   8   8   8
#     4   9  15  25  41  68 108 140 163 202 258 311
#     4  10  20  34  54  77 102 135 175 218 258 301
#     4  11  24  39  53  72 101 136 172 213 263 313
#     4   9  16  27  44  72 105 137 172 209 255 306
#     4   9  15  23  39  67 101 133 164 200 247 303
#     4   9  17  28  44  70 104 140 173 209 260 312
#     4  10  18  30  50  76 101 129 168 213 254 300
#     4   9  15  24  41  67  99 133 168 205 245 292
#
# _framework density 19.934004000000002
#
# number of rings (size 3 to 8) (size 9 to 14) (size 15 to 20)
#    0.000    2.500    1.250    2.250    0.000    6.000 
#    0.000    2.500    0.000    3.375    0.000    2.625 
#    0.000    4.000    0.000    0.000    0.000    0.000 
#
# Total GULP energy -793047.286787 kJ/mol
# GULP energy per Si atom -12391.363856 kJ/mol
# Density = 1.988863 g / cm^3
# Si number density = 19.934004 Si / 1000 Ang^3
#
#
#
# Elastic Constant Matrix: (Units=GPa)
#
#
# Indices 1 2 3 4 5 6 
#
# 1 107.4343 9.7848 62.0145 0.0000 0.0000 0.0000
# 2 9.7848 1.6587 4.4888 0.0000 0.0000 0.0000
# 3 62.0145 4.4888 138.7289 0.0000 0.0000 0.0000
# 4 0.0000 0.0000 0.0000 -0.2258 0.0000 0.0000
# 5 0.0000 0.0000 0.0000 0.0000 40.7146 0.0000
# 6 0.0000 0.0000 0.0000 0.0000 0.0000 6.1854
#
#
#
# Elastic Compliance Matrix: (Units=1/GPa)
#
#
# Indices 1 2 3 4 5 6 
#
# 1 0.025164 -0.129326 -0.007064 0.000000 0.000000 0.000000
# 2 -0.129326 1.325363 0.014927 0.000000 0.000000 0.000000
# 3 -0.007064 0.014927 0.009883 0.000000 0.000000 0.000000
# 4 0.000000 0.000000 0.000000 -4.429048 0.000000 0.000000
# 5 0.000000 0.000000 0.000000 0.000000 0.024561 0.000000
# 6 0.000000 0.000000 0.000000 0.000000 0.000000 0.161671
#
#
# Mechanical properties :
#
#
# Convention : Reuss Voigt Hill
#
# Bulk Modulus (GPa) = 0.89487 44.48867 22.69177
# Shear Modulus (GPa) = -2.20557 20.77044 9.28243
#
# Velocity S-wave (km/s) = -1.05301 3.23144 2.16025
# Velocity P-wave (km/s) = 1.01418 6.02407 4.19886
#
# Compressibility (1/GPa) = 1.11748342
#
# Stress axis : x y z
#
# Youngs Moduli (GPa) = 39.73853 0.75451 101.18114
#
# Poissons Ratio (x) = 0.09758 0.71479
# Poissons Ratio (y) = 5.13924 -1.51037
# Poissons Ratio (z) = 0.28073 -0.01126
#
# Static dielectric constant tensor:
#      x y z
#    x 3.908700 0.000000 0.000000 
#    y 0.000000 2.821400 0.000000 
#    z 0.000000 0.000000 3.862510 
# 
# 
# High freq. dielectric constant tensor:
#      x y z
#    x 1.796310 0.000000 0.000000 
#    y 0.000000 1.683760 0.000000 
#    z 0.000000 0.000000 1.789880 
# 
# From -- ./inp_files/26270.got.cif
#   From: 2010.03.12/outbox.cif.g09.slc.cpg/sg51_14_cif.got.tgz:26270.got - 2010.04.16 13:43:02.
