data_PCOD8206785
_publ_section_title
;
Structure prediction by ZEFSAII (Michael W. Deem and Ramdas Pophale) SiO2 
 PCOD8206785
Probable space group: P M M A
;
_chemical_formula_sum "Si O2"
_cell_formula_units_Z 48
_cell_length_a 9.236099
_cell_length_b 24.333440
_cell_length_c 13.636768
_cell_angle_alpha 90.000000
_cell_angle_beta 90.000000
_cell_angle_gamma 90.000000
_cell_volume 3064.809891
_symmetry_space_group_name_H-M "P M M A"
_symmetry_group_IT_number 51
_symmetry_cell_setting 'orthorhombic'
loop_
_space_group_symop_operation_xyz
x,y,z
1/2-x,-y,z
1/2+x,-y,-z
-x,y,-z
-x,-y,-z
1/2+x,y,-z
1/2-x,y,z
x,-y,z
loop_
_atom_site_type_symbol
_atom_site_label
_atom_site_fract_x
_atom_site_fract_y
_atom_site_fract_z
Si Si1 0.421114 0.111045 0.796390
Si Si2 0.423071 0.000000 0.895864
Si Si3 0.078635 0.219611 0.901568
Si Si4 0.578690 0.725837 0.293718
Si Si5 0.920198 0.381657 0.397016
Si Si6 0.583900 0.500000 0.400358
Si Si7 0.078480 0.834383 0.599499
O O1 0.250000 0.112092 0.796258
O O2 0.478671 0.052605 0.834453
O O3 0.474375 0.158684 0.870304
O O4 0.472197 0.123301 0.685026
O O5 0.250000 0.000000 0.910540
O O6 0.500000 0.000000 0.000000
O O7 0.250000 0.221706 0.917822
O O8 0.026489 0.261654 0.816681
O O9 0.000000 0.238139 0.000000
O O10 0.750000 0.727013 0.293332
O O11 0.518721 0.666259 0.326477
O O12 0.526592 0.773224 0.368856
O O13 0.750000 0.373165 0.415780
O O14 0.951193 0.441847 0.345713
O O15 0.000000 0.377199 0.500000
O O16 0.750000 0.500000 0.430649
O O17 0.500000 0.500000 0.500000
O O18 0.250000 0.836814 0.583081
O O19 0.000000 0.852092 0.500000
#
# Coordination Sequence:
#
# PCOD8206785 Si02
#       7
#     8   4   8   8   8   4   8
#     4   8  16  29  44  60  81 106 129 151 190 240
#     4  10  18  30  47  64  80 102 129 160 195 234
#     4   9  16  28  43  59  78 101 126 157 194 232
#     4   8  15  26  40  56  78 105 130 154 190 233
#     4   9  15  24  37  55  78 104 129 156 187 223
#     4   8  14  22  34  52  75 100 128 156 185 220
#     4   9  16  28  43  59  79 106 134 159 186 223
#
# _framework density 15.661656000000001
#
# number of rings (size 3 to 8) (size 9 to 14) (size 15 to 20)
#    0.000    3.333    0.000    3.000    0.000    0.000 
#    0.000    5.417    0.000    0.000    0.000    0.583 
#    0.000    0.000    0.000    0.000    0.000    0.000 
#
# Total GULP energy -594649.276144 kJ/mol
# GULP energy per Si atom -12388.526586 kJ/mol
# Density = 1.562601 g / cm^3
# Si number density = 15.661656 Si / 1000 Ang^3
#
#
#
# Elastic Constant Matrix: (Units=GPa)
#
#
# Indices 1 2 3 4 5 6 
#
# 1 22.6933 21.5497 27.1962 0.0000 0.0000 0.0000
# 2 21.5497 152.1988 71.2005 0.0000 0.0000 0.0000
# 3 27.1962 71.2005 122.6462 0.0000 0.0000 0.0000
# 4 0.0000 0.0000 0.0000 20.9230 0.0000 0.0000
# 5 0.0000 0.0000 0.0000 0.0000 26.2046 0.0000
# 6 0.0000 0.0000 0.0000 0.0000 0.0000 12.3449
#
#
#
# Elastic Compliance Matrix: (Units=1/GPa)
#
#
# Indices 1 2 3 4 5 6 
#
# 1 0.061112 -0.003176 -0.011708 0.000000 0.000000 0.000000
# 2 -0.003176 0.009185 -0.004628 0.000000 0.000000 0.000000
# 3 -0.011708 -0.004628 0.013436 0.000000 0.000000 0.000000
# 4 0.000000 0.000000 0.000000 0.047794 0.000000 0.000000
# 5 0.000000 0.000000 0.000000 0.000000 0.038161 0.000000
# 6 0.000000 0.000000 0.000000 0.000000 0.000000 0.081005
#
#
# Mechanical properties :
#
#
# Convention : Reuss Voigt Hill
#
# Bulk Modulus (GPa) = 22.36599 59.71458 41.04029
# Shear Modulus (GPa) = 16.41381 23.73394 20.07388
#
# Velocity S-wave (km/s) = 3.24083 3.89706 3.58400
# Velocity P-wave (km/s) = 5.32125 7.64592 6.58695
#
# Compressibility (1/GPa) = 0.04471075
#
# Stress axis : x y z
#
# Youngs Moduli (GPa) = 16.36327 108.87231 74.42474
#
# Poissons Ratio (x) = 0.34576 0.87134
# Poissons Ratio (y) = 0.05197 0.34444
# Poissons Ratio (z) = 0.19158 0.50386
#
# Static dielectric constant tensor:
#      x y z
#    x 2.660820 0.000000 0.000000 
#    y 0.000000 3.722890 0.000000 
#    z 0.000000 0.000000 2.891120 
# 
# 
# High freq. dielectric constant tensor:
#      x y z
#    x 1.571200 0.000000 0.000000 
#    y 0.000000 1.605380 0.000000 
#    z 0.000000 0.000000 1.583600 
# 
# From -- ./inp_files/15664.got.cif
#   From: 2010.03.12/outbox.cif.g09.slc.cpg/sg51_8_cif.got.tgz:15664.got - 2010.04.16 13:43:02.
