data_PCOD8206619
_publ_section_title
;
Structure prediction by ZEFSAII (Michael W. Deem and Ramdas Pophale) SiO2 
 PCOD8206619
Probable space group: P M M A
;
_chemical_formula_sum "Si O2"
_cell_formula_units_Z 56
_cell_length_a 8.999601
_cell_length_b 18.263399
_cell_length_c 21.144385
_cell_angle_alpha 90.000000
_cell_angle_beta 90.000000
_cell_angle_gamma 90.000000
_cell_volume 3475.360978
_symmetry_space_group_name_H-M "P M M A"
_symmetry_group_IT_number 51
_symmetry_cell_setting 'orthorhombic'
loop_
_space_group_symop_operation_xyz
x,y,z
1/2-x,-y,z
1/2+x,-y,-z
-x,y,-z
-x,-y,-z
1/2+x,y,-z
1/2-x,y,z
x,-y,z
loop_
_atom_site_type_symbol
_atom_site_label
_atom_site_fract_x
_atom_site_fract_y
_atom_site_fract_z
Si Si1 0.923103 0.416323 0.806586
Si Si2 0.424394 0.667449 0.321217
Si Si3 0.582847 0.705959 0.127241
Si Si4 0.917573 0.206658 0.257184
Si Si5 0.076231 0.084053 0.189485
Si Si6 0.424599 0.167922 0.063225
Si Si7 0.075545 0.415773 0.565625
O O1 0.750000 0.407378 0.821027
O O2 0.975358 0.500000 0.808460
O O3 0.961343 0.385059 0.737602
O O4 0.011066 0.373595 0.861486
O O5 0.250000 0.672052 0.334680
O O6 0.486411 0.749099 0.308738
O O7 0.507305 0.635520 0.381302
O O8 0.750000 0.696476 0.101654
O O9 0.579879 0.748964 0.192577
O O10 0.487565 0.750759 0.076192
O O11 0.750000 0.196347 0.282345
O O12 0.990100 0.127436 0.244575
O O13 0.250000 0.095368 0.201357
O O14 0.032796 0.113295 0.120032
O O15 0.027828 0.000000 0.193830
O O16 0.250000 0.173323 0.053051
O O17 0.500000 0.136012 0.000000
O O18 0.250000 0.401466 0.560313
O O19 0.040252 0.500000 0.582546
O O20 0.000000 0.393689 0.500000
#
# Coordination Sequence:
#
# PCOD8206619 Si02
#       7
#     8   8   8   8   8   8   8
#     4   9  17  28  43  64  88 113 142 179 224 270
#     4  10  18  29  46  66  90 121 156 191 226 267
#     4   9  17  29  44  62  84 110 142 180 220 262
#     4   9  17  29  45  66  90 116 148 185 224 265
#     4   9  18  32  48  67  93 122 148 177 218 266
#     4  10  19  31  47  65  86 114 147 180 214 258
#     4  10  20  32  45  63  91 127 164 200 236 272
#
# _framework density 16.113433000000001
#
# number of rings (size 3 to 8) (size 9 to 14) (size 15 to 20)
#    0.000    2.571    0.000    2.571    0.000    6.857 
#    0.000    0.000    0.000    0.429    0.000    0.000 
#    0.000    0.571    0.000    2.143    0.000    3.286 
#
# Total GULP energy -694451.666524 kJ/mol
# GULP energy per Si atom -12400.922617 kJ/mol
# Density = 1.607676 g / cm^3
# Si number density = 16.113433 Si / 1000 Ang^3
#
#
#
# Elastic Constant Matrix: (Units=GPa)
#
#
# Indices 1 2 3 4 5 6 
#
# 1 88.2252 51.3000 37.2882 0.0000 0.0000 0.0000
# 2 51.3000 120.6225 43.1368 0.0000 0.0000 0.0000
# 3 37.2882 43.1368 55.7484 0.0000 0.0000 0.0000
# 4 0.0000 0.0000 0.0000 15.8071 0.0000 0.0000
# 5 0.0000 0.0000 0.0000 0.0000 27.9467 0.0000
# 6 0.0000 0.0000 0.0000 0.0000 0.0000 25.4079
#
#
#
# Elastic Compliance Matrix: (Units=1/GPa)
#
#
# Indices 1 2 3 4 5 6 
#
# 1 0.017389 -0.004474 -0.008169 0.000000 0.000000 0.000000
# 2 -0.004474 0.012613 -0.006767 0.000000 0.000000 0.000000
# 3 -0.008169 -0.006767 0.028638 0.000000 0.000000 0.000000
# 4 0.000000 0.000000 0.000000 0.063263 0.000000 0.000000
# 5 0.000000 0.000000 0.000000 0.000000 0.035782 0.000000
# 6 0.000000 0.000000 0.000000 0.000000 0.000000 0.039358
#
#
# Mechanical properties :
#
#
# Convention : Reuss Voigt Hill
#
# Bulk Modulus (GPa) = 50.45509 58.67178 54.56343
# Shear Modulus (GPa) = 20.62117 22.69042 21.65580
#
# Velocity S-wave (km/s) = 3.58124 3.75663 3.66998
# Velocity P-wave (km/s) = 6.96282 7.43687 7.20375
#
# Compressibility (1/GPa) = 0.01981961
#
# Stress axis : x y z
#
# Youngs Moduli (GPa) = 57.50883 79.28212 34.91866
#
# Poissons Ratio (x) = 0.35470 0.28524
# Poissons Ratio (y) = 0.25729 0.23631
# Poissons Ratio (z) = 0.46978 0.53653
#
# Static dielectric constant tensor:
#      x y z
#    x 3.190080 0.000000 0.000000 
#    y 0.000000 3.051030 0.000000 
#    z 0.000000 0.000000 2.842630 
# 
# 
# High freq. dielectric constant tensor:
#      x y z
#    x 1.634510 0.000000 0.000000 
#    y 0.000000 1.606870 0.000000 
#    z 0.000000 0.000000 1.586780 
# 
# From -- ./inp_files/32207.got.cif
#   From: 2010.03.12/outbox.cif.g09.slc.cpg/sg51_17_cif.got.tgz:32207.got - 2010.04.16 13:43:02.
