data_PCOD8206967
_publ_section_title
;
Structure prediction by ZEFSAII (Michael W. Deem and Ramdas Pophale) SiO2 
 PCOD8206967
Probable space group: P M M A
;
_chemical_formula_sum "Si O2"
_cell_formula_units_Z 64
_cell_length_a 20.465070
_cell_length_b 18.052564
_cell_length_c 9.572423
_cell_angle_alpha 90.000000
_cell_angle_beta 90.000000
_cell_angle_gamma 90.000000
_cell_volume 3536.502825
_symmetry_space_group_name_H-M "P M M A"
_symmetry_group_IT_number 51
_symmetry_cell_setting 'orthorhombic'
loop_
_space_group_symop_operation_xyz
x,y,z
1/2-x,-y,z
1/2+x,-y,-z
-x,y,-z
-x,-y,-z
1/2+x,y,-z
1/2-x,y,z
x,-y,z
loop_
_atom_site_type_symbol
_atom_site_label
_atom_site_fract_x
_atom_site_fract_y
_atom_site_fract_z
Si Si1 0.996756 0.698742 0.344134
Si Si2 0.867239 0.219690 0.370058
Si Si3 0.550132 0.413327 0.123656
Si Si4 0.616191 0.796280 0.685746
Si Si5 0.323799 0.821111 0.029832
Si Si6 0.883536 0.915299 0.192467
Si Si7 0.016706 0.916608 0.346979
Si Si8 0.676335 0.677151 0.145235
O O1 0.944662 0.766669 0.339854
O O2 0.977117 0.627458 0.258036
O O3 0.000000 0.667990 0.500000
O O4 0.065881 0.728914 0.288855
O O5 0.850149 0.213773 0.534098
O O6 0.846247 0.141554 0.298118
O O7 0.829938 0.290835 0.304002
O O8 0.551678 0.500000 0.152496
O O9 0.624991 0.386597 0.101649
O O10 0.500000 0.393325 0.000000
O O11 0.669633 0.801797 0.806693
O O12 0.579051 0.873252 0.706099
O O13 0.250000 0.846871 0.001161
O O14 0.371014 0.885455 0.965940
O O15 0.341010 0.745242 0.953510
O O16 0.959676 0.912888 0.231828
O O17 0.857336 0.000000 0.207643
O O18 0.000000 0.882405 0.500000
O O19 0.040240 0.000000 0.370313
O O20 0.750000 0.646472 0.123721
#
# Coordination Sequence:
#
# PCOD8206967 Si02
#       8
#     8   8   8   8   8   8   8   8
#     4   9  17  31  51  77 105 135 162 198 257 318
#     4   9  17  31  52  79 101 128 171 216 261 311
#     4  10  20  33  52  81 111 136 170 216 259 305
#     4  11  18  31  54  77 104 132 166 217 268 310
#     4  10  23  37  49  69  99 136 177 216 253 304
#     4  10  19  34  52  69  99 137 169 209 263 317
#     4  10  18  30  51  79 103 124 163 219 269 315
#     4   9  19  37  55  73 102 141 181 214 254 316
#
# _framework density 18.096973999999999
#
# number of rings (size 3 to 8) (size 9 to 14) (size 15 to 20)
#    0.000    2.250    2.500    1.125    0.000    2.250 
#    0.000    1.250    0.000    0.000    0.000    0.000 
#    0.000    6.000    0.000    0.000    0.000    0.000 
#
# Total GULP energy -793168.593446 kJ/mol
# GULP energy per Si atom -12393.259273 kJ/mol
# Density = 1.805578 g / cm^3
# Si number density = 18.096974 Si / 1000 Ang^3
#
#
#
# Elastic Constant Matrix: (Units=GPa)
#
#
# Indices 1 2 3 4 5 6 
#
# 1 62.3127 40.4923 32.5933 0.0000 0.0000 0.0000
# 2 40.4923 97.6414 46.6653 0.0000 0.0000 0.0000
# 3 32.5933 46.6653 115.5188 0.0000 0.0000 0.0000
# 4 0.0000 0.0000 0.0000 22.8660 0.0000 0.0000
# 5 0.0000 0.0000 0.0000 0.0000 20.0843 0.0000
# 6 0.0000 0.0000 0.0000 0.0000 0.0000 15.9819
#
#
#
# Elastic Compliance Matrix: (Units=1/GPa)
#
#
# Indices 1 2 3 4 5 6 
#
# 1 0.022915 -0.007947 -0.003255 0.000000 0.000000 0.000000
# 2 -0.007947 0.015448 -0.003998 0.000000 0.000000 0.000000
# 3 -0.003255 -0.003998 0.011190 0.000000 0.000000 0.000000
# 4 0.000000 0.000000 0.000000 0.043733 0.000000 0.000000
# 5 0.000000 0.000000 0.000000 0.000000 0.049790 0.000000
# 6 0.000000 0.000000 0.000000 0.000000 0.000000 0.062571
#
#
# Mechanical properties :
#
#
# Convention : Reuss Voigt Hill
#
# Bulk Modulus (GPa) = 52.21296 57.21940 54.71618
# Shear Modulus (GPa) = 20.62433 22.16792 21.39612
#
# Velocity S-wave (km/s) = 3.37954 3.50373 3.44219
# Velocity P-wave (km/s) = 6.64400 6.93217 6.78962
#
# Compressibility (1/GPa) = 0.01915233
#
# Stress axis : x y z
#
# Youngs Moduli (GPa) = 43.63956 64.73251 89.36470
#
# Poissons Ratio (x) = 0.51445 0.29088
# Poissons Ratio (y) = 0.34682 0.35730
# Poissons Ratio (z) = 0.14205 0.25881
#
# Static dielectric constant tensor:
#      x y z
#    x 3.163770 0.000000 0.000000 
#    y 0.000000 3.204830 0.000000 
#    z 0.000000 0.000000 3.528290 
# 
# 
# High freq. dielectric constant tensor:
#      x y z
#    x 1.680730 0.000000 0.000000 
#    y 0.000000 1.688730 0.000000 
#    z 0.000000 0.000000 1.700860 
# 
# From -- ./inp_files/11195.got.cif
#   From: 2010.03.12/outbox.cif.g09.slc.cpg/sg51_6_cif.got.tgz:11195.got - 2010.04.16 13:43:02.
