data_PCOD8206074
_publ_section_title
;
Structure prediction by ZEFSAII (Michael W. Deem and Ramdas Pophale) SiO2 
 PCOD8206074
Probable space group: P M M A
;
_chemical_formula_sum "Si O2"
_cell_formula_units_Z 48
_cell_length_a 25.955382
_cell_length_b 21.572426
_cell_length_c 5.129524
_cell_angle_alpha 90.000000
_cell_angle_beta 90.000000
_cell_angle_gamma 90.000000
_cell_volume 2872.125938
_symmetry_space_group_name_H-M "P M M A"
_symmetry_group_IT_number 51
_symmetry_cell_setting 'orthorhombic'
loop_
_space_group_symop_operation_xyz
x,y,z
1/2-x,-y,z
1/2+x,-y,-z
-x,y,-z
-x,-y,-z
1/2+x,y,-z
1/2-x,y,z
x,-y,z
loop_
_atom_site_type_symbol
_atom_site_label
_atom_site_fract_x
_atom_site_fract_y
_atom_site_fract_z
Si Si1 0.808198 0.638962 0.002069
Si Si2 0.061008 0.069178 0.499115
Si Si3 0.057754 0.651640 0.462550
Si Si4 0.938838 0.854956 0.000797
Si Si5 0.345517 0.427651 0.501060
Si Si6 0.594726 0.718091 0.040705
O O1 0.750000 0.662907 0.035206
O O2 0.821246 0.587579 0.219049
O O3 0.845398 0.698239 0.031913
O O4 0.813882 0.608240 0.719529
O O5 0.079696 0.104749 0.243243
O O6 0.000000 0.063792 0.500000
O O7 0.084970 0.000000 0.504345
O O8 0.079846 0.107489 0.747692
O O9 0.094742 0.592563 0.495623
O O10 0.070827 0.703964 0.676503
O O11 0.000000 0.627131 0.500000
O O12 0.062766 0.681112 0.177052
O O13 0.908430 0.790759 0.989434
O O14 0.000000 0.842185 0.000000
O O15 0.341834 0.500000 0.447491
#
# Coordination Sequence:
#
# PCOD8206074 Si02
#       6
#     8   8   8   8   8   8
#     4  10  21  36  52  69  93 120 147 195 246 276
#     4   9  17  27  39  60  91 124 153 179 211 253
#     4  10  19  32  48  66  95 126 150 188 231 268
#     4  10  17  26  43  63  88 121 151 182 217 259
#     4  10  21  34  50  73  93 117 156 189 225 285
#     4  10  20  32  47  70  93 118 160 194 225 277
#
# _framework density 16.71236
#
# number of rings (size 3 to 8) (size 9 to 14) (size 15 to 20)
#    0.000    2.167    0.000    4.000    0.000    5.667 
#    0.000    0.000    0.000    6.000    0.000    0.000 
#    0.000    4.000    0.000    0.000    0.000    0.000 
#
# Total GULP energy -595338.723436 kJ/mol
# GULP energy per Si atom -12402.890072 kJ/mol
# Density = 1.667432 g / cm^3
# Si number density = 16.712360 Si / 1000 Ang^3
#
#
#
# Elastic Constant Matrix: (Units=GPa)
#
#
# Indices 1 2 3 4 5 6 
#
# 1 96.8822 37.0014 20.3683 0.0000 0.0000 0.0000
# 2 37.0014 96.6677 19.0560 0.0000 0.0000 0.0000
# 3 20.3683 19.0560 93.6115 0.0000 0.0000 0.0000
# 4 0.0000 0.0000 0.0000 23.6796 0.0000 0.0000
# 5 0.0000 0.0000 0.0000 0.0000 10.8649 0.0000
# 6 0.0000 0.0000 0.0000 0.0000 0.0000 10.6717
#
#
#
# Elastic Compliance Matrix: (Units=1/GPa)
#
#
# Indices 1 2 3 4 5 6 
#
# 1 0.012374 -0.004381 -0.001800 0.000000 0.000000 0.000000
# 2 -0.004381 0.012329 -0.001556 0.000000 0.000000 0.000000
# 3 -0.001800 -0.001556 0.011391 0.000000 0.000000 0.000000
# 4 0.000000 0.000000 0.000000 0.042230 0.000000 0.000000
# 5 0.000000 0.000000 0.000000 0.000000 0.092040 0.000000
# 6 0.000000 0.000000 0.000000 0.000000 0.000000 0.093705
#
#
# Mechanical properties :
#
#
# Convention : Reuss Voigt Hill
#
# Bulk Modulus (GPa) = 48.50364 48.89031 48.69697
# Shear Modulus (GPa) = 17.45705 23.09230 20.27467
#
# Velocity S-wave (km/s) = 3.23547 3.72122 3.48682
# Velocity P-wave (km/s) = 6.56074 6.91237 6.73885
#
# Compressibility (1/GPa) = 0.02061701
#
# Stress axis : x y z
#
# Youngs Moduli (GPa) = 80.81682 81.11251 87.78853
#
# Poissons Ratio (x) = 0.35538 0.15806
# Poissons Ratio (y) = 0.35409 0.13663
# Poissons Ratio (z) = 0.14550 0.12624
#
# Static dielectric constant tensor:
#      x y z
#    x 2.961830 0.000000 0.000000 
#    y 0.000000 3.045520 0.000000 
#    z 0.000000 0.000000 3.506520 
# 
# 
# High freq. dielectric constant tensor:
#      x y z
#    x 1.606020 0.000000 0.000000 
#    y 0.000000 1.634900 0.000000 
#    z 0.000000 0.000000 1.670670 
# 
# From -- ./inp_files/3071.got.cif
#   From: 2010.03.12/outbox.cif.g09.slc.cpg/sg51_2_cif.got.tgz:3071.got - 2010.04.16 13:43:02.
