data_PCOD8206612
_publ_section_title
;
Structure prediction by ZEFSAII (Michael W. Deem and Ramdas Pophale) SiO2 
 PCOD8206612
Probable space group: P M M A
;
_chemical_formula_sum "Si O2"
_cell_formula_units_Z 56
_cell_length_a 9.032161
_cell_length_b 21.575850
_cell_length_c 18.314739
_cell_angle_alpha 90.000000
_cell_angle_beta 90.000000
_cell_angle_gamma 90.000000
_cell_volume 3569.113167
_symmetry_space_group_name_H-M "P M M A"
_symmetry_group_IT_number 51
_symmetry_cell_setting 'orthorhombic'
loop_
_space_group_symop_operation_xyz
x,y,z
1/2-x,-y,z
1/2+x,-y,-z
-x,y,-z
-x,-y,-z
1/2+x,y,-z
1/2-x,y,z
x,-y,z
loop_
_atom_site_type_symbol
_atom_site_label
_atom_site_fract_x
_atom_site_fract_y
_atom_site_fract_z
Si Si1 0.916783 0.255869 0.283554
Si Si2 0.921159 0.175176 0.155305
Si Si3 0.075771 0.431321 0.670482
Si Si4 0.424287 0.289539 0.075613
Si Si5 0.918868 0.636351 0.787945
Si Si6 0.576982 0.071535 0.924698
Si Si7 0.918738 0.682920 0.425771
O O1 0.750000 0.281611 0.266171
O O2 0.935275 0.189644 0.242820
O O3 0.936450 0.257207 0.371648
O O4 0.042091 0.299807 0.251891
O O5 0.750000 0.168838 0.132144
O O6 0.994876 0.229434 0.108049
O O7 0.005884 0.111036 0.140767
O O8 0.250000 0.426578 0.676388
O O9 0.025666 0.500000 0.644729
O O10 0.016691 0.379480 0.613338
O O11 0.014329 0.418880 0.752378
O O12 0.250000 0.274670 0.066810
O O13 0.448431 0.350572 0.126355
O O14 0.500000 0.307321 0.000000
O O15 0.750000 0.619517 0.772979
O O16 0.750000 0.085618 0.931335
O O17 0.545334 0.000000 0.906886
O O18 0.500000 0.091733 0.000000
O O19 0.750000 0.670816 0.446546
O O20 0.000000 0.698722 0.500000
#
# Coordination Sequence:
#
# PCOD8206612 Si02
#       7
#     8   8   8   8   8   8   8
#     4   8  16  30  45  61  84 114 142 170 208 255
#     4  10  18  29  46  64  84 113 148 182 214 250
#     4   9  18  32  47  61  81 112 144 170 202 250
#     4  10  19  29  42  62  86 109 136 173 217 260
#     4   9  17  28  43  63  83 103 133 176 216 248
#     4  10  20  32  44  60  87 122 155 186 219 253
#     4   9  17  29  44  64  90 115 139 167 203 248
#
# _framework density 15.690172
#
# number of rings (size 3 to 8) (size 9 to 14) (size 15 to 20)
#    0.000    2.714    0.000    3.000    0.000    6.000 
#    0.000    0.000    0.000    0.429    0.000    0.000 
#    0.000    0.571    0.000    1.286    0.000    2.286 
#
# Total GULP energy -693847.756982 kJ/mol
# GULP energy per Si atom -12390.138518 kJ/mol
# Density = 1.565446 g / cm^3
# Si number density = 15.690172 Si / 1000 Ang^3
#
#
#
# Elastic Constant Matrix: (Units=GPa)
#
#
# Indices 1 2 3 4 5 6 
#
# 1 64.2220 28.6270 45.8973 0.0000 0.0000 0.0000
# 2 28.6270 62.0860 47.4372 0.0000 0.0000 0.0000
# 3 45.8973 47.4372 113.9413 0.0000 0.0000 0.0000
# 4 0.0000 0.0000 0.0000 19.6148 0.0000 0.0000
# 5 0.0000 0.0000 0.0000 0.0000 26.6530 0.0000
# 6 0.0000 0.0000 0.0000 0.0000 0.0000 22.1913
#
#
#
# Elastic Compliance Matrix: (Units=1/GPa)
#
#
# Indices 1 2 3 4 5 6 
#
# 1 0.022939 -0.005157 -0.007093 0.000000 0.000000 0.000000
# 2 -0.005157 0.024780 -0.008239 0.000000 0.000000 0.000000
# 3 -0.007093 -0.008239 0.015064 0.000000 0.000000 0.000000
# 4 0.000000 0.000000 0.000000 0.050982 0.000000 0.000000
# 5 0.000000 0.000000 0.000000 0.000000 0.037519 0.000000
# 6 0.000000 0.000000 0.000000 0.000000 0.000000 0.045063
#
#
# Mechanical properties :
#
#
# Convention : Reuss Voigt Hill
#
# Bulk Modulus (GPa) = 45.86391 53.79692 49.83042
# Shear Modulus (GPa) = 20.44210 21.57769 21.00990
#
# Velocity S-wave (km/s) = 3.61343 3.71244 3.66327
# Velocity P-wave (km/s) = 6.83400 7.26208 7.05129
#
# Compressibility (1/GPa) = 0.02180363
#
# Stress axis : x y z
#
# Youngs Moduli (GPa) = 43.59379 40.35544 66.38428
#
# Poissons Ratio (x) = 0.20813 0.47087
# Poissons Ratio (y) = 0.22483 0.54695
# Poissons Ratio (z) = 0.30921 0.33249
#
# Static dielectric constant tensor:
#      x y z
#    x 3.081140 0.000000 0.000000 
#    y 0.000000 2.911570 0.000000 
#    z 0.000000 0.000000 3.079170 
# 
# 
# High freq. dielectric constant tensor:
#      x y z
#    x 1.615070 0.000000 0.000000 
#    y 0.000000 1.567410 0.000000 
#    z 0.000000 0.000000 1.589150 
# 
# From -- ./inp_files/28173.got.cif
#   From: 2010.03.12/outbox.cif.g09.slc.cpg/sg51_15_cif.got.tgz:28173.got - 2010.04.16 13:43:02.
