data_PCOD8206476
_publ_section_title
;
Structure prediction by ZEFSAII (Michael W. Deem and Ramdas Pophale) SiO2 
 PCOD8206476
Probable space group: P M M A
;
_chemical_formula_sum "Si O2"
_cell_formula_units_Z 64
_cell_length_a 23.066676
_cell_length_b 9.012955
_cell_length_c 17.263805
_cell_angle_alpha 90.000000
_cell_angle_beta 90.000000
_cell_angle_gamma 90.000000
_cell_volume 3589.126290
_symmetry_space_group_name_H-M "P M M A"
_symmetry_group_IT_number 51
_symmetry_cell_setting 'orthorhombic'
loop_
_space_group_symop_operation_xyz
x,y,z
1/2-x,-y,z
1/2+x,-y,-z
-x,y,-z
-x,-y,-z
1/2+x,y,-z
1/2-x,y,z
x,-y,z
loop_
_atom_site_type_symbol
_atom_site_label
_atom_site_fract_x
_atom_site_fract_y
_atom_site_fract_z
Si Si1 0.392157 0.826184 0.586013
Si Si2 0.183954 0.328589 0.709820
Si Si3 0.494557 0.825973 0.914294
Si Si4 0.315627 0.828908 0.440803
Si Si5 0.075345 0.176513 0.224619
Si Si6 0.986978 0.667218 0.328073
Si Si7 0.315982 0.326508 0.280240
Si Si8 0.592149 0.662253 0.177800
O O1 0.345313 0.781216 0.649581
O O2 0.363850 0.783451 0.503710
O O3 0.453918 0.743207 0.598911
O O4 0.404187 0.000000 0.592586
O O5 0.250000 0.282835 0.715234
O O6 0.174807 0.500000 0.683717
O O7 0.158066 0.304360 0.796682
O O8 0.543782 0.767595 0.854556
O O9 0.431176 0.782896 0.882426
O O10 0.498930 0.000000 0.920153
O O11 0.500000 0.755071 0.000000
O O12 0.250000 0.803188 0.472945
O O13 0.327010 0.725574 0.367561
O O14 0.323331 0.000000 0.415767
O O15 0.140741 0.239080 0.222728
O O16 0.043362 0.240285 0.301222
O O17 0.075317 0.000000 0.229850
O O18 0.005663 0.500000 0.350723
O O19 0.942279 0.666952 0.258043
O O20 0.250000 0.290643 0.254715
O O21 0.329287 0.500000 0.274736
O O22 0.585874 0.500000 0.139023
#
# Coordination Sequence:
#
# PCOD8206476 Si02
#       8
#     8   8   8   8   8   8   8   8
#     4  10  18  28  44  68  97 127 164 209 251 291
#     4   9  17  28  42  62  91 128 166 200 235 279
#     4   9  18  32  51  76 101 122 147 183 229 281
#     4   9  18  32  48  67  94 128 166 210 256 297
#     4  10  19  33  55  78 100 128 159 195 240 289
#     4   9  17  30  47  68  97 130 162 198 240 287
#     4  10  21  36  54  75  98 126 162 204 246 289
#     4   8  15  27  43  65  92 123 157 190 225 268
#
# _framework density 17.831638000000002
#
# number of rings (size 3 to 8) (size 9 to 14) (size 15 to 20)
#    0.000    2.750    0.000    2.625    0.000    6.250 
#    0.000    1.875    0.000    4.500    0.000    3.500 
#    0.000    0.000    0.000    0.000    0.000    0.000 
#
# Total GULP energy -793284.595188 kJ/mol
# GULP energy per Si atom -12395.071800 kJ/mol
# Density = 1.779105 g / cm^3
# Si number density = 17.831638 Si / 1000 Ang^3
#
#
#
# Elastic Constant Matrix: (Units=GPa)
#
#
# Indices 1 2 3 4 5 6 
#
# 1 87.0724 36.3251 32.5604 0.0000 0.0000 0.0000
# 2 36.3251 66.4189 29.4137 0.0000 0.0000 0.0000
# 3 32.5604 29.4137 63.4601 0.0000 0.0000 0.0000
# 4 0.0000 0.0000 0.0000 18.1134 0.0000 0.0000
# 5 0.0000 0.0000 0.0000 0.0000 19.3335 0.0000
# 6 0.0000 0.0000 0.0000 0.0000 0.0000 29.6314
#
#
#
# Elastic Compliance Matrix: (Units=1/GPa)
#
#
# Indices 1 2 3 4 5 6 
#
# 1 0.016175 -0.006506 -0.005283 0.000000 0.000000 0.000000
# 2 -0.006506 0.021562 -0.006656 0.000000 0.000000 0.000000
# 3 -0.005283 -0.006656 0.021554 0.000000 0.000000 0.000000
# 4 0.000000 0.000000 0.000000 0.055208 0.000000 0.000000
# 5 0.000000 0.000000 0.000000 0.000000 0.051724 0.000000
# 6 0.000000 0.000000 0.000000 0.000000 0.000000 0.033748
#
#
# Mechanical properties :
#
#
# Convention : Reuss Voigt Hill
#
# Bulk Modulus (GPa) = 44.64366 45.94999 45.29682
# Shear Modulus (GPa) = 20.46442 21.32580 20.89511
#
# Velocity S-wave (km/s) = 3.39137 3.46201 3.42687
# Velocity P-wave (km/s) = 6.35812 6.46571 6.41214
#
# Compressibility (1/GPa) = 0.02239960
#
# Stress axis : x y z
#
# Youngs Moduli (GPa) = 61.82487 46.37837 46.39604
#
# Poissons Ratio (x) = 0.30176 0.24512
# Poissons Ratio (y) = 0.40226 0.30879
# Poissons Ratio (z) = 0.32664 0.30867
#
# Static dielectric constant tensor:
#      x y z
#    x 3.511200 0.000000 0.000000 
#    y 0.000000 3.310190 0.000000 
#    z 0.000000 0.000000 3.185650 
# 
# 
# High freq. dielectric constant tensor:
#      x y z
#    x 1.689830 0.000000 0.000000 
#    y 0.000000 1.693930 0.000000 
#    z 0.000000 0.000000 1.653800 
# 
# From -- ./inp_files/30932.got.cif
#   From: 2010.03.12/outbox.cif.g09.slc.cpg/sg51_16_cif.got.tgz:30932.got - 2010.04.16 13:43:02.
