data_PCOD8206898
_publ_section_title
;
Structure prediction by ZEFSAII (Michael W. Deem and Ramdas Pophale) SiO2 
 PCOD8206898
Probable space group: P M M A
;
_chemical_formula_sum "Si O2"
_cell_formula_units_Z 48
_cell_length_a 8.703764
_cell_length_b 30.616358
_cell_length_c 9.248857
_cell_angle_alpha 90.000000
_cell_angle_beta 90.000000
_cell_angle_gamma 90.000000
_cell_volume 2464.612796
_symmetry_space_group_name_H-M "P M M A"
_symmetry_group_IT_number 51
_symmetry_cell_setting 'orthorhombic'
loop_
_space_group_symop_operation_xyz
x,y,z
1/2-x,-y,z
1/2+x,-y,-z
-x,y,-z
-x,-y,-z
1/2+x,y,-z
1/2-x,y,z
x,-y,z
loop_
_atom_site_type_symbol
_atom_site_label
_atom_site_fract_x
_atom_site_fract_y
_atom_site_fract_z
Si Si1 0.567791 0.087095 0.342346
Si Si2 0.570177 0.421874 0.841006
Si Si3 0.567325 0.000000 0.661079
Si Si4 0.930456 0.833796 0.149470
Si Si5 0.428866 0.662882 0.345755
Si Si6 0.067908 0.500000 0.659835
Si Si7 0.931645 0.264679 0.153570
O O1 0.500000 0.090540 0.500000
O O2 0.750000 0.082447 0.345886
O O3 0.496492 0.044156 0.262406
O O4 0.512024 0.131453 0.266430
O O5 0.750000 0.432890 0.850199
O O6 0.538555 0.375555 0.767251
O O7 0.486553 0.457632 0.744868
O O8 0.500000 0.421369 0.000000
O O9 0.500000 0.000000 0.500000
O O10 0.750000 0.000000 0.660071
O O11 0.750000 0.834589 0.133983
O O12 0.985185 0.784813 0.189064
O O13 0.000000 0.849555 0.000000
O O14 0.500000 0.650386 0.500000
O O15 0.250000 0.671340 0.367449
O O16 0.505465 0.706507 0.284289
O O17 0.250000 0.500000 0.648190
O O18 0.000000 0.500000 0.500000
O O19 0.750000 0.269546 0.144496
O O20 0.000000 0.280191 0.000000
#
# Coordination Sequence:
#
# PCOD8206898 Si02
#       7
#     8   8   4   8   8   4   8
#     4  10  19  33  52  76 104 136 175 219 267 320
#     4  11  24  42  64  90 121 157 198 239 285 339
#     4  10  18  30  49  74 101 134 174 216 266 320
#     4   9  20  36  55  79 108 142 180 222 271 325
#     4  11  24  40  60  87 118 153 191 236 286 336
#     4  12  25  42  65  92 124 158 196 242 293 342
#     4  10  20  37  59  83 112 147 187 230 277 333
#
# _framework density 19.475674999999999
#
# number of rings (size 3 to 8) (size 9 to 14) (size 15 to 20)
#    0.000    1.667    0.000    5.750    0.000    8.000 
#    0.000    2.083    0.000    0.000    0.000    0.000 
#    0.000    0.000    0.000    0.000    0.000    0.000 
#
# Total GULP energy -595250.883803 kJ/mol
# GULP energy per Si atom -12401.060079 kJ/mol
# Density = 1.943135 g / cm^3
# Si number density = 19.475675 Si / 1000 Ang^3
#
#
#
# Elastic Constant Matrix: (Units=GPa)
#
#
# Indices 1 2 3 4 5 6 
#
# 1 114.5269 62.1390 56.7893 0.0000 0.0000 0.0000
# 2 62.1390 126.4095 65.4986 0.0000 0.0000 0.0000
# 3 56.7893 65.4986 124.2202 0.0000 0.0000 0.0000
# 4 0.0000 0.0000 0.0000 45.1292 0.0000 0.0000
# 5 0.0000 0.0000 0.0000 0.0000 35.7302 0.0000
# 6 0.0000 0.0000 0.0000 0.0000 0.0000 31.6469
#
#
#
# Elastic Compliance Matrix: (Units=1/GPa)
#
#
# Indices 1 2 3 4 5 6 
#
# 1 0.012940 -0.004534 -0.003525 0.000000 0.000000 0.000000
# 2 -0.004534 0.012474 -0.004504 0.000000 0.000000 0.000000
# 3 -0.003525 -0.004504 0.012036 0.000000 0.000000 0.000000
# 4 0.000000 0.000000 0.000000 0.022159 0.000000 0.000000
# 5 0.000000 0.000000 0.000000 0.000000 0.027987 0.000000
# 6 0.000000 0.000000 0.000000 0.000000 0.000000 0.031599
#
#
# Mechanical properties :
#
#
# Convention : Reuss Voigt Hill
#
# Bulk Modulus (GPa) = 81.14671 81.55671 81.35171
# Shear Modulus (GPa) = 33.68632 34.54992 34.11812
#
# Velocity S-wave (km/s) = 4.16343 4.21646 4.19003
# Velocity P-wave (km/s) = 8.05409 8.10382 8.07899
#
# Compressibility (1/GPa) = 0.01232336
#
# Stress axis : x y z
#
# Youngs Moduli (GPa) = 77.28256 80.16982 83.08112
#
# Poissons Ratio (x) = 0.36352 0.29283
# Poissons Ratio (y) = 0.35043 0.37420
# Poissons Ratio (z) = 0.27239 0.36109
#
# Static dielectric constant tensor:
#      x y z
#    x 3.662110 0.000000 0.000000 
#    y 0.000000 4.246680 0.000000 
#    z 0.000000 0.000000 3.458880 
# 
# 
# High freq. dielectric constant tensor:
#      x y z
#    x 1.772220 0.000000 0.000000 
#    y 0.000000 1.779130 0.000000 
#    z 0.000000 0.000000 1.747260 
# 
# From -- ./inp_files/6132.got.cif
#   From: 2010.03.12/outbox.cif.g09.slc.cpg/sg51_4_cif.got.tgz:6132.got - 2010.04.16 13:43:02.
