data_PCOD8206714
_publ_section_title
;
Structure prediction by ZEFSAII (Michael W. Deem and Ramdas Pophale) SiO2 
 PCOD8206714
Probable space group: P M M A
;
_chemical_formula_sum "Si O2"
_cell_formula_units_Z 64
_cell_length_a 23.167594
_cell_length_b 9.185636
_cell_length_c 17.545738
_cell_angle_alpha 90.000000
_cell_angle_beta 90.000000
_cell_angle_gamma 90.000000
_cell_volume 3733.892458
_symmetry_space_group_name_H-M "P M M A"
_symmetry_group_IT_number 51
_symmetry_cell_setting 'orthorhombic'
loop_
_space_group_symop_operation_xyz
x,y,z
1/2-x,-y,z
1/2+x,-y,-z
-x,y,-z
-x,-y,-z
1/2+x,y,-z
1/2-x,y,z
x,-y,z
loop_
_atom_site_type_symbol
_atom_site_label
_atom_site_fract_x
_atom_site_fract_y
_atom_site_fract_z
Si Si1 0.982939 0.663124 0.177177
Si Si2 0.895986 0.830226 0.085279
Si Si3 0.000346 0.672403 0.587536
Si Si4 0.396046 0.340924 0.684422
Si Si5 0.686505 0.832474 0.226287
Si Si6 0.814370 0.826882 0.953722
Si Si7 0.068064 0.826433 0.284119
Si Si8 0.186712 0.172075 0.216816
O O1 0.004589 0.500000 0.155529
O O2 0.955031 0.741941 0.102925
O O3 0.934030 0.650854 0.240105
O O4 0.034687 0.759934 0.211392
O O5 0.849844 0.802347 0.151279
O O6 0.912372 0.000000 0.078608
O O7 0.865157 0.767834 0.009023
O O8 0.989815 0.500000 0.599390
O O9 0.063691 0.719227 0.616681
O O10 0.000000 0.719573 0.500000
O O11 0.951961 0.758340 0.635565
O O12 0.372240 0.500000 0.662953
O O13 0.341773 0.237746 0.698424
O O14 0.750000 0.765613 0.213668
O O15 0.690490 0.000000 0.245498
O O16 0.750000 0.774858 0.979439
O O17 0.826703 0.768892 0.868369
O O18 0.816047 0.000000 0.958317
O O19 0.135585 0.782734 0.274356
O O20 0.058304 0.000000 0.284888
O O21 0.250000 0.230397 0.244655
O O22 0.189604 0.000000 0.210898
#
# Coordination Sequence:
#
# PCOD8206714 Si02
#       8
#     8   8   8   8   8   8   8   8
#     4   9  17  29  43  60  88 124 154 183 227 277
#     4   9  15  24  41  64  87 113 153 201 236 266
#     4   9  18  33  52  72  94 118 141 171 218 272
#     4   8  15  27  42  60  81 109 144 175 204 247
#     4   9  16  24  36  58  87 116 144 177 218 256
#     4   8  13  23  41  64  89 118 154 198 244 281
#     4  10  18  29  49  74  95 117 150 190 226 265
#     4   8  15  28  46  69  95 121 151 190 235 277
#
# _framework density 17.140288999999999
#
# number of rings (size 3 to 8) (size 9 to 14) (size 15 to 20)
#    0.000    3.250    0.000    2.625    0.000    5.000 
#    0.000    0.625    0.000    8.625    0.000    7.000 
#    0.000    0.000    0.000    0.000    0.000    0.000 
#
# Total GULP energy -792984.193081 kJ/mol
# GULP energy per Si atom -12390.378017 kJ/mol
# Density = 1.710128 g / cm^3
# Si number density = 17.140289 Si / 1000 Ang^3
#
#
#
# Elastic Constant Matrix: (Units=GPa)
#
#
# Indices 1 2 3 4 5 6 
#
# 1 100.0957 41.6453 47.7627 0.0000 0.0000 0.0000
# 2 41.6453 52.4869 29.2145 0.0000 0.0000 0.0000
# 3 47.7627 29.2145 78.4266 0.0000 0.0000 0.0000
# 4 0.0000 0.0000 0.0000 13.5866 0.0000 0.0000
# 5 0.0000 0.0000 0.0000 0.0000 20.4349 0.0000
# 6 0.0000 0.0000 0.0000 0.0000 0.0000 13.4739
#
#
#
# Elastic Compliance Matrix: (Units=1/GPa)
#
#
# Indices 1 2 3 4 5 6 
#
# 1 0.017442 -0.010000 -0.006897 0.000000 0.000000 0.000000
# 2 -0.010000 0.029770 -0.004999 0.000000 0.000000 0.000000
# 3 -0.006897 -0.004999 0.018814 0.000000 0.000000 0.000000
# 4 0.000000 0.000000 0.000000 0.073602 0.000000 0.000000
# 5 0.000000 0.000000 0.000000 0.000000 0.048936 0.000000
# 6 0.000000 0.000000 0.000000 0.000000 0.000000 0.074218
#
#
# Mechanical properties :
#
#
# Convention : Reuss Voigt Hill
#
# Bulk Modulus (GPa) = 44.98049 52.02824 48.50436
# Shear Modulus (GPa) = 15.92432 16.99152 16.45792
#
# Velocity S-wave (km/s) = 3.05135 3.15194 3.10205
# Velocity P-wave (km/s) = 6.22205 6.60807 6.41796
#
# Compressibility (1/GPa) = 0.02223186
#
# Stress axis : x y z
#
# Youngs Moduli (GPa) = 57.33169 33.59135 53.15313
#
# Poissons Ratio (x) = 0.33593 0.36662
# Poissons Ratio (y) = 0.57334 0.26572
# Poissons Ratio (z) = 0.39544 0.16793
#
# Static dielectric constant tensor:
#      x y z
#    x 3.563540 0.000000 0.000000 
#    y 0.000000 3.109670 0.000000 
#    z 0.000000 0.000000 3.105630 
# 
# 
# High freq. dielectric constant tensor:
#      x y z
#    x 1.657940 0.000000 0.000000 
#    y 0.000000 1.637440 0.000000 
#    z 0.000000 0.000000 1.633350 
# 
# From -- ./inp_files/30813.got.cif
#   From: 2010.03.12/outbox.cif.g09.slc.cpg/sg51_16_cif.got.tgz:30813.got - 2010.04.16 13:43:02.
