data_PCOD8206973
_publ_section_title
;
Structure prediction by ZEFSAII (Michael W. Deem and Ramdas Pophale) SiO2 
 PCOD8206973
Probable space group: P M M A
;
_chemical_formula_sum "Si O2"
_cell_formula_units_Z 40
_cell_length_a 26.028283
_cell_length_b 8.718211
_cell_length_c 9.124969
_cell_angle_alpha 90.000000
_cell_angle_beta 90.000000
_cell_angle_gamma 90.000000
_cell_volume 2070.638542
_symmetry_space_group_name_H-M "P M M A"
_symmetry_group_IT_number 51
_symmetry_cell_setting 'orthorhombic'
loop_
_space_group_symop_operation_xyz
x,y,z
1/2-x,-y,z
1/2+x,-y,-z
-x,y,-z
-x,-y,-z
1/2+x,y,-z
1/2-x,y,z
x,-y,z
loop_
_atom_site_type_symbol
_atom_site_label
_atom_site_fract_x
_atom_site_fract_y
_atom_site_fract_z
Si Si1 0.645058 0.181116 0.429925
Si Si2 0.250000 0.322083 0.569169
Si Si3 0.549780 0.320659 0.590155
Si Si4 0.638972 0.822847 0.099033
Si Si5 0.750000 0.824442 0.124805
Si Si6 0.549425 0.176626 0.899614
O O1 0.698027 0.248249 0.497112
O O2 0.598826 0.229485 0.533201
O O3 0.635631 0.245185 0.264161
O O4 0.650282 0.000000 0.427543
O O5 0.250000 0.500000 0.531903
O O6 0.250000 0.293683 0.742537
O O7 0.500000 0.267236 0.500000
O O8 0.559929 0.500000 0.571229
O O9 0.540155 0.279652 0.758271
O O10 0.697125 0.798432 0.034134
O O11 0.623873 0.000000 0.109096
O O12 0.597831 0.749360 0.988158
O O13 0.750000 0.000000 0.187402
O O14 0.559317 0.000000 0.853182
O O15 0.500000 0.190739 0.000000
#
# Coordination Sequence:
#
# PCOD8206973 Si02
#       6
#     8   4   8   8   4   8
#     4  10  19  35  59  83 108 143 186 225 264 315
#     4  10  18  30  51  82 117 146 176 218 268 318
#     4  11  24  39  54  77 110 145 181 225 279 332
#     4   8  15  29  52  79 103 131 173 223 263 303
#     4   8  14  28  49  74 105 140 178 214 252 306
#     4  10  20  35  55  78 103 135 178 224 270 323
#
# _framework density 19.317713000000001
#
# number of rings (size 3 to 8) (size 9 to 14) (size 15 to 20)
#    0.000    2.400    0.000    4.500    0.000    3.600 
#    0.000    6.000    0.000    2.400    0.000    0.000 
#    0.000    0.000    0.000    0.000    0.000    0.000 
#
# Total GULP energy -495821.784164 kJ/mol
# GULP energy per Si atom -12395.544604 kJ/mol
# Density = 1.927375 g / cm^3
# Si number density = 19.317713 Si / 1000 Ang^3
#
#
#
# Elastic Constant Matrix: (Units=GPa)
#
#
# Indices 1 2 3 4 5 6 
#
# 1 158.0925 36.0850 47.2161 0.0000 0.0000 0.0000
# 2 36.0850 61.4706 18.4207 0.0000 0.0000 0.0000
# 3 47.2161 18.4207 78.4140 0.0000 0.0000 0.0000
# 4 0.0000 0.0000 0.0000 19.1630 0.0000 0.0000
# 5 0.0000 0.0000 0.0000 0.0000 34.3251 0.0000
# 6 0.0000 0.0000 0.0000 0.0000 0.0000 22.2461
#
#
#
# Elastic Compliance Matrix: (Units=1/GPa)
#
#
# Indices 1 2 3 4 5 6 
#
# 1 0.008422 -0.003684 -0.004206 0.000000 0.000000 0.000000
# 2 -0.003684 0.019111 -0.002271 0.000000 0.000000 0.000000
# 3 -0.004206 -0.002271 0.015819 0.000000 0.000000 0.000000
# 4 0.000000 0.000000 0.000000 0.052184 0.000000 0.000000
# 5 0.000000 0.000000 0.000000 0.000000 0.029133 0.000000
# 6 0.000000 0.000000 0.000000 0.000000 0.000000 0.044952
#
#
# Mechanical properties :
#
#
# Convention : Reuss Voigt Hill
#
# Bulk Modulus (GPa) = 43.42142 55.71340 49.56741
# Shear Modulus (GPa) = 25.30101 28.23053 26.76577
#
# Velocity S-wave (km/s) = 3.62295 3.82695 3.72634
# Velocity P-wave (km/s) = 6.32671 6.95921 6.65048
#
# Compressibility (1/GPa) = 0.02303011
#
# Stress axis : x y z
#
# Youngs Moduli (GPa) = 118.73044 52.32570 63.21489
#
# Poissons Ratio (x) = 0.19276 0.26589
# Poissons Ratio (y) = 0.43738 0.14358
# Poissons Ratio (z) = 0.49939 0.11885
#
# Static dielectric constant tensor:
#      x y z
#    x 3.957620 0.000000 0.000000 
#    y 0.000000 3.273810 0.000000 
#    z 0.000000 0.000000 3.288580 
# 
# 
# High freq. dielectric constant tensor:
#      x y z
#    x 1.779100 0.000000 0.000000 
#    y 0.000000 1.728140 0.000000 
#    z 0.000000 0.000000 1.718450 
# 
# From -- ./inp_files/12133.got.cif
#   From: 2010.03.12/outbox.cif.g09.slc.cpg/sg51_7_cif.got.tgz:12133.got - 2010.04.16 13:43:02.
