data_PCOD8206716
_publ_section_title
;
Structure prediction by ZEFSAII (Michael W. Deem and Ramdas Pophale) SiO2 
 PCOD8206716
Probable space group: P M M A
;
_chemical_formula_sum "Si O2"
_cell_formula_units_Z 64
_cell_length_a 9.113679
_cell_length_b 18.606920
_cell_length_c 20.662710
_cell_angle_alpha 90.000000
_cell_angle_beta 90.000000
_cell_angle_gamma 90.000000
_cell_volume 3503.930624
_symmetry_space_group_name_H-M "P M M A"
_symmetry_group_IT_number 51
_symmetry_cell_setting 'orthorhombic'
loop_
_space_group_symop_operation_xyz
x,y,z
1/2-x,-y,z
1/2+x,-y,-z
-x,y,-z
-x,-y,-z
1/2+x,y,-z
1/2-x,y,z
x,-y,z
loop_
_atom_site_type_symbol
_atom_site_label
_atom_site_fract_x
_atom_site_fract_y
_atom_site_fract_z
Si Si1 0.924424 0.170862 0.807445
Si Si2 0.921925 0.660373 0.565336
Si Si3 0.423881 0.919555 0.315776
Si Si4 0.577499 0.825479 0.565383
Si Si5 0.910700 0.666518 0.059607
Si Si6 0.581752 0.416526 0.320748
Si Si7 0.415034 0.837217 0.938118
Si Si8 0.422984 0.680607 0.799995
O O1 0.750000 0.176415 0.816446
O O2 0.971432 0.115126 0.751967
O O3 0.996376 0.142114 0.873497
O O4 0.985849 0.247828 0.785324
O O5 0.750000 0.649164 0.556443
O O6 0.962418 0.742878 0.580665
O O7 0.000000 0.634313 0.500000
O O8 0.976871 0.611065 0.623207
O O9 0.250000 0.920973 0.320532
O O10 0.485515 0.872816 0.375613
O O11 0.488975 0.000000 0.319899
O O12 0.500000 0.851951 0.500000
O O13 0.750000 0.835622 0.556020
O O14 0.750000 0.633238 0.052386
O O15 0.907380 0.752101 0.054454
O O16 0.974332 0.647106 0.130749
O O17 0.000000 0.632500 0.000000
O O18 0.750000 0.400870 0.340027
O O19 0.552879 0.500000 0.309323
O O20 0.540056 0.377202 0.254350
O O21 0.250000 0.869088 0.934890
O O22 0.500000 0.870408 0.000000
O O23 0.250000 0.700250 0.803629
#
# Coordination Sequence:
#
# PCOD8206716 Si02
#       8
#     8   8   8   8   8   8   8   8
#     4  10  18  29  49  74  97 127 168 208 246 292
#     4  10  20  35  55  78 102 128 160 199 243 293
#     4   9  18  32  49  70  99 133 165 199 242 292
#     4   9  18  33  53  76 100 127 161 200 242 289
#     4   8  14  24  40  64  92 121 152 189 235 282
#     4  10  21  36  53  73  98 130 167 206 249 295
#     4   9  16  27  44  69 100 129 159 201 252 299
#     4   9  18  32  49  70  98 130 163 203 251 298
#
# _framework density 18.265201000000001
#
# number of rings (size 3 to 8) (size 9 to 14) (size 15 to 20)
#    0.000    2.750    0.000    2.625    0.000    5.750 
#    0.000    1.250    0.000    3.750    0.000    0.000 
#    0.000    0.000    0.000    0.000    0.000    1.375 
#
# Total GULP energy -793491.871471 kJ/mol
# GULP energy per Si atom -12398.310492 kJ/mol
# Density = 1.822363 g / cm^3
# Si number density = 18.265201 Si / 1000 Ang^3
#
#
#
# Elastic Constant Matrix: (Units=GPa)
#
#
# Indices 1 2 3 4 5 6 
#
# 1 70.7270 27.1336 49.3664 0.0000 0.0000 0.0000
# 2 27.1336 61.4196 49.6692 0.0000 0.0000 0.0000
# 3 49.3664 49.6692 145.9699 0.0000 0.0000 0.0000
# 4 0.0000 0.0000 0.0000 2.0262 0.0000 0.0000
# 5 0.0000 0.0000 0.0000 0.0000 34.4582 0.0000
# 6 0.0000 0.0000 0.0000 0.0000 0.0000 13.9153
#
#
#
# Elastic Compliance Matrix: (Units=1/GPa)
#
#
# Indices 1 2 3 4 5 6 
#
# 1 0.019368 -0.004497 -0.005020 0.000000 0.000000 0.000000
# 2 -0.004497 0.023506 -0.006478 0.000000 0.000000 0.000000
# 3 -0.005020 -0.006478 0.010753 0.000000 0.000000 0.000000
# 4 0.000000 0.000000 0.000000 0.493533 0.000000 0.000000
# 5 0.000000 0.000000 0.000000 0.000000 0.029021 0.000000
# 6 0.000000 0.000000 0.000000 0.000000 0.000000 0.071863
#
#
# Mechanical properties :
#
#
# Convention : Reuss Voigt Hill
#
# Bulk Modulus (GPa) = 46.21477 58.93944 52.57711
# Shear Modulus (GPa) = 7.27542 20.20975 13.74258
#
# Velocity S-wave (km/s) = 1.99796 3.32996 2.74595
# Velocity P-wave (km/s) = 5.53891 6.86466 6.23711
#
# Compressibility (1/GPa) = 0.02163810
#
# Stress axis : x y z
#
# Youngs Moduli (GPa) = 51.63191 42.54153 92.99971
#
# Poissons Ratio (x) = 0.19129 0.46687
# Poissons Ratio (y) = 0.23216 0.60244
# Poissons Ratio (z) = 0.25920 0.27558
#
# Static dielectric constant tensor:
#      x y z
#    x 3.344880 0.000000 0.000000 
#    y 0.000000 3.106310 0.000000 
#    z 0.000000 0.000000 3.694310 
# 
# 
# High freq. dielectric constant tensor:
#      x y z
#    x 1.698700 0.000000 0.000000 
#    y 0.000000 1.669900 0.000000 
#    z 0.000000 0.000000 1.727140 
# 
# From -- ./inp_files/32371.got.cif
#   From: 2010.03.12/outbox.cif.g09.slc.cpg/sg51_17_cif.got.tgz:32371.got - 2010.04.16 13:43:02.
