data_PCOD8206526
_publ_section_title
;
Structure prediction by ZEFSAII (Michael W. Deem and Ramdas Pophale) SiO2 
 PCOD8206526
Probable space group: P M M A
;
_chemical_formula_sum "Si O2"
_cell_formula_units_Z 64
_cell_length_a 16.276423
_cell_length_b 9.150117
_cell_length_c 23.174579
_cell_angle_alpha 90.000000
_cell_angle_beta 90.000000
_cell_angle_gamma 90.000000
_cell_volume 3451.417276
_symmetry_space_group_name_H-M "P M M A"
_symmetry_group_IT_number 51
_symmetry_cell_setting 'orthorhombic'
loop_
_space_group_symop_operation_xyz
x,y,z
1/2-x,-y,z
1/2+x,-y,-z
-x,y,-z
-x,-y,-z
1/2+x,y,-z
1/2-x,y,z
x,-y,z
loop_
_atom_site_type_symbol
_atom_site_label
_atom_site_fract_x
_atom_site_fract_y
_atom_site_fract_z
Si Si1 0.339480 0.332012 0.817568
Si Si2 0.499527 0.667509 0.750094
Si Si3 0.658703 0.826547 0.556735
Si Si4 0.556367 0.334877 0.870792
Si Si5 0.492564 0.826053 0.366488
Si Si6 0.341384 0.173605 0.573777
Si Si7 0.092420 0.171875 0.920139
Si Si8 0.841477 0.667537 0.975648
O O1 0.250000 0.308524 0.788556
O O2 0.354080 0.500000 0.834699
O O3 0.409570 0.282660 0.772822
O O4 0.340574 0.239629 0.876644
O O5 0.498326 0.500000 0.728965
O O6 0.566071 0.691150 0.801893
O O7 0.524284 0.770580 0.697759
O O8 0.750000 0.776010 0.578895
O O9 0.583476 0.764521 0.595163
O O10 0.645895 0.769812 0.491495
O O11 0.654996 0.000000 0.557494
O O12 0.520753 0.500000 0.879239
O O13 0.496038 0.214999 0.896565
O O14 0.639672 0.315925 0.907106
O O15 0.581631 0.765814 0.388610
O O16 0.492576 0.000000 0.366815
O O17 0.250000 0.225399 0.596154
O O18 0.343838 0.000000 0.574737
O O19 0.100371 0.234009 0.984776
O O20 0.102989 0.000000 0.922198
O O21 0.750000 0.724227 0.984960
O O22 0.852240 0.500000 0.994843
#
# Coordination Sequence:
#
# PCOD8206526 Si02
#       8
#     8   8   8   8   8   8   8   8
#     4   9  18  34  53  69  90 126 167 199 229 276
#     4   9  19  34  49  67  93 125 160 196 234 276
#     4   8  14  26  45  69  96 125 159 198 236 276
#     4   9  19  37  55  67  87 125 167 199 229 275
#     4  10  18  28  47  73  96 122 159 199 237 280
#     4   8  14  25  43  70 101 127 153 191 236 279
#     4  11  21  31  48  76 104 125 148 185 238 295
#     4  10  20  34  53  74  93 117 154 198 240 284
#
# _framework density 18.543108
#
# number of rings (size 3 to 8) (size 9 to 14) (size 15 to 20)
#    0.000    2.750    0.000    3.750    0.000    8.000 
#    0.000    0.625    0.000    2.625    0.000    1.750 
#    0.000    0.000    0.000    0.000    0.000    0.000 
#
# Total GULP energy -793017.571044 kJ/mol
# GULP energy per Si atom -12390.899548 kJ/mol
# Density = 1.850090 g / cm^3
# Si number density = 18.543108 Si / 1000 Ang^3
#
#
#
# Elastic Constant Matrix: (Units=GPa)
#
#
# Indices 1 2 3 4 5 6 
#
# 1 80.3410 21.8897 43.5579 0.0000 0.0000 0.0000
# 2 21.8897 46.2881 27.6623 0.0000 0.0000 0.0000
# 3 43.5579 27.6623 108.3124 0.0000 0.0000 0.0000
# 4 0.0000 0.0000 0.0000 24.0399 0.0000 0.0000
# 5 0.0000 0.0000 0.0000 0.0000 20.1625 0.0000
# 6 0.0000 0.0000 0.0000 0.0000 0.0000 7.4049
#
#
#
# Elastic Compliance Matrix: (Units=1/GPa)
#
#
# Indices 1 2 3 4 5 6 
#
# 1 0.016703 -0.004584 -0.005546 0.000000 0.000000 0.000000
# 2 -0.004584 0.026753 -0.004989 0.000000 0.000000 0.000000
# 3 -0.005546 -0.004989 0.012737 0.000000 0.000000 0.000000
# 4 0.000000 0.000000 0.000000 0.041598 0.000000 0.000000
# 5 0.000000 0.000000 0.000000 0.000000 0.049597 0.000000
# 6 0.000000 0.000000 0.000000 0.000000 0.000000 0.135046
#
#
# Mechanical properties :
#
#
# Convention : Reuss Voigt Hill
#
# Bulk Modulus (GPa) = 38.52958 46.79570 42.66264
# Shear Modulus (GPa) = 15.56059 19.77688 17.66873
#
# Velocity S-wave (km/s) = 2.89996 3.26933 3.09017
# Velocity P-wave (km/s) = 5.66008 6.28827 5.98243
#
# Compressibility (1/GPa) = 0.02595409
#
# Stress axis : x y z
#
# Youngs Moduli (GPa) = 59.86951 37.37866 78.51040
#
# Poissons Ratio (x) = 0.17136 0.43544
# Poissons Ratio (y) = 0.27446 0.39169
# Poissons Ratio (z) = 0.33205 0.18648
#
# Static dielectric constant tensor:
#      x y z
#    x 3.652080 0.000000 0.000000 
#    y 0.000000 2.989050 0.000000 
#    z 0.000000 0.000000 3.392150 
# 
# 
# High freq. dielectric constant tensor:
#      x y z
#    x 1.717390 0.000000 0.000000 
#    y 0.000000 1.679130 0.000000 
#    z 0.000000 0.000000 1.710980 
# 
# From -- ./inp_files/35704.got.cif
#   From: 2010.03.12/outbox.cif.g09.slc.cpg/sg51_18_cif.got.tgz:35704.got - 2010.04.16 13:43:02.
