data_PCOD8206936
_publ_section_title
;
Structure prediction by ZEFSAII (Michael W. Deem and Ramdas Pophale) SiO2 
 PCOD8206936
Probable space group: P M M A
;
_chemical_formula_sum "Si O2"
_cell_formula_units_Z 56
_cell_length_a 20.398228
_cell_length_b 9.031393
_cell_length_c 14.665750
_cell_angle_alpha 90.000000
_cell_angle_beta 90.000000
_cell_angle_gamma 90.000000
_cell_volume 2701.789193
_symmetry_space_group_name_H-M "P M M A"
_symmetry_group_IT_number 51
_symmetry_cell_setting 'orthorhombic'
loop_
_space_group_symop_operation_xyz
x,y,z
1/2-x,-y,z
1/2+x,-y,-z
-x,y,-z
-x,-y,-z
1/2+x,y,-z
1/2-x,y,z
x,-y,z
loop_
_atom_site_type_symbol
_atom_site_label
_atom_site_fract_x
_atom_site_fract_y
_atom_site_fract_z
Si Si1 0.353161 0.164868 0.646834
Si Si2 0.462780 0.824912 0.908134
Si Si3 0.177927 0.824492 0.847860
Si Si4 0.825343 0.173188 0.709669
Si Si5 0.443672 0.673658 0.234120
Si Si6 0.501469 0.834600 0.603959
Si Si7 0.824530 0.338672 0.532136
O O1 0.329391 0.230540 0.743594
O O2 0.430719 0.156722 0.648645
O O3 0.329703 0.273161 0.568317
O O4 0.323885 0.000000 0.630617
O O5 0.385731 0.771684 0.907467
O O6 0.500798 0.745481 0.827459
O O7 0.467154 0.000000 0.892276
O O8 0.500000 0.776965 0.000000
O O9 0.250000 0.768389 0.884969
O O10 0.177207 0.000000 0.848520
O O11 0.750000 0.214504 0.730087
O O12 0.871080 0.257082 0.784418
O O13 0.849657 0.223567 0.608513
O O14 0.837197 0.000000 0.718779
O O15 0.441958 0.500000 0.217839
O O16 0.458181 0.714751 0.339052
O O17 0.500000 0.776905 0.500000
O O18 0.533357 0.000000 0.607853
O O19 0.750000 0.367364 0.555378
O O20 0.860460 0.500000 0.537903
#
# Coordination Sequence:
#
# PCOD8206936 Si02
#       7
#     8   8   8   8   8   8   8
#     4  10  18  30  50  76 110 154 201 249 295 349
#     4  10  21  41  67  91 118 157 203 253 308 369
#     4   9  17  32  57  88 117 147 192 250 304 355
#     4  10  21  38  60  83 111 154 208 257 297 348
#     4  12  24  38  60  88 122 157 192 246 309 373
#     4  10  20  34  54  81 116 158 205 251 290 343
#     4  10  20  32  47  74 116 159 198 244 299 358
#
# _framework density 20.727004999999998
#
# number of rings (size 3 to 8) (size 9 to 14) (size 15 to 20)
#    0.000    1.857    1.429    3.429    0.000    4.571 
#    0.000    0.714    0.000    3.000    0.000    0.000 
#    0.000    0.000    0.000    0.000    0.000    0.000 
#
# Total GULP energy -693925.000639 kJ/mol
# GULP energy per Si atom -12391.517869 kJ/mol
# Density = 2.067983 g / cm^3
# Si number density = 20.727005 Si / 1000 Ang^3
#
#
#
# Elastic Constant Matrix: (Units=GPa)
#
#
# Indices 1 2 3 4 5 6 
#
# 1 149.8004 27.9305 58.8488 0.0000 0.0000 0.0000
# 2 27.9305 67.5569 22.2695 0.0000 0.0000 0.0000
# 3 58.8488 22.2695 64.8836 0.0000 0.0000 0.0000
# 4 0.0000 0.0000 0.0000 41.0535 0.0000 0.0000
# 5 0.0000 0.0000 0.0000 0.0000 28.6177 0.0000
# 6 0.0000 0.0000 0.0000 0.0000 0.0000 -12.3506
#
#
#
# Elastic Compliance Matrix: (Units=1/GPa)
#
#
# Indices 1 2 3 4 5 6 
#
# 1 0.010479 -0.001352 -0.009040 0.000000 0.000000 0.000000
# 2 -0.001352 0.016865 -0.004562 0.000000 0.000000 0.000000
# 3 -0.009040 -0.004562 0.025177 0.000000 0.000000 0.000000
# 4 0.000000 0.000000 0.000000 0.024358 0.000000 0.000000
# 5 0.000000 0.000000 0.000000 0.000000 0.034943 0.000000
# 6 0.000000 0.000000 0.000000 0.000000 0.000000 -0.080968
#
#
# Mechanical properties :
#
#
# Convention : Reuss Voigt Hill
#
# Bulk Modulus (GPa) = 44.22315 55.59316 49.90816
# Shear Modulus (GPa) = 73.20349 23.01028 48.10688
#
# Velocity S-wave (km/s) = 5.94934 3.33552 4.82288
# Velocity P-wave (km/s) = 8.28101 6.45864 7.42594
#
# Compressibility (1/GPa) = 0.02261259
#
# Stress axis : x y z
#
# Youngs Moduli (GPa) = 95.42715 59.29352 39.71808
#
# Poissons Ratio (x) = 0.08019 0.35907
# Poissons Ratio (y) = 0.12906 0.18119
# Poissons Ratio (z) = 0.86269 0.27049
#
# Static dielectric constant tensor:
#      x y z
#    x 3.721160 0.000000 0.000000 
#    y 0.000000 3.589990 0.000000 
#    z 0.000000 0.000000 3.551300 
# 
# 
# High freq. dielectric constant tensor:
#      x y z
#    x 1.835770 0.000000 0.000000 
#    y 0.000000 1.784920 0.000000 
#    z 0.000000 0.000000 1.776340 
# 
# From -- ./inp_files/25739.got.cif
#   From: 2010.03.12/outbox.cif.g09.slc.cpg/sg51_13_cif.got.tgz:25739.got - 2010.04.16 13:43:02.
