data_PCOD8206397
_publ_section_title
;
Structure prediction by ZEFSAII (Michael W. Deem and Ramdas Pophale) SiO2 
 PCOD8206397
Probable space group: P M M A
;
_chemical_formula_sum "Si O2"
_cell_formula_units_Z 56
_cell_length_a 8.635387
_cell_length_b 29.604739
_cell_length_c 13.772244
_cell_angle_alpha 90.000000
_cell_angle_beta 90.000000
_cell_angle_gamma 90.000000
_cell_volume 3520.851844
_symmetry_space_group_name_H-M "P M M A"
_symmetry_group_IT_number 51
_symmetry_cell_setting 'orthorhombic'
loop_
_space_group_symop_operation_xyz
x,y,z
1/2-x,-y,z
1/2+x,-y,-z
-x,y,-z
-x,-y,-z
1/2+x,y,-z
1/2-x,y,z
x,-y,z
loop_
_atom_site_type_symbol
_atom_site_label
_atom_site_fract_x
_atom_site_fract_y
_atom_site_fract_z
Si Si1 0.931481 0.047616 0.394349
Si Si2 0.433957 0.145813 0.608135
Si Si3 0.066357 0.687126 0.602590
Si Si4 0.933645 0.274468 0.104631
Si Si5 0.433597 0.449915 0.895320
Si Si6 0.066926 0.363287 0.789466
Si Si7 0.066932 0.770220 0.288658
O O1 0.750000 0.048005 0.406739
O O2 0.978641 0.095902 0.347550
O O3 0.000000 0.046287 0.500000
O O4 0.981636 0.000000 0.339746
O O5 0.500000 0.152177 0.500000
O O6 0.250000 0.154150 0.605828
O O7 0.515894 0.179976 0.681125
O O8 0.250000 0.691203 0.598255
O O9 0.011516 0.649574 0.681102
O O10 0.000000 0.671201 0.500000
O O11 0.999544 0.735632 0.631727
O O12 0.750000 0.270718 0.103767
O O13 0.989525 0.324766 0.135357
O O14 0.999088 0.238917 0.182031
O O15 0.000000 0.262162 0.000000
O O16 0.250000 0.447555 0.902198
O O17 0.487413 0.500000 0.861197
O O18 0.499688 0.412326 0.820466
O O19 0.500000 0.438187 0.000000
O O20 0.250000 0.365046 0.791684
O O21 0.250000 0.765855 0.286119
#
# Coordination Sequence:
#
# PCOD8206397 Si02
#       7
#     8   8   8   8   8   8   8
#     4   8  14  24  38  56  79 109 144 179 214 253
#     4  10  18  28  42  61  87 118 150 183 219 257
#     4  10  19  32  47  63  85 112 146 184 220 257
#     4  10  19  32  48  66  89 115 144 177 215 257
#     4   9  16  27  44  66  90 114 139 169 209 255
#     4   8  16  29  45  65  88 114 143 175 209 251
#     4  11  21  32  45  63  87 115 148 181 217 258
#
# _framework density 15.905241999999999
#
# number of rings (size 3 to 8) (size 9 to 14) (size 15 to 20)
#    0.000    2.571    0.000    4.286    0.000    0.571 
#    0.000    3.571    0.000    0.429    0.000    0.000 
#    0.000    0.571    0.000    1.571    0.000    3.143 
#
# Total GULP energy -693849.178931 kJ/mol
# GULP energy per Si atom -12390.163909 kJ/mol
# Density = 1.586904 g / cm^3
# Si number density = 15.905242 Si / 1000 Ang^3
#
#
#
# Elastic Constant Matrix: (Units=GPa)
#
#
# Indices 1 2 3 4 5 6 
#
# 1 63.0569 32.2708 31.5734 0.0000 0.0000 0.0000
# 2 32.2708 148.9322 67.5776 0.0000 0.0000 0.0000
# 3 31.5734 67.5776 104.3976 0.0000 0.0000 0.0000
# 4 0.0000 0.0000 0.0000 10.1648 0.0000 0.0000
# 5 0.0000 0.0000 0.0000 0.0000 23.9114 0.0000
# 6 0.0000 0.0000 0.0000 0.0000 0.0000 14.7525
#
#
#
# Elastic Compliance Matrix: (Units=1/GPa)
#
#
# Indices 1 2 3 4 5 6 
#
# 1 0.019166 -0.002156 -0.004401 0.000000 0.000000 0.000000
# 2 -0.002156 0.009749 -0.005659 0.000000 0.000000 0.000000
# 3 -0.004401 -0.005659 0.014573 0.000000 0.000000 0.000000
# 4 0.000000 0.000000 0.000000 0.098379 0.000000 0.000000
# 5 0.000000 0.000000 0.000000 0.000000 0.041821 0.000000
# 6 0.000000 0.000000 0.000000 0.000000 0.000000 0.067785
#
#
# Mechanical properties :
#
#
# Convention : Reuss Voigt Hill
#
# Bulk Modulus (GPa) = 52.47540 64.35894 58.41717
# Shear Modulus (GPa) = 17.71441 22.09671 19.90556
#
# Velocity S-wave (km/s) = 3.34090 3.73134 3.54151
# Velocity P-wave (km/s) = 6.92433 7.68867 7.31649
#
# Compressibility (1/GPa) = 0.01905655
#
# Stress axis : x y z
#
# Youngs Moduli (GPa) = 52.17687 102.57169 68.62165
#
# Poissons Ratio (x) = 0.22114 0.30199
# Poissons Ratio (y) = 0.11249 0.38831
# Poissons Ratio (z) = 0.22962 0.58043
#
# Static dielectric constant tensor:
#      x y z
#    x 2.996580 0.000000 0.000000 
#    y 0.000000 3.640100 0.000000 
#    z 0.000000 0.000000 2.812820 
# 
# 
# High freq. dielectric constant tensor:
#      x y z
#    x 1.613480 0.000000 0.000000 
#    y 0.000000 1.617530 0.000000 
#    z 0.000000 0.000000 1.576970 
# 
# From -- ./inp_files/22518.got.cif
#   From: 2010.03.12/outbox.cif.g09.slc.cpg/sg51_12_cif.got.tgz:22518.got - 2010.04.16 13:43:02.
