data_PCOD8206663
_publ_section_title
;
Structure prediction by ZEFSAII (Michael W. Deem and Ramdas Pophale) SiO2 
 PCOD8206663
Probable space group: P M M A
;
_chemical_formula_sum "Si O2"
_cell_formula_units_Z 64
_cell_length_a 9.330663
_cell_length_b 19.645830
_cell_length_c 19.677657
_cell_angle_alpha 90.000000
_cell_angle_beta 90.000000
_cell_angle_gamma 90.000000
_cell_volume 3607.084132
_symmetry_space_group_name_H-M "P M M A"
_symmetry_group_IT_number 51
_symmetry_cell_setting 'orthorhombic'
loop_
_space_group_symop_operation_xyz
x,y,z
1/2-x,-y,z
1/2+x,-y,-z
-x,y,-z
-x,-y,-z
1/2+x,y,-z
1/2-x,y,z
x,-y,z
loop_
_atom_site_type_symbol
_atom_site_label
_atom_site_fract_x
_atom_site_fract_y
_atom_site_fract_z
Si Si1 0.412856 0.884934 0.750280
Si Si2 0.412599 0.210856 0.437376
Si Si3 0.582485 0.207697 0.936604
Si Si4 0.584625 0.579967 0.432774
Si Si5 0.587594 0.076069 0.098692
Si Si6 0.414587 0.074172 0.373218
Si Si7 0.088079 0.669859 0.334880
Si Si8 0.915073 0.755363 0.787731
O O1 0.250000 0.874696 0.726663
O O2 0.423312 0.925408 0.820253
O O3 0.495116 0.929707 0.695435
O O4 0.482635 0.810976 0.755541
O O5 0.500000 0.242115 0.500000
O O6 0.250000 0.207672 0.461570
O O7 0.471776 0.135013 0.420948
O O8 0.433201 0.258142 0.372140
O O9 0.750000 0.204613 0.952586
O O10 0.524338 0.130336 0.930903
O O11 0.550921 0.251848 0.868399
O O12 0.500000 0.243127 0.000000
O O13 0.500000 0.604647 0.500000
O O14 0.750000 0.600999 0.441628
O O15 0.566663 0.500000 0.422360
O O16 0.520860 0.614620 0.365106
O O17 0.750000 0.096215 0.076888
O O18 0.548970 0.000000 0.072473
O O19 0.250000 0.089836 0.354078
O O20 0.429552 0.000000 0.409273
O O21 0.250000 0.642354 0.345248
O O22 0.058548 0.684918 0.254435
O O23 0.750000 0.778557 0.778400
#
# Coordination Sequence:
#
# PCOD8206663 Si02
#       8
#     8   8   8   8   8   8   8   8
#     4  10  18  29  47  70  93 116 149 201 257 304
#     4  10  21  35  49  68  93 122 160 206 252 298
#     4  10  20  33  50  69  94 126 160 199 248 304
#     4  10  21  36  54  80 115 150 182 211 244 293
#     4   9  18  31  45  63  89 118 152 197 248 305
#     4  10  20  34  49  62  84 121 160 202 256 313
#     4  10  19  34  56  78 103 133 171 215 250 291
#     4   9  18  34  53  73  98 129 164 202 246 298
#
# _framework density 17.742863
#
# number of rings (size 3 to 8) (size 9 to 14) (size 15 to 20)
#    0.000    2.250    1.250    1.875    0.000    5.750 
#    0.000    0.000    0.000    0.000    0.000    0.000 
#    0.000    0.500    0.000    1.125    0.000    2.000 
#
# Total GULP energy -793402.091651 kJ/mol
# GULP energy per Si atom -12396.907682 kJ/mol
# Density = 1.770248 g / cm^3
# Si number density = 17.742863 Si / 1000 Ang^3
#
#
#
# Elastic Constant Matrix: (Units=GPa)
#
#
# Indices 1 2 3 4 5 6 
#
# 1 93.6851 32.0240 47.8583 0.0000 0.0000 0.0000
# 2 32.0240 48.9418 28.4629 0.0000 0.0000 0.0000
# 3 47.8583 28.4629 98.5564 0.0000 0.0000 0.0000
# 4 0.0000 0.0000 0.0000 17.2365 0.0000 0.0000
# 5 0.0000 0.0000 0.0000 0.0000 29.0626 0.0000
# 6 0.0000 0.0000 0.0000 0.0000 0.0000 21.7743
#
#
#
# Elastic Compliance Matrix: (Units=1/GPa)
#
#
# Indices 1 2 3 4 5 6 
#
# 1 0.016049 -0.007174 -0.005722 0.000000 0.000000 0.000000
# 2 -0.007174 0.027764 -0.004534 0.000000 0.000000 0.000000
# 3 -0.005722 -0.004534 0.014234 0.000000 0.000000 0.000000
# 4 0.000000 0.000000 0.000000 0.058016 0.000000 0.000000
# 5 0.000000 0.000000 0.000000 0.000000 0.034408 0.000000
# 6 0.000000 0.000000 0.000000 0.000000 0.000000 0.045926
#
#
# Mechanical properties :
#
#
# Convention : Reuss Voigt Hill
#
# Bulk Modulus (GPa) = 43.12718 50.87486 47.00102
# Shear Modulus (GPa) = 20.92169 22.47055 21.69612
#
# Velocity S-wave (km/s) = 3.43762 3.56259 3.50066
# Velocity P-wave (km/s) = 6.33370 6.75710 6.54883
#
# Compressibility (1/GPa) = 0.02318724
#
# Stress axis : x y z
#
# Youngs Moduli (GPa) = 62.30888 36.01841 70.25263
#
# Poissons Ratio (x) = 0.25839 0.40195
# Poissons Ratio (y) = 0.44700 0.31856
# Poissons Ratio (z) = 0.35650 0.16332
#
# Static dielectric constant tensor:
#      x y z
#    x 3.360670 0.000000 0.000000 
#    y 0.000000 2.967260 0.000000 
#    z 0.000000 0.000000 3.393870 
# 
# 
# High freq. dielectric constant tensor:
#      x y z
#    x 1.692810 0.000000 0.000000 
#    y 0.000000 1.644980 0.000000 
#    z 0.000000 0.000000 1.682480 
# 
# From -- ./inp_files/32320.got.cif
#   From: 2010.03.12/outbox.cif.g09.slc.cpg/sg51_17_cif.got.tgz:32320.got - 2010.04.16 13:43:02.
