data_PCOD8206043
_publ_section_title
;
Structure prediction by ZEFSAII (Michael W. Deem and Ramdas Pophale) SiO2 
 PCOD8206043
Probable space group: P M M A
;
_chemical_formula_sum "Si O2"
_cell_formula_units_Z 64
_cell_length_a 30.315951
_cell_length_b 9.658657
_cell_length_c 14.555209
_cell_angle_alpha 90.000000
_cell_angle_beta 90.000000
_cell_angle_gamma 90.000000
_cell_volume 4261.930722
_symmetry_space_group_name_H-M "P M M A"
_symmetry_group_IT_number 51
_symmetry_cell_setting 'orthorhombic'
loop_
_space_group_symop_operation_xyz
x,y,z
1/2-x,-y,z
1/2+x,-y,-z
-x,y,-z
-x,-y,-z
1/2+x,y,-z
1/2-x,y,z
x,-y,z
loop_
_atom_site_type_symbol
_atom_site_label
_atom_site_fract_x
_atom_site_fract_y
_atom_site_fract_z
Si Si1 0.299168 0.340233 0.841630
Si Si2 0.959978 0.659484 0.933534
Si Si3 0.889528 0.656939 0.079301
Si Si4 0.113916 0.837784 0.580624
Si Si5 0.971007 0.154898 0.758512
Si Si6 0.542599 0.834876 0.556192
Si Si7 0.925809 0.153936 0.233857
Si Si8 0.798915 0.160828 0.336885
O O1 0.250000 0.303317 0.879876
O O2 0.300615 0.500000 0.810750
O O3 0.336668 0.310189 0.919239
O O4 0.310711 0.248208 0.753329
O O5 0.968730 0.500000 0.907476
O O6 0.956525 0.747278 0.841234
O O7 0.911810 0.679443 0.980141
O O8 0.000000 0.710964 0.000000
O O9 0.897460 0.500000 0.111831
O O10 0.916137 0.753065 0.147235
O O11 0.087156 0.777117 0.493794
O O12 0.095594 0.776596 0.676119
O O13 0.166549 0.805054 0.580498
O O14 0.104045 0.000000 0.580898
O O15 0.954676 0.218966 0.661141
O O16 0.022861 0.145691 0.750053
O O17 0.951750 0.000000 0.775563
O O18 0.500000 0.778485 0.500000
O O19 0.540026 0.000000 0.559679
O O20 0.906430 0.000000 0.216311
O O21 0.750000 0.197495 0.373228
O O22 0.802597 0.000000 0.308750
#
# Coordination Sequence:
#
# PCOD8206043 Si02
#       8
#     8   8   8   8   8   8   8   8
#     4   9  17  28  42  61  84 108 137 174 209 243
#     4  10  20  32  44  59  84 117 144 168 209 259
#     4  10  19  30  43  60  83 116 146 166 203 256
#     4   9  15  24  39  60  86 114 138 165 203 244
#     4  10  19  29  44  65  85 109 145 184 210 235
#     4   9  15  25  41  62  85 108 137 172 208 242
#     4  10  17  25  41  64  87 110 140 175 208 238
#     4   9  16  25  39  61  87 112 137 164 200 249
#
# _framework density 15.016669
#
# number of rings (size 3 to 8) (size 9 to 14) (size 15 to 20)
#    0.000    2.500    3.750    0.000    0.000    0.750 
#    0.000    0.000    0.000    1.875    0.000    0.875 
#    0.000    1.000    0.000    0.000    0.000    0.000 
#
# Total GULP energy -792989.653704 kJ/mol
# GULP energy per Si atom -12390.463339 kJ/mol
# Density = 1.498249 g / cm^3
# Si number density = 15.016669 Si / 1000 Ang^3
#
#
#
# Elastic Constant Matrix: (Units=GPa)
#
#
# Indices 1 2 3 4 5 6 
#
# 1 107.7116 22.9780 52.1993 0.0000 0.0000 0.0000
# 2 22.9780 37.2893 37.0113 0.0000 0.0000 0.0000
# 3 52.1993 37.0113 103.6536 0.0000 0.0000 0.0000
# 4 0.0000 0.0000 0.0000-1367.9269 0.0000 0.0000
# 5 0.0000 0.0000 0.0000 0.0000 22.4507 0.0000
# 6 0.0000 0.0000 0.0000 0.0000 0.0000 16.4238
#
#
#
# Elastic Compliance Matrix: (Units=1/GPa)
#
#
# Indices 1 2 3 4 5 6 
#
# 1 0.012400 -0.002235 -0.005447 0.000000 0.000000 0.000000
# 2 -0.002235 0.041942 -0.013850 0.000000 0.000000 0.000000
# 3 -0.005447 -0.013850 0.017336 0.000000 0.000000 0.000000
# 4 0.000000 0.000000 0.000000 -0.000731 0.000000 0.000000
# 5 0.000000 0.000000 0.000000 0.000000 0.044542 0.000000
# 6 0.000000 0.000000 0.000000 0.000000 0.000000 0.060887
#
#
# Mechanical properties :
#
#
# Convention : Reuss Voigt Hill
#
# Bulk Modulus (GPa) = 34.94834 52.55909 43.75371
# Shear Modulus (GPa) = 21.83605 -256.71274 -117.43835
#
# Velocity S-wave (km/s) = 3.81743 -13.08904 -8.85297
# Velocity P-wave (km/s) = 6.53865 13.90518 8.67756
#
# Compressibility (1/GPa) = 0.02861367
#
# Stress axis : x y z
#
# Youngs Moduli (GPa) = 80.64221 23.84251 57.68357
#
# Poissons Ratio (x) = 0.05329 0.31418
# Poissons Ratio (y) = 0.18025 0.79894
# Poissons Ratio (z) = 0.43923 0.33023
#
# Static dielectric constant tensor:
#      x y z
#    x 3.156720 0.000000 0.000000 
#    y 0.000000 2.770240 0.000000 
#    z 0.000000 0.000000 2.813530 
# 
# 
# High freq. dielectric constant tensor:
#      x y z
#    x 1.577290 0.000000 0.000000 
#    y 0.000000 1.553990 0.000000 
#    z 0.000000 0.000000 1.546130 
# 
# From -- ./inp_files/26603.got.cif
#   From: 2010.03.12/outbox.cif.g09.slc.cpg/sg51_14_cif.got.tgz:26603.got - 2010.04.16 13:43:02.
