data_PCOD8206079
_publ_section_title
;
Structure prediction by ZEFSAII (Michael W. Deem and Ramdas Pophale) SiO2 
 PCOD8206079
Probable space group: P M M A
;
_chemical_formula_sum "Si O2"
_cell_formula_units_Z 48
_cell_length_a 21.408979
_cell_length_b 9.264790
_cell_length_c 14.881130
_cell_angle_alpha 90.000000
_cell_angle_beta 90.000000
_cell_angle_gamma 90.000000
_cell_volume 2951.667590
_symmetry_space_group_name_H-M "P M M A"
_symmetry_group_IT_number 51
_symmetry_cell_setting 'orthorhombic'
loop_
_space_group_symop_operation_xyz
x,y,z
1/2-x,-y,z
1/2+x,-y,-z
-x,y,-z
-x,-y,-z
1/2+x,y,-z
1/2-x,y,z
x,-y,z
loop_
_atom_site_type_symbol
_atom_site_label
_atom_site_fract_x
_atom_site_fract_y
_atom_site_fract_z
Si Si1 0.596264 0.166550 0.146828
Si Si2 0.952845 0.167256 0.807048
Si Si3 0.542989 0.332843 0.631610
Si Si4 0.427365 0.663312 0.022680
Si Si5 0.821485 0.830219 0.313385
Si Si6 0.591638 0.666564 0.439923
O O1 0.526554 0.190923 0.182328
O O2 0.643414 0.221530 0.223372
O O3 0.607667 0.000000 0.121849
O O4 0.610041 0.260578 0.058232
O O5 0.931666 0.235353 0.712642
O O6 0.915334 0.248131 0.886066
O O7 0.934325 0.000000 0.809542
O O8 0.543601 0.500000 0.660798
O O9 0.473013 0.284605 0.605946
O O10 0.588184 0.306933 0.546768
O O11 0.402968 0.500000 0.034354
O O12 0.500000 0.666006 0.000000
O O13 0.750000 0.781290 0.305949
O O14 0.851437 0.758185 0.401031
O O15 0.828617 0.000000 0.325283
O O16 0.604224 0.500000 0.418951
#
# Coordination Sequence:
#
# PCOD8206079 Si02
#       6
#     8   8   8   8   8   8
#     4   9  17  29  42  61  90 121 152 187 224 267
#     4  10  17  26  43  67  92 121 151 183 224 276
#     4   9  17  29  45  66  93 123 152 189 235 281
#     4   9  17  27  41  62  88 119 149 181 221 266
#     4  10  20  33  48  67  93 125 159 194 231 270
#     4   9  18  31  46  65  91 122 156 193 234 277
#
# _framework density 16.261993
#
# number of rings (size 3 to 8) (size 9 to 14) (size 15 to 20)
#    0.000    2.667    1.667    2.000    0.000    4.333 
#    0.000    1.667    0.000    0.000    0.000    1.167 
#    0.000    6.667    0.000    0.000    0.000    0.000 
#
# Total GULP energy -595226.343213 kJ/mol
# GULP energy per Si atom -12400.548817 kJ/mol
# Density = 1.622498 g / cm^3
# Si number density = 16.261993 Si / 1000 Ang^3
#
#
#
# Elastic Constant Matrix: (Units=GPa)
#
#
# Indices 1 2 3 4 5 6 
#
# 1 53.6128 26.1724 34.1050 0.0000 0.0000 0.0000
# 2 26.1724 86.6325 67.5957 0.0000 0.0000 0.0000
# 3 34.1050 67.5957 130.3898 0.0000 0.0000 0.0000
# 4 0.0000 0.0000 0.0000 37.5369 0.0000 0.0000
# 5 0.0000 0.0000 0.0000 0.0000 17.0922 0.0000
# 6 0.0000 0.0000 0.0000 0.0000 0.0000 16.2846
#
#
#
# Elastic Compliance Matrix: (Units=1/GPa)
#
#
# Indices 1 2 3 4 5 6 
#
# 1 0.023098 -0.003802 -0.004070 0.000000 0.000000 0.000000
# 2 -0.003802 0.020009 -0.009379 0.000000 0.000000 0.000000
# 3 -0.004070 -0.009379 0.013596 0.000000 0.000000 0.000000
# 4 0.000000 0.000000 0.000000 0.026640 0.000000 0.000000
# 5 0.000000 0.000000 0.000000 0.000000 0.058506 0.000000
# 6 0.000000 0.000000 0.000000 0.000000 0.000000 0.061408
#
#
# Mechanical properties :
#
#
# Convention : Reuss Voigt Hill
#
# Bulk Modulus (GPa) = 45.04336 58.48681 51.76509
# Shear Modulus (GPa) = 20.39484 23.70020 22.04752
#
# Velocity S-wave (km/s) = 3.54523 3.82173 3.68607
# Velocity P-wave (km/s) = 6.67210 7.45101 7.07229
#
# Compressibility (1/GPa) = 0.02220083
#
# Stress axis : x y z
#
# Youngs Moduli (GPa) = 43.29444 49.97649 73.55104
#
# Poissons Ratio (x) = 0.19001 0.29939
# Poissons Ratio (y) = 0.16460 0.68981
# Poissons Ratio (z) = 0.17623 0.46871
#
# Static dielectric constant tensor:
#      x y z
#    x 2.642010 0.000000 0.000000 
#    y 0.000000 3.079850 0.000000 
#    z 0.000000 0.000000 3.157220 
# 
# 
# High freq. dielectric constant tensor:
#      x y z
#    x 1.564620 0.000000 0.000000 
#    y 0.000000 1.631030 0.000000 
#    z 0.000000 0.000000 1.636400 
# 
# From -- ./inp_files/25457.got.cif
#   From: 2010.03.12/outbox.cif.g09.slc.cpg/sg51_13_cif.got.tgz:25457.got - 2010.04.16 13:43:02.
