data_PCOD8206581
_publ_section_title
;
Structure prediction by ZEFSAII (Michael W. Deem and Ramdas Pophale) SiO2 
 PCOD8206581
Probable space group: P M M A
;
_chemical_formula_sum "Si O2"
_cell_formula_units_Z 36
_cell_length_a 8.934497
_cell_length_b 12.833087
_cell_length_c 20.593705
_cell_angle_alpha 90.000000
_cell_angle_beta 90.000000
_cell_angle_gamma 90.000000
_cell_volume 2361.216085
_symmetry_space_group_name_H-M "P M M A"
_symmetry_group_IT_number 51
_symmetry_cell_setting 'orthorhombic'
loop_
_space_group_symop_operation_xyz
x,y,z
1/2-x,-y,z
1/2+x,-y,-z
-x,y,-z
-x,-y,-z
1/2+x,y,-z
1/2-x,y,z
x,-y,z
loop_
_atom_site_type_symbol
_atom_site_label
_atom_site_fract_x
_atom_site_fract_y
_atom_site_fract_z
Si Si1 0.417055 0.375676 0.563562
Si Si2 0.429348 0.792422 0.070394
Si Si3 0.569719 0.000000 0.071429
Si Si4 0.415719 0.376287 0.311178
Si Si5 0.072073 0.615683 0.169281
O O1 0.500000 0.331931 0.500000
O O2 0.250000 0.333258 0.559854
O O3 0.423181 0.500000 0.564346
O O4 0.487329 0.329863 0.629837
O O5 0.250000 0.804228 0.065346
O O6 0.480805 0.695776 0.114523
O O7 0.503056 0.895192 0.104038
O O8 0.500000 0.772495 0.000000
O O9 0.750000 0.000000 0.071043
O O10 0.500000 0.000000 0.000000
O O11 0.250000 0.328202 0.317911
O O12 0.406816 0.500000 0.316803
O O13 0.486802 0.348036 0.240597
O O14 0.250000 0.611507 0.173516
O O15 0.010480 0.500000 0.151757
#
# Coordination Sequence:
#
# PCOD8206581 Si02
#       5
#     8   8   4   8   8
#     4   9  15  21  30  46  67  92 124 161 196 227
#     4  10  18  29  45  63  82 104 133 167 203 243
#     4  10  18  30  46  62  80 100 127 164 207 248
#     4   8  13  23  37  50  67  95 129 160 190 227
#     4   8  15  27  42  59  80 108 138 165 197 240
#
# _framework density 15.246382000000001
#
# number of rings (size 3 to 8) (size 9 to 14) (size 15 to 20)
#    0.000    3.111    0.000    5.000    0.000    3.111 
#    0.000    2.222    0.000    4.667    0.000    0.000 
#    0.000    0.000    0.000    1.000    0.000   11.556 
#
# Total GULP energy -446027.976896 kJ/mol
# GULP energy per Si atom -12389.666025 kJ/mol
# Density = 1.521168 g / cm^3
# Si number density = 15.246382 Si / 1000 Ang^3
#
#
#
# Elastic Constant Matrix: (Units=GPa)
#
#
# Indices 1 2 3 4 5 6 
#
# 1 90.7092 31.1028 47.8629 0.0000 0.0000 0.0000
# 2 31.1028 71.9864 55.3840 0.0000 0.0000 0.0000
# 3 47.8629 55.3840 119.9799 0.0000 0.0000 0.0000
# 4 0.0000 0.0000 0.0000 0.9638 0.0000 0.0000
# 5 0.0000 0.0000 0.0000 0.0000 22.8518 0.0000
# 6 0.0000 0.0000 0.0000 0.0000 0.0000 12.7733
#
#
#
# Elastic Compliance Matrix: (Units=1/GPa)
#
#
# Indices 1 2 3 4 5 6 
#
# 1 0.014313 -0.002778 -0.004428 0.000000 0.000000 0.000000
# 2 -0.002778 0.022081 -0.009085 0.000000 0.000000 0.000000
# 3 -0.004428 -0.009085 0.014295 0.000000 0.000000 0.000000
# 4 0.000000 0.000000 0.000000 1.037561 0.000000 0.000000
# 5 0.000000 0.000000 0.000000 0.000000 0.043760 0.000000
# 6 0.000000 0.000000 0.000000 0.000000 0.000000 0.078288
#
#
# Mechanical properties :
#
#
# Convention : Reuss Voigt Hill
#
# Bulk Modulus (GPa) = 55.22237 61.26389 58.24313
# Shear Modulus (GPa) = 4.00348 17.20616 10.60482
#
# Velocity S-wave (km/s) = 1.62221 3.36302 2.64021
# Velocity P-wave (km/s) = 6.30931 7.43974 6.89772
#
# Compressibility (1/GPa) = 0.01810860
#
# Stress axis : x y z
#
# Youngs Moduli (GPa) = 69.86717 45.28727 69.95614
#
# Poissons Ratio (x) = 0.12579 0.30973
# Poissons Ratio (y) = 0.19407 0.63554
# Poissons Ratio (z) = 0.30934 0.41143
#
# Static dielectric constant tensor:
#      x y z
#    x 2.946030 0.000000 0.000000 
#    y 0.000000 2.959310 0.000000 
#    z 0.000000 0.000000 3.112470 
# 
# 
# High freq. dielectric constant tensor:
#      x y z
#    x 1.579290 0.000000 0.000000 
#    y 0.000000 1.527080 0.000000 
#    z 0.000000 0.000000 1.583430 
# 
# From -- ./inp_files/31317.got.cif
#   From: 2010.03.12/outbox.cif.g09.slc.cpg/sg51_16_cif.got.tgz:31317.got - 2010.04.16 13:43:02.
