data_PCOD8206237
_publ_section_title
;
Structure prediction by ZEFSAII (Michael W. Deem and Ramdas Pophale) SiO2 
 PCOD8206237
Probable space group: P M M A
;
_chemical_formula_sum "Si O2"
_cell_formula_units_Z 64
_cell_length_a 8.845371
_cell_length_b 27.285212
_cell_length_c 18.099604
_cell_angle_alpha 90.000000
_cell_angle_beta 90.000000
_cell_angle_gamma 90.000000
_cell_volume 4368.300022
_symmetry_space_group_name_H-M "P M M A"
_symmetry_group_IT_number 51
_symmetry_cell_setting 'orthorhombic'
loop_
_space_group_symop_operation_xyz
x,y,z
1/2-x,-y,z
1/2+x,-y,-z
-x,y,-z
-x,-y,-z
1/2+x,y,-z
1/2-x,y,z
x,-y,z
loop_
_atom_site_type_symbol
_atom_site_label
_atom_site_fract_x
_atom_site_fract_y
_atom_site_fract_z
Si Si1 0.572746 0.644995 0.922275
Si Si2 0.915838 0.700001 0.200306
Si Si3 0.916192 0.605112 0.300824
Si Si4 0.070752 0.158193 0.418955
Si Si5 0.928104 0.339965 0.577896
Si Si6 0.927920 0.555219 0.158187
Si Si7 0.573799 0.051687 0.578860
Si Si8 0.929450 0.751834 0.342014
O O1 0.750000 0.642322 0.931356
O O2 0.531578 0.689112 0.865930
O O3 0.515616 0.592114 0.895083
O O4 0.500000 0.658335 0.000000
O O5 0.750000 0.712135 0.166762
O O6 0.901744 0.653118 0.251708
O O7 0.971194 0.743374 0.255225
O O8 0.750000 0.592221 0.333677
O O9 0.973585 0.562722 0.244704
O O10 0.033035 0.614837 0.367109
O O11 0.250000 0.167312 0.424078
O O12 0.030331 0.104009 0.384433
O O13 0.000000 0.165116 0.500000
O O14 0.995315 0.195603 0.362472
O O15 0.750000 0.334410 0.570726
O O16 0.000000 0.353629 0.500000
O O17 0.996249 0.288903 0.605770
O O18 0.750000 0.565595 0.148960
O O19 0.970809 0.500000 0.135070
O O20 0.500000 0.050064 0.500000
O O21 0.750000 0.052438 0.564652
O O22 0.529575 0.000000 0.621596
O O23 0.750000 0.749686 0.354150
#
# Coordination Sequence:
#
# PCOD8206237 Si02
#       8
#     8   8   8   8   8   8   8   8
#     4  11  21  32  48  68  90 112 134 161 188 220
#     4   8  16  31  47  61  80 106 133 160 192 233
#     4   8  15  29  46  63  82 103 128 157 192 234
#     4  10  18  26  37  54  77 104 137 177 216 252
#     4  11  20  29  42  59  79 102 130 164 201 240
#     4   9  18  33  51  68  87 110 132 156 190 230
#     4   8  14  24  36  49  67  95 132 173 214 251
#     4  10  19  30  42  57  80 106 131 163 204 246
#
# _framework density 14.651009
#
# number of rings (size 3 to 8) (size 9 to 14) (size 15 to 20)
#    0.000    2.625    0.000    4.875    0.000    6.000 
#    0.000    0.000    0.000    0.375    0.000    0.000 
#    0.000    0.000    0.000    0.000    0.000    0.625 
#
# Total GULP energy -792874.003305 kJ/mol
# GULP energy per Si atom -12388.656302 kJ/mol
# Density = 1.461766 g / cm^3
# Si number density = 14.651009 Si / 1000 Ang^3
#
#
#
# Elastic Constant Matrix: (Units=GPa)
#
#
# Indices 1 2 3 4 5 6 
#
# 1 85.5978 30.7419 43.6635 0.0000 0.0000 0.0000
# 2 30.7419 69.9714 39.1011 0.0000 0.0000 0.0000
# 3 43.6635 39.1011 81.4536 0.0000 0.0000 0.0000
# 4 0.0000 0.0000 0.0000 17.4781 0.0000 0.0000
# 5 0.0000 0.0000 0.0000 0.0000 21.5697 0.0000
# 6 0.0000 0.0000 0.0000 0.0000 0.0000 10.5657
#
#
#
# Elastic Compliance Matrix: (Units=1/GPa)
#
#
# Indices 1 2 3 4 5 6 
#
# 1 0.016577 -0.003167 -0.007366 0.000000 0.000000 0.000000
# 2 -0.003167 0.020136 -0.007968 0.000000 0.000000 0.000000
# 3 -0.007366 -0.007968 0.020051 0.000000 0.000000 0.000000
# 4 0.000000 0.000000 0.000000 0.057214 0.000000 0.000000
# 5 0.000000 0.000000 0.000000 0.000000 0.046361 0.000000
# 6 0.000000 0.000000 0.000000 0.000000 0.000000 0.094646
#
#
# Mechanical properties :
#
#
# Convention : Reuss Voigt Hill
#
# Bulk Modulus (GPa) = 50.60462 51.55953 51.08208
# Shear Modulus (GPa) = 16.74620 18.15713 17.45167
#
# Velocity S-wave (km/s) = 3.38451 3.52420 3.45506
# Velocity P-wave (km/s) = 7.06316 7.19918 7.13149
#
# Compressibility (1/GPa) = 0.01976104
#
# Stress axis : x y z
#
# Youngs Moduli (GPa) = 60.32310 49.66272 49.87361
#
# Poissons Ratio (x) = 0.15728 0.36737
# Poissons Ratio (y) = 0.19104 0.39741
# Poissons Ratio (z) = 0.44434 0.39573
#
# Static dielectric constant tensor:
#      x y z
#    x 2.904610 0.000000 0.000000 
#    y 0.000000 3.266640 0.000000 
#    z 0.000000 0.000000 2.809760 
# 
# 
# High freq. dielectric constant tensor:
#      x y z
#    x 1.569800 0.000000 0.000000 
#    y 0.000000 1.541900 0.000000 
#    z 0.000000 0.000000 1.528310 
# 
# From -- ./inp_files/28692.got.cif
#   From: 2010.03.12/outbox.cif.g09.slc.cpg/sg51_15_cif.got.tgz:28692.got - 2010.04.16 13:43:02.
