data_PCOD8206451
_publ_section_title
;
Structure prediction by ZEFSAII (Michael W. Deem and Ramdas Pophale) SiO2 
 PCOD8206451
Probable space group: P M M A
;
_chemical_formula_sum "Si O2"
_cell_formula_units_Z 52
_cell_length_a 8.925462
_cell_length_b 25.663718
_cell_length_c 13.096111
_cell_angle_alpha 90.000000
_cell_angle_beta 90.000000
_cell_angle_gamma 90.000000
_cell_volume 2999.802255
_symmetry_space_group_name_H-M "P M M A"
_symmetry_group_IT_number 51
_symmetry_cell_setting 'orthorhombic'
loop_
_space_group_symop_operation_xyz
x,y,z
1/2-x,-y,z
1/2+x,-y,-z
-x,y,-z
-x,-y,-z
1/2+x,y,-z
1/2-x,y,z
x,-y,z
loop_
_atom_site_type_symbol
_atom_site_label
_atom_site_fract_x
_atom_site_fract_y
_atom_site_fract_z
Si Si1 0.425901 0.896726 0.609791
Si Si2 0.076956 0.792321 0.722132
Si Si3 0.076589 0.439425 0.605151
Si Si4 0.587226 0.631995 0.757742
Si Si5 0.929414 0.000000 0.611728
Si Si6 0.928815 0.276116 0.890947
Si Si7 0.411576 0.283230 0.410444
O O1 0.500000 0.882460 0.500000
O O2 0.250000 0.906830 0.590102
O O3 0.449353 0.852892 0.696879
O O4 0.505530 0.947162 0.661902
O O5 0.250000 0.779410 0.742453
O O6 0.983735 0.771216 0.818932
O O7 0.019826 0.763652 0.620893
O O8 0.250000 0.427008 0.592284
O O9 0.043037 0.500000 0.622403
O O10 0.000000 0.420134 0.500000
O O11 0.020495 0.411301 0.708768
O O12 0.750000 0.606445 0.784552
O O13 0.520086 0.665226 0.853272
O O14 0.617289 0.676706 0.677583
O O15 0.000000 0.000000 0.500000
O O16 0.750000 0.000000 0.612654
O O17 0.750000 0.273849 0.896061
O O18 0.000000 0.266183 0.000000
O O19 0.500000 0.313173 0.500000
O O20 0.250000 0.261270 0.446317
#
# Coordination Sequence:
#
# PCOD8206451 Si02
#       7
#     8   8   8   8   4   8   8
#     4  10  19  30  45  67  98 133 168 204 239 280
#     4  10  20  32  48  70  95 126 161 197 241 289
#     4  10  20  32  48  72 101 133 166 199 235 277
#     4   9  19  33  49  70  94 124 159 195 237 283
#     4  10  18  28  44  64  91 130 171 206 240 280
#     4  10  21  37  56  76  98 123 156 199 246 296
#     4  10  19  29  42  64  95 127 159 194 234 283
#
# _framework density 17.334475999999999
#
# number of rings (size 3 to 8) (size 9 to 14) (size 15 to 20)
#    0.000    2.154    0.000    5.769    0.000    9.538 
#    0.000    0.000    0.000    0.462    0.000    0.538 
#    0.000    0.000    0.000    0.000    0.000    0.000 
#
# Total GULP energy -644224.860661 kJ/mol
# GULP energy per Si atom -12388.939628 kJ/mol
# Density = 1.729502 g / cm^3
# Si number density = 17.334476 Si / 1000 Ang^3
#
#
#
# Elastic Constant Matrix: (Units=GPa)
#
#
# Indices 1 2 3 4 5 6 
#
# 1 118.2746 54.6762 43.7407 0.0000 0.0000 0.0000
# 2 54.6762 86.4399 29.8336 0.0000 0.0000 0.0000
# 3 43.7407 29.8336 71.0584 0.0000 0.0000 0.0000
# 4 0.0000 0.0000 0.0000 19.3214 0.0000 0.0000
# 5 0.0000 0.0000 0.0000 0.0000 24.4052 0.0000
# 6 0.0000 0.0000 0.0000 0.0000 0.0000 30.4624
#
#
#
# Elastic Compliance Matrix: (Units=1/GPa)
#
#
# Indices 1 2 3 4 5 6 
#
# 1 0.013603 -0.006683 -0.005568 0.000000 0.000000 0.000000
# 2 -0.006683 0.016812 -0.002945 0.000000 0.000000 0.000000
# 3 -0.005568 -0.002945 0.018737 0.000000 0.000000 0.000000
# 4 0.000000 0.000000 0.000000 0.051756 0.000000 0.000000
# 5 0.000000 0.000000 0.000000 0.000000 0.040975 0.000000
# 6 0.000000 0.000000 0.000000 0.000000 0.000000 0.032827
#
#
# Mechanical properties :
#
#
# Convention : Reuss Voigt Hill
#
# Bulk Modulus (GPa) = 53.30192 59.14154 56.22173
# Shear Modulus (GPa) = 23.65678 24.67262 24.16470
#
# Velocity S-wave (km/s) = 3.69823 3.77679 3.73772
# Velocity P-wave (km/s) = 7.00369 7.29458 7.15061
#
# Compressibility (1/GPa) = 0.01876105
#
# Stress axis : x y z
#
# Youngs Moduli (GPa) = 73.51070 59.48032 53.37116
#
# Poissons Ratio (x) = 0.39750 0.29717
# Poissons Ratio (y) = 0.49127 0.15717
# Poissons Ratio (z) = 0.40930 0.17516
#
# Static dielectric constant tensor:
#      x y z
#    x 3.412530 0.000000 0.000000 
#    y 0.000000 3.516510 0.000000 
#    z 0.000000 0.000000 3.292510 
# 
# 
# High freq. dielectric constant tensor:
#      x y z
#    x 1.690020 0.000000 0.000000 
#    y 0.000000 1.663890 0.000000 
#    z 0.000000 0.000000 1.630390 
# 
# From -- ./inp_files/22111.got.cif
#   From: 2010.03.12/outbox.cif.g09.slc.cpg/sg51_12_cif.got.tgz:22111.got - 2010.04.16 13:43:02.
