data_PCOD8206338
_publ_section_title
;
Structure prediction by ZEFSAII (Michael W. Deem and Ramdas Pophale) SiO2 
 PCOD8206338
Probable space group: P M M A
;
_chemical_formula_sum "Si O2"
_cell_formula_units_Z 56
_cell_length_a 24.213960
_cell_length_b 9.238517
_cell_length_c 16.131506
_cell_angle_alpha 90.000000
_cell_angle_beta 90.000000
_cell_angle_gamma 90.000000
_cell_volume 3608.635332
_symmetry_space_group_name_H-M "P M M A"
_symmetry_group_IT_number 51
_symmetry_cell_setting 'orthorhombic'
loop_
_space_group_symop_operation_xyz
x,y,z
1/2-x,-y,z
1/2+x,-y,-z
-x,y,-z
-x,-y,-z
1/2+x,y,-z
1/2-x,y,z
x,-y,z
loop_
_atom_site_type_symbol
_atom_site_label
_atom_site_fract_x
_atom_site_fract_y
_atom_site_fract_z
Si Si1 0.812490 0.330718 0.908025
Si Si2 0.087999 0.170982 0.019336
Si Si3 0.987450 0.828906 0.128204
Si Si4 0.396663 0.832028 0.393492
Si Si5 0.014612 0.168529 0.686325
Si Si6 0.940157 0.336395 0.459354
Si Si7 0.814316 0.335791 0.718347
O O1 0.750000 0.285212 0.930531
O O2 0.820779 0.500000 0.921996
O O3 0.853180 0.245794 0.968780
O O4 0.825398 0.289634 0.813035
O O5 0.044496 0.229139 0.088107
O O6 0.095971 0.000000 0.026441
O O7 0.064691 0.214819 0.928701
O O8 0.979299 0.767968 0.220753
O O9 0.992920 0.000000 0.131979
O O10 0.452064 0.804811 0.341688
O O11 0.398057 0.748135 0.480922
O O12 0.345753 0.774367 0.340651
O O13 0.387741 0.000000 0.412848
O O14 0.057320 0.256474 0.629166
O O15 0.030345 0.000000 0.680519
O O16 0.919001 0.500000 0.446626
O O17 0.000000 0.333485 0.500000
O O18 0.750000 0.324427 0.697505
O O19 0.835112 0.500000 0.703294
#
# Coordination Sequence:
#
# PCOD8206338 Si02
#       7
#     8   8   8   8   8   8   8
#     4   9  18  31  44  60  86 117 145 177 217 253
#     4   9  16  28  45  64  86 114 148 178 210 258
#     4   8  15  27  43  63  89 117 141 175 221 259
#     4  10  18  27  43  65  86 110 140 174 209 246
#     4   9  16  27  42  61  86 114 142 172 210 251
#     4   9  17  28  41  59  84 112 140 169 202 244
#     4   9  18  31  44  59  83 115 145 171 205 249
#
# _framework density 15.518331
#
# number of rings (size 3 to 8) (size 9 to 14) (size 15 to 20)
#    0.000    3.000    0.000    3.429    0.000    4.571 
#    0.000    4.286    0.000    0.000    0.000    1.000 
#    0.000    5.714    0.000    0.000    0.000    0.000 
#
# Total GULP energy -694288.546368 kJ/mol
# GULP energy per Si atom -12398.009757 kJ/mol
# Density = 1.548301 g / cm^3
# Si number density = 15.518331 Si / 1000 Ang^3
#
#
#
# Elastic Constant Matrix: (Units=GPa)
#
#
# Indices 1 2 3 4 5 6 
#
# 1 73.4095 37.9602 45.9338 0.0000 0.0000 0.0000
# 2 37.9602 67.3426 47.3531 0.0000 0.0000 0.0000
# 3 45.9338 47.3531 121.4333 0.0000 0.0000 0.0000
# 4 0.0000 0.0000 0.0000 23.1857 0.0000 0.0000
# 5 0.0000 0.0000 0.0000 0.0000 24.8641 0.0000
# 6 0.0000 0.0000 0.0000 0.0000 0.0000 25.5676
#
#
#
# Elastic Compliance Matrix: (Units=1/GPa)
#
#
# Indices 1 2 3 4 5 6 
#
# 1 0.020916 -0.008579 -0.004566 0.000000 0.000000 0.000000
# 2 -0.008579 0.023978 -0.006105 0.000000 0.000000 0.000000
# 3 -0.004566 -0.006105 0.012343 0.000000 0.000000 0.000000
# 4 0.000000 0.000000 0.000000 0.043130 0.000000 0.000000
# 5 0.000000 0.000000 0.000000 0.000000 0.040219 0.000000
# 6 0.000000 0.000000 0.000000 0.000000 0.000000 0.039112
#
#
# Mechanical properties :
#
#
# Convention : Reuss Voigt Hill
#
# Bulk Modulus (GPa) = 53.37349 58.29773 55.83561
# Shear Modulus (GPa) = 22.27728 23.45271 22.86500
#
# Velocity S-wave (km/s) = 3.79297 3.89175 3.84268
# Velocity P-wave (km/s) = 7.32466 7.60545 7.46638
#
# Compressibility (1/GPa) = 0.01873589
#
# Stress axis : x y z
#
# Youngs Moduli (GPa) = 47.81111 41.70423 81.01794
#
# Poissons Ratio (x) = 0.35779 0.36994
# Poissons Ratio (y) = 0.41018 0.49463
# Poissons Ratio (z) = 0.21831 0.25461
#
# Static dielectric constant tensor:
#      x y z
#    x 2.725760 0.000000 0.000000 
#    y 0.000000 2.870090 0.000000 
#    z 0.000000 0.000000 3.129440 
# 
# 
# High freq. dielectric constant tensor:
#      x y z
#    x 1.566820 0.000000 0.000000 
#    y 0.000000 1.588670 0.000000 
#    z 0.000000 0.000000 1.590100 
# 
# From -- ./inp_files/30771.got.cif
#   From: 2010.03.12/outbox.cif.g09.slc.cpg/sg51_16_cif.got.tgz:30771.got - 2010.04.16 13:43:02.
