data_PCOD8206750
_publ_section_title
;
Structure prediction by ZEFSAII (Michael W. Deem and Ramdas Pophale) SiO2 
 PCOD8206750
Probable space group: P M M A
;
_chemical_formula_sum "Si O2"
_cell_formula_units_Z 40
_cell_length_a 25.369956
_cell_length_b 9.015379
_cell_length_c 9.917357
_cell_angle_alpha 90.000000
_cell_angle_beta 90.000000
_cell_angle_gamma 90.000000
_cell_volume 2268.295598
_symmetry_space_group_name_H-M "P M M A"
_symmetry_group_IT_number 51
_symmetry_cell_setting 'orthorhombic'
loop_
_space_group_symop_operation_xyz
x,y,z
1/2-x,-y,z
1/2+x,-y,-z
-x,y,-z
-x,-y,-z
1/2+x,y,-z
1/2-x,y,z
x,-y,z
loop_
_atom_site_type_symbol
_atom_site_label
_atom_site_fract_x
_atom_site_fract_y
_atom_site_fract_z
Si Si1 0.105939 0.324298 0.648413
Si Si2 0.997392 0.836677 0.340103
Si Si3 0.612179 0.175034 0.637494
Si Si4 0.188385 0.330560 0.162153
Si Si5 0.308234 0.676143 0.859314
O O1 0.107171 0.500000 0.636030
O O2 0.119853 0.255664 0.504732
O O3 0.149173 0.262832 0.753651
O O4 0.048422 0.276141 0.704345
O O5 0.055625 0.782207 0.294173
O O6 0.000000 0.846488 0.500000
O O7 0.984634 0.000000 0.280461
O O8 0.658083 0.223738 0.736716
O O9 0.614749 0.000000 0.611029
O O10 0.250000 0.317714 0.194178
O O11 0.169390 0.500000 0.182190
O O12 0.176404 0.274335 0.010572
O O13 0.250000 0.737944 0.821378
O O14 0.306496 0.500000 0.856001
#
# Coordination Sequence:
#
# PCOD8206750 Si02
#       5
#     8   8   8   8   8
#     4  10  18  29  51  78  98 123 162 203 241 284
#     4   8  16  31  47  65  96 133 161 192 239 286
#     4  10  20  33  49  71 100 131 161 196 239 287
#     4   9  18  34  54  72  93 125 162 199 240 284
#     4   8  16  32  51  71  97 126 156 195 243 289
#
# _framework density 17.634385000000002
#
# number of rings (size 3 to 8) (size 9 to 14) (size 15 to 20)
#    0.000    3.000    0.000    3.600    0.000    5.600 
#    0.000    5.000    0.000   10.200    0.000    0.000 
#    0.000    0.000    0.000    0.000    0.000    0.000 
#
# Total GULP energy -495786.972235 kJ/mol
# GULP energy per Si atom -12394.674306 kJ/mol
# Density = 1.759425 g / cm^3
# Si number density = 17.634385 Si / 1000 Ang^3
#
#
#
# Elastic Constant Matrix: (Units=GPa)
#
#
# Indices 1 2 3 4 5 6 
#
# 1 115.7035 44.8638 67.1719 0.0000 0.0000 0.0000
# 2 44.8638 62.8415 36.2492 0.0000 0.0000 0.0000
# 3 67.1719 36.2492 82.3123 0.0000 0.0000 0.0000
# 4 0.0000 0.0000 0.0000 3.7262 0.0000 0.0000
# 5 0.0000 0.0000 0.0000 0.0000 8.4012 0.0000
# 6 0.0000 0.0000 0.0000 0.0000 0.0000 25.0803
#
#
#
# Elastic Compliance Matrix: (Units=1/GPa)
#
#
# Indices 1 2 3 4 5 6 
#
# 1 0.017887 -0.005831 -0.012029 0.000000 0.000000 0.000000
# 2 -0.005831 0.023233 -0.005473 0.000000 0.000000 0.000000
# 3 -0.012029 -0.005473 0.024376 0.000000 0.000000 0.000000
# 4 0.000000 0.000000 0.000000 0.268373 0.000000 0.000000
# 5 0.000000 0.000000 0.000000 0.000000 0.119031 0.000000
# 6 0.000000 0.000000 0.000000 0.000000 0.000000 0.039872
#
#
# Mechanical properties :
#
#
# Convention : Reuss Voigt Hill
#
# Bulk Modulus (GPa) = 53.10842 61.93632 57.52237
# Shear Modulus (GPa) = 9.16229 14.94635 12.05432
#
# Velocity S-wave (km/s) = 2.28188 2.91446 2.61735
# Velocity P-wave (km/s) = 6.09298 6.82086 6.46717
#
# Compressibility (1/GPa) = 0.01882941
#
# Stress axis : x y z
#
# Youngs Moduli (GPa) = 55.90503 43.04211 41.02460
#
# Poissons Ratio (x) = 0.25099 0.49350
# Poissons Ratio (y) = 0.32600 0.22452
# Poissons Ratio (z) = 0.67250 0.23556
#
# Static dielectric constant tensor:
#      x y z
#    x 3.789420 0.000000 0.000000 
#    y 0.000000 3.103110 0.000000 
#    z 0.000000 0.000000 3.122640 
# 
# 
# High freq. dielectric constant tensor:
#      x y z
#    x 1.693990 0.000000 0.000000 
#    y 0.000000 1.666680 0.000000 
#    z 0.000000 0.000000 1.657790 
# 
# From -- ./inp_files/12117.got.cif
#   From: 2010.03.12/outbox.cif.g09.slc.cpg/sg51_7_cif.got.tgz:12117.got - 2010.04.16 13:43:02.
