data_PCOD8206978
_publ_section_title
;
Structure prediction by ZEFSAII (Michael W. Deem and Ramdas Pophale) SiO2 
 PCOD8206978
Probable space group: P M M A
;
_chemical_formula_sum "Si O2"
_cell_formula_units_Z 52
_cell_length_a 8.594248
_cell_length_b 18.756728
_cell_length_c 19.504890
_cell_angle_alpha 90.000000
_cell_angle_beta 90.000000
_cell_angle_gamma 90.000000
_cell_volume 3144.187724
_symmetry_space_group_name_H-M "P M M A"
_symmetry_group_IT_number 51
_symmetry_cell_setting 'orthorhombic'
loop_
_space_group_symop_operation_xyz
x,y,z
1/2-x,-y,z
1/2+x,-y,-z
-x,y,-z
-x,-y,-z
1/2+x,y,-z
1/2-x,y,z
x,-y,z
loop_
_atom_site_type_symbol
_atom_site_label
_atom_site_fract_x
_atom_site_fract_y
_atom_site_fract_z
Si Si1 0.066780 0.919364 0.927142
Si Si2 0.426308 0.000000 0.275629
Si Si3 0.068934 0.145558 0.433494
Si Si4 0.569065 0.769907 0.319611
Si Si5 0.068325 0.000000 0.584959
Si Si6 0.935255 0.500000 0.575839
Si Si7 0.071621 0.852010 0.199767
Si Si8 0.435262 0.646735 0.577066
O O1 0.250000 0.918987 0.931084
O O2 0.013670 0.858963 0.873071
O O3 0.007203 0.000000 0.908766
O O4 0.000000 0.895394 0.000000
O O5 0.454707 0.928917 0.232969
O O6 0.250000 0.000000 0.306012
O O7 0.557106 0.000000 0.333275
O O8 0.250000 0.162782 0.423663
O O9 0.000000 0.188308 0.500000
O O10 0.971943 0.161937 0.365359
O O11 0.031653 0.063811 0.446845
O O12 0.750000 0.761064 0.306762
O O13 0.492179 0.785344 0.245478
O O14 0.505125 0.703782 0.365857
O O15 0.250000 0.000000 0.563511
O O16 0.750000 0.500000 0.577933
O O17 0.000000 0.500000 0.500000
O O18 0.002353 0.427742 0.609229
O O19 0.250000 0.834778 0.186486
O O20 0.500000 0.661468 0.500000
O O21 0.250000 0.646528 0.571748
#
# Coordination Sequence:
#
# PCOD8206978 Si02
#       8
#     8   4   8   8   4   4   8   8
#     4  10  20  33  51  73  97 123 158 202 248 295
#     4  10  20  33  48  67  88 117 154 195 242 288
#     4  12  24  37  49  62  83 111 149 196 244 287
#     4  11  23  36  50  70  94 124 159 194 238 288
#     4  12  23  35  50  63  80 107 148 197 242 288
#     4  10  18  30  52  76  98 124 157 194 237 288
#     4  11  21  34  52  70  95 125 158 199 244 293
#     4  10  20  34  52  73  99 127 160 201 242 288
#
# _framework density 16.538451999999999
#
# number of rings (size 3 to 8) (size 9 to 14) (size 15 to 20)
#    0.000    1.231    2.308    6.231    0.000    4.923 
#    0.000    0.000    0.000    0.000    0.000    0.000 
#    0.000    0.000    0.000    0.692    0.000    9.077 
#
# Total GULP energy -644334.572804 kJ/mol
# GULP energy per Si atom -12391.049477 kJ/mol
# Density = 1.650081 g / cm^3
# Si number density = 16.538452 Si / 1000 Ang^3
#
#
#
# Elastic Constant Matrix: (Units=GPa)
#
#
# Indices 1 2 3 4 5 6 
#
# 1 76.8335 25.9408 34.8119 0.0000 0.0000 0.0000
# 2 25.9408 83.6447 37.5441 0.0000 0.0000 0.0000
# 3 34.8119 37.5441 108.2392 0.0000 0.0000 0.0000
# 4 0.0000 0.0000 0.0000 32.3148 0.0000 0.0000
# 5 0.0000 0.0000 0.0000 0.0000 28.8919 0.0000
# 6 0.0000 0.0000 0.0000 0.0000 0.0000 20.8546
#
#
#
# Elastic Compliance Matrix: (Units=1/GPa)
#
#
# Indices 1 2 3 4 5 6 
#
# 1 0.015894 -0.003121 -0.004030 0.000000 0.000000 0.000000
# 2 -0.003121 0.014773 -0.004120 0.000000 0.000000 0.000000
# 3 -0.004030 -0.004120 0.011964 0.000000 0.000000 0.000000
# 4 0.000000 0.000000 0.000000 0.030946 0.000000 0.000000
# 5 0.000000 0.000000 0.000000 0.000000 0.034612 0.000000
# 6 0.000000 0.000000 0.000000 0.000000 0.000000 0.047951
#
#
# Mechanical properties :
#
#
# Convention : Reuss Voigt Hill
#
# Bulk Modulus (GPa) = 49.77639 51.70120 50.73879
# Shear Modulus (GPa) = 26.97204 27.77365 27.37284
#
# Velocity S-wave (km/s) = 4.04278 4.10242 4.07271
# Velocity P-wave (km/s) = 7.20797 7.33272 7.27061
#
# Compressibility (1/GPa) = 0.02008985
#
# Stress axis : x y z
#
# Youngs Moduli (GPa) = 62.91489 67.69289 83.58429
#
# Poissons Ratio (x) = 0.21125 0.33681
# Poissons Ratio (y) = 0.19634 0.34440
# Poissons Ratio (z) = 0.25352 0.27892
#
# Static dielectric constant tensor:
#      x y z
#    x 3.152320 0.000000 0.000000 
#    y 0.000000 3.366280 0.000000 
#    z 0.000000 0.000000 3.068500 
# 
# 
# High freq. dielectric constant tensor:
#      x y z
#    x 1.651970 0.000000 0.000000 
#    y 0.000000 1.604310 0.000000 
#    z 0.000000 0.000000 1.616680 
# 
# From -- ./inp_files/27991.got.cif
#   From: 2010.03.12/outbox.cif.g09.slc.cpg/sg51_14_cif.got.tgz:27991.got - 2010.04.16 13:43:02.
