data_PCOD8206108
_publ_section_title
;
Structure prediction by ZEFSAII (Michael W. Deem and Ramdas Pophale) SiO2 
 PCOD8206108
Probable space group: P M M A
;
_chemical_formula_sum "Si O2"
_cell_formula_units_Z 64
_cell_length_a 8.999816
_cell_length_b 23.499800
_cell_length_c 19.137575
_cell_angle_alpha 90.000000
_cell_angle_beta 90.000000
_cell_angle_gamma 90.000000
_cell_volume 4047.479915
_symmetry_space_group_name_H-M "P M M A"
_symmetry_group_IT_number 51
_symmetry_cell_setting 'orthorhombic'
loop_
_space_group_symop_operation_xyz
x,y,z
1/2-x,-y,z
1/2+x,-y,-z
-x,y,-z
-x,-y,-z
1/2+x,y,-z
1/2-x,y,z
x,-y,z
loop_
_atom_site_type_symbol
_atom_site_label
_atom_site_fract_x
_atom_site_fract_y
_atom_site_fract_z
Si Si1 0.576579 0.934648 0.928219
Si Si2 0.077335 0.727474 0.927744
Si Si3 0.924825 0.564298 0.712289
Si Si4 0.425442 0.745666 0.567753
Si Si5 0.425124 0.159966 0.846363
Si Si6 0.424397 0.339331 0.792487
Si Si7 0.423834 0.771588 0.718292
Si Si8 0.573218 0.376594 0.569255
O O1 0.750000 0.923716 0.936705
O O2 0.512564 0.897051 0.865499
O O3 0.540194 0.000000 0.910471
O O4 0.500000 0.915612 0.000000
O O5 0.250000 0.728666 0.942671
O O6 0.028319 0.789049 0.898369
O O7 0.037706 0.678098 0.872116
O O8 0.000000 0.712777 0.000000
O O9 0.750000 0.568160 0.721203
O O10 0.982372 0.500000 0.721238
O O11 0.971911 0.585445 0.635375
O O12 0.996580 0.601865 0.773373
O O13 0.500000 0.775858 0.500000
O O14 0.250000 0.737862 0.556112
O O15 0.458967 0.783662 0.636776
O O16 0.501709 0.685179 0.579363
O O17 0.250000 0.147668 0.849516
O O18 0.479972 0.177188 0.767909
O O19 0.250000 0.347851 0.781619
O O20 0.489329 0.289529 0.741956
O O21 0.250000 0.766231 0.733149
O O22 0.500000 0.404850 0.500000
O O23 0.750000 0.371309 0.560125
#
# Coordination Sequence:
#
# PCOD8206108 Si02
#       8
#     8   8   8   8   8   8   8   8
#     4  10  20  32  45  64  93 129 164 194 222 254
#     4   9  18  30  47  70  94 115 140 178 221 264
#     4  10  21  34  46  63  87 111 139 181 225 262
#     4  10  17  27  44  64  89 119 148 178 216 262
#     4   9  17  30  47  68  93 121 154 188 221 259
#     4   9  17  32  49  65  85 112 144 175 213 266
#     4   8  15  28  46  65  89 118 145 181 225 263
#     4  10  19  30  44  62  85 113 145 179 215 257
#
# _framework density 15.812308
#
# number of rings (size 3 to 8) (size 9 to 14) (size 15 to 20)
#    0.000    2.625    1.250    3.750    0.000    3.750 
#    0.000    3.125    0.000    0.375    0.000    0.000 
#    0.000    0.500    0.000    1.125    0.000    2.000 
#
# Total GULP energy -793310.152106 kJ/mol
# GULP energy per Si atom -12395.471127 kJ/mol
# Density = 1.577632 g / cm^3
# Si number density = 15.812308 Si / 1000 Ang^3
#
#
#
# Elastic Constant Matrix: (Units=GPa)
#
#
# Indices 1 2 3 4 5 6 
#
# 1 53.2041 33.6199 44.5424 0.0000 0.0000 0.0000
# 2 33.6199 82.7472 57.9787 0.0000 0.0000 0.0000
# 3 44.5424 57.9787 127.5944 0.0000 0.0000 0.0000
# 4 0.0000 0.0000 0.0000 25.1643 0.0000 0.0000
# 5 0.0000 0.0000 0.0000 0.0000 26.8257 0.0000
# 6 0.0000 0.0000 0.0000 0.0000 0.0000 22.6239
#
#
#
# Elastic Compliance Matrix: (Units=1/GPa)
#
#
# Indices 1 2 3 4 5 6 
#
# 1 0.029002 -0.006880 -0.006998 0.000000 0.000000 0.000000
# 2 -0.006880 0.019362 -0.006396 0.000000 0.000000 0.000000
# 3 -0.006998 -0.006396 0.013187 0.000000 0.000000 0.000000
# 4 0.000000 0.000000 0.000000 0.039739 0.000000 0.000000
# 5 0.000000 0.000000 0.000000 0.000000 0.037278 0.000000
# 6 0.000000 0.000000 0.000000 0.000000 0.000000 0.044201
#
#
# Mechanical properties :
#
#
# Convention : Reuss Voigt Hill
#
# Bulk Modulus (GPa) = 47.61478 59.53641 53.57559
# Shear Modulus (GPa) = 21.70915 23.41642 22.56279
#
# Velocity S-wave (km/s) = 3.70932 3.85242 3.78155
# Velocity P-wave (km/s) = 6.96587 7.58432 7.28166
#
# Compressibility (1/GPa) = 0.02100188
#
# Stress axis : x y z
#
# Youngs Moduli (GPa) = 34.48061 51.64753 75.83328
#
# Poissons Ratio (x) = 0.35533 0.53069
# Poissons Ratio (y) = 0.23722 0.48505
# Poissons Ratio (z) = 0.24130 0.33035
#
# Static dielectric constant tensor:
#      x y z
#    x 2.904970 0.000000 0.000000 
#    y 0.000000 2.811970 0.000000 
#    z 0.000000 0.000000 3.266470 
# 
# 
# High freq. dielectric constant tensor:
#      x y z
#    x 1.603030 0.000000 0.000000 
#    y 0.000000 1.572530 0.000000 
#    z 0.000000 0.000000 1.610440 
# 
# From -- ./inp_files/32651.got.cif
#   From: 2010.03.12/outbox.cif.g09.slc.cpg/sg51_17_cif.got.tgz:32651.got - 2010.04.16 13:43:02.
