data_PCOD8206865
_publ_section_title
;
Structure prediction by ZEFSAII (Michael W. Deem and Ramdas Pophale) SiO2 
 PCOD8206865
Probable space group: P M M A
;
_chemical_formula_sum "Si O2"
_cell_formula_units_Z 48
_cell_length_a 20.442153
_cell_length_b 13.576526
_cell_length_c 10.377699
_cell_angle_alpha 90.000000
_cell_angle_beta 90.000000
_cell_angle_gamma 90.000000
_cell_volume 2880.158313
_symmetry_space_group_name_H-M "P M M A"
_symmetry_group_IT_number 51
_symmetry_cell_setting 'orthorhombic'
loop_
_space_group_symop_operation_xyz
x,y,z
1/2-x,-y,z
1/2+x,-y,-z
-x,y,-z
-x,-y,-z
1/2+x,y,-z
1/2-x,y,z
x,-y,z
loop_
_atom_site_type_symbol
_atom_site_label
_atom_site_fract_x
_atom_site_fract_y
_atom_site_fract_z
Si Si1 0.577365 0.391085 0.006881
Si Si2 0.419215 0.722483 0.244894
Si Si3 0.067046 0.288856 0.733875
Si Si4 0.321436 0.793712 0.596336
Si Si5 0.675449 0.887946 0.665686
Si Si6 0.383918 0.386327 0.497247
O O1 0.608824 0.500000 0.000205
O O2 0.597422 0.341932 0.141503
O O3 0.500000 0.399675 0.000000
O O4 0.603965 0.327646 0.887566
O O5 0.495407 0.755630 0.238959
O O6 0.375228 0.819029 0.259590
O O7 0.412996 0.643166 0.358904
O O8 0.119011 0.201065 0.699527
O O9 0.063512 0.365661 0.612803
O O10 0.250000 0.808000 0.661557
O O11 0.333401 0.876378 0.488154
O O12 0.322186 0.685398 0.526640
O O13 0.750000 0.860498 0.704490
O O14 0.659319 0.000000 0.703034
O O15 0.362643 0.500000 0.495586
#
# Coordination Sequence:
#
# PCOD8206865 Si02
#       6
#     8   8   8   8   8   8
#     4   9  17  29  46  70 102 140 169 192 234 289
#     4  10  18  30  48  72  99 123 162 212 242 280
#     4   9  18  29  46  69 101 129 164 195 236 285
#     4   8  17  31  46  67  96 124 157 202 242 288
#     4   9  18  34  55  74  94 125 161 200 257 310
#     4   9  17  26  44  69  95 126 164 201 235 278
#
# _framework density 16.665751
#
# number of rings (size 3 to 8) (size 9 to 14) (size 15 to 20)
#    1.000    2.000    0.000    1.500    0.000    3.000 
#    0.000    2.500    0.000    8.000    0.000    2.333 
#    0.000    0.000    0.000    0.000    0.000    0.000 
#
# Total GULP energy -594630.320595 kJ/mol
# GULP energy per Si atom -12388.131679 kJ/mol
# Density = 1.662782 g / cm^3
# Si number density = 16.665751 Si / 1000 Ang^3
#
#
#
# Elastic Constant Matrix: (Units=GPa)
#
#
# Indices 1 2 3 4 5 6 
#
# 1 79.8571 38.6562 32.3344 0.0000 0.0000 0.0000
# 2 38.6562 80.9996 38.9555 0.0000 0.0000 0.0000
# 3 32.3344 38.9555 116.0670 0.0000 0.0000 0.0000
# 4 0.0000 0.0000 0.0000 18.6262 0.0000 0.0000
# 5 0.0000 0.0000 0.0000 0.0000 13.9395 0.0000
# 6 0.0000 0.0000 0.0000 0.0000 0.0000 17.0659
#
#
#
# Elastic Compliance Matrix: (Units=1/GPa)
#
#
# Indices 1 2 3 4 5 6 
#
# 1 0.016816 -0.006883 -0.002374 0.000000 0.000000 0.000000
# 2 -0.006883 0.017540 -0.003969 0.000000 0.000000 0.000000
# 3 -0.002374 -0.003969 0.010609 0.000000 0.000000 0.000000
# 4 0.000000 0.000000 0.000000 0.053688 0.000000 0.000000
# 5 0.000000 0.000000 0.000000 0.000000 0.071739 0.000000
# 6 0.000000 0.000000 0.000000 0.000000 0.000000 0.058596
#
#
# Mechanical properties :
#
#
# Convention : Reuss Voigt Hill
#
# Bulk Modulus (GPa) = 54.02187 55.20177 54.61182
# Shear Modulus (GPa) = 19.11231 21.05816 20.08523
#
# Velocity S-wave (km/s) = 3.39012 3.55851 3.47534
# Velocity P-wave (km/s) = 6.91442 7.07664 6.99600
#
# Compressibility (1/GPa) = 0.01851102
#
# Stress axis : x y z
#
# Youngs Moduli (GPa) = 59.46835 57.01381 94.25613
#
# Poissons Ratio (x) = 0.39244 0.22380
# Poissons Ratio (y) = 0.40933 0.37413
# Poissons Ratio (z) = 0.14120 0.22630
#
# Static dielectric constant tensor:
#      x y z
#    x 2.918740 0.000000 0.000000 
#    y 0.000000 2.883990 0.000000 
#    z 0.000000 0.000000 3.113970 
# 
# 
# High freq. dielectric constant tensor:
#      x y z
#    x 1.624770 0.000000 0.000000 
#    y 0.000000 1.617840 0.000000 
#    z 0.000000 0.000000 1.632980 
# 
# From -- ./inp_files/18715.got.cif
#   From: 2010.03.12/outbox.cif.g09.slc.cpg/sg51_10_cif.got.tgz:18715.got - 2010.04.16 13:43:02.
