data_PCOD8206394
_publ_section_title
;
Structure prediction by ZEFSAII (Michael W. Deem and Ramdas Pophale) SiO2 
 PCOD8206394
Probable space group: P M M A
;
_chemical_formula_sum "Si O2"
_cell_formula_units_Z 56
_cell_length_a 29.459231
_cell_length_b 8.938274
_cell_length_c 13.725155
_cell_angle_alpha 90.000000
_cell_angle_beta 90.000000
_cell_angle_gamma 90.000000
_cell_volume 3614.034776
_symmetry_space_group_name_H-M "P M M A"
_symmetry_group_IT_number 51
_symmetry_cell_setting 'orthorhombic'
loop_
_space_group_symop_operation_xyz
x,y,z
1/2-x,-y,z
1/2+x,-y,-z
-x,y,-z
-x,-y,-z
1/2+x,y,-z
1/2-x,y,z
x,-y,z
loop_
_atom_site_type_symbol
_atom_site_label
_atom_site_fract_x
_atom_site_fract_y
_atom_site_fract_z
Si Si1 0.571202 0.175021 0.957660
Si Si2 0.841678 0.322613 0.875801
Si Si3 0.750000 0.672648 0.669905
Si Si4 0.522245 0.323336 0.351220
Si Si5 0.750000 0.823650 0.872776
Si Si6 0.067707 0.322022 0.456921
Si Si7 0.652517 0.326588 0.654072
Si Si8 0.481548 0.174032 0.849559
O O1 0.616056 0.270971 0.940155
O O2 0.531662 0.226958 0.883186
O O3 0.581711 0.000000 0.944215
O O4 0.554952 0.209994 0.066980
O O5 0.836371 0.500000 0.881036
O O6 0.795700 0.248140 0.918919
O O7 0.849546 0.265589 0.764638
O O8 0.750000 0.500000 0.709661
O O9 0.750000 0.786460 0.758785
O O10 0.796588 0.700426 0.609446
O O11 0.524100 0.500000 0.341839
O O12 0.558233 0.265601 0.432862
O O13 0.472278 0.269829 0.384515
O O14 0.534810 0.256136 0.247327
O O15 0.750000 0.000000 0.891152
O O16 0.068904 0.500000 0.460076
O O17 0.114803 0.250753 0.415861
O O18 0.640467 0.500000 0.657753
O O19 0.483091 0.000000 0.827643
#
# Coordination Sequence:
#
# PCOD8206394 Si02
#       8
#     8   8   4   8   4   8   8   8
#     4   9  18  31  44  60  83 114 144 170 211 263
#     4  10  18  28  44  66  88 110 141 181 211 239
#     4   8  14  24  38  58  81 106 139 174 201 234
#     4   9  16  26  41  59  79 105 140 174 205 244
#     4  10  18  28  42  60  87 120 143 164 205 260
#     4   8  14  24  38  58  82 107 134 168 208 249
#     4   8  13  22  37  57  82 107 130 162 207 246
#     4   9  18  31  44  59  85 114 140 174 214 256
#
# _framework density 15.495148
#
# number of rings (size 3 to 8) (size 9 to 14) (size 15 to 20)
#    0.000    3.143    0.000    4.500    0.000    2.286 
#    0.000    2.857    0.000    4.286    0.000    1.000 
#    0.000    2.286    0.000    0.000    0.000    0.286 
#
# Total GULP energy -693888.941406 kJ/mol
# GULP energy per Si atom -12390.873954 kJ/mol
# Density = 1.545988 g / cm^3
# Si number density = 15.495148 Si / 1000 Ang^3
#
#
#
# Elastic Constant Matrix: (Units=GPa)
#
#
# Indices 1 2 3 4 5 6 
#
# 1 137.7119 37.6044 49.3197 0.0000 0.0000 0.0000
# 2 37.6044 45.3520 26.5773 0.0000 0.0000 0.0000
# 3 49.3197 26.5773 85.8414 0.0000 0.0000 0.0000
# 4 0.0000 0.0000 0.0000 17.6443 0.0000 0.0000
# 5 0.0000 0.0000 0.0000 0.0000 23.0771 0.0000
# 6 0.0000 0.0000 0.0000 0.0000 0.0000 20.4820
#
#
#
# Elastic Compliance Matrix: (Units=1/GPa)
#
#
# Indices 1 2 3 4 5 6 
#
# 1 0.010423 -0.006271 -0.004047 0.000000 0.000000 0.000000
# 2 -0.006271 0.030710 -0.005905 0.000000 0.000000 0.000000
# 3 -0.004047 -0.005905 0.015803 0.000000 0.000000 0.000000
# 4 0.000000 0.000000 0.000000 0.056676 0.000000 0.000000
# 5 0.000000 0.000000 0.000000 0.000000 0.043333 0.000000
# 6 0.000000 0.000000 0.000000 0.000000 0.000000 0.048823
#
#
# Mechanical properties :
#
#
# Convention : Reuss Voigt Hill
#
# Bulk Modulus (GPa) = 40.83336 55.10089 47.96712
# Shear Modulus (GPa) = 20.29400 22.60092 21.44746
#
# Velocity S-wave (km/s) = 3.62290 3.82328 3.72444
# Velocity P-wave (km/s) = 6.62647 7.42477 7.03695
#
# Compressibility (1/GPa) = 0.02448978
#
# Stress axis : x y z
#
# Youngs Moduli (GPa) = 95.93841 32.56265 63.27949
#
# Poissons Ratio (x) = 0.20420 0.25610
# Poissons Ratio (y) = 0.60163 0.37367
# Poissons Ratio (z) = 0.38827 0.19229
#
# Static dielectric constant tensor:
#      x y z
#    x 3.285350 0.000000 0.000000 
#    y 0.000000 2.670070 0.000000 
#    z 0.000000 0.000000 2.908480 
# 
# 
# High freq. dielectric constant tensor:
#      x y z
#    x 1.599420 0.000000 0.000000 
#    y 0.000000 1.571570 0.000000 
#    z 0.000000 0.000000 1.561850 
# 
# From -- ./inp_files/26559.got.cif
#   From: 2010.03.12/outbox.cif.g09.slc.cpg/sg51_14_cif.got.tgz:26559.got - 2010.04.16 13:43:02.
