data_PCOD8206849
_publ_section_title
;
Structure prediction by ZEFSAII (Michael W. Deem and Ramdas Pophale) SiO2 
 PCOD8206849
Probable space group: P M M A
;
_chemical_formula_sum "Si O2"
_cell_formula_units_Z 48
_cell_length_a 19.496837
_cell_length_b 9.355229
_cell_length_c 15.162609
_cell_angle_alpha 90.000000
_cell_angle_beta 90.000000
_cell_angle_gamma 90.000000
_cell_volume 2765.620078
_symmetry_space_group_name_H-M "P M M A"
_symmetry_group_IT_number 51
_symmetry_cell_setting 'orthorhombic'
loop_
_space_group_symop_operation_xyz
x,y,z
1/2-x,-y,z
1/2+x,-y,-z
-x,y,-z
-x,-y,-z
1/2+x,y,-z
1/2-x,y,z
x,-y,z
loop_
_atom_site_type_symbol
_atom_site_label
_atom_site_fract_x
_atom_site_fract_y
_atom_site_fract_z
Si Si1 0.047305 0.836833 0.270047
Si Si2 0.070010 0.659922 0.110075
Si Si3 0.908482 0.338086 0.081606
Si Si4 0.424447 0.834728 0.468074
Si Si5 0.829289 0.336051 0.404873
Si Si6 0.889816 0.831469 0.247186
O O1 0.089950 0.753834 0.194857
O O2 0.082145 0.807101 0.363841
O O3 0.967454 0.792906 0.275036
O O4 0.052180 0.000000 0.242166
O O5 0.094275 0.500000 0.130666
O O6 0.989170 0.666519 0.096673
O O7 0.106690 0.712284 0.019302
O O8 0.881523 0.500000 0.096552
O O9 0.872343 0.230080 0.149884
O O10 0.500000 0.793045 0.500000
O O11 0.370212 0.732958 0.514400
O O12 0.409178 0.000000 0.492377
O O13 0.750000 0.328471 0.430393
O O14 0.853091 0.500000 0.391038
O O15 0.840706 0.246983 0.315869
O O16 0.875329 0.000000 0.248408
#
# Coordination Sequence:
#
# PCOD8206849 Si02
#       6
#     8   8   8   8   8   8
#     4   9  17  28  45  70  99 127 160 205 249 294
#     4   8  14  24  39  62  95 130 161 194 235 287
#     4   8  14  25  40  62  94 129 161 195 236 283
#     4  10  19  35  54  74 101 131 168 212 256 306
#     4  11  24  38  51  72 101 132 170 213 254 304
#     4  10  18  30  48  70  96 129 165 202 247 299
#
# _framework density 17.355964
#
# number of rings (size 3 to 8) (size 9 to 14) (size 15 to 20)
#    0.000    2.667    1.667    2.000    0.000    3.667 
#    0.000    3.333    0.000    0.000    0.000    1.167 
#    0.000    6.667    0.000    0.000    0.000    0.000 
#
# Total GULP energy -595020.337184 kJ/mol
# GULP energy per Si atom -12396.257025 kJ/mol
# Density = 1.731646 g / cm^3
# Si number density = 17.355964 Si / 1000 Ang^3
#
#
#
# Elastic Constant Matrix: (Units=GPa)
#
#
# Indices 1 2 3 4 5 6 
#
# 1 40.9275 37.3842 34.6808 0.0000 0.0000 0.0000
# 2 37.3842 103.1701 67.1072 0.0000 0.0000 0.0000
# 3 34.6808 67.1072 122.9933 0.0000 0.0000 0.0000
# 4 0.0000 0.0000 0.0000 40.2675 0.0000 0.0000
# 5 0.0000 0.0000 0.0000 0.0000 14.4306 0.0000
# 6 0.0000 0.0000 0.0000 0.0000 0.0000 17.5724
#
#
#
# Elastic Compliance Matrix: (Units=1/GPa)
#
#
# Indices 1 2 3 4 5 6 
#
# 1 0.038421 -0.010658 -0.005019 0.000000 0.000000 0.000000
# 2 -0.010658 0.017981 -0.006806 0.000000 0.000000 0.000000
# 3 -0.005019 -0.006806 0.013259 0.000000 0.000000 0.000000
# 4 0.000000 0.000000 0.000000 0.024834 0.000000 0.000000
# 5 0.000000 0.000000 0.000000 0.000000 0.069297 0.000000
# 6 0.000000 0.000000 0.000000 0.000000 0.000000 0.056907
#
#
# Mechanical properties :
#
#
# Convention : Reuss Voigt Hill
#
# Bulk Modulus (GPa) = 40.49037 60.60394 50.54716
# Shear Modulus (GPa) = 18.25505 22.98202 20.61854
#
# Velocity S-wave (km/s) = 3.24667 3.64284 3.45045
# Velocity P-wave (km/s) = 6.11837 7.25864 6.71276
#
# Compressibility (1/GPa) = 0.02469723
#
# Stress axis : x y z
#
# Youngs Moduli (GPa) = 26.02733 55.61296 75.42029
#
# Poissons Ratio (x) = 0.59270 0.37852
# Poissons Ratio (y) = 0.27739 0.51329
# Poissons Ratio (z) = 0.13062 0.37849
#
# Static dielectric constant tensor:
#      x y z
#    x 2.723970 0.000000 0.000000 
#    y 0.000000 3.329290 0.000000 
#    z 0.000000 0.000000 3.626010 
# 
# 
# High freq. dielectric constant tensor:
#      x y z
#    x 1.605830 0.000000 0.000000 
#    y 0.000000 1.673700 0.000000 
#    z 0.000000 0.000000 1.687450 
# 
# From -- ./inp_files/25451.got.cif
#   From: 2010.03.12/outbox.cif.g09.slc.cpg/sg51_13_cif.got.tgz:25451.got - 2010.04.16 13:43:02.
