data_PCOD8206243
_publ_section_title
;
Structure prediction by ZEFSAII (Michael W. Deem and Ramdas Pophale) SiO2 
 PCOD8206243
Probable space group: P M M A
;
_chemical_formula_sum "Si O2"
_cell_formula_units_Z 52
_cell_length_a 9.215436
_cell_length_b 12.904024
_cell_length_c 30.358142
_cell_angle_alpha 90.000000
_cell_angle_beta 90.000000
_cell_angle_gamma 90.000000
_cell_volume 3610.075108
_symmetry_space_group_name_H-M "P M M A"
_symmetry_group_IT_number 51
_symmetry_cell_setting 'orthorhombic'
loop_
_space_group_symop_operation_xyz
x,y,z
1/2-x,-y,z
1/2+x,-y,-z
-x,y,-z
-x,-y,-z
1/2+x,y,-z
1/2-x,y,z
x,-y,z
loop_
_atom_site_type_symbol
_atom_site_label
_atom_site_fract_x
_atom_site_fract_y
_atom_site_fract_z
Si Si1 0.421988 0.696325 0.102912
Si Si2 0.587448 0.376272 0.710652
Si Si3 0.086537 0.623601 0.627277
Si Si4 0.414206 0.623523 0.457495
Si Si5 0.922442 0.500000 0.953469
Si Si6 0.922951 0.384163 0.806517
Si Si7 0.420142 0.882996 0.044826
O O1 0.250000 0.693571 0.104486
O O2 0.476126 0.600915 0.073163
O O3 0.482043 0.686032 0.153054
O O4 0.476672 0.805104 0.082672
O O5 0.750000 0.334253 0.701791
O O6 0.590327 0.500000 0.710580
O O7 0.483148 0.333038 0.672425
O O8 0.528289 0.339002 0.758728
O O9 0.250000 0.666042 0.623426
O O10 0.085393 0.500000 0.627377
O O11 0.994053 0.665768 0.586089
O O12 0.500000 0.665848 0.500000
O O13 0.250000 0.666298 0.458418
O O14 0.413301 0.500000 0.457622
O O15 0.750000 0.500000 0.960378
O O16 0.000000 0.500000 0.000000
O O17 0.750000 0.389105 0.806696
O O18 0.984778 0.500000 0.813456
O O19 0.250000 0.869029 0.036217
O O20 0.457750 0.000000 0.059787
O O21 0.500000 0.853456 0.000000
#
# Coordination Sequence:
#
# PCOD8206243 Si02
#       7
#     8   8   8   8   4   8   8
#     4   9  15  24  38  55  72  90 113 141 170 203
#     4   8  13  20  31  44  55  69  92 123 154 187
#     4   9  15  21  28  38  53  73  96 121 153 195
#     4   9  15  21  28  37  50  68  93 127 166 204
#     4  10  18  26  38  54  72  92 114 138 167 202
#     4   8  12  20  34  51  66  80 104 135 165 197
#     4   9  17  28  41  56  73  93 116 141 169 202
#
# _framework density 14.404134000000001
#
# number of rings (size 3 to 8) (size 9 to 14) (size 15 to 20)
#    0.000    3.231    0.769    2.308    0.000    3.692 
#    0.000    0.000    0.000    1.846    0.000    0.000 
#    0.000    0.000    0.000    0.000    0.000    0.000 
#
# Total GULP energy -644395.945540 kJ/mol
# GULP energy per Si atom -12392.229722 kJ/mol
# Density = 1.437135 g / cm^3
# Si number density = 14.404134 Si / 1000 Ang^3
#
#
#
# Elastic Constant Matrix: (Units=GPa)
#
#
# Indices 1 2 3 4 5 6 
#
# 1 65.2136 14.6607 54.7427 0.0000 0.0000 0.0000
# 2 14.6607 42.5422 39.3613 0.0000 0.0000 0.0000
# 3 54.7427 39.3613 163.0954 0.0000 0.0000 0.0000
# 4 0.0000 0.0000 0.0000 7.5154 0.0000 0.0000
# 5 0.0000 0.0000 0.0000 0.0000 22.1824 0.0000
# 6 0.0000 0.0000 0.0000 0.0000 0.0000 5.1709
#
#
#
# Elastic Compliance Matrix: (Units=1/GPa)
#
#
# Indices 1 2 3 4 5 6 
#
# 1 0.021379 -0.000938 -0.006949 0.000000 0.000000 0.000000
# 2 -0.000938 0.030305 -0.006999 0.000000 0.000000 0.000000
# 3 -0.006949 -0.006999 0.010153 0.000000 0.000000 0.000000
# 4 0.000000 0.000000 0.000000 0.133060 0.000000 0.000000
# 5 0.000000 0.000000 0.000000 0.000000 0.045081 0.000000
# 6 0.000000 0.000000 0.000000 0.000000 0.000000 0.193388
#
#
# Mechanical properties :
#
#
# Convention : Reuss Voigt Hill
#
# Bulk Modulus (GPa) = 31.18714 54.26451 42.72583
# Shear Modulus (GPa) = 10.55241 17.77953 14.16597
#
# Velocity S-wave (km/s) = 2.70959 3.51712 3.13943
# Velocity P-wave (km/s) = 5.61139 7.36534 6.54736
#
# Compressibility (1/GPa) = 0.03206450
#
# Stress axis : x y z
#
# Youngs Moduli (GPa) = 46.77580 32.99789 98.49218
#
# Poissons Ratio (x) = 0.03094 0.68446
# Poissons Ratio (y) = 0.04386 0.68935
# Poissons Ratio (z) = 0.32506 0.23095
#
# Static dielectric constant tensor:
#      x y z
#    x 2.699190 0.000000 0.000000 
#    y 0.000000 2.410290 0.000000 
#    z 0.000000 0.000000 3.216510 
# 
# 
# High freq. dielectric constant tensor:
#      x y z
#    x 1.531800 0.000000 0.000000 
#    y 0.000000 1.472930 0.000000 
#    z 0.000000 0.000000 1.567540 
# 
# From -- ./inp_files/37362.got.cif
#   From: 2010.03.12/outbox.cif.g09.slc.cpg/sg51_19_cif.got.tgz:37362.got - 2010.04.16 13:43:02.
