data_PCOD8206208
_publ_section_title
;
Structure prediction by ZEFSAII (Michael W. Deem and Ramdas Pophale) SiO2 
 PCOD8206208
Probable space group: P M M A
;
_chemical_formula_sum "Si O2"
_cell_formula_units_Z 64
_cell_length_a 18.503729
_cell_length_b 15.117409
_cell_length_c 12.619069
_cell_angle_alpha 90.000000
_cell_angle_beta 90.000000
_cell_angle_gamma 90.000000
_cell_volume 3529.912477
_symmetry_space_group_name_H-M "P M M A"
_symmetry_group_IT_number 51
_symmetry_cell_setting 'orthorhombic'
loop_
_space_group_symop_operation_xyz
x,y,z
1/2-x,-y,z
1/2+x,-y,-z
-x,y,-z
-x,-y,-z
1/2+x,y,-z
1/2-x,y,z
x,-y,z
loop_
_atom_site_type_symbol
_atom_site_label
_atom_site_fract_x
_atom_site_fract_y
_atom_site_fract_z
Si Si1 0.593878 0.097818 0.390331
Si Si2 0.604072 0.600908 0.290908
Si Si3 0.531699 0.348596 0.608557
Si Si4 0.164129 0.776459 0.779039
Si Si5 0.171214 0.397089 0.483946
Si Si6 0.664228 0.901915 0.034979
Si Si7 0.939837 0.849619 0.620535
Si Si8 0.331792 0.103837 0.202079
O O1 0.636097 0.171510 0.323753
O O2 0.602508 0.124047 0.513907
O O3 0.509029 0.088106 0.359404
O O4 0.628250 0.000000 0.372180
O O5 0.625650 0.500000 0.257333
O O6 0.516252 0.607315 0.297935
O O7 0.633708 0.675743 0.210570
O O8 0.639004 0.630691 0.402609
O O9 0.500000 0.389553 0.500000
O O10 0.617389 0.370283 0.612281
O O11 0.521243 0.244434 0.610825
O O12 0.250000 0.772453 0.775425
O O13 0.135257 0.829629 0.882014
O O14 0.250000 0.351248 0.467997
O O15 0.182384 0.500000 0.481272
O O16 0.750000 0.906904 0.037745
O O17 0.633545 0.000000 0.063624
O O18 0.640099 0.874616 0.916484
O O19 0.884315 0.847219 0.717058
O O20 0.250000 0.138677 0.218112
O O21 0.334883 0.000000 0.224237
#
# Coordination Sequence:
#
# PCOD8206208 Si02
#       8
#     8   8   8   8   8   8   8   8
#     4  11  21  33  48  71 109 148 174 205 253 307
#     4  10  19  32  49  72 102 135 167 209 267 321
#     4  10  17  31  48  66 100 142 180 205 251 309
#     4  11  21  34  53  77 102 132 172 216 261 314
#     4   9  17  28  44  69  98 129 171 219 257 297
#     4   8  16  33  54  75 102 133 165 210 265 309
#     4  11  19  33  49  71 104 143 178 211 247 298
#     4   9  18  33  53  76 101 133 175 218 257 300
#
# _framework density 18.130759999999999
#
# number of rings (size 3 to 8) (size 9 to 14) (size 15 to 20)
#    0.000    2.125    2.500    4.125    0.000    4.000 
#    0.000    0.625    0.000    2.250    0.000    2.625 
#    0.000    2.000    0.000    0.125    0.000    0.000 
#
# Total GULP energy -793142.554632 kJ/mol
# GULP energy per Si atom -12392.852416 kJ/mol
# Density = 1.808949 g / cm^3
# Si number density = 18.130760 Si / 1000 Ang^3
#
#
#
# Elastic Constant Matrix: (Units=GPa)
#
#
# Indices 1 2 3 4 5 6 
#
# 1 88.9805 23.3990 39.0517 0.0000 0.0000 0.0000
# 2 23.3990 97.4995 41.1307 0.0000 0.0000 0.0000
# 3 39.0517 41.1307 87.1137 0.0000 0.0000 0.0000
# 4 0.0000 0.0000 0.0000 10.0452 0.0000 0.0000
# 5 0.0000 0.0000 0.0000 0.0000 19.2111 0.0000
# 6 0.0000 0.0000 0.0000 0.0000 0.0000 20.9775
#
#
#
# Elastic Compliance Matrix: (Units=1/GPa)
#
#
# Indices 1 2 3 4 5 6 
#
# 1 0.014053 -0.000893 -0.005878 0.000000 0.000000 0.000000
# 2 -0.000893 0.012864 -0.005674 0.000000 0.000000 0.000000
# 3 -0.005878 -0.005674 0.016793 0.000000 0.000000 0.000000
# 4 0.000000 0.000000 0.000000 0.099550 0.000000 0.000000
# 5 0.000000 0.000000 0.000000 0.000000 0.052053 0.000000
# 6 0.000000 0.000000 0.000000 0.000000 0.000000 0.047670
#
#
# Mechanical properties :
#
#
# Convention : Reuss Voigt Hill
#
# Bulk Modulus (GPa) = 53.13184 53.41738 53.27461
# Shear Modulus (GPa) = 18.23840 21.38092 19.80966
#
# Velocity S-wave (km/s) = 3.17509 3.43776 3.30904
# Velocity P-wave (km/s) = 6.54294 6.72933 6.63679
#
# Compressibility (1/GPa) = 0.01882111
#
# Stress axis : x y z
#
# Youngs Moduli (GPa) = 71.15912 77.73542 59.54831
#
# Poissons Ratio (x) = 0.06941 0.35004
# Poissons Ratio (y) = 0.06354 0.33785
# Poissons Ratio (z) = 0.41829 0.44103
#
# Static dielectric constant tensor:
#      x y z
#    x 3.388290 0.000000 0.000000 
#    y 0.000000 3.342460 0.000000 
#    z 0.000000 0.000000 3.187500 
# 
# 
# High freq. dielectric constant tensor:
#      x y z
#    x 1.698030 0.000000 0.000000 
#    y 0.000000 1.703090 0.000000 
#    z 0.000000 0.000000 1.657290 
# 
# From -- ./inp_files/17541.got.cif
#   From: 2010.03.12/outbox.cif.g09.slc.cpg/sg51_9_cif.got.tgz:17541.got - 2010.04.16 13:43:02.
