data_PCOD8206667
_publ_section_title
;
Structure prediction by ZEFSAII (Michael W. Deem and Ramdas Pophale) SiO2 
 PCOD8206667
Probable space group: P M M A
;
_chemical_formula_sum "Si O2"
_cell_formula_units_Z 64
_cell_length_a 28.706706
_cell_length_b 8.833247
_cell_length_c 15.421845
_cell_angle_alpha 90.000000
_cell_angle_beta 90.000000
_cell_angle_gamma 90.000000
_cell_volume 3910.570051
_symmetry_space_group_name_H-M "P M M A"
_symmetry_group_IT_number 51
_symmetry_cell_setting 'orthorhombic'
loop_
_space_group_symop_operation_xyz
x,y,z
1/2-x,-y,z
1/2+x,-y,-z
-x,y,-z
-x,-y,-z
1/2+x,y,-z
1/2-x,y,z
x,-y,z
loop_
_atom_site_type_symbol
_atom_site_label
_atom_site_fract_x
_atom_site_fract_y
_atom_site_fract_z
Si Si1 0.550171 0.322194 0.681905
Si Si2 0.053183 0.324456 0.006565
Si Si3 0.199479 0.320403 0.909000
Si Si4 0.055055 0.833289 0.491157
Si Si5 0.893037 0.178437 0.835576
Si Si6 0.697217 0.677057 0.895186
Si Si7 0.105827 0.323934 0.828660
Si Si8 0.450147 0.178060 0.679753
O O1 0.550968 0.500000 0.694413
O O2 0.568879 0.281192 0.585488
O O3 0.584122 0.248055 0.750715
O O4 0.497927 0.265360 0.698265
O O5 0.056476 0.500000 0.033263
O O6 0.079736 0.229409 0.078732
O O7 0.075830 0.293881 0.913924
O O8 0.000000 0.269969 0.000000
O O9 0.250000 0.263780 0.874148
O O10 0.198712 0.500000 0.914440
O O11 0.158491 0.265318 0.845816
O O12 0.191508 0.261601 0.006633
O O13 0.072327 0.777297 0.586049
O O14 0.000000 0.844065 0.500000
O O15 0.075303 0.000000 0.468843
O O16 0.839283 0.231578 0.836730
O O17 0.895352 0.000000 0.828574
O O18 0.750000 0.707225 0.862334
O O19 0.685071 0.500000 0.889747
O O20 0.104211 0.500000 0.802266
O O21 0.087357 0.222297 0.751128
O O22 0.461069 0.000000 0.682657
#
# Coordination Sequence:
#
# PCOD8206667 Si02
#       8
#     8   8   8   8   8   8   8   8
#     4  11  21  33  51  72  96 127 167 206 238 283
#     4  10  20  33  47  65  94 132 171 205 236 277
#     4   8  14  27  48  70  91 120 160 204 245 281
#     4   8  16  32  50  69  96 127 156 195 246 291
#     4  12  23  33  48  71 101 132 162 200 247 298
#     4   9  17  33  55  73  93 125 165 206 246 288
#     4  10  18  29  47  70  96 128 166 202 237 283
#     4  10  20  33  49  71 102 132 159 195 244 295
#
# _framework density 16.365901000000001
#
# number of rings (size 3 to 8) (size 9 to 14) (size 15 to 20)
#    0.000    2.250    1.250    4.875    0.000    4.750 
#    0.000    0.000    0.000    0.375    0.000    0.875 
#    0.000    3.000    0.000    0.000    0.000    0.000 
#
# Total GULP energy -793417.365425 kJ/mol
# GULP energy per Si atom -12397.146335 kJ/mol
# Density = 1.632865 g / cm^3
# Si number density = 16.365901 Si / 1000 Ang^3
#
#
#
# Elastic Constant Matrix: (Units=GPa)
#
#
# Indices 1 2 3 4 5 6 
#
# 1 108.1513 41.0975 50.7935 0.0000 0.0000 0.0000
# 2 41.0975 88.1000 44.9666 0.0000 0.0000 0.0000
# 3 50.7935 44.9666 95.6157 0.0000 0.0000 0.0000
# 4 0.0000 0.0000 0.0000 25.5801 0.0000 0.0000
# 5 0.0000 0.0000 0.0000 0.0000 1.7738 0.0000
# 6 0.0000 0.0000 0.0000 0.0000 0.0000 10.3369
#
#
#
# Elastic Compliance Matrix: (Units=1/GPa)
#
#
# Indices 1 2 3 4 5 6 
#
# 1 0.013030 -0.003349 -0.005347 0.000000 0.000000 0.000000
# 2 -0.003349 0.015797 -0.005650 0.000000 0.000000 0.000000
# 3 -0.005347 -0.005650 0.015956 0.000000 0.000000 0.000000
# 4 0.000000 0.000000 0.000000 0.039093 0.000000 0.000000
# 5 0.000000 0.000000 0.000000 0.000000 0.563762 0.000000
# 6 0.000000 0.000000 0.000000 0.000000 0.000000 0.096741
#
#
# Mechanical properties :
#
#
# Convention : Reuss Voigt Hill
#
# Bulk Modulus (GPa) = 62.14632 62.84248 62.49440
# Shear Modulus (GPa) = 6.42315 17.87212 12.14764
#
# Velocity S-wave (km/s) = 1.98324 3.30818 2.72739
# Velocity P-wave (km/s) = 6.58026 7.28518 6.94167
#
# Compressibility (1/GPa) = 0.01609106
#
# Stress axis : x y z
#
# Youngs Moduli (GPa) = 76.74465 63.30386 62.67280
#
# Poissons Ratio (x) = 0.21203 0.33510
# Poissons Ratio (y) = 0.25705 0.35408
# Poissons Ratio (z) = 0.41034 0.35765
#
# Static dielectric constant tensor:
#      x y z
#    x 3.302480 0.000000 0.000000 
#    y 0.000000 2.987550 0.000000 
#    z 0.000000 0.000000 3.375810 
# 
# 
# High freq. dielectric constant tensor:
#      x y z
#    x 1.614770 0.000000 0.000000 
#    y 0.000000 1.621010 0.000000 
#    z 0.000000 0.000000 1.620950 
# 
# From -- ./inp_files/26706.got.cif
#   From: 2010.03.12/outbox.cif.g09.slc.cpg/sg51_14_cif.got.tgz:26706.got - 2010.04.16 13:43:02.
