data_PCOD8206874
_publ_section_title
;
Structure prediction by ZEFSAII (Michael W. Deem and Ramdas Pophale) SiO2 
 PCOD8206874
Probable space group: P M M A
;
_chemical_formula_sum "Si O2"
_cell_formula_units_Z 56
_cell_length_a 9.493950
_cell_length_b 14.181110
_cell_length_c 25.633908
_cell_angle_alpha 90.000000
_cell_angle_beta 90.000000
_cell_angle_gamma 90.000000
_cell_volume 3451.214777
_symmetry_space_group_name_H-M "P M M A"
_symmetry_group_IT_number 51
_symmetry_cell_setting 'orthorhombic'
loop_
_space_group_symop_operation_xyz
x,y,z
1/2-x,-y,z
1/2+x,-y,-z
-x,y,-z
-x,-y,-z
1/2+x,y,-z
1/2-x,y,z
x,-y,z
loop_
_atom_site_type_symbol
_atom_site_label
_atom_site_fract_x
_atom_site_fract_y
_atom_site_fract_z
Si Si1 0.416721 0.202084 0.343248
Si Si2 0.583178 0.398079 0.698033
Si Si3 0.087170 0.607082 0.183806
Si Si4 0.913441 0.108893 0.049547
Si Si5 0.087796 0.890609 0.747612
Si Si6 0.913205 0.891127 0.549586
Si Si7 0.584618 0.224659 0.150511
O O1 0.250000 0.191152 0.334427
O O2 0.467756 0.310965 0.337568
O O3 0.492699 0.136704 0.301381
O O4 0.461326 0.169295 0.400693
O O5 0.750000 0.402860 0.698818
O O6 0.525265 0.500000 0.677227
O O7 0.530889 0.381984 0.757013
O O8 0.250000 0.636597 0.179864
O O9 0.065563 0.500000 0.164362
O O10 0.995493 0.675757 0.147823
O O11 0.750000 0.124628 0.037415
O O12 0.962405 0.165984 0.100164
O O13 0.947582 0.000000 0.060754
O O14 0.000000 0.146551 0.000000
O O15 0.250000 0.868814 0.733885
O O16 0.038249 0.832836 0.798197
O O17 0.065794 0.000000 0.760477
O O18 0.750000 0.876011 0.536908
O O19 0.000000 0.854265 0.500000
O O20 0.947476 0.000000 0.561535
O O21 0.750000 0.244023 0.150479
#
# Coordination Sequence:
#
# PCOD8206874 Si02
#       7
#     8   8   8   8   8   8   8
#     4  10  18  30  49  70  92 119 155 196 231 269
#     4   8  14  26  45  68  93 120 150 185 228 276
#     4   9  17  30  48  70  96 125 157 192 230 277
#     4   9  18  33  51  70  94 126 163 200 235 275
#     4  10  20  31  43  65  98 130 153 178 225 285
#     4   9  18  31  46  65  88 117 155 195 232 271
#     4  10  19  31  48  70  97 127 157 190 232 281
#
# _framework density 16.226171000000001
#
# number of rings (size 3 to 8) (size 9 to 14) (size 15 to 20)
#    0.000    2.714    1.429    1.714    0.000    4.000 
#    0.000    1.429    0.000    3.857    0.000    0.000 
#    0.000    0.000    0.000    0.000    0.000    0.000 
#
# Total GULP energy -694328.232069 kJ/mol
# GULP energy per Si atom -12398.718430 kJ/mol
# Density = 1.618924 g / cm^3
# Si number density = 16.226171 Si / 1000 Ang^3
#
#
#
# Elastic Constant Matrix: (Units=GPa)
#
#
# Indices 1 2 3 4 5 6 
#
# 1 41.1556 37.6061 47.2705 0.0000 0.0000 0.0000
# 2 37.6061 101.7471 59.1682 0.0000 0.0000 0.0000
# 3 47.2705 59.1682 117.1098 0.0000 0.0000 0.0000
# 4 0.0000 0.0000 0.0000 20.2180 0.0000 0.0000
# 5 0.0000 0.0000 0.0000 0.0000 26.9175 0.0000
# 6 0.0000 0.0000 0.0000 0.0000 0.0000 24.6499
#
#
#
# Elastic Compliance Matrix: (Units=1/GPa)
#
#
# Indices 1 2 3 4 5 6 
#
# 1 0.051403 -0.009817 -0.015788 0.000000 0.000000 0.000000
# 2 -0.009817 0.015792 -0.004016 0.000000 0.000000 0.000000
# 3 -0.015788 -0.004016 0.016941 0.000000 0.000000 0.000000
# 4 0.000000 0.000000 0.000000 0.049461 0.000000 0.000000
# 5 0.000000 0.000000 0.000000 0.000000 0.037151 0.000000
# 6 0.000000 0.000000 0.000000 0.000000 0.000000 0.040568
#
#
# Mechanical properties :
#
#
# Convention : Reuss Voigt Hill
#
# Bulk Modulus (GPa) = 40.17285 60.90023 50.53654
# Shear Modulus (GPa) = 17.93036 22.08826 20.00931
#
# Velocity S-wave (km/s) = 3.32780 3.69355 3.51543
# Velocity P-wave (km/s) = 6.29106 7.47016 6.90582
#
# Compressibility (1/GPa) = 0.02489243
#
# Stress axis : x y z
#
# Youngs Moduli (GPa) = 19.45418 63.32189 59.02879
#
# Poissons Ratio (x) = 0.62166 0.93196
# Poissons Ratio (y) = 0.19099 0.23707
# Poissons Ratio (z) = 0.30715 0.25431
#
# Static dielectric constant tensor:
#      x y z
#    x 2.895820 0.000000 0.000000 
#    y 0.000000 3.311070 0.000000 
#    z 0.000000 0.000000 2.999730 
# 
# 
# High freq. dielectric constant tensor:
#      x y z
#    x 1.608630 0.000000 0.000000 
#    y 0.000000 1.627070 0.000000 
#    z 0.000000 0.000000 1.607450 
# 
# From -- ./inp_files/33001.got.cif
#   From: 2010.03.12/outbox.cif.g09.slc.cpg/sg51_17_cif.got.tgz:33001.got - 2010.04.16 13:43:02.
