data_PCOD8206359
_publ_section_title
;
Structure prediction by ZEFSAII (Michael W. Deem and Ramdas Pophale) SiO2 
 PCOD8206359
Probable space group: P M M A
;
_chemical_formula_sum "Si O2"
_cell_formula_units_Z 64
_cell_length_a 14.818782
_cell_length_b 9.323560
_cell_length_c 26.327277
_cell_angle_alpha 90.000000
_cell_angle_beta 90.000000
_cell_angle_gamma 90.000000
_cell_volume 3637.476716
_symmetry_space_group_name_H-M "P M M A"
_symmetry_group_IT_number 51
_symmetry_cell_setting 'orthorhombic'
loop_
_space_group_symop_operation_xyz
x,y,z
1/2-x,-y,z
1/2+x,-y,-z
-x,y,-z
-x,-y,-z
1/2+x,y,-z
1/2-x,y,z
x,-y,z
loop_
_atom_site_type_symbol
_atom_site_label
_atom_site_fract_x
_atom_site_fract_y
_atom_site_fract_z
Si Si1 0.006133 0.170414 0.922151
Si Si2 0.349654 0.829562 0.258799
Si Si3 0.008368 0.170300 0.557704
Si Si4 0.647847 0.829488 0.996104
Si Si5 0.986899 0.829026 0.192192
Si Si6 0.855907 0.663145 0.261853
Si Si7 0.650251 0.170462 0.627869
Si Si8 0.644405 0.336286 0.376617
O O1 0.012532 0.231030 0.865182
O O2 0.912231 0.223447 0.948019
O O3 0.004957 0.000000 0.921856
O O4 0.094512 0.222958 0.953355
O O5 0.250000 0.774051 0.243034
O O6 0.422440 0.770054 0.219075
O O7 0.373971 0.774612 0.315461
O O8 0.350399 0.000000 0.258440
O O9 0.097509 0.234248 0.582733
O O10 0.000000 0.223262 0.500000
O O11 0.921717 0.231509 0.587962
O O12 0.015392 0.000000 0.560873
O O13 0.750000 0.764606 0.994310
O O14 0.654423 0.000000 0.995891
O O15 0.901291 0.768289 0.221661
O O16 0.981196 0.000000 0.193436
O O17 0.750000 0.677353 0.253709
O O18 0.887188 0.500000 0.252153
O O19 0.881846 0.709762 0.319213
O O20 0.750000 0.225498 0.612342
O O21 0.648694 0.000000 0.627091
O O22 0.750000 0.317856 0.385065
O O23 0.614949 0.500000 0.386023
#
# Coordination Sequence:
#
# PCOD8206359 Si02
#       8
#     8   8   8   8   8   8   8   8
#     4   8  15  24  34  57  88 114 146 186 227 269
#     4   8  14  24  39  61  88 117 146 177 220 272
#     4  10  20  31  47  74 100 121 151 193 240 284
#     4   8  13  23  37  51  78 122 158 182 217 267
#     4  10  18  27  44  71  98 118 145 194 242 276
#     4   9  19  35  51  67  91 125 160 190 229 284
#     4   8  14  26  42  59  85 120 150 176 215 272
#     4   9  19  36  54  69  90 125 164 196 228 273
#
# _framework density 17.594614
#
# number of rings (size 3 to 8) (size 9 to 14) (size 15 to 20)
#    0.000    3.250    0.000    3.000    0.000    3.750 
#    0.000    6.250    0.000    0.750    0.000    5.250 
#    0.000    1.000    0.000    0.000    0.000    0.000 
#
# Total GULP energy -793210.883842 kJ/mol
# GULP energy per Si atom -12393.920060 kJ/mol
# Density = 1.755457 g / cm^3
# Si number density = 17.594614 Si / 1000 Ang^3
#
#
#
# Elastic Constant Matrix: (Units=GPa)
#
#
# Indices 1 2 3 4 5 6 
#
# 1 113.6485 21.0202 75.7974 0.0000 0.0000 0.0000
# 2 21.0202 16.1103 27.1206 0.0000 0.0000 0.0000
# 3 75.7974 27.1206 155.0019 0.0000 0.0000 0.0000
# 4 0.0000 0.0000 0.0000 12.8635 0.0000 0.0000
# 5 0.0000 0.0000 0.0000 0.0000 17.0097 0.0000
# 6 0.0000 0.0000 0.0000 0.0000 0.0000 13.3217
#
#
#
# Elastic Compliance Matrix: (Units=1/GPa)
#
#
# Indices 1 2 3 4 5 6 
#
# 1 0.014028 -0.009576 -0.005184 0.000000 0.000000 0.000000
# 2 -0.009576 0.094526 -0.011857 0.000000 0.000000 0.000000
# 3 -0.005184 -0.011857 0.011061 0.000000 0.000000 0.000000
# 4 0.000000 0.000000 0.000000 0.077739 0.000000 0.000000
# 5 0.000000 0.000000 0.000000 0.000000 0.058790 0.000000
# 6 0.000000 0.000000 0.000000 0.000000 0.000000 0.075065
#
#
# Mechanical properties :
#
#
# Convention : Reuss Voigt Hill
#
# Bulk Modulus (GPa) = 15.06437 59.18191 37.12314
# Shear Modulus (GPa) = 12.29802 19.36047 15.82925
#
# Velocity S-wave (km/s) = 2.64666 3.32077 3.00269
# Velocity P-wave (km/s) = 4.23323 6.95793 5.75904
#
# Compressibility (1/GPa) = 0.06638179
#
# Stress axis : x y z
#
# Youngs Moduli (GPa) = 71.28709 10.57914 90.40575
#
# Poissons Ratio (x) = 0.10130 0.46869
# Poissons Ratio (y) = 0.68261 1.07190
# Poissons Ratio (z) = 0.36957 0.12543
#
# Static dielectric constant tensor:
#      x y z
#    x 3.489580 0.000000 0.000000 
#    y 0.000000 2.682950 0.000000 
#    z 0.000000 0.000000 3.505750 
# 
# 
# High freq. dielectric constant tensor:
#      x y z
#    x 1.690430 0.000000 0.000000 
#    y 0.000000 1.617290 0.000000 
#    z 0.000000 0.000000 1.684000 
# 
# From -- ./inp_files/35695.got.cif
#   From: 2010.03.12/outbox.cif.g09.slc.cpg/sg51_18_cif.got.tgz:35695.got - 2010.04.16 13:43:02.
