data_PCOD8206328
_publ_section_title
;
Structure prediction by ZEFSAII (Michael W. Deem and Ramdas Pophale) SiO2 
 PCOD8206328
Probable space group: P M M A
;
_chemical_formula_sum "Si O2"
_cell_formula_units_Z 64
_cell_length_a 19.112024
_cell_length_b 9.111962
_cell_length_c 21.595724
_cell_angle_alpha 90.000000
_cell_angle_beta 90.000000
_cell_angle_gamma 90.000000
_cell_volume 3760.852930
_symmetry_space_group_name_H-M "P M M A"
_symmetry_group_IT_number 51
_symmetry_cell_setting 'orthorhombic'
loop_
_space_group_symop_operation_xyz
x,y,z
1/2-x,-y,z
1/2+x,-y,-z
-x,y,-z
-x,-y,-z
1/2+x,y,-z
1/2-x,y,z
x,-y,z
loop_
_atom_site_type_symbol
_atom_site_label
_atom_site_fract_x
_atom_site_fract_y
_atom_site_fract_z
Si Si1 0.592921 0.671029 0.350517
Si Si2 0.066271 0.333636 0.316986
Si Si3 0.532138 0.669466 0.061307
Si Si4 0.371785 0.172608 0.767159
Si Si5 0.174289 0.670360 0.881887
Si Si6 0.669767 0.671004 0.473647
Si Si7 0.005591 0.333123 0.193050
Si Si8 0.330043 0.828100 0.402057
O O1 0.607692 0.500000 0.339711
O O2 0.510724 0.706964 0.342816
O O3 0.639594 0.760511 0.301153
O O4 0.619098 0.720604 0.418070
O O5 0.085196 0.500000 0.335472
O O6 0.069568 0.314193 0.241481
O O7 0.123423 0.226144 0.345061
O O8 0.542621 0.500000 0.045302
O O9 0.609718 0.733863 0.077048
O O10 0.478454 0.690746 0.119778
O O11 0.500000 0.748182 0.000000
O O12 0.319602 0.244653 0.816745
O O13 0.449717 0.211518 0.788672
O O14 0.359460 0.000000 0.764851
O O15 0.250000 0.690993 0.915555
O O16 0.159601 0.500000 0.867492
O O17 0.750000 0.711436 0.457256
O O18 0.661748 0.500000 0.487713
O O19 0.643675 0.755708 0.534392
O O20 0.975507 0.500000 0.201936
O O21 0.250000 0.783402 0.388417
O O22 0.339193 0.000000 0.408865
#
# Coordination Sequence:
#
# PCOD8206328 Si02
#       8
#     8   8   8   8   8   8   8   8
#     4   9  18  32  48  69  96 123 153 187 226 274
#     4   9  17  30  49  69  91 120 152 189 227 269
#     4   8  13  24  46  72  94 118 150 187 225 266
#     4  10  18  27  42  65  92 120 150 186 226 265
#     4   9  17  29  44  62  88 124 161 192 225 271
#     4   9  18  33  51  67  86 118 156 188 223 277
#     4   8  15  29  47  68  94 121 148 180 223 272
#     4  10  21  35  49  66  89 116 149 194 244 286
#
# _framework density 17.017417999999999
#
# number of rings (size 3 to 8) (size 9 to 14) (size 15 to 20)
#    0.000    3.000    0.000    3.000    0.000    4.500 
#    0.000    3.750    0.000    6.750    0.000    3.500 
#    0.000    0.000    0.000    0.000    0.000    0.000 
#
# Total GULP energy -792958.731276 kJ/mol
# GULP energy per Si atom -12389.980176 kJ/mol
# Density = 1.697869 g / cm^3
# Si number density = 17.017418 Si / 1000 Ang^3
#
#
#
# Elastic Constant Matrix: (Units=GPa)
#
#
# Indices 1 2 3 4 5 6 
#
# 1 72.4278 26.2579 63.6176 0.0000 0.0000 0.0000
# 2 26.2579 51.3586 35.4742 0.0000 0.0000 0.0000
# 3 63.6176 35.4742 143.2855 0.0000 0.0000 0.0000
# 4 0.0000 0.0000 0.0000 7.6797 0.0000 0.0000
# 5 0.0000 0.0000 0.0000 0.0000 20.8624 0.0000
# 6 0.0000 0.0000 0.0000 0.0000 0.0000 16.9291
#
#
#
# Elastic Compliance Matrix: (Units=1/GPa)
#
#
# Indices 1 2 3 4 5 6 
#
# 1 0.024045 -0.005934 -0.009207 0.000000 0.000000 0.000000
# 2 -0.005934 0.024952 -0.003543 0.000000 0.000000 0.000000
# 3 -0.009207 -0.003543 0.011944 0.000000 0.000000 0.000000
# 4 0.000000 0.000000 0.000000 0.130213 0.000000 0.000000
# 5 0.000000 0.000000 0.000000 0.000000 0.047933 0.000000
# 6 0.000000 0.000000 0.000000 0.000000 0.000000 0.059070
#
#
# Mechanical properties :
#
#
# Convention : Reuss Voigt Hill
#
# Bulk Modulus (GPa) = 42.42041 57.53015 49.97528
# Shear Modulus (GPa) = 14.56104 18.54240 16.55172
#
# Velocity S-wave (km/s) = 2.92833 3.30451 3.12209
# Velocity P-wave (km/s) = 6.03451 6.95987 6.51364
#
# Compressibility (1/GPa) = 0.02357356
#
# Stress axis : x y z
#
# Youngs Moduli (GPa) = 41.58884 40.07696 83.72526
#
# Poissons Ratio (x) = 0.23783 0.77082
# Poissons Ratio (y) = 0.24680 0.29662
# Poissons Ratio (z) = 0.38289 0.14198
#
# Static dielectric constant tensor:
#      x y z
#    x 3.061790 0.000000 0.000000 
#    y 0.000000 2.949730 0.000000 
#    z 0.000000 0.000000 3.407950 
# 
# 
# High freq. dielectric constant tensor:
#      x y z
#    x 1.629890 0.000000 0.000000 
#    y 0.000000 1.636380 0.000000 
#    z 0.000000 0.000000 1.654020 
# 
# From -- ./inp_files/34149.got.cif
#   From: 2010.03.12/outbox.cif.g09.slc.cpg/sg51_18_cif.got.tgz:34149.got - 2010.04.16 13:43:02.
