data_PCOD8206544
_publ_section_title
;
Structure prediction by ZEFSAII (Michael W. Deem and Ramdas Pophale) SiO2 
 PCOD8206544
Probable space group: P M M A
;
_chemical_formula_sum "Si O2"
_cell_formula_units_Z 40
_cell_length_a 22.640045
_cell_length_b 9.230371
_cell_length_c 11.177375
_cell_angle_alpha 90.000000
_cell_angle_beta 90.000000
_cell_angle_gamma 90.000000
_cell_volume 2335.803283
_symmetry_space_group_name_H-M "P M M A"
_symmetry_group_IT_number 51
_symmetry_cell_setting 'orthorhombic'
loop_
_space_group_symop_operation_xyz
x,y,z
1/2-x,-y,z
1/2+x,-y,-z
-x,y,-z
-x,-y,-z
1/2+x,y,-z
1/2-x,y,z
x,-y,z
loop_
_atom_site_type_symbol
_atom_site_label
_atom_site_fract_x
_atom_site_fract_y
_atom_site_fract_z
Si Si1 0.371690 0.830502 0.425025
Si Si2 0.184723 0.662686 0.843878
Si Si3 0.517625 0.663684 0.637665
Si Si4 0.593988 0.168964 0.306333
Si Si5 0.750000 0.170896 0.686351
Si Si6 0.750000 0.661922 0.927145
O O1 0.420085 0.744924 0.346863
O O2 0.377821 0.795269 0.565058
O O3 0.307741 0.773415 0.383686
O O4 0.380809 0.000000 0.400036
O O5 0.250000 0.684523 0.784785
O O6 0.161828 0.500000 0.814913
O O7 0.139555 0.780477 0.794579
O O8 0.191975 0.682780 0.987966
O O9 0.500000 0.666431 0.500000
O O10 0.523269 0.500000 0.686006
O O11 0.467623 0.747412 0.712716
O O12 0.581414 0.000000 0.290719
O O13 0.750000 0.223327 0.822109
O O14 0.750000 0.000000 0.689688
O O15 0.750000 0.500000 0.872562
#
# Coordination Sequence:
#
# PCOD8206544 Si02
#       6
#     8   8   8   8   4   4
#     4   9  19  32  46  70 103 131 158 191 235 282
#     4   8  17  32  48  68  96 125 155 197 241 280
#     4   9  17  30  47  67  96 131 164 193 229 281
#     4  10  18  28  49  75 101 128 157 193 236 287
#     4  10  20  33  50  70  96 129 159 198 237 278
#     4   8  18  35  50  66  92 127 163 200 241 284
#
# _framework density 17.124728999999999
#
# number of rings (size 3 to 8) (size 9 to 14) (size 15 to 20)
#    0.600    2.400    0.000    1.200    1.400    5.200 
#    0.000    0.000    0.000    1.200    0.000    8.400 
#    0.000    0.000    0.000    0.000    0.000    0.000 
#
# Total GULP energy -495793.324581 kJ/mol
# GULP energy per Si atom -12394.833115 kJ/mol
# Density = 1.708575 g / cm^3
# Si number density = 17.124729 Si / 1000 Ang^3
#
#
#
# Elastic Constant Matrix: (Units=GPa)
#
#
# Indices 1 2 3 4 5 6 
#
# 1 130.5940 54.1490 34.7597 0.0000 0.0000 0.0000
# 2 54.1490 72.6166 22.4520 0.0000 0.0000 0.0000
# 3 34.7597 22.4520 42.9167 0.0000 0.0000 0.0000
# 4 0.0000 0.0000 0.0000 23.5098 0.0000 0.0000
# 5 0.0000 0.0000 0.0000 0.0000 4.1906 0.0000
# 6 0.0000 0.0000 0.0000 0.0000 0.0000 32.9087
#
#
#
# Elastic Compliance Matrix: (Units=1/GPa)
#
#
# Indices 1 2 3 4 5 6 
#
# 1 0.012316 -0.007277 -0.006169 0.000000 0.000000 0.000000
# 2 -0.007277 0.020728 -0.004950 0.000000 0.000000 0.000000
# 3 -0.006169 -0.004950 0.030887 0.000000 0.000000 0.000000
# 4 0.000000 0.000000 0.000000 0.042535 0.000000 0.000000
# 5 0.000000 0.000000 0.000000 0.000000 0.238630 0.000000
# 6 0.000000 0.000000 0.000000 0.000000 0.000000 0.030387
#
#
# Mechanical properties :
#
#
# Convention : Reuss Voigt Hill
#
# Bulk Modulus (GPa) = 36.84606 52.09429 44.47018
# Shear Modulus (GPa) = 11.86743 21.10627 16.48685
#
# Velocity S-wave (km/s) = 2.63534 3.51451 3.10619
# Velocity P-wave (km/s) = 5.55185 6.85241 6.23613
#
# Compressibility (1/GPa) = 0.02713994
#
# Stress axis : x y z
#
# Youngs Moduli (GPa) = 81.19218 48.24463 32.37651
#
# Poissons Ratio (x) = 0.35107 0.19972
# Poissons Ratio (y) = 0.59083 0.16026
# Poissons Ratio (z) = 0.50084 0.23881
#
# Static dielectric constant tensor:
#      x y z
#    x 3.277680 0.000000 0.000000 
#    y 0.000000 3.171390 0.000000 
#    z 0.000000 0.000000 2.771990 
# 
# 
# High freq. dielectric constant tensor:
#      x y z
#    x 1.659570 0.000000 0.000000 
#    y 0.000000 1.666340 0.000000 
#    z 0.000000 0.000000 1.618830 
# 
# From -- ./inp_files/17997.got.cif
#   From: 2010.03.12/outbox.cif.g09.slc.cpg/sg51_9_cif.got.tgz:17997.got - 2010.04.16 13:43:02.
