data_PCOD8206084
_publ_section_title
;
Structure prediction by ZEFSAII (Michael W. Deem and Ramdas Pophale) SiO2 
 PCOD8206084
Probable space group: P M M A
;
_chemical_formula_sum "Si O2"
_cell_formula_units_Z 64
_cell_length_a 29.509171
_cell_length_b 9.231923
_cell_length_c 15.168564
_cell_angle_alpha 90.000000
_cell_angle_beta 90.000000
_cell_angle_gamma 90.000000
_cell_volume 4132.317200
_symmetry_space_group_name_H-M "P M M A"
_symmetry_group_IT_number 51
_symmetry_cell_setting 'orthorhombic'
loop_
_space_group_symop_operation_xyz
x,y,z
1/2-x,-y,z
1/2+x,-y,-z
-x,y,-z
-x,-y,-z
1/2+x,y,-z
1/2-x,y,z
x,-y,z
loop_
_atom_site_type_symbol
_atom_site_label
_atom_site_fract_x
_atom_site_fract_y
_atom_site_fract_z
Si Si1 0.439841 0.832126 0.125552
Si Si2 0.299243 0.671577 0.011232
Si Si3 0.122057 0.831065 0.291052
Si Si4 0.602965 0.327509 0.039251
Si Si5 0.062476 0.828192 0.445080
Si Si6 0.542378 0.829882 0.177091
Si Si7 0.698739 0.336579 0.791785
Si Si8 0.031903 0.828477 0.627001
O O1 0.414597 0.792845 0.216057
O O2 0.492840 0.798078 0.137593
O O3 0.432647 0.000000 0.099793
O O4 0.420168 0.732365 0.048874
O O5 0.250000 0.727667 0.973074
O O6 0.296552 0.500000 0.017798
O O7 0.305431 0.731919 0.110453
O O8 0.343522 0.718395 0.955637
O O9 0.104252 0.773248 0.385920
O O10 0.169504 0.754638 0.276069
O O11 0.131444 0.000000 0.293606
O O12 0.597360 0.500000 0.039880
O O13 0.579725 0.259056 0.124109
O O14 0.067211 0.783443 0.548629
O O15 0.016627 0.764355 0.402007
O O16 0.058962 0.000000 0.438586
O O17 0.546215 0.769202 0.277281
O O18 0.553482 0.000000 0.170833
O O19 0.750000 0.330177 0.757805
O O20 0.680232 0.500000 0.792435
O O21 0.028147 0.000000 0.636198
#
# Coordination Sequence:
#
# PCOD8206084 Si02
#       8
#     8   8   8   8   8   8   8   8
#     4  10  19  30  42  61  91 124 150 174 210 257
#     4   8  15  29  46  61  79 106 142 182 220 258
#     4  10  17  26  44  69  93 113 143 184 222 254
#     4  11  21  31  45  64  85 115 153 187 218 255
#     4   8  13  23  42  67  88 109 143 181 211 250
#     4  10  19  31  45  62  89 123 152 179 216 257
#     4   9  17  30  46  62  84 117 151 179 215 268
#     4   8  13  24  43  64  86 113 146 179 211 252
#
# _framework density 15.487679
#
# number of rings (size 3 to 8) (size 9 to 14) (size 15 to 20)
#    0.000    2.750    2.500    2.250    0.000    2.250 
#    0.000    0.000    0.000    2.250    0.000    2.625 
#    0.000    5.000    0.000    0.000    0.000    0.000 
#
# Total GULP energy -793013.135090 kJ/mol
# GULP energy per Si atom -12390.830236 kJ/mol
# Density = 1.545243 g / cm^3
# Si number density = 15.487679 Si / 1000 Ang^3
#
#
#
# Elastic Constant Matrix: (Units=GPa)
#
#
# Indices 1 2 3 4 5 6 
#
# 1 109.1422 34.5730 62.1710 0.0000 0.0000 0.0000
# 2 34.5730 34.8485 36.1947 0.0000 0.0000 0.0000
# 3 62.1710 36.1947 102.5674 0.0000 0.0000 0.0000
# 4 0.0000 0.0000 0.0000 7.8672 0.0000 0.0000
# 5 0.0000 0.0000 0.0000 0.0000 22.0021 0.0000
# 6 0.0000 0.0000 0.0000 0.0000 0.0000 21.8508
#
#
#
# Elastic Compliance Matrix: (Units=1/GPa)
#
#
# Indices 1 2 3 4 5 6 
#
# 1 0.015570 -0.008910 -0.006293 0.000000 0.000000 0.000000
# 2 -0.008910 0.050398 -0.012384 0.000000 0.000000 0.000000
# 3 -0.006293 -0.012384 0.017934 0.000000 0.000000 0.000000
# 4 0.000000 0.000000 0.000000 0.127109 0.000000 0.000000
# 5 0.000000 0.000000 0.000000 0.000000 0.045450 0.000000
# 6 0.000000 0.000000 0.000000 0.000000 0.000000 0.045765
#
#
# Mechanical properties :
#
#
# Convention : Reuss Voigt Hill
#
# Bulk Modulus (GPa) = 34.81016 56.93727 45.87372
# Shear Modulus (GPa) = 13.62485 17.91865 15.77175
#
# Velocity S-wave (km/s) = 2.96923 3.40510 3.19461
# Velocity P-wave (km/s) = 5.85491 7.23204 6.57960
#
# Compressibility (1/GPa) = 0.02872724
#
# Stress axis : x y z
#
# Youngs Moduli (GPa) = 64.22741 19.84221 55.75883
#
# Poissons Ratio (x) = 0.17680 0.35090
# Poissons Ratio (y) = 0.57228 0.69050
# Poissons Ratio (z) = 0.40420 0.24572
#
# Static dielectric constant tensor:
#      x y z
#    x 3.082400 0.000000 0.000000 
#    y 0.000000 2.652150 0.000000 
#    z 0.000000 0.000000 3.106030 
# 
# 
# High freq. dielectric constant tensor:
#      x y z
#    x 1.585240 0.000000 0.000000 
#    y 0.000000 1.560860 0.000000 
#    z 0.000000 0.000000 1.582480 
# 
# From -- ./inp_files/26607.got.cif
#   From: 2010.03.12/outbox.cif.g09.slc.cpg/sg51_14_cif.got.tgz:26607.got - 2010.04.16 13:43:02.
