data_PCOD8206567
_publ_section_title
;
Structure prediction by ZEFSAII (Michael W. Deem and Ramdas Pophale) SiO2 
 PCOD8206567
Probable space group: P M M A
;
_chemical_formula_sum "Si O2"
_cell_formula_units_Z 64
_cell_length_a 17.156781
_cell_length_b 13.866920
_cell_length_c 15.539213
_cell_angle_alpha 90.000000
_cell_angle_beta 90.000000
_cell_angle_gamma 90.000000
_cell_volume 3696.960730
_symmetry_space_group_name_H-M "P M M A"
_symmetry_group_IT_number 51
_symmetry_cell_setting 'orthorhombic'
loop_
_space_group_symop_operation_xyz
x,y,z
1/2-x,-y,z
1/2+x,-y,-z
-x,y,-z
-x,-y,-z
1/2+x,y,-z
1/2-x,y,z
x,-y,z
loop_
_atom_site_type_symbol
_atom_site_label
_atom_site_fract_x
_atom_site_fract_y
_atom_site_fract_z
Si Si1 0.833869 0.609451 0.510521
Si Si2 0.075831 0.391434 0.326668
Si Si3 0.341053 0.215938 0.719054
Si Si4 0.884503 0.388734 0.167625
Si Si5 0.842405 0.106702 0.112110
Si Si6 0.934676 0.609338 0.863539
Si Si7 0.454804 0.738698 0.581409
Si Si8 0.838124 0.715403 0.004278
O O1 0.750000 0.659257 0.491548
O O2 0.830322 0.500000 0.480633
O O3 0.849115 0.617561 0.612669
O O4 0.903899 0.654697 0.459145
O O5 0.039065 0.500000 0.333198
O O6 0.104589 0.373592 0.229413
O O7 0.013258 0.310486 0.351672
O O8 0.250000 0.202551 0.694694
O O9 0.356001 0.325721 0.750921
O O10 0.368479 0.142714 0.793553
O O11 0.395924 0.192543 0.635615
O O12 0.869246 0.500000 0.190902
O O13 0.974271 0.368357 0.145319
O O14 0.835644 0.359429 0.083489
O O15 0.750000 0.104494 0.110814
O O16 0.877337 0.000000 0.094842
O O17 0.870079 0.180983 0.038310
O O18 0.921066 0.500000 0.896547
O O19 0.896269 0.682637 0.929935
O O20 0.500000 0.790536 0.500000
O O21 0.750000 0.723093 0.967997
#
# Coordination Sequence:
#
# PCOD8206567 Si02
#       8
#     8   8   8   8   8   8   8   8
#     4   9  17  27  40  59  86 120 159 203 236 259
#     4   9  17  29  42  58  83 126 170 193 221 270
#     4  10  19  30  49  75  95 118 157 200 234 274
#     4  10  19  31  45  64  94 130 160 190 234 279
#     4   8  16  33  54  73  95 120 146 187 242 290
#     4  10  19  30  45  63  91 134 169 191 225 276
#     4  10  18  29  44  63  91 123 153 189 236 287
#     4  10  20  31  46  70  93 117 155 198 234 273
#
# _framework density 17.311516999999998
#
# number of rings (size 3 to 8) (size 9 to 14) (size 15 to 20)
#    0.000    2.500    1.250    2.625    0.000    5.250 
#    0.000    1.250    0.000    6.375    0.000    0.000 
#    0.000    0.000    0.000   25.500    0.000    0.000 
#
# Total GULP energy -793144.276323 kJ/mol
# GULP energy per Si atom -12392.879318 kJ/mol
# Density = 1.727212 g / cm^3
# Si number density = 17.311517 Si / 1000 Ang^3
#
#
#
# Elastic Constant Matrix: (Units=GPa)
#
#
# Indices 1 2 3 4 5 6 
#
# 1 56.6208 17.2604 23.8999 0.0000 0.0000 0.0000
# 2 17.2604 71.1671 28.7400 0.0000 0.0000 0.0000
# 3 23.8999 28.7400 87.4874 0.0000 0.0000 0.0000
# 4 0.0000 0.0000 0.0000 15.8750 0.0000 0.0000
# 5 0.0000 0.0000 0.0000 0.0000 29.6880 0.0000
# 6 0.0000 0.0000 0.0000 0.0000 0.0000 10.2092
#
#
#
# Elastic Compliance Matrix: (Units=1/GPa)
#
#
# Indices 1 2 3 4 5 6 
#
# 1 0.020552 -0.003133 -0.004585 0.000000 0.000000 0.000000
# 2 -0.003133 0.016678 -0.004623 0.000000 0.000000 0.000000
# 3 -0.004585 -0.004623 0.014202 0.000000 0.000000 0.000000
# 4 0.000000 0.000000 0.000000 0.062992 0.000000 0.000000
# 5 0.000000 0.000000 0.000000 0.000000 0.033684 0.000000
# 6 0.000000 0.000000 0.000000 0.000000 0.000000 0.097951
#
#
# Mechanical properties :
#
#
# Convention : Reuss Voigt Hill
#
# Bulk Modulus (GPa) = 37.38408 39.45290 38.41849
# Shear Modulus (GPa) = 17.87906 20.84611 19.36259
#
# Velocity S-wave (km/s) = 3.21718 3.47389 3.34800
# Velocity P-wave (km/s) = 5.95333 6.23939 6.09804
#
# Compressibility (1/GPa) = 0.02674936
#
# Stress axis : x y z
#
# Youngs Moduli (GPa) = 48.65755 59.95852 70.41502
#
# Poissons Ratio (x) = 0.18784 0.32287
# Poissons Ratio (y) = 0.15243 0.32553
# Poissons Ratio (z) = 0.22311 0.27719
#
# Static dielectric constant tensor:
#      x y z
#    x 3.270800 0.000000 0.000000 
#    y 0.000000 3.078010 0.000000 
#    z 0.000000 0.000000 3.381300 
# 
# 
# High freq. dielectric constant tensor:
#      x y z
#    x 1.662850 0.000000 0.000000 
#    y 0.000000 1.619300 0.000000 
#    z 0.000000 0.000000 1.672670 
# 
# From -- ./inp_files/25323.got.cif
#   From: 2010.03.12/outbox.cif.g09.slc.cpg/sg51_13_cif.got.tgz:25323.got - 2010.04.16 13:43:02.
