data_PCOD8206452
_publ_section_title
;
Structure prediction by ZEFSAII (Michael W. Deem and Ramdas Pophale) SiO2 
 PCOD8206452
Probable space group: P M M A
;
_chemical_formula_sum "Si O2"
_cell_formula_units_Z 64
_cell_length_a 28.610781
_cell_length_b 8.804860
_cell_length_c 15.825069
_cell_angle_alpha 90.000000
_cell_angle_beta 90.000000
_cell_angle_gamma 90.000000
_cell_volume 3986.555185
_symmetry_space_group_name_H-M "P M M A"
_symmetry_group_IT_number 51
_symmetry_cell_setting 'orthorhombic'
loop_
_space_group_symop_operation_xyz
x,y,z
1/2-x,-y,z
1/2+x,-y,-z
-x,y,-z
-x,-y,-z
1/2+x,y,-z
1/2-x,y,z
x,-y,z
loop_
_atom_site_type_symbol
_atom_site_label
_atom_site_fract_x
_atom_site_fract_y
_atom_site_fract_z
Si Si1 0.395610 0.823075 0.342646
Si Si2 0.198191 0.173259 0.425736
Si Si3 0.053944 0.678360 0.498371
Si Si4 0.197352 0.322601 0.601613
Si Si5 0.944499 0.833452 0.004025
Si Si6 0.106861 0.820337 0.655851
Si Si7 0.944601 0.818947 0.823657
Si Si8 0.549357 0.818192 0.185094
O O1 0.340184 0.793848 0.353826
O O2 0.425135 0.727563 0.409118
O O3 0.408738 0.765684 0.248747
O O4 0.408463 0.000000 0.354377
O O5 0.250000 0.203370 0.387847
O O6 0.188096 0.282715 0.504047
O O7 0.193765 0.000000 0.458532
O O8 0.060111 0.500000 0.510714
O O9 0.081407 0.760516 0.572876
O O10 0.000000 0.727797 0.500000
O O11 0.250000 0.274560 0.627831
O O12 0.189324 0.500000 0.613478
O O13 0.160568 0.234084 0.659966
O O14 0.928751 0.750629 0.916013
O O15 0.921185 0.000000 0.005793
O O16 0.931964 0.752439 0.093873
O O17 0.000000 0.850129 0.000000
O O18 0.081469 0.755334 0.739418
O O19 0.105077 0.000000 0.653653
O O20 0.996424 0.761365 0.798433
O O21 0.945437 0.000000 0.832516
O O22 0.550503 0.000000 0.181670
#
# Coordination Sequence:
#
# PCOD8206452 Si02
#       8
#     8   8   8   8   8   8   8   8
#     4  10  18  28  44  65  85 112 146 181 219 259
#     4   9  17  29  44  62  84 110 142 180 221 261
#     4  11  23  34  42  57  87 124 154 179 212 257
#     4  10  20  33  48  64  84 112 147 186 226 266
#     4   7  10  19  35  56  84 113 139 175 218 255
#     4  11  20  30  46  67  89 116 149 186 222 260
#     4   8  13  22  38  61  87 113 145 180 214 257
#     4   8  14  23  37  60  88 115 143 177 217 258
#
# _framework density 16.053961000000001
#
# number of rings (size 3 to 8) (size 9 to 14) (size 15 to 20)
#    0.000    2.750    1.250    3.375    0.000    2.750 
#    0.000    0.000    0.000    0.000    0.000    2.625 
#    0.000   14.500    0.000    3.375    0.000    3.125 
#
# Total GULP energy -793001.737983 kJ/mol
# GULP energy per Si atom -12390.652156 kJ/mol
# Density = 1.601742 g / cm^3
# Si number density = 16.053961 Si / 1000 Ang^3
#
#
#
# Elastic Constant Matrix: (Units=GPa)
#
#
# Indices 1 2 3 4 5 6 
#
# 1 96.2525 17.5340 49.7889 0.0000 0.0000 0.0000
# 2 17.5340 28.2486 11.3489 0.0000 0.0000 0.0000
# 3 49.7889 11.3489 115.0085 0.0000 0.0000 0.0000
# 4 0.0000 0.0000 0.0000 -0.5335 0.0000 0.0000
# 5 0.0000 0.0000 0.0000 0.0000 13.3151 0.0000
# 6 0.0000 0.0000 0.0000 0.0000 0.0000 16.6667
#
#
#
# Elastic Compliance Matrix: (Units=1/GPa)
#
#
# Indices 1 2 3 4 5 6 
#
# 1 0.014529 -0.006759 -0.005623 0.000000 0.000000 0.000000
# 2 -0.006759 0.040006 -0.001022 0.000000 0.000000 0.000000
# 3 -0.005623 -0.001022 0.011230 0.000000 0.000000 0.000000
# 4 0.000000 0.000000 0.000000 -1.874461 0.000000 0.000000
# 5 0.000000 0.000000 0.000000 0.000000 0.075102 0.000000
# 6 0.000000 0.000000 0.000000 0.000000 0.000000 0.060000
#
#
# Mechanical properties :
#
#
# Convention : Reuss Voigt Hill
#
# Bulk Modulus (GPa) = 25.66888 44.09480 34.88184
# Shear Modulus (GPa) = -3.06035 16.61218 6.77592
#
# Velocity S-wave (km/s) = -1.38218 3.22028 2.05667
# Velocity P-wave (km/s) = 3.67105 6.43064 5.23592
#
# Compressibility (1/GPa) = 0.03895769
#
# Stress axis : x y z
#
# Youngs Moduli (GPa) = 68.82667 24.99628 89.04673
#
# Poissons Ratio (x) = 0.16896 0.50070
# Poissons Ratio (y) = 0.46522 0.09096
# Poissons Ratio (z) = 0.38701 0.02553
#
# Static dielectric constant tensor:
#      x y z
#    x 3.138030 0.000000 0.000000 
#    y 0.000000 2.753140 0.000000 
#    z 0.000000 0.000000 3.375730 
# 
# 
# High freq. dielectric constant tensor:
#      x y z
#    x 1.601100 0.000000 0.000000 
#    y 0.000000 1.586050 0.000000 
#    z 0.000000 0.000000 1.611800 
# 
# From -- ./inp_files/26655.got.cif
#   From: 2010.03.12/outbox.cif.g09.slc.cpg/sg51_14_cif.got.tgz:26655.got - 2010.04.16 13:43:02.
