data_PCOD8206937
_publ_section_title
;
Structure prediction by ZEFSAII (Michael W. Deem and Ramdas Pophale) SiO2 
 PCOD8206937
Probable space group: P M M A
;
_chemical_formula_sum "Si O2"
_cell_formula_units_Z 56
_cell_length_a 17.557341
_cell_length_b 14.482849
_cell_length_c 12.825280
_cell_angle_alpha 90.000000
_cell_angle_beta 90.000000
_cell_angle_gamma 90.000000
_cell_volume 3261.216284
_symmetry_space_group_name_H-M "P M M A"
_symmetry_group_IT_number 51
_symmetry_cell_setting 'orthorhombic'
loop_
_space_group_symop_operation_xyz
x,y,z
1/2-x,-y,z
1/2+x,-y,-z
-x,y,-z
-x,-y,-z
1/2+x,y,-z
1/2-x,y,z
x,-y,z
loop_
_atom_site_type_symbol
_atom_site_label
_atom_site_fract_x
_atom_site_fract_y
_atom_site_fract_z
Si Si1 0.160642 0.706619 0.488085
Si Si2 0.161960 0.393471 0.080938
Si Si3 0.659668 0.291979 0.125032
Si Si4 0.340309 0.899932 0.798629
Si Si5 0.908308 0.393043 0.701622
Si Si6 0.659714 0.899712 0.436088
Si Si7 0.914789 0.607776 0.319210
O O1 0.250000 0.699635 0.511203
O O2 0.142715 0.668892 0.374013
O O3 0.132193 0.813643 0.493512
O O4 0.117578 0.646380 0.573471
O O5 0.250000 0.372518 0.105543
O O6 0.149812 0.500000 0.051156
O O7 0.112398 0.365049 0.180602
O O8 0.131301 0.333422 0.984234
O O9 0.750000 0.301890 0.135663
O O10 0.632360 0.184840 0.128983
O O11 0.623839 0.346792 0.220046
O O12 0.250000 0.901243 0.795832
O O13 0.370894 0.883619 0.681356
O O14 0.369975 0.000000 0.840810
O O15 0.888186 0.500000 0.681454
O O16 0.995910 0.371513 0.681859
O O17 0.750000 0.902506 0.434328
O O18 0.629580 0.000000 0.478029
O O19 0.897266 0.500000 0.314673
#
# Coordination Sequence:
#
# PCOD8206937 Si02
#       7
#     8   8   8   8   8   8   8
#     4  11  20  32  53  76  97 125 163 205 244 284
#     4   9  18  33  52  72  95 126 165 203 235 278
#     4  10  18  30  50  77 101 121 156 208 253 282
#     4   8  13  24  44  71 101 125 149 190 245 299
#     4  10  22  37  49  65  97 141 175 194 228 292
#     4   8  14  26  46  73 100 122 150 193 245 295
#     4  11  22  33  47  71 102 131 159 200 252 295
#
# _framework density 17.171506999999998
#
# number of rings (size 3 to 8) (size 9 to 14) (size 15 to 20)
#    0.000    2.429    1.429    3.000    0.000    4.857 
#    0.000    2.143    0.000    3.429    0.000    5.000 
#    0.000    0.000    0.000    0.000    0.000    0.000 
#
# Total GULP energy -694168.634385 kJ/mol
# GULP energy per Si atom -12395.868471 kJ/mol
# Density = 1.713242 g / cm^3
# Si number density = 17.171507 Si / 1000 Ang^3
#
#
#
# Elastic Constant Matrix: (Units=GPa)
#
#
# Indices 1 2 3 4 5 6 
#
# 1 22.2796 21.4970 11.2253 0.0000 0.0000 0.0000
# 2 21.4970 123.0527 57.7921 0.0000 0.0000 0.0000
# 3 11.2253 57.7921 90.1313 0.0000 0.0000 0.0000
# 4 0.0000 0.0000 0.0000 18.0799 0.0000 0.0000
# 5 0.0000 0.0000 0.0000 0.0000 13.9704 0.0000
# 6 0.0000 0.0000 0.0000 0.0000 0.0000 7.8470
#
#
#
# Elastic Compliance Matrix: (Units=1/GPa)
#
#
# Indices 1 2 3 4 5 6 
#
# 1 0.054043 -0.008986 -0.000969 0.000000 0.000000 0.000000
# 2 -0.008986 0.013123 -0.007295 0.000000 0.000000 0.000000
# 3 -0.000969 -0.007295 0.015893 0.000000 0.000000 0.000000
# 4 0.000000 0.000000 0.000000 0.055310 0.000000 0.000000
# 5 0.000000 0.000000 0.000000 0.000000 0.071580 0.000000
# 6 0.000000 0.000000 0.000000 0.000000 0.000000 0.127438
#
#
# Mechanical properties :
#
#
# Convention : Reuss Voigt Hill
#
# Bulk Modulus (GPa) = 20.59370 46.27695 33.43533
# Shear Modulus (GPa) = 12.88419 17.64273 15.26346
#
# Velocity S-wave (km/s) = 2.74218 3.20885 2.98465
# Velocity P-wave (km/s) = 4.69521 6.38258 5.60278
#
# Compressibility (1/GPa) = 0.04855854
#
# Stress axis : x y z
#
# Youngs Moduli (GPa) = 18.50387 76.20451 62.92024
#
# Poissons Ratio (x) = 0.68478 0.06096
# Poissons Ratio (y) = 0.16628 0.45900
# Poissons Ratio (z) = 0.01793 0.55591
#
# Static dielectric constant tensor:
#      x y z
#    x 2.953810 0.000000 0.000000 
#    y 0.000000 3.751900 0.000000 
#    z 0.000000 0.000000 3.156310 
# 
# 
# High freq. dielectric constant tensor:
#      x y z
#    x 1.633140 0.000000 0.000000 
#    y 0.000000 1.673540 0.000000 
#    z 0.000000 0.000000 1.650800 
# 
# From -- ./inp_files/16572.got.cif
#   From: 2010.03.12/outbox.cif.g09.slc.cpg/sg51_9_cif.got.tgz:16572.got - 2010.04.16 13:43:02.
