data_PCOD8206299
_publ_section_title
;
Structure prediction by ZEFSAII (Michael W. Deem and Ramdas Pophale) SiO2 
 PCOD8206299
Probable space group: P M M A
;
_chemical_formula_sum "Si O2"
_cell_formula_units_Z 64
_cell_length_a 26.012362
_cell_length_b 8.947557
_cell_length_c 18.257859
_cell_angle_alpha 90.000000
_cell_angle_beta 90.000000
_cell_angle_gamma 90.000000
_cell_volume 4249.463583
_symmetry_space_group_name_H-M "P M M A"
_symmetry_group_IT_number 51
_symmetry_cell_setting 'orthorhombic'
loop_
_space_group_symop_operation_xyz
x,y,z
1/2-x,-y,z
1/2+x,-y,-z
-x,y,-z
-x,-y,-z
1/2+x,y,-z
1/2-x,y,z
x,-y,z
loop_
_atom_site_type_symbol
_atom_site_label
_atom_site_fract_x
_atom_site_fract_y
_atom_site_fract_z
Si Si1 0.691472 0.327863 0.815744
Si Si2 0.398546 0.672908 0.079583
Si Si3 0.446143 0.164217 0.540497
Si Si4 0.509191 0.177002 0.673745
Si Si5 0.998781 0.674745 0.828415
Si Si6 0.948265 0.831868 0.046300
Si Si7 0.809396 0.826197 0.665373
Si Si8 0.898857 0.676060 0.587161
O O1 0.750000 0.300035 0.840627
O O2 0.682129 0.500000 0.793059
O O3 0.655478 0.283099 0.883635
O O4 0.676505 0.226274 0.747035
O O5 0.401435 0.500000 0.058003
O O6 0.443597 0.712414 0.136670
O O7 0.403051 0.765518 0.004396
O O8 0.500000 0.151867 0.500000
O O9 0.459654 0.217989 0.622948
O O10 0.409733 0.279618 0.497477
O O11 0.419755 0.000000 0.541058
O O12 0.496260 0.236570 0.753387
O O13 0.560815 0.252187 0.643313
O O14 0.518484 0.000000 0.674868
O O15 0.005908 0.500000 0.813908
O O16 0.044385 0.731696 0.881378
O O17 0.933786 0.000000 0.069501
O O18 0.000000 0.827257 0.000000
O O19 0.750000 0.792581 0.648152
O O20 0.842211 0.734009 0.606707
O O21 0.822643 0.000000 0.658769
O O22 0.901797 0.500000 0.595315
#
# Coordination Sequence:
#
# PCOD8206299 Si02
#       8
#     8   8   8   8   8   8   8   8
#     4   9  17  29  44  62  85 111 140 176 214 249
#     4   9  17  28  41  58  81 110 141 171 207 247
#     4   8  16  30  44  59  82 111 140 172 208 245
#     4  10  19  30  44  62  86 114 143 174 207 247
#     4  10  18  27  41  61  85 111 140 174 209 247
#     4   9  17  28  41  57  78 106 139 173 208 246
#     4  10  20  32  45  61  83 112 145 180 215 250
#     4  11  20  29  44  63  84 112 144 177 212 250
#
# _framework density 15.060724
#
# number of rings (size 3 to 8) (size 9 to 14) (size 15 to 20)
#    0.000    2.500    0.000    4.125    0.000    7.000 
#    0.000    0.000    0.000    0.000    0.000    0.000 
#    0.000    1.000    0.000    6.500    0.000    3.625 
#
# Total GULP energy -793543.932753 kJ/mol
# GULP energy per Si atom -12399.123949 kJ/mol
# Density = 1.502645 g / cm^3
# Si number density = 15.060724 Si / 1000 Ang^3
#
#
#
# Elastic Constant Matrix: (Units=GPa)
#
#
# Indices 1 2 3 4 5 6 
#
# 1 64.7988 40.3201 46.5385 0.0000 0.0000 0.0000
# 2 40.3201 95.4885 50.8305 0.0000 0.0000 0.0000
# 3 46.5385 50.8305 92.1536 0.0000 0.0000 0.0000
# 4 0.0000 0.0000 0.0000 27.6705 0.0000 0.0000
# 5 0.0000 0.0000 0.0000 0.0000 24.4219 0.0000
# 6 0.0000 0.0000 0.0000 0.0000 0.0000 18.3991
#
#
#
# Elastic Compliance Matrix: (Units=1/GPa)
#
#
# Indices 1 2 3 4 5 6 
#
# 1 0.026237 -0.005699 -0.010107 0.000000 0.000000 0.000000
# 2 -0.005699 0.016063 -0.005982 0.000000 0.000000 0.000000
# 3 -0.010107 -0.005982 0.019255 0.000000 0.000000 0.000000
# 4 0.000000 0.000000 0.000000 0.036140 0.000000 0.000000
# 5 0.000000 0.000000 0.000000 0.000000 0.040947 0.000000
# 6 0.000000 0.000000 0.000000 0.000000 0.000000 0.054350
#
#
# Mechanical properties :
#
#
# Convention : Reuss Voigt Hill
#
# Bulk Modulus (GPa) = 55.61709 58.64656 57.13183
# Shear Modulus (GPa) = 20.61340 21.74842 21.18091
#
# Velocity S-wave (km/s) = 3.70359 3.80419 3.75423
# Velocity P-wave (km/s) = 7.43623 7.63678 7.53717
#
# Compressibility (1/GPa) = 0.01798008
#
# Stress axis : x y z
#
# Youngs Moduli (GPa) = 38.11440 62.25392 51.93406
#
# Poissons Ratio (x) = 0.35476 0.52488
# Poissons Ratio (y) = 0.21720 0.31069
# Poissons Ratio (z) = 0.38521 0.37243
#
# Static dielectric constant tensor:
#      x y z
#    x 2.748200 0.000000 0.000000 
#    y 0.000000 3.011600 0.000000 
#    z 0.000000 0.000000 3.001150 
# 
# 
# High freq. dielectric constant tensor:
#      x y z
#    x 1.540450 0.000000 0.000000 
#    y 0.000000 1.589970 0.000000 
#    z 0.000000 0.000000 1.566100 
# 
# From -- ./inp_files/30978.got.cif
#   From: 2010.03.12/outbox.cif.g09.slc.cpg/sg51_16_cif.got.tgz:30978.got - 2010.04.16 13:43:02.
