data_PCOD8206406
_publ_section_title
;
Structure prediction by ZEFSAII (Michael W. Deem and Ramdas Pophale) SiO2 
 PCOD8206406
Probable space group: P M M A
;
_chemical_formula_sum "Si O2"
_cell_formula_units_Z 64
_cell_length_a 8.997194
_cell_length_b 25.895897
_cell_length_c 18.254734
_cell_angle_alpha 90.000000
_cell_angle_beta 90.000000
_cell_angle_gamma 90.000000
_cell_volume 4253.177943
_symmetry_space_group_name_H-M "P M M A"
_symmetry_group_IT_number 51
_symmetry_cell_setting 'orthorhombic'
loop_
_space_group_symop_operation_xyz
x,y,z
1/2-x,-y,z
1/2+x,-y,-z
-x,y,-z
-x,-y,-z
1/2+x,y,-z
1/2-x,y,z
x,-y,z
loop_
_atom_site_type_symbol
_atom_site_label
_atom_site_fract_x
_atom_site_fract_y
_atom_site_fract_z
Si Si1 0.574051 0.242535 0.076874
Si Si2 0.922678 0.942213 0.926323
Si Si3 0.923716 0.255342 0.578094
Si Si4 0.421038 0.358548 0.331761
Si Si5 0.413947 0.306192 0.788741
Si Si6 0.924844 0.153478 0.831551
Si Si7 0.423116 0.559579 0.574846
Si Si8 0.082704 0.799982 0.701520
O O1 0.750000 0.232493 0.069360
O O2 0.542027 0.292820 0.127752
O O3 0.499023 0.191936 0.110515
O O4 0.500000 0.255630 0.000000
O O5 0.750000 0.941916 0.944012
O O6 0.958679 0.904482 0.858787
O O7 0.977978 0.000000 0.905636
O O8 0.000000 0.921859 0.000000
O O9 0.750000 0.244242 0.569732
O O10 0.954053 0.310409 0.615534
O O11 0.000000 0.256226 0.500000
O O12 0.995681 0.209249 0.625624
O O13 0.250000 0.374081 0.331137
O O14 0.469811 0.345196 0.248637
O O15 0.514478 0.407541 0.358059
O O16 0.250000 0.331408 0.784869
O O17 0.412998 0.252484 0.746381
O O18 0.750000 0.165704 0.827018
O O19 0.995852 0.158042 0.750661
O O20 0.500000 0.577807 0.500000
O O21 0.250000 0.570265 0.565732
O O22 0.458408 0.500000 0.591581
O O23 0.250000 0.819493 0.684924
#
# Coordination Sequence:
#
# PCOD8206406 Si02
#       8
#     8   8   8   8   8   8   8   8
#     4  10  19  29  42  61  85 112 141 173 208 247
#     4   9  18  30  42  58  81 109 141 176 211 245
#     4  10  19  29  42  62  86 112 142 172 206 246
#     4  10  19  29  44  63  83 110 141 173 207 244
#     4   8  16  29  42  57  80 109 138 169 204 243
#     4  10  18  28  43  60  81 110 142 175 210 249
#     4  10  20  32  45  61  83 111 142 176 210 243
#     4   9  17  29  43  59  81 108 138 172 208 246
#
# _framework density 15.047572000000001
#
# number of rings (size 3 to 8) (size 9 to 14) (size 15 to 20)
#    0.000    2.500    0.000    3.750    0.000    8.750 
#    0.000    0.000    0.000    0.000    0.000    0.000 
#    0.000    1.000    0.000    3.000    0.000    4.000 
#
# Total GULP energy -793532.948768 kJ/mol
# GULP energy per Si atom -12398.952324 kJ/mol
# Density = 1.501332 g / cm^3
# Si number density = 15.047572 Si / 1000 Ang^3
#
#
#
# Elastic Constant Matrix: (Units=GPa)
#
#
# Indices 1 2 3 4 5 6 
#
# 1 99.9296 42.2131 54.5578 0.0000 0.0000 0.0000
# 2 42.2131 56.3198 35.6487 0.0000 0.0000 0.0000
# 3 54.5578 35.6487 91.2787 0.0000 0.0000 0.0000
# 4 0.0000 0.0000 0.0000 20.1941 0.0000 0.0000
# 5 0.0000 0.0000 0.0000 0.0000 29.6544 0.0000
# 6 0.0000 0.0000 0.0000 0.0000 0.0000 19.8239
#
#
#
# Elastic Compliance Matrix: (Units=1/GPa)
#
#
# Indices 1 2 3 4 5 6 
#
# 1 0.017540 -0.008649 -0.007106 0.000000 0.000000 0.000000
# 2 -0.008649 0.027851 -0.005708 0.000000 0.000000 0.000000
# 3 -0.007106 -0.005708 0.017432 0.000000 0.000000 0.000000
# 4 0.000000 0.000000 0.000000 0.049519 0.000000 0.000000
# 5 0.000000 0.000000 0.000000 0.000000 0.033722 0.000000
# 6 0.000000 0.000000 0.000000 0.000000 0.000000 0.050444
#
#
# Mechanical properties :
#
#
# Convention : Reuss Voigt Hill
#
# Bulk Modulus (GPa) = 50.25652 56.92968 53.59310
# Shear Modulus (GPa) = 20.31971 21.60839 20.96405
#
# Velocity S-wave (km/s) = 3.67872 3.79358 3.73659
# Velocity P-wave (km/s) = 7.17739 7.55669 7.36948
#
# Compressibility (1/GPa) = 0.01989792
#
# Stress axis : x y z
#
# Youngs Moduli (GPa) = 57.01180 35.90522 57.36602
#
# Poissons Ratio (x) = 0.31054 0.40765
# Poissons Ratio (y) = 0.49309 0.32743
# Poissons Ratio (z) = 0.40513 0.20494
#
# Static dielectric constant tensor:
#      x y z
#    x 3.102670 0.000000 0.000000 
#    y 0.000000 2.752570 0.000000 
#    z 0.000000 0.000000 2.969420 
# 
# 
# High freq. dielectric constant tensor:
#      x y z
#    x 1.595330 0.000000 0.000000 
#    y 0.000000 1.538640 0.000000 
#    z 0.000000 0.000000 1.565570 
# 
# From -- ./inp_files/28613.got.cif
#   From: 2010.03.12/outbox.cif.g09.slc.cpg/sg51_15_cif.got.tgz:28613.got - 2010.04.16 13:43:02.
