data_PCOD8206918
_publ_section_title
;
Structure prediction by ZEFSAII (Michael W. Deem and Ramdas Pophale) SiO2 
 PCOD8206918
Probable space group: P M M A
;
_chemical_formula_sum "Si O2"
_cell_formula_units_Z 40
_cell_length_a 10.301358
_cell_length_b 9.185992
_cell_length_c 24.475363
_cell_angle_alpha 90.000000
_cell_angle_beta 90.000000
_cell_angle_gamma 90.000000
_cell_volume 2316.059354
_symmetry_space_group_name_H-M "P M M A"
_symmetry_group_IT_number 51
_symmetry_cell_setting 'orthorhombic'
loop_
_space_group_symop_operation_xyz
x,y,z
1/2-x,-y,z
1/2+x,-y,-z
-x,y,-z
-x,-y,-z
1/2+x,y,-z
1/2-x,y,z
x,-y,z
loop_
_atom_site_type_symbol
_atom_site_label
_atom_site_fract_x
_atom_site_fract_y
_atom_site_fract_z
Si Si1 0.403681 0.838781 0.336446
Si Si2 0.991292 0.827155 0.873442
Si Si3 0.750000 0.827184 0.944628
Si Si4 0.597551 0.330904 0.768389
Si Si5 0.895674 0.173574 0.542885
Si Si6 0.250000 0.827318 0.933085
O O1 0.250000 0.851167 0.334369
O O2 0.453460 0.729216 0.289791
O O3 0.442423 0.778319 0.396431
O O4 0.463454 0.000000 0.326377
O O5 0.876437 0.771650 0.912700
O O6 0.980946 0.752594 0.814877
O O7 0.123988 0.773090 0.900827
O O8 0.986242 0.000000 0.865193
O O9 0.750000 0.000000 0.947820
O O10 0.750000 0.761138 0.005716
O O11 0.750000 0.300307 0.776103
O O12 0.564481 0.500000 0.771324
O O13 0.750000 0.233015 0.529924
O O14 0.000000 0.238157 0.500000
O O15 0.892673 0.000000 0.540368
O O16 0.250000 0.000000 0.937376
#
# Coordination Sequence:
#
# PCOD8206918 Si02
#       6
#     8   8   4   8   8   4
#     4   8  14  25  43  66  90 118 153 190 228 271
#     4  10  18  30  50  73  95 121 152 187 229 275
#     4   9  16  28  49  75  97 119 148 185 230 273
#     4  10  19  30  46  68  93 120 157 201 235 268
#     4   8  13  22  39  64  91 116 143 179 224 270
#     4   9  18  30  47  73 101 121 146 187 228 275
#
# _framework density 17.270714999999999
#
# number of rings (size 3 to 8) (size 9 to 14) (size 15 to 20)
#    0.000    3.000    1.000    2.400    0.000    3.200 
#    0.000    0.500    2.200    4.200    0.000    0.000 
#    0.000    0.000    0.000    0.000    0.000    0.000 
#
# Total GULP energy -495836.078423 kJ/mol
# GULP energy per Si atom -12395.901961 kJ/mol
# Density = 1.723141 g / cm^3
# Si number density = 17.270715 Si / 1000 Ang^3
#
#
#
# Elastic Constant Matrix: (Units=GPa)
#
#
# Indices 1 2 3 4 5 6 
#
# 1 102.6236 22.7718 72.6391 0.0000 0.0000 0.0000
# 2 22.7718 40.5176 42.8555 0.0000 0.0000 0.0000
# 3 72.6391 42.8555 179.8506 0.0000 0.0000 0.0000
# 4 0.0000 0.0000 0.0000 1.9509 0.0000 0.0000
# 5 0.0000 0.0000 0.0000 0.0000 24.5210 0.0000
# 6 0.0000 0.0000 0.0000 0.0000 0.0000 8.1096
#
#
#
# Elastic Compliance Matrix: (Units=1/GPa)
#
#
# Indices 1 2 3 4 5 6 
#
# 1 0.013831 -0.002493 -0.004992 0.000000 0.000000 0.000000
# 2 -0.002493 0.033446 -0.006963 0.000000 0.000000 0.000000
# 3 -0.004992 -0.006963 0.009236 0.000000 0.000000 0.000000
# 4 0.000000 0.000000 0.000000 0.512588 0.000000 0.000000
# 5 0.000000 0.000000 0.000000 0.000000 0.040781 0.000000
# 6 0.000000 0.000000 0.000000 0.000000 0.000000 0.123310
#
#
# Mechanical properties :
#
#
# Convention : Reuss Voigt Hill
#
# Bulk Modulus (GPa) = 36.20975 66.61382 51.41179
# Shear Modulus (GPa) = 6.48261 19.23132 12.85696
#
# Velocity S-wave (km/s) = 1.93950 3.34057 2.73140
# Velocity P-wave (km/s) = 5.10167 7.31665 6.30715
#
# Compressibility (1/GPa) = 0.02761687
#
# Stress axis : x y z
#
# Youngs Moduli (GPa) = 72.30092 29.89856 108.27769
#
# Poissons Ratio (x) = 0.07454 0.54053
# Poissons Ratio (y) = 0.18026 0.75391
# Poissons Ratio (z) = 0.36093 0.20818
#
# Static dielectric constant tensor:
#      x y z
#    x 3.124120 0.000000 0.000000 
#    y 0.000000 2.816160 0.000000 
#    z 0.000000 0.000000 3.571150 
# 
# 
# High freq. dielectric constant tensor:
#      x y z
#    x 1.637700 0.000000 0.000000 
#    y 0.000000 1.619310 0.000000 
#    z 0.000000 0.000000 1.684330 
# 
# From -- ./inp_files/36019.got.cif
#   From: 2010.03.12/outbox.cif.g09.slc.cpg/sg51_19_cif.got.tgz:36019.got - 2010.04.16 13:43:02.
