data_PCOD8206994
_publ_section_title
;
Structure prediction by ZEFSAII (Michael W. Deem and Ramdas Pophale) SiO2 
 PCOD8206994
Probable space group: P M M A
;
_chemical_formula_sum "Si O2"
_cell_formula_units_Z 56
_cell_length_a 8.729012
_cell_length_b 23.065558
_cell_length_c 14.185620
_cell_angle_alpha 90.000000
_cell_angle_beta 90.000000
_cell_angle_gamma 90.000000
_cell_volume 2856.126100
_symmetry_space_group_name_H-M "P M M A"
_symmetry_group_IT_number 51
_symmetry_cell_setting 'orthorhombic'
loop_
_space_group_symop_operation_xyz
x,y,z
1/2-x,-y,z
1/2+x,-y,-z
-x,y,-z
-x,-y,-z
1/2+x,y,-z
1/2-x,y,z
x,-y,z
loop_
_atom_site_type_symbol
_atom_site_label
_atom_site_fract_x
_atom_site_fract_y
_atom_site_fract_z
Si Si1 0.925867 0.331455 0.709248
Si Si2 0.930914 0.066147 0.096350
Si Si3 0.430574 0.774055 0.603607
Si Si4 0.931985 0.000000 0.398068
Si Si5 0.426600 0.383866 0.099736
Si Si6 0.568539 0.500000 0.103693
Si Si7 0.572842 0.434083 0.397857
Si Si8 0.567917 0.887319 0.290960
O O1 0.750000 0.320338 0.680827
O O2 0.944712 0.332483 0.823297
O O3 0.030048 0.281883 0.664981
O O4 0.978267 0.393542 0.671417
O O5 0.750000 0.067465 0.088675
O O6 0.987958 0.106785 0.182494
O O7 0.987176 0.000000 0.113315
O O8 0.000000 0.091660 0.000000
O O9 0.500000 0.769757 0.500000
O O10 0.250000 0.778784 0.592443
O O11 0.498362 0.829734 0.659342
O O12 0.994987 0.056866 0.345989
O O13 0.000000 0.000000 0.500000
O O14 0.750000 0.000000 0.401101
O O15 0.250000 0.398624 0.080389
O O16 0.506565 0.440247 0.148059
O O17 0.500000 0.364698 0.000000
O O18 0.750000 0.500000 0.107744
O O19 0.500000 0.500000 0.000000
O O20 0.500000 0.428005 0.500000
O O21 0.750000 0.414821 0.402161
O O22 0.558600 0.500000 0.360216
O O23 0.750000 0.886206 0.293896
#
# Coordination Sequence:
#
# PCOD8206994 Si02
#       8
#     8   8   8   4   8   4   8   8
#     4  11  24  40  59  82 111 149 191 235 284 336
#     4   9  16  30  53  81 114 151 189 229 275 332
#     4  11  23  40  61  83 111 149 194 237 284 341
#     4  10  18  32  53  80 112 144 181 228 283 336
#     4  10  21  37  57  82 112 147 186 231 282 335
#     4  10  18  30  52  80 113 146 179 220 272 334
#     4  10  21  37  58  85 114 144 181 229 286 342
#     4   9  18  34  57  82 111 151 189 227 279 341
#
# _framework density 19.606977000000001
#
# number of rings (size 3 to 8) (size 9 to 14) (size 15 to 20)
#    0.000    2.000    0.714    4.071    1.000    3.143 
#    0.000    3.571    0.000    3.429    0.000    0.000 
#    0.000    0.000    0.000    0.000    0.000    0.000 
#
# Total GULP energy -694280.289836 kJ/mol
# GULP energy per Si atom -12397.862318 kJ/mol
# Density = 1.956235 g / cm^3
# Si number density = 19.606977 Si / 1000 Ang^3
#
#
#
# Elastic Constant Matrix: (Units=GPa)
#
#
# Indices 1 2 3 4 5 6 
#
# 1 73.9001 24.9116 33.1890 0.0000 0.0000 0.0000
# 2 24.9116 103.7129 66.7818 0.0000 0.0000 0.0000
# 3 33.1890 66.7818 135.6425 0.0000 0.0000 0.0000
# 4 0.0000 0.0000 0.0000 34.1357 0.0000 0.0000
# 5 0.0000 0.0000 0.0000 0.0000 30.4530 0.0000
# 6 0.0000 0.0000 0.0000 0.0000 0.0000 15.5645
#
#
#
# Elastic Compliance Matrix: (Units=1/GPa)
#
#
# Indices 1 2 3 4 5 6 
#
# 1 0.015446 -0.001869 -0.002859 0.000000 0.000000 0.000000
# 2 -0.001869 0.014344 -0.006605 0.000000 0.000000 0.000000
# 3 -0.002859 -0.006605 0.011324 0.000000 0.000000 0.000000
# 4 0.000000 0.000000 0.000000 0.029295 0.000000 0.000000
# 5 0.000000 0.000000 0.000000 0.000000 0.032837 0.000000
# 6 0.000000 0.000000 0.000000 0.000000 0.000000 0.064249
#
#
# Mechanical properties :
#
#
# Convention : Reuss Voigt Hill
#
# Bulk Modulus (GPa) = 54.20751 62.55782 58.38266
# Shear Modulus (GPa) = 25.47006 28.58886 27.02946
#
# Velocity S-wave (km/s) = 3.60812 3.82264 3.71693
# Velocity P-wave (km/s) = 6.71305 7.17347 6.94708
#
# Compressibility (1/GPa) = 0.01844763
#
# Stress axis : x y z
#
# Youngs Moduli (GPa) = 64.74217 69.71681 88.31125
#
# Poissons Ratio (x) = 0.13031 0.25249
# Poissons Ratio (y) = 0.12101 0.58326
# Poissons Ratio (z) = 0.18510 0.46045
#
# Static dielectric constant tensor:
#      x y z
#    x 3.448370 0.000000 0.000000 
#    y 0.000000 3.771010 0.000000 
#    z 0.000000 0.000000 3.606880 
# 
# 
# High freq. dielectric constant tensor:
#      x y z
#    x 1.755790 0.000000 0.000000 
#    y 0.000000 1.747670 0.000000 
#    z 0.000000 0.000000 1.776890 
# 
# From -- ./inp_files/21927.got.cif
#   From: 2010.03.12/outbox.cif.g09.slc.cpg/sg51_11_cif.got.tgz:21927.got - 2010.04.16 13:43:02.
