data_PCOD8206534
_publ_section_title
;
Structure prediction by ZEFSAII (Michael W. Deem and Ramdas Pophale) SiO2 
 PCOD8206534
Probable space group: P M M A
;
_chemical_formula_sum "Si O2"
_cell_formula_units_Z 48
_cell_length_a 31.236447
_cell_length_b 8.869716
_cell_length_c 9.132486
_cell_angle_alpha 90.000000
_cell_angle_beta 90.000000
_cell_angle_gamma 90.000000
_cell_volume 2530.232085
_symmetry_space_group_name_H-M "P M M A"
_symmetry_group_IT_number 51
_symmetry_cell_setting 'orthorhombic'
loop_
_space_group_symop_operation_xyz
x,y,z
1/2-x,-y,z
1/2+x,-y,-z
-x,y,-z
-x,-y,-z
1/2+x,y,-z
1/2-x,y,z
x,-y,z
loop_
_atom_site_type_symbol
_atom_site_label
_atom_site_fract_x
_atom_site_fract_y
_atom_site_fract_z
Si Si1 0.250000 0.674428 0.639719
Si Si2 0.657509 0.675526 0.340210
Si Si3 0.921862 0.676837 0.830960
Si Si4 0.499322 0.176198 0.329964
Si Si5 0.250000 0.823874 0.331559
Si Si6 0.922220 0.679096 0.164268
Si Si7 0.164754 0.676241 0.329535
O O1 0.250000 0.500000 0.584950
O O2 0.294481 0.705613 0.727447
O O3 0.250000 0.783743 0.502085
O O4 0.647359 0.500000 0.345281
O O5 0.620932 0.749242 0.238058
O O6 0.654976 0.738745 0.506333
O O7 0.932527 0.500000 0.815467
O O8 0.954265 0.771818 0.733907
O O9 0.874472 0.714355 0.775621
O O10 0.925094 0.734113 0.997378
O O11 0.500000 0.218226 0.500000
O O12 0.536954 0.264573 0.251034
O O13 0.505707 0.000000 0.302990
O O14 0.206767 0.755377 0.260750
O O15 0.250000 0.000000 0.305091
O O16 0.921557 0.500000 0.168118
O O17 0.174364 0.500000 0.337060
#
# Coordination Sequence:
#
# PCOD8206534 Si02
#       7
#     4   8   8   8   4   8   8
#     4   8  14  28  49  72 100 136 174 210 255 304
#     4   8  14  27  50  75 100 132 169 210 252 298
#     4  10  21  36  56  81 107 137 173 215 264 316
#     4  11  24  39  55  77 104 137 177 217 259 310
#     4  10  18  28  47  76 104 132 172 220 261 296
#     4  10  20  35  55  81 109 136 171 214 263 317
#     4   9  17  32  52  74 102 137 174 211 257 309
#
# _framework density 18.970592
#
# number of rings (size 3 to 8) (size 9 to 14) (size 15 to 20)
#    0.000    2.500    0.000    3.750    0.000    6.000 
#    0.000    5.833    0.000    4.000    0.000    4.667 
#    0.000    0.000    0.000    0.000    0.000    0.000 
#
# Total GULP energy -594971.513361 kJ/mol
# GULP energy per Si atom -12395.239862 kJ/mol
# Density = 1.892741 g / cm^3
# Si number density = 18.970592 Si / 1000 Ang^3
#
#
#
# Elastic Constant Matrix: (Units=GPa)
#
#
# Indices 1 2 3 4 5 6 
#
# 1 132.2985 25.5430 55.2471 0.0000 0.0000 0.0000
# 2 25.5430 27.4978 24.3106 0.0000 0.0000 0.0000
# 3 55.2471 24.3106 104.2715 0.0000 0.0000 0.0000
# 4 0.0000 0.0000 0.0000 15.6541 0.0000 0.0000
# 5 0.0000 0.0000 0.0000 0.0000 2.2893 0.0000
# 6 0.0000 0.0000 0.0000 0.0000 0.0000 8.2846
#
#
#
# Elastic Compliance Matrix: (Units=1/GPa)
#
#
# Indices 1 2 3 4 5 6 
#
# 1 0.010451 -0.006062 -0.004124 0.000000 0.000000 0.000000
# 2 -0.006062 0.049325 -0.008288 0.000000 0.000000 0.000000
# 3 -0.004124 -0.008288 0.013708 0.000000 0.000000 0.000000
# 4 0.000000 0.000000 0.000000 0.063881 0.000000 0.000000
# 5 0.000000 0.000000 0.000000 0.000000 0.436816 0.000000
# 6 0.000000 0.000000 0.000000 0.000000 0.000000 0.120706
#
#
# Mechanical properties :
#
#
# Convention : Reuss Voigt Hill
#
# Bulk Modulus (GPa) = 27.37062 52.69659 40.03360
# Shear Modulus (GPa) = 6.72030 15.84340 11.28185
#
# Velocity S-wave (km/s) = 1.88419 2.89304 2.44130
# Velocity P-wave (km/s) = 4.38096 6.24483 5.39401
#
# Compressibility (1/GPa) = 0.03653553
#
# Stress axis : x y z
#
# Youngs Moduli (GPa) = 95.68170 20.27362 72.95121
#
# Poissons Ratio (x) = 0.12290 0.30086
# Poissons Ratio (y) = 0.58005 0.60462
# Poissons Ratio (z) = 0.39460 0.16803
#
# Static dielectric constant tensor:
#      x y z
#    x 3.874610 0.000000 0.000000 
#    y 0.000000 3.168210 0.000000 
#    z 0.000000 0.000000 3.448970 
# 
# 
# High freq. dielectric constant tensor:
#      x y z
#    x 1.763860 0.000000 0.000000 
#    y 0.000000 1.705730 0.000000 
#    z 0.000000 0.000000 1.715190 
# 
# From -- ./inp_files/12916.got.cif
#   From: 2010.03.12/outbox.cif.g09.slc.cpg/sg51_7_cif.got.tgz:12916.got - 2010.04.16 13:43:02.
