data_PCOD8206730
_publ_section_title
;
Structure prediction by ZEFSAII (Michael W. Deem and Ramdas Pophale) SiO2 
 PCOD8206730
Probable space group: P M M A
;
_chemical_formula_sum "Si O2"
_cell_formula_units_Z 64
_cell_length_a 23.714848
_cell_length_b 9.106807
_cell_length_c 15.138206
_cell_angle_alpha 90.000000
_cell_angle_beta 90.000000
_cell_angle_gamma 90.000000
_cell_volume 3269.346029
_symmetry_space_group_name_H-M "P M M A"
_symmetry_group_IT_number 51
_symmetry_cell_setting 'orthorhombic'
loop_
_space_group_symop_operation_xyz
x,y,z
1/2-x,-y,z
1/2+x,-y,-z
-x,y,-z
-x,-y,-z
1/2+x,y,-z
1/2-x,y,z
x,-y,z
loop_
_atom_site_type_symbol
_atom_site_label
_atom_site_fract_x
_atom_site_fract_y
_atom_site_fract_z
Si Si1 0.503442 0.324966 0.284193
Si Si2 0.188391 0.164102 0.801934
Si Si3 0.025925 0.332539 0.912082
Si Si4 0.122555 0.673299 0.318225
Si Si5 0.611091 0.175886 0.353568
Si Si6 0.686230 0.325038 0.850418
Si Si7 0.316181 0.326437 0.495947
Si Si8 0.346419 0.666368 0.960326
O O1 0.513947 0.500000 0.287436
O O2 0.507051 0.265325 0.182463
O O3 0.442842 0.278602 0.323811
O O4 0.548784 0.245164 0.347356
O O5 0.250000 0.167829 0.756326
O O6 0.143592 0.231006 0.733947
O O7 0.194016 0.250913 0.893140
O O8 0.169672 0.000000 0.825759
O O9 0.004189 0.500000 0.912283
O O10 0.092195 0.318395 0.919615
O O11 0.000000 0.253818 0.000000
O O12 0.125274 0.500000 0.310441
O O13 0.150782 0.742773 0.230600
O O14 0.158893 0.725024 0.401895
O O15 0.646420 0.238528 0.434649
O O16 0.607893 0.000000 0.361302
O O17 0.750000 0.267198 0.844310
O O18 0.684320 0.500000 0.846382
O O19 0.658086 0.266924 0.941289
O O20 0.250000 0.283541 0.501645
O O21 0.324058 0.500000 0.510853
O O22 0.325379 0.500000 0.964255
#
# Coordination Sequence:
#
# PCOD8206730 Si02
#       8
#     8   8   8   8   8   8   8   8
#     4  10  19  34  56  82 112 146 186 228 274 328
#     4  10  21  36  52  71 101 141 178 215 267 327
#     4   9  16  27  47  76 110 146 183 223 264 310
#     4   9  18  33  55  82 112 145 180 224 279 335
#     4  11  23  39  58  79 110 147 185 227 277 332
#     4   9  16  27  47  79 115 145 177 223 278 330
#     4  10  21  38  61  87 111 139 181 231 280 332
#     4  10  18  29  49  80 111 139 179 225 265 311
#
# _framework density 19.575780999999999
#
# number of rings (size 3 to 8) (size 9 to 14) (size 15 to 20)
#    0.000    2.250    1.250    2.250    0.000    7.000 
#    0.000    3.125    0.000    4.500    0.000    0.000 
#    0.000    0.000    0.000    0.000    0.000    0.000 
#
# Total GULP energy -793297.571115 kJ/mol
# GULP energy per Si atom -12395.274549 kJ/mol
# Density = 1.953123 g / cm^3
# Si number density = 19.575781 Si / 1000 Ang^3
#
#
#
# Elastic Constant Matrix: (Units=GPa)
#
#
# Indices 1 2 3 4 5 6 
#
# 1 111.3154 27.9526 63.6000 0.0000 0.0000 0.0000
# 2 27.9526 33.6280 32.4623 0.0000 0.0000 0.0000
# 3 63.6000 32.4623 136.3483 0.0000 0.0000 0.0000
# 4 0.0000 0.0000 0.0000 2.7812 0.0000 0.0000
# 5 0.0000 0.0000 0.0000 0.0000 41.1286 0.0000
# 6 0.0000 0.0000 0.0000 0.0000 0.0000 11.0307
#
#
#
# Elastic Compliance Matrix: (Units=1/GPa)
#
#
# Indices 1 2 3 4 5 6 
#
# 1 0.013278 -0.006568 -0.004630 0.000000 0.000000 0.000000
# 2 -0.006568 0.041860 -0.006903 0.000000 0.000000 0.000000
# 3 -0.004630 -0.006903 0.011137 0.000000 0.000000 0.000000
# 4 0.000000 0.000000 0.000000 0.359558 0.000000 0.000000
# 5 0.000000 0.000000 0.000000 0.000000 0.024314 0.000000
# 6 0.000000 0.000000 0.000000 0.000000 0.000000 0.090656
#
#
# Mechanical properties :
#
#
# Convention : Reuss Voigt Hill
#
# Bulk Modulus (GPa) = 33.25071 58.81350 46.03211
# Shear Modulus (GPa) = 8.51747 21.47320 14.99534
#
# Velocity S-wave (km/s) = 2.08817 3.31558 2.77070
# Velocity P-wave (km/s) = 4.77875 6.69079 5.81391
#
# Compressibility (1/GPa) = 0.03007455
#
# Stress axis : x y z
#
# Youngs Moduli (GPa) = 75.31257 23.88933 89.78929
#
# Poissons Ratio (x) = 0.15690 0.41572
# Poissons Ratio (y) = 0.49463 0.61978
# Poissons Ratio (z) = 0.34869 0.16490
#
# Static dielectric constant tensor:
#      x y z
#    x 3.664810 0.000000 0.000000 
#    y 0.000000 3.071880 0.000000 
#    z 0.000000 0.000000 3.802680 
# 
# 
# High freq. dielectric constant tensor:
#      x y z
#    x 1.777930 0.000000 0.000000 
#    y 0.000000 1.703530 0.000000 
#    z 0.000000 0.000000 1.772520 
# 
# From -- ./inp_files/26298.got.cif
#   From: 2010.03.12/outbox.cif.g09.slc.cpg/sg51_14_cif.got.tgz:26298.got - 2010.04.16 13:43:02.
