data_PCOD8206132
_publ_section_title
;
Structure prediction by ZEFSAII (Michael W. Deem and Ramdas Pophale) SiO2 
 PCOD8206132
Probable space group: P M M A
;
_chemical_formula_sum "Si O2"
_cell_formula_units_Z 56
_cell_length_a 17.530946
_cell_length_b 14.466088
_cell_length_c 13.828197
_cell_angle_alpha 90.000000
_cell_angle_beta 90.000000
_cell_angle_gamma 90.000000
_cell_volume 3506.888942
_symmetry_space_group_name_H-M "P M M A"
_symmetry_group_IT_number 51
_symmetry_cell_setting 'orthorhombic'
loop_
_space_group_symop_operation_xyz
x,y,z
1/2-x,-y,z
1/2+x,-y,-z
-x,y,-z
-x,-y,-z
1/2+x,y,-z
1/2-x,y,z
x,-y,z
loop_
_atom_site_type_symbol
_atom_site_label
_atom_site_fract_x
_atom_site_fract_y
_atom_site_fract_z
Si Si1 0.160322 0.208908 0.921400
Si Si2 0.034587 0.108011 0.398589
Si Si3 0.659557 0.399174 0.996742
Si Si4 0.836453 0.788489 0.697750
Si Si5 0.953476 0.894446 0.203014
Si Si6 0.159481 0.601035 0.219541
Si Si7 0.384733 0.892506 0.116159
O O1 0.250000 0.203854 0.900052
O O2 0.131589 0.314665 0.936580
O O3 0.116129 0.170550 0.828287
O O4 0.140110 0.147667 0.013972
O O5 0.113304 0.162380 0.383773
O O6 0.000000 0.140292 0.500000
O O7 0.975909 0.131881 0.312641
O O8 0.054583 0.000000 0.397856
O O9 0.750000 0.395799 0.990196
O O10 0.633305 0.500000 0.038094
O O11 0.626010 0.386279 0.888661
O O12 0.750000 0.786802 0.659413
O O13 0.869698 0.684273 0.712650
O O14 0.838186 0.841967 0.799573
O O15 0.024968 0.878588 0.131784
O O16 0.925665 0.000000 0.197281
O O17 0.250000 0.607829 0.213317
O O18 0.134645 0.500000 0.260740
O O19 0.363090 0.000000 0.119697
#
# Coordination Sequence:
#
# PCOD8206132 Si02
#       7
#     8   8   8   8   8   8   8
#     4  11  19  27  43  67  92 122 156 187 214 249
#     4   9  19  36  53  66  87 121 153 183 233 290
#     4   8  14  25  40  60  90 126 157 183 217 260
#     4  10  17  27  47  75  94 111 149 196 230 260
#     4   9  19  33  46  61  86 122 155 182 221 276
#     4   8  13  23  40  64  95 123 146 180 228 274
#     4  10  19  29  41  61  94 129 151 174 220 273
#
# _framework density 15.968569
#
# number of rings (size 3 to 8) (size 9 to 14) (size 15 to 20)
#    0.000    2.714    1.429    3.429    0.000    4.000 
#    0.000    0.714    0.000    8.143    0.000    0.000 
#    0.000    4.571    0.000    0.000    0.000    0.000 
#
# Total GULP energy -694141.541237 kJ/mol
# GULP energy per Si atom -12395.384665 kJ/mol
# Density = 1.593222 g / cm^3
# Si number density = 15.968569 Si / 1000 Ang^3
#
#
#
# Elastic Constant Matrix: (Units=GPa)
#
#
# Indices 1 2 3 4 5 6 
#
# 1 63.4494 47.3547 40.4647 0.0000 0.0000 0.0000
# 2 47.3547 122.4376 45.1586 0.0000 0.0000 0.0000
# 3 40.4647 45.1586 73.3772 0.0000 0.0000 0.0000
# 4 0.0000 0.0000 0.0000 17.3753 0.0000 0.0000
# 5 0.0000 0.0000 0.0000 0.0000 18.5808 0.0000
# 6 0.0000 0.0000 0.0000 0.0000 0.0000 4.6620
#
#
#
# Elastic Compliance Matrix: (Units=1/GPa)
#
#
# Indices 1 2 3 4 5 6 
#
# 1 0.027926 -0.006625 -0.011323 0.000000 0.000000 0.000000
# 2 -0.006625 0.012137 -0.003816 0.000000 0.000000 0.000000
# 3 -0.011323 -0.003816 0.022221 0.000000 0.000000 0.000000
# 4 0.000000 0.000000 0.000000 0.057553 0.000000 0.000000
# 5 0.000000 0.000000 0.000000 0.000000 0.053819 0.000000
# 6 0.000000 0.000000 0.000000 0.000000 0.000000 0.214500
#
#
# Mechanical properties :
#
#
# Convention : Reuss Voigt Hill
#
# Bulk Modulus (GPa) = 53.31569 58.35779 55.83674
# Shear Modulus (GPa) = 11.41718 16.54271 13.97995
#
# Velocity S-wave (km/s) = 2.67681 3.22212 2.96204
# Velocity P-wave (km/s) = 6.55851 7.10405 6.83672
#
# Compressibility (1/GPa) = 0.01875621
#
# Stress axis : x y z
#
# Youngs Moduli (GPa) = 35.80884 82.39148 45.00191
#
# Poissons Ratio (x) = 0.54580 0.50957
# Poissons Ratio (y) = 0.23722 0.17175
# Poissons Ratio (z) = 0.40547 0.31444
#
# Static dielectric constant tensor:
#      x y z
#    x 2.789770 0.000000 0.000000 
#    y 0.000000 3.442620 0.000000 
#    z 0.000000 0.000000 2.765610 
# 
# 
# High freq. dielectric constant tensor:
#      x y z
#    x 1.588620 0.000000 0.000000 
#    y 0.000000 1.627720 0.000000 
#    z 0.000000 0.000000 1.572040 
# 
# From -- ./inp_files/24331.got.cif
#   From: 2010.03.12/outbox.cif.g09.slc.cpg/sg51_13_cif.got.tgz:24331.got - 2010.04.16 13:43:02.
