data_PCOD8206651
_publ_section_title
;
Structure prediction by ZEFSAII (Michael W. Deem and Ramdas Pophale) SiO2 
 PCOD8206651
Probable space group: P M M A
;
_chemical_formula_sum "Si O2"
_cell_formula_units_Z 56
_cell_length_a 19.399480
_cell_length_b 14.235585
_cell_length_c 12.474610
_cell_angle_alpha 90.000000
_cell_angle_beta 90.000000
_cell_angle_gamma 90.000000
_cell_volume 3445.025054
_symmetry_space_group_name_H-M "P M M A"
_symmetry_group_IT_number 51
_symmetry_cell_setting 'orthorhombic'
loop_
_space_group_symop_operation_xyz
x,y,z
1/2-x,-y,z
1/2+x,-y,-z
-x,y,-z
-x,-y,-z
1/2+x,y,-z
1/2-x,y,z
x,-y,z
loop_
_atom_site_type_symbol
_atom_site_label
_atom_site_fract_x
_atom_site_fract_y
_atom_site_fract_z
Si Si1 0.079570 0.729318 0.476390
Si Si2 0.074913 0.391011 0.037084
Si Si3 0.669647 0.292754 0.127443
Si Si4 0.331810 0.898076 0.777682
Si Si5 0.946538 0.393649 0.720823
Si Si6 0.670286 0.893128 0.465891
Si Si7 0.896031 0.608122 0.320833
O O1 0.088133 0.674937 0.364662
O O2 0.122418 0.825317 0.463090
O O3 0.112535 0.665872 0.569761
O O4 0.000000 0.751915 0.500000
O O5 0.084421 0.500000 0.006694
O O6 0.085523 0.373126 0.163087
O O7 0.132381 0.331412 0.977022
O O8 0.000000 0.356252 0.000000
O O9 0.750000 0.291912 0.101509
O O10 0.640964 0.186906 0.148821
O O11 0.657664 0.355864 0.232531
O O12 0.250000 0.898556 0.776229
O O13 0.356524 0.882766 0.655916
O O14 0.358827 0.000000 0.820023
O O15 0.931092 0.500000 0.683983
O O16 0.028334 0.378400 0.728818
O O17 0.750000 0.862872 0.477078
O O18 0.660487 0.000000 0.505930
O O19 0.880260 0.500000 0.347217
#
# Coordination Sequence:
#
# PCOD8206651 Si02
#       7
#     8   8   8   8   8   8   8
#     4  10  19  30  49  76 103 129 163 204 246 289
#     4  10  19  33  51  69  96 137 174 201 239 293
#     4  11  20  30  50  78 101 124 164 216 254 283
#     4   8  15  29  49  72  97 125 158 198 251 309
#     4   9  18  33  50  68  94 136 177 198 229 296
#     4   9  17  31  50  70  96 131 166 199 244 304
#     4  10  18  29  46  72 103 130 159 200 250 296
#
# _framework density 16.255324000000002
#
# number of rings (size 3 to 8) (size 9 to 14) (size 15 to 20)
#    0.000    2.429    2.857    1.714    0.000    3.143 
#    0.000    0.714    0.000    3.429    0.000    2.000 
#    0.000    0.000    0.000    0.000    0.000    0.000 
#
# Total GULP energy -694348.669889 kJ/mol
# GULP energy per Si atom -12399.083391 kJ/mol
# Density = 1.621833 g / cm^3
# Si number density = 16.255324 Si / 1000 Ang^3
#
#
#
# Elastic Constant Matrix: (Units=GPa)
#
#
# Indices 1 2 3 4 5 6 
#
# 1 56.7491 48.9227 36.9003 0.0000 0.0000 0.0000
# 2 48.9227 117.2325 51.3385 0.0000 0.0000 0.0000
# 3 36.9003 51.3385 80.9032 0.0000 0.0000 0.0000
# 4 0.0000 0.0000 0.0000 26.1970 0.0000 0.0000
# 5 0.0000 0.0000 0.0000 0.0000 24.5726 0.0000
# 6 0.0000 0.0000 0.0000 0.0000 0.0000 27.6810
#
#
#
# Elastic Compliance Matrix: (Units=1/GPa)
#
#
# Indices 1 2 3 4 5 6 
#
# 1 0.031024 -0.009348 -0.008218 0.000000 0.000000 0.000000
# 2 -0.009348 0.014629 -0.005020 0.000000 0.000000 0.000000
# 3 -0.008218 -0.005020 0.019294 0.000000 0.000000 0.000000
# 4 0.000000 0.000000 0.000000 0.038172 0.000000 0.000000
# 5 0.000000 0.000000 0.000000 0.000000 0.040696 0.000000
# 6 0.000000 0.000000 0.000000 0.000000 0.000000 0.036126
#
#
# Mechanical properties :
#
#
# Convention : Reuss Voigt Hill
#
# Bulk Modulus (GPa) = 50.56698 58.80087 54.68392
# Shear Modulus (GPa) = 21.57920 23.53833 22.55877
#
# Velocity S-wave (km/s) = 3.64746 3.80944 3.72933
# Velocity P-wave (km/s) = 6.99386 7.45660 7.22894
#
# Compressibility (1/GPa) = 0.01977575
#
# Stress axis : x y z
#
# Youngs Moduli (GPa) = 32.23331 68.35649 51.82892
#
# Poissons Ratio (x) = 0.63897 0.42595
# Poissons Ratio (y) = 0.30131 0.26017
# Poissons Ratio (z) = 0.26491 0.34313
#
# Static dielectric constant tensor:
#      x y z
#    x 2.800480 0.000000 0.000000 
#    y 0.000000 3.319610 0.000000 
#    z 0.000000 0.000000 2.937460 
# 
# 
# High freq. dielectric constant tensor:
#      x y z
#    x 1.599650 0.000000 0.000000 
#    y 0.000000 1.631170 0.000000 
#    z 0.000000 0.000000 1.608780 
# 
# From -- ./inp_files/16573.got.cif
#   From: 2010.03.12/outbox.cif.g09.slc.cpg/sg51_9_cif.got.tgz:16573.got - 2010.04.16 13:43:02.
