data_PCOD8206039
_publ_section_title
;
Structure prediction by ZEFSAII (Michael W. Deem and Ramdas Pophale) SiO2 
 PCOD8206039
Probable space group: P M M A
;
_chemical_formula_sum "Si O2"
_cell_formula_units_Z 64
_cell_length_a 25.578997
_cell_length_b 9.268538
_cell_length_c 16.949082
_cell_angle_alpha 90.000000
_cell_angle_beta 90.000000
_cell_angle_gamma 90.000000
_cell_volume 4018.286762
_symmetry_space_group_name_H-M "P M M A"
_symmetry_group_IT_number 51
_symmetry_cell_setting 'orthorhombic'
loop_
_space_group_symop_operation_xyz
x,y,z
1/2-x,-y,z
1/2+x,-y,-z
-x,y,-z
-x,-y,-z
1/2+x,y,-z
1/2-x,y,z
x,-y,z
loop_
_atom_site_type_symbol
_atom_site_label
_atom_site_fract_x
_atom_site_fract_y
_atom_site_fract_z
Si Si1 0.507114 0.166719 0.907500
Si Si2 0.051634 0.332458 0.335662
Si Si3 0.307467 0.171521 0.915101
Si Si4 0.095278 0.831196 0.820446
Si Si5 0.937697 0.340337 0.494416
Si Si6 0.444773 0.168354 0.653996
Si Si7 0.810452 0.165481 0.905766
Si Si8 0.399566 0.331471 0.171655
O O1 0.456274 0.231889 0.863131
O O2 0.557124 0.257093 0.882246
O O3 0.516284 0.000000 0.884186
O O4 0.500000 0.185178 0.000000
O O5 0.034100 0.500000 0.338532
O O6 0.081670 0.292909 0.417952
O O7 0.090463 0.300679 0.263982
O O8 0.000062 0.237823 0.324444
O O9 0.250000 0.232443 0.891101
O O10 0.351826 0.237585 0.857239
O O11 0.305629 0.000000 0.909513
O O12 0.320869 0.216292 0.004550
O O13 0.094174 0.800092 0.726890
O O14 0.095875 0.000000 0.838798
O O15 0.917081 0.500000 0.473034
O O16 0.918734 0.232973 0.425510
O O17 0.000000 0.338115 0.500000
O O18 0.453761 0.000000 0.640761
O O19 0.750000 0.184100 0.883497
O O20 0.843148 0.266035 0.847395
O O21 0.828181 0.000000 0.895109
O O22 0.399912 0.500000 0.152699
#
# Coordination Sequence:
#
# PCOD8206039 Si02
#       8
#     8   8   8   8   8   8   8   8
#     4  10  19  31  46  62  88 126 158 183 220 274
#     4   9  18  31  43  59  87 122 152 179 216 271
#     4   8  14  27  47  67  86 113 152 191 222 259
#     4   9  16  25  39  64  92 116 145 184 224 262
#     4   8  15  28  43  57  81 117 152 179 213 265
#     4  10  17  25  40  64  92 116 144 184 226 265
#     4   9  18  33  52  70  88 116 156 195 229 269
#     4  11  21  31  46  68  94 120 150 190 232 272
#
# _framework density 15.927186000000001
#
# number of rings (size 3 to 8) (size 9 to 14) (size 15 to 20)
#    0.000    2.750    1.250    3.000    0.000    5.250 
#    0.000    0.000    0.000    0.750    0.000    0.875 
#    0.000    3.000    0.000    0.000    0.000    0.000 
#
# Total GULP energy -793314.984466 kJ/mol
# GULP energy per Si atom -12395.546632 kJ/mol
# Density = 1.589093 g / cm^3
# Si number density = 15.927186 Si / 1000 Ang^3
#
#
#
# Elastic Constant Matrix: (Units=GPa)
#
#
# Indices 1 2 3 4 5 6 
#
# 1 78.8191 35.7762 52.6705 0.0000 0.0000 0.0000
# 2 35.7762 62.9237 50.5446 0.0000 0.0000 0.0000
# 3 52.6705 50.5446 117.6515 0.0000 0.0000 0.0000
# 4 0.0000 0.0000 0.0000 23.5075 0.0000 0.0000
# 5 0.0000 0.0000 0.0000 0.0000 18.1075 0.0000
# 6 0.0000 0.0000 0.0000 0.0000 0.0000 8.8979
#
#
#
# Elastic Compliance Matrix: (Units=1/GPa)
#
#
# Indices 1 2 3 4 5 6 
#
# 1 0.019591 -0.006251 -0.006085 0.000000 0.000000 0.000000
# 2 -0.006251 0.026261 -0.008484 0.000000 0.000000 0.000000
# 3 -0.006085 -0.008484 0.014869 0.000000 0.000000 0.000000
# 4 0.000000 0.000000 0.000000 0.042540 0.000000 0.000000
# 5 0.000000 0.000000 0.000000 0.000000 0.055226 0.000000
# 6 0.000000 0.000000 0.000000 0.000000 0.000000 0.112386
#
#
# Mechanical properties :
#
#
# Convention : Reuss Voigt Hill
#
# Bulk Modulus (GPa) = 52.40728 59.70856 56.05792
# Shear Modulus (GPa) = 15.68031 18.12943 16.90487
#
# Velocity S-wave (km/s) = 3.14108 3.37749 3.26142
# Velocity P-wave (km/s) = 6.79197 7.26496 7.03245
#
# Compressibility (1/GPa) = 0.01908132
#
# Stress axis : x y z
#
# Youngs Moduli (GPa) = 51.04428 38.07948 67.25604
#
# Poissons Ratio (x) = 0.23802 0.40926
# Poissons Ratio (y) = 0.31906 0.57058
# Poissons Ratio (z) = 0.31061 0.32305
#
# Static dielectric constant tensor:
#      x y z
#    x 2.934820 0.000000 0.000000 
#    y 0.000000 2.878410 0.000000 
#    z 0.000000 0.000000 3.343630 
# 
# 
# High freq. dielectric constant tensor:
#      x y z
#    x 1.577930 0.000000 0.000000 
#    y 0.000000 1.592110 0.000000 
#    z 0.000000 0.000000 1.621070 
# 
# From -- ./inp_files/30824.got.cif
#   From: 2010.03.12/outbox.cif.g09.slc.cpg/sg51_16_cif.got.tgz:30824.got - 2010.04.16 13:43:02.
