data_PCOD8206546
_publ_section_title
;
Structure prediction by ZEFSAII (Michael W. Deem and Ramdas Pophale) SiO2 
 PCOD8206546
Probable space group: P M M A
;
_chemical_formula_sum "Si O2"
_cell_formula_units_Z 48
_cell_length_a 17.719888
_cell_length_b 15.535759
_cell_length_c 9.081433
_cell_angle_alpha 90.000000
_cell_angle_beta 90.000000
_cell_angle_gamma 90.000000
_cell_volume 2500.045031
_symmetry_space_group_name_H-M "P M M A"
_symmetry_group_IT_number 51
_symmetry_cell_setting 'orthorhombic'
loop_
_space_group_symop_operation_xyz
x,y,z
1/2-x,-y,z
1/2+x,-y,-z
-x,y,-z
-x,-y,-z
1/2+x,y,-z
1/2-x,y,z
x,-y,z
loop_
_atom_site_type_symbol
_atom_site_label
_atom_site_fract_x
_atom_site_fract_y
_atom_site_fract_z
Si Si1 0.162255 0.328307 0.989813
Si Si2 0.336173 0.687346 0.647876
Si Si3 0.839439 0.837193 0.826609
Si Si4 0.587670 0.500000 0.020240
Si Si5 0.160192 0.000000 0.655265
Si Si6 0.835439 0.500000 0.323414
Si Si7 0.339121 0.000000 0.986734
Si Si8 0.588565 0.159286 0.510086
O O1 0.250000 0.345458 0.006105
O O2 0.136217 0.248898 0.089080
O O3 0.121055 0.413272 0.052110
O O4 0.141969 0.309133 0.819942
O O5 0.250000 0.718555 0.624277
O O6 0.346396 0.588941 0.585633
O O7 0.391874 0.748208 0.558572
O O8 0.750000 0.840732 0.794592
O O9 0.885650 0.842656 0.677605
O O10 0.866940 0.915896 0.927452
O O11 0.500000 0.500000 0.000000
O O12 0.605491 0.500000 0.192374
O O13 0.131488 0.085165 0.576566
O O14 0.250000 0.000000 0.650505
O O15 0.128065 0.000000 0.821621
O O16 0.750000 0.500000 0.256142
O O17 0.250000 0.000000 0.975829
O O18 0.500000 0.142905 0.500000
#
# Coordination Sequence:
#
# PCOD8206546 Si02
#       8
#     8   8   8   4   4   4   4   8
#     4   9  18  34  57  82 108 142 191 238 272 317
#     4   9  17  35  60  81 103 142 191 232 270 322
#     4  10  20  36  57  82 111 143 178 224 278 324
#     4  10  18  28  49  80 113 146 180 224 286 338
#     4  11  22  41  65  82 101 141 192 229 262 322
#     4   8  16  32  56  80 102 136 192 244 270 308
#     4   9  19  37  64  90 104 125 176 233 270 308
#     4  12  25  38  53  82 120 151 179 219 274 334
#
# _framework density 19.199653000000001
#
# number of rings (size 3 to 8) (size 9 to 14) (size 15 to 20)
#    0.000    2.167    0.000    5.000    0.000    6.000 
#    0.000    4.583    0.000    2.000    0.000    0.000 
#    0.000    0.000    0.000    0.000    0.000    0.000 
#
# Total GULP energy -595146.630962 kJ/mol
# GULP energy per Si atom -12398.888145 kJ/mol
# Density = 1.915595 g / cm^3
# Si number density = 19.199653 Si / 1000 Ang^3
#
#
#
# Elastic Constant Matrix: (Units=GPa)
#
#
# Indices 1 2 3 4 5 6 
#
# 1 80.0814 53.4580 42.0397 0.0000 0.0000 0.0000
# 2 53.4580 180.8996 77.6913 0.0000 0.0000 0.0000
# 3 42.0397 77.6913 116.9743 0.0000 0.0000 0.0000
# 4 0.0000 0.0000 0.0000 34.6706 0.0000 0.0000
# 5 0.0000 0.0000 0.0000 0.0000 11.4902 0.0000
# 6 0.0000 0.0000 0.0000 0.0000 0.0000 16.9099
#
#
#
# Elastic Compliance Matrix: (Units=1/GPa)
#
#
# Indices 1 2 3 4 5 6 
#
# 1 0.016686 -0.003296 -0.003808 0.000000 0.000000 0.000000
# 2 -0.003296 0.008385 -0.004385 0.000000 0.000000 0.000000
# 3 -0.003808 -0.004385 0.012830 0.000000 0.000000 0.000000
# 4 0.000000 0.000000 0.000000 0.028843 0.000000 0.000000
# 5 0.000000 0.000000 0.000000 0.000000 0.087030 0.000000
# 6 0.000000 0.000000 0.000000 0.000000 0.000000 0.059137
#
#
# Mechanical properties :
#
#
# Convention : Reuss Voigt Hill
#
# Bulk Modulus (GPa) = 67.00491 80.48148 73.74319
# Shear Modulus (GPa) = 20.75873 26.26524 23.51198
#
# Velocity S-wave (km/s) = 3.29173 3.70267 3.50323
# Velocity P-wave (km/s) = 7.03009 7.76459 7.40645
#
# Compressibility (1/GPa) = 0.01492428
#
# Stress axis : x y z
#
# Youngs Moduli (GPa) = 59.92927 119.26238 77.94438
#
# Poissons Ratio (x) = 0.39303 0.29682
# Poissons Ratio (y) = 0.19750 0.34176
# Poissons Ratio (z) = 0.22822 0.52292
#
# Static dielectric constant tensor:
#      x y z
#    x 3.261520 0.000000 0.000000 
#    y 0.000000 3.978440 0.000000 
#    z 0.000000 0.000000 3.432260 
# 
# 
# High freq. dielectric constant tensor:
#      x y z
#    x 1.725700 0.000000 0.000000 
#    y 0.000000 1.773410 0.000000 
#    z 0.000000 0.000000 1.729760 
# 
# From -- ./inp_files/9773.got.cif
#   From: 2010.03.12/outbox.cif.g09.slc.cpg/sg51_5_cif.got.tgz:9773.got - 2010.04.16 13:43:02.
