data_PCOD8206843
_publ_section_title
;
Structure prediction by ZEFSAII (Michael W. Deem and Ramdas Pophale) SiO2 
 PCOD8206843
Probable space group: P M M A
;
_chemical_formula_sum "Si O2"
_cell_formula_units_Z 64
_cell_length_a 18.833304
_cell_length_b 9.219158
_cell_length_c 20.177129
_cell_angle_alpha 90.000000
_cell_angle_beta 90.000000
_cell_angle_gamma 90.000000
_cell_volume 3503.298518
_symmetry_space_group_name_H-M "P M M A"
_symmetry_group_IT_number 51
_symmetry_cell_setting 'orthorhombic'
loop_
_space_group_symop_operation_xyz
x,y,z
1/2-x,-y,z
1/2+x,-y,-z
-x,y,-z
-x,-y,-z
1/2+x,y,-z
1/2-x,y,z
x,-y,z
loop_
_atom_site_type_symbol
_atom_site_label
_atom_site_fract_x
_atom_site_fract_y
_atom_site_fract_z
Si Si1 0.828466 0.828358 0.068575
Si Si2 0.832636 0.828494 0.694504
Si Si3 0.067260 0.172108 0.041031
Si Si4 0.167867 0.665606 0.686693
Si Si5 0.094941 0.171058 0.800864
Si Si6 0.925182 0.328402 0.431392
Si Si7 0.584963 0.671908 0.578958
Si Si8 0.064229 0.828111 0.189487
O O1 0.750000 0.758339 0.075145
O O2 0.880651 0.774359 0.126709
O O3 0.822314 0.000000 0.072566
O O4 0.861729 0.782355 0.998209
O O5 0.750000 0.787255 0.704308
O O6 0.862291 0.753349 0.628556
O O7 0.876704 0.770138 0.758683
O O8 0.842492 0.000000 0.686459
O O9 0.075035 0.236697 0.115352
O O10 0.057735 0.000000 0.046136
O O11 0.000000 0.235094 0.000000
O O12 0.250000 0.678525 0.671832
O O13 0.144272 0.500000 0.698867
O O14 0.148695 0.757951 0.750138
O O15 0.128931 0.732644 0.622806
O O16 0.014185 0.220453 0.786562
O O17 0.102472 0.000000 0.794629
O O18 0.925433 0.500000 0.435653
O O19 0.899469 0.274620 0.503718
O O20 0.003665 0.278977 0.408671
O O21 0.595850 0.500000 0.588253
O O22 0.069587 0.000000 0.185835
#
# Coordination Sequence:
#
# PCOD8206843 Si02
#       8
#     8   8   8   8   8   8   8   8
#     4   9  16  24  38  64  94 119 147 192 243 280
#     4  10  21  34  46  68 104 136 162 199 247 295
#     4   9  14  24  41  63  90 120 155 193 233 282
#     4  10  20  32  46  67  97 129 156 185 229 285
#     4  10  18  30  48  69  94 123 157 198 238 279
#     4   8  16  32  53  76  98 120 156 205 246 280
#     4   9  17  33  57  77  93 121 163 206 243 285
#     4   9  17  29  47  67  92 129 164 194 238 289
#
# _framework density 18.268495999999999
#
# number of rings (size 3 to 8) (size 9 to 14) (size 15 to 20)
#    0.000    2.750    1.250    1.875    0.000    2.000 
#    0.000    5.625    0.000    0.000    0.000    2.625 
#    0.000    0.000    0.000    0.000    0.000    0.000 
#
# Total GULP energy -793232.250670 kJ/mol
# GULP energy per Si atom -12394.253917 kJ/mol
# Density = 1.822692 g / cm^3
# Si number density = 18.268496 Si / 1000 Ang^3
#
#
#
# Elastic Constant Matrix: (Units=GPa)
#
#
# Indices 1 2 3 4 5 6 
#
# 1 105.0756 20.9871 42.7309 0.0000 0.0000 0.0000
# 2 20.9871 17.1663 22.0838 0.0000 0.0000 0.0000
# 3 42.7309 22.0838 102.6656 0.0000 0.0000 0.0000
# 4 0.0000 0.0000 0.0000 -3.4545 0.0000 0.0000
# 5 0.0000 0.0000 0.0000 0.0000 30.0761 0.0000
# 6 0.0000 0.0000 0.0000 0.0000 0.0000 17.4277
#
#
#
# Elastic Compliance Matrix: (Units=1/GPa)
#
#
# Indices 1 2 3 4 5 6 
#
# 1 0.013143 -0.012486 -0.002785 0.000000 0.000000 0.000000
# 2 -0.012486 0.092404 -0.014679 0.000000 0.000000 0.000000
# 3 -0.002785 -0.014679 0.014057 0.000000 0.000000 0.000000
# 4 0.000000 0.000000 0.000000 -0.289479 0.000000 0.000000
# 5 0.000000 0.000000 0.000000 0.000000 0.033249 0.000000
# 6 0.000000 0.000000 0.000000 0.000000 0.000000 0.057380
#
#
# Mechanical properties :
#
#
# Convention : Reuss Voigt Hill
#
# Bulk Modulus (GPa) = 16.74957 44.05680 30.40318
# Shear Modulus (GPa) = 9005.15224 18.08358 4511.61791
#
# Velocity S-wave (km/s) = 70.28538 3.14965 49.74915
# Velocity P-wave (km/s) = 81.21516 6.11520 57.59035
#
# Compressibility (1/GPa) = 0.05970304
#
# Stress axis : x y z
#
# Youngs Moduli (GPa) = 76.08434 10.82210 71.13937
#
# Poissons Ratio (x) = 0.13513 0.19809
# Poissons Ratio (y) = 0.95003 1.04428
# Poissons Ratio (z) = 0.21186 0.15886
#
# Static dielectric constant tensor:
#      x y z
#    x 3.570140 0.000000 0.000000 
#    y 0.000000 2.788910 0.000000 
#    z 0.000000 0.000000 3.744790 
# 
# 
# High freq. dielectric constant tensor:
#      x y z
#    x 1.716020 0.000000 0.000000 
#    y 0.000000 1.641690 0.000000 
#    z 0.000000 0.000000 1.722950 
# 
# From -- ./inp_files/33999.got.cif
#   From: 2010.03.12/outbox.cif.g09.slc.cpg/sg51_17_cif.got.tgz:33999.got - 2010.04.16 13:43:02.
