data_PCOD8206763
_publ_section_title
;
Structure prediction by ZEFSAII (Michael W. Deem and Ramdas Pophale) SiO2 
 PCOD8206763
Probable space group: P M M A
;
_chemical_formula_sum "Si O2"
_cell_formula_units_Z 64
_cell_length_a 8.966762
_cell_length_b 23.777775
_cell_length_c 18.974848
_cell_angle_alpha 90.000000
_cell_angle_beta 90.000000
_cell_angle_gamma 90.000000
_cell_volume 4045.620688
_symmetry_space_group_name_H-M "P M M A"
_symmetry_group_IT_number 51
_symmetry_cell_setting 'orthorhombic'
loop_
_space_group_symop_operation_xyz
x,y,z
1/2-x,-y,z
1/2+x,-y,-z
-x,y,-z
-x,-y,-z
1/2+x,y,-z
1/2-x,y,z
x,-y,z
loop_
_atom_site_type_symbol
_atom_site_label
_atom_site_fract_x
_atom_site_fract_y
_atom_site_fract_z
Si Si1 0.572732 0.727341 0.286517
Si Si2 0.076584 0.170072 0.210194
Si Si3 0.926844 0.061943 0.711795
Si Si4 0.426038 0.665745 0.164910
Si Si5 0.576249 0.882017 0.570406
Si Si6 0.579462 0.769206 0.928002
Si Si7 0.424572 0.563250 0.071981
Si Si8 0.425517 0.751179 0.427753
O O1 0.750000 0.725746 0.291600
O O2 0.520521 0.786889 0.255433
O O3 0.514869 0.676483 0.237077
O O4 0.501847 0.717867 0.363486
O O5 0.250000 0.180186 0.231180
O O6 0.025318 0.106472 0.227909
O O7 0.052257 0.179931 0.127074
O O8 0.750000 0.058747 0.708113
O O9 0.988136 0.083160 0.636465
O O10 0.993248 0.000000 0.729024
O O11 0.250000 0.672336 0.179821
O O12 0.478594 0.711283 0.106686
O O13 0.469698 0.604168 0.136095
O O14 0.500000 0.905288 0.500000
O O15 0.750000 0.891769 0.561297
O O16 0.538819 0.816853 0.582966
O O17 0.750000 0.762114 0.947748
O O18 0.500000 0.784541 0.000000
O O19 0.250000 0.566383 0.058281
O O20 0.476022 0.500000 0.091857
O O21 0.500000 0.583859 0.000000
O O22 0.500000 0.729493 0.500000
O O23 0.250000 0.738727 0.429573
#
# Coordination Sequence:
#
# PCOD8206763 Si02
#       8
#     8   8   8   8   8   8   8   8
#     4  11  20  29  45  68  90 117 152 189 228 271
#     4   9  17  32  47  62  85 113 141 178 226 273
#     4   9  16  28  47  65  80 106 146 183 215 261
#     4   9  18  31  45  64  93 126 155 189 227 264
#     4   9  17  28  43  62  84 111 140 174 211 253
#     4   9  17  27  43  63  85 111 141 177 223 268
#     4   9  17  29  46  68  96 132 169 199 229 267
#     4  10  18  30  46  65  91 121 149 183 223 270
#
# _framework density 15.819573999999999
#
# number of rings (size 3 to 8) (size 9 to 14) (size 15 to 20)
#    0.000    2.625    1.250    2.625    0.000    3.250 
#    0.000    0.000    0.000    1.500    0.000    0.000 
#    0.000    0.500    0.000    1.375    0.000    2.250 
#
# Total GULP energy -793445.714791 kJ/mol
# GULP energy per Si atom -12397.589294 kJ/mol
# Density = 1.578357 g / cm^3
# Si number density = 15.819574 Si / 1000 Ang^3
#
#
#
# Elastic Constant Matrix: (Units=GPa)
#
#
# Indices 1 2 3 4 5 6 
#
# 1 58.5021 27.7318 47.9131 0.0000 0.0000 0.0000
# 2 27.7318 88.2475 57.9317 0.0000 0.0000 0.0000
# 3 47.9131 57.9317 125.0568 0.0000 0.0000 0.0000
# 4 0.0000 0.0000 0.0000 24.1447 0.0000 0.0000
# 5 0.0000 0.0000 0.0000 0.0000 29.5082 0.0000
# 6 0.0000 0.0000 0.0000 0.0000 0.0000 12.3571
#
#
#
# Elastic Compliance Matrix: (Units=1/GPa)
#
#
# Indices 1 2 3 4 5 6 
#
# 1 0.025223 -0.002274 -0.008610 0.000000 0.000000 0.000000
# 2 -0.002274 0.016489 -0.006767 0.000000 0.000000 0.000000
# 3 -0.008610 -0.006767 0.014430 0.000000 0.000000 0.000000
# 4 0.000000 0.000000 0.000000 0.041417 0.000000 0.000000
# 5 0.000000 0.000000 0.000000 0.000000 0.033889 0.000000
# 6 0.000000 0.000000 0.000000 0.000000 0.000000 0.080925
#
#
# Mechanical properties :
#
#
# Convention : Reuss Voigt Hill
#
# Bulk Modulus (GPa) = 47.98649 59.88439 53.93544
# Shear Modulus (GPa) = 19.63694 22.41733 21.02714
#
# Velocity S-wave (km/s) = 3.52704 3.76847 3.64975
# Velocity P-wave (km/s) = 6.85464 7.54135 7.20618
#
# Compressibility (1/GPa) = 0.02083920
#
# Stress axis : x y z
#
# Youngs Moduli (GPa) = 39.64595 60.64754 69.29969
#
# Poissons Ratio (x) = 0.13791 0.59670
# Poissons Ratio (y) = 0.09015 0.46896
# Poissons Ratio (z) = 0.34137 0.41041
#
# Static dielectric constant tensor:
#      x y z
#    x 2.870040 0.000000 0.000000 
#    y 0.000000 3.011910 0.000000 
#    z 0.000000 0.000000 3.093460 
# 
# 
# High freq. dielectric constant tensor:
#      x y z
#    x 1.596170 0.000000 0.000000 
#    y 0.000000 1.577300 0.000000 
#    z 0.000000 0.000000 1.606160 
# 
# From -- ./inp_files/28704.got.cif
#   From: 2010.03.12/outbox.cif.g09.slc.cpg/sg51_15_cif.got.tgz:28704.got - 2010.04.16 13:43:02.
