data_PCOD8206102
_publ_section_title
;
Structure prediction by ZEFSAII (Michael W. Deem and Ramdas Pophale) SiO2 
 PCOD8206102
Probable space group: P M M A
;
_chemical_formula_sum "Si O2"
_cell_formula_units_Z 64
_cell_length_a 8.943118
_cell_length_b 14.481223
_cell_length_c 31.014718
_cell_angle_alpha 90.000000
_cell_angle_beta 90.000000
_cell_angle_gamma 90.000000
_cell_volume 4016.631957
_symmetry_space_group_name_H-M "P M M A"
_symmetry_group_IT_number 51
_symmetry_cell_setting 'orthorhombic'
loop_
_space_group_symop_operation_xyz
x,y,z
1/2-x,-y,z
1/2+x,-y,-z
-x,y,-z
-x,-y,-z
1/2+x,y,-z
1/2-x,y,z
x,-y,z
loop_
_atom_site_type_symbol
_atom_site_label
_atom_site_fract_x
_atom_site_fract_y
_atom_site_fract_z
Si Si1 0.072565 0.710119 0.622497
Si Si2 0.072637 0.396604 0.707268
Si Si3 0.927242 0.100948 0.244024
Si Si4 0.427220 0.100937 0.659495
Si Si5 0.418144 0.609797 0.957809
Si Si6 0.426281 0.393941 0.129350
Si Si7 0.074347 0.605758 0.455285
Si Si8 0.427382 0.290459 0.792244
O O1 0.250000 0.700082 0.616195
O O2 0.016059 0.655041 0.664555
O O3 0.020441 0.816853 0.628016
O O4 0.989510 0.671542 0.581225
O O5 0.250000 0.398306 0.707229
O O6 0.006299 0.500000 0.707436
O O7 0.016310 0.344376 0.749851
O O8 0.750000 0.104308 0.247227
O O9 0.991890 0.116326 0.292268
O O10 0.979346 0.183531 0.212679
O O11 0.979620 0.000000 0.226361
O O12 0.250000 0.104522 0.662720
O O13 0.479428 0.000000 0.641834
O O14 0.250000 0.648981 0.956217
O O15 0.417117 0.500000 0.960300
O O16 0.505506 0.642719 0.915381
O O17 0.500000 0.650699 0.000000
O O18 0.250000 0.383415 0.126581
O O19 0.473450 0.500000 0.138014
O O20 0.489606 0.330799 0.166875
O O21 0.250000 0.620109 0.459423
O O22 0.033140 0.500000 0.443996
O O23 0.000000 0.635717 0.500000
O O24 0.250000 0.300706 0.798605
#
# Coordination Sequence:
#
# PCOD8206102 Si02
#       8
#     8   8   8   8   8   8   8   8
#     4  10  17  28  48  72  94 119 150 184 223 266
#     4   9  16  24  37  61  90 118 150 185 216 252
#     4   8  13  23  41  65  90 114 147 192 232 264
#     4   8  13  23  42  69  96 118 146 185 225 265
#     4   9  16  27  44  64  85 112 149 192 233 272
#     4  10  20  31  41  57  86 124 160 192 229 271
#     4  10  21  36  52  70  92 118 147 181 222 266
#     4  10  17  27  43  63  87 119 156 190 224 264
#
# _framework density 15.933748
#
# number of rings (size 3 to 8) (size 9 to 14) (size 15 to 20)
#    0.000    2.750    1.250    2.625    0.000    4.000 
#    0.000    0.625    0.000    3.375    0.000    1.750 
#    0.000    0.500    0.000    1.375    0.000    2.000 
#
# Total GULP energy -793289.620238 kJ/mol
# GULP energy per Si atom -12395.150316 kJ/mol
# Density = 1.589748 g / cm^3
# Si number density = 15.933748 Si / 1000 Ang^3
#
#
#
# Elastic Constant Matrix: (Units=GPa)
#
#
# Indices 1 2 3 4 5 6 
#
# 1 49.0879 33.6499 43.4105 0.0000 0.0000 0.0000
# 2 33.6499 122.2872 73.6573 0.0000 0.0000 0.0000
# 3 43.4105 73.6573 136.4118 0.0000 0.0000 0.0000
# 4 0.0000 0.0000 0.0000 7.9419 0.0000 0.0000
# 5 0.0000 0.0000 0.0000 0.0000 24.8206 0.0000
# 6 0.0000 0.0000 0.0000 0.0000 0.0000 11.5760
#
#
#
# Elastic Compliance Matrix: (Units=1/GPa)
#
#
# Indices 1 2 3 4 5 6 
#
# 1 0.029403 -0.003638 -0.007393 0.000000 0.000000 0.000000
# 2 -0.003638 0.012569 -0.005629 0.000000 0.000000 0.000000
# 3 -0.007393 -0.005629 0.012723 0.000000 0.000000 0.000000
# 4 0.000000 0.000000 0.000000 0.125914 0.000000 0.000000
# 5 0.000000 0.000000 0.000000 0.000000 0.040289 0.000000
# 6 0.000000 0.000000 0.000000 0.000000 0.000000 0.086385
#
#
# Mechanical properties :
#
#
# Convention : Reuss Voigt Hill
#
# Bulk Modulus (GPa) = 46.78254 67.69138 57.23696
# Shear Modulus (GPa) = 14.37904 19.33898 16.85901
#
# Velocity S-wave (km/s) = 3.00730 3.48762 3.25633
# Velocity P-wave (km/s) = 6.44072 7.66767 7.08082
#
# Compressibility (1/GPa) = 0.02137549
#
# Stress axis : x y z
#
# Youngs Moduli (GPa) = 34.01001 79.55971 78.59918
#
# Poissons Ratio (x) = 0.28945 0.58105
# Poissons Ratio (y) = 0.12373 0.44244
# Poissons Ratio (z) = 0.25142 0.44785
#
# Static dielectric constant tensor:
#      x y z
#    x 2.739670 0.000000 0.000000 
#    y 0.000000 3.254030 0.000000 
#    z 0.000000 0.000000 3.004770 
# 
# 
# High freq. dielectric constant tensor:
#      x y z
#    x 1.582960 0.000000 0.000000 
#    y 0.000000 1.598690 0.000000 
#    z 0.000000 0.000000 1.602960 
# 
# From -- ./inp_files/37590.got.cif
#   From: 2010.03.12/outbox.cif.g09.slc.cpg/sg51_19_cif.got.tgz:37590.got - 2010.04.16 13:43:02.
