data_PCOD8206281
_publ_section_title
;
Structure prediction by ZEFSAII (Michael W. Deem and Ramdas Pophale) SiO2 
 PCOD8206281
Probable space group: P M M A
;
_chemical_formula_sum "Si O2"
_cell_formula_units_Z 64
_cell_length_a 8.874809
_cell_length_b 26.478645
_cell_length_c 18.496900
_cell_angle_alpha 90.000000
_cell_angle_beta 90.000000
_cell_angle_gamma 90.000000
_cell_volume 4346.640486
_symmetry_space_group_name_H-M "P M M A"
_symmetry_group_IT_number 51
_symmetry_cell_setting 'orthorhombic'
loop_
_space_group_symop_operation_xyz
x,y,z
1/2-x,-y,z
1/2+x,-y,-z
-x,y,-z
-x,-y,-z
1/2+x,y,-z
1/2-x,y,z
x,-y,z
loop_
_atom_site_type_symbol
_atom_site_label
_atom_site_fract_x
_atom_site_fract_y
_atom_site_fract_z
Si Si1 0.076821 0.735721 0.074234
Si Si2 0.927095 0.643907 0.158653
Si Si3 0.426215 0.441645 0.075373
Si Si4 0.922845 0.300393 0.297279
Si Si5 0.428794 0.056093 0.423489
Si Si6 0.578306 0.214690 0.784448
Si Si7 0.575661 0.848763 0.658148
Si Si8 0.072535 0.748495 0.422699
O O1 0.250000 0.722903 0.059218
O O2 0.060359 0.784195 0.128659
O O3 0.002882 0.686231 0.108461
O O4 0.000000 0.752004 0.000000
O O5 0.750000 0.644742 0.142649
O O6 0.959368 0.652173 0.244538
O O7 0.997811 0.589886 0.139656
O O8 0.250000 0.430108 0.071289
O O9 0.459831 0.500000 0.091849
O O10 0.500000 0.424784 0.000000
O O11 0.750000 0.300311 0.321567
O O12 0.955634 0.252223 0.247516
O O13 0.023361 0.297834 0.369895
O O14 0.500000 0.069826 0.500000
O O15 0.250000 0.058314 0.431219
O O16 0.494350 0.097572 0.366604
O O17 0.479502 0.000000 0.397949
O O18 0.750000 0.232223 0.763877
O O19 0.548523 0.160645 0.744658
O O20 0.750000 0.852265 0.639922
O O21 0.511987 0.801195 0.611971
O O22 0.250000 0.747781 0.431230
O O23 0.000000 0.739947 0.500000
#
# Coordination Sequence:
#
# PCOD8206281 Si02
#       8
#     8   8   8   8   8   8   8   8
#     4  10  18  27  40  57  78 103 130 160 194 233
#     4  10  19  30  44  60  80 107 136 165 196 232
#     4  10  20  32  45  61  82 108 138 171 202 231
#     4   9  17  28  41  58  79 102 130 163 196 231
#     4   9  16  25  37  53  74  99 126 158 192 225
#     4   8  15  27  40  53  72 100 129 158 193 231
#     4   8  14  25  39  54  73  99 131 161 192 230
#     4  10  18  27  40  57  79 106 134 164 196 232
#
# _framework density 14.724016000000001
#
# number of rings (size 3 to 8) (size 9 to 14) (size 15 to 20)
#    0.000    2.750    0.000    3.375    0.000    2.750 
#    0.000    2.500    0.000    0.000    0.000    0.000 
#    0.000    1.000    0.000    2.000    0.000    3.375 
#
# Total GULP energy -792944.951532 kJ/mol
# GULP energy per Si atom -12389.764868 kJ/mol
# Density = 1.469050 g / cm^3
# Si number density = 14.724016 Si / 1000 Ang^3
#
#
#
# Elastic Constant Matrix: (Units=GPa)
#
#
# Indices 1 2 3 4 5 6 
#
# 1 62.8727 31.2943 42.1637 0.0000 0.0000 0.0000
# 2 31.2943 76.5820 55.2312 0.0000 0.0000 0.0000
# 3 42.1637 55.2312 112.9571 0.0000 0.0000 0.0000
# 4 0.0000 0.0000 0.0000 28.7112 0.0000 0.0000
# 5 0.0000 0.0000 0.0000 0.0000 22.8410 0.0000
# 6 0.0000 0.0000 0.0000 0.0000 0.0000 12.8990
#
#
#
# Elastic Compliance Matrix: (Units=1/GPa)
#
#
# Indices 1 2 3 4 5 6 
#
# 1 0.022304 -0.004804 -0.005977 0.000000 0.000000 0.000000
# 2 -0.004804 0.021206 -0.008575 0.000000 0.000000 0.000000
# 3 -0.005977 -0.008575 0.015277 0.000000 0.000000 0.000000
# 4 0.000000 0.000000 0.000000 0.034830 0.000000 0.000000
# 5 0.000000 0.000000 0.000000 0.000000 0.043781 0.000000
# 6 0.000000 0.000000 0.000000 0.000000 0.000000 0.077525
#
#
# Mechanical properties :
#
#
# Convention : Reuss Voigt Hill
#
# Bulk Modulus (GPa) = 49.81408 56.64335 53.22871
# Shear Modulus (GPa) = 19.20665 21.13842 20.17253
#
# Velocity S-wave (km/s) = 3.61563 3.79310 3.70542
# Velocity P-wave (km/s) = 7.16489 7.59849 7.38487
#
# Compressibility (1/GPa) = 0.02007465
#
# Stress axis : x y z
#
# Youngs Moduli (GPa) = 44.83432 47.15723 65.45852
#
# Poissons Ratio (x) = 0.22655 0.39122
# Poissons Ratio (y) = 0.21539 0.56134
# Poissons Ratio (z) = 0.26796 0.40439
#
# Static dielectric constant tensor:
#      x y z
#    x 2.876350 0.000000 0.000000 
#    y 0.000000 2.868600 0.000000 
#    z 0.000000 0.000000 3.018150 
# 
# 
# High freq. dielectric constant tensor:
#      x y z
#    x 1.569110 0.000000 0.000000 
#    y 0.000000 1.527290 0.000000 
#    z 0.000000 0.000000 1.555470 
# 
# From -- ./inp_files/28700.got.cif
#   From: 2010.03.12/outbox.cif.g09.slc.cpg/sg51_15_cif.got.tgz:28700.got - 2010.04.16 13:43:02.
