data_PCOD8206629
_publ_section_title
;
Structure prediction by ZEFSAII (Michael W. Deem and Ramdas Pophale) SiO2 
 PCOD8206629
Probable space group: P M M A
;
_chemical_formula_sum "Si O2"
_cell_formula_units_Z 60
_cell_length_a 23.652130
_cell_length_b 29.363105
_cell_length_c 5.094330
_cell_angle_alpha 90.000000
_cell_angle_beta 90.000000
_cell_angle_gamma 90.000000
_cell_volume 3538.012066
_symmetry_space_group_name_H-M "P M M A"
_symmetry_group_IT_number 51
_symmetry_cell_setting 'orthorhombic'
loop_
_space_group_symop_operation_xyz
x,y,z
1/2-x,-y,z
1/2+x,-y,-z
-x,y,-z
-x,-y,-z
1/2+x,y,-z
1/2-x,y,z
x,-y,z
loop_
_atom_site_type_symbol
_atom_site_label
_atom_site_fract_x
_atom_site_fract_y
_atom_site_fract_z
Si Si1 0.879272 0.678783 0.602192
Si Si2 0.538470 0.500000 0.751611
Si Si3 0.562778 0.772899 0.599236
Si Si4 0.374317 0.798261 0.896192
Si Si5 0.182935 0.106075 0.939768
Si Si6 0.684615 0.704083 0.098918
Si Si7 0.039840 0.401459 0.251598
Si Si8 0.317218 0.051040 0.441547
O O1 0.925110 0.719109 0.595901
O O2 0.851800 0.675494 0.312693
O O3 0.910156 0.633819 0.703328
O O4 0.828989 0.686886 0.807701
O O5 0.500000 0.500000 0.500000
O O6 0.571369 0.548576 0.764265
O O7 0.500000 0.500000 0.000000
O O8 0.500000 0.781685 0.500000
O O9 0.574973 0.790661 0.893663
O O10 0.601930 0.800754 0.397945
O O11 0.342766 0.844251 0.967195
O O12 0.329022 0.757636 0.898430
O O13 0.250000 0.111174 0.937109
O O14 0.161549 0.075300 0.179149
O O15 0.159888 0.080798 0.682412
O O16 0.750000 0.696505 0.161500
O O17 0.000000 0.399558 0.500000
O O18 0.000000 0.390497 0.000000
O O19 0.250000 0.048440 0.450105
O O20 0.342440 0.000000 0.454778
#
# Coordination Sequence:
#
# PCOD8206629 Si02
#       8
#     8   4   8   8   8   8   8   8
#     4  10  20  31  49  72  91 126 163 189 234 285
#     4   8  16  28  44  68  97 126 149 186 242 290
#     4  10  20  33  47  66  95 122 150 192 233 271
#     4  10  20  32  48  69  92 122 159 187 225 278
#     4  10  18  29  46  67  94 124 151 182 219 266
#     4  10  20  34  48  67  96 126 161 201 231 264
#     4  10  18  30  48  72 101 125 154 194 238 291
#     4   9  17  28  43  65  94 124 149 178 222 271
#
# _framework density 16.958674999999999
#
# number of rings (size 3 to 8) (size 9 to 14) (size 15 to 20)
#    0.000    2.267    0.000    3.600    0.000    3.733 
#    0.000    4.000    0.000    0.000    0.000    2.800 
#    0.000   37.333    0.000    0.000    0.000    0.000 
#
# Total GULP energy -743645.162213 kJ/mol
# GULP energy per Si atom -12394.086037 kJ/mol
# Density = 1.692008 g / cm^3
# Si number density = 16.958675 Si / 1000 Ang^3
#
#
#
# Elastic Constant Matrix: (Units=GPa)
#
#
# Indices 1 2 3 4 5 6 
#
# 1 52.4481 38.1730 14.6237 0.0000 0.0000 0.0000
# 2 38.1730 105.3747 28.1133 0.0000 0.0000 0.0000
# 3 14.6237 28.1133 101.0757 0.0000 0.0000 0.0000
# 4 0.0000 0.0000 0.0000 21.2272 0.0000 0.0000
# 5 0.0000 0.0000 0.0000 0.0000 15.9714 0.0000
# 6 0.0000 0.0000 0.0000 0.0000 0.0000 17.7057
#
#
#
# Elastic Compliance Matrix: (Units=1/GPa)
#
#
# Indices 1 2 3 4 5 6 
#
# 1 0.026036 -0.009102 -0.001235 0.000000 0.000000 0.000000
# 2 -0.009102 0.013433 -0.002419 0.000000 0.000000 0.000000
# 3 -0.001235 -0.002419 0.010745 0.000000 0.000000 0.000000
# 4 0.000000 0.000000 0.000000 0.047109 0.000000 0.000000
# 5 0.000000 0.000000 0.000000 0.000000 0.062612 0.000000
# 6 0.000000 0.000000 0.000000 0.000000 0.000000 0.056479
#
#
# Mechanical properties :
#
#
# Convention : Reuss Voigt Hill
#
# Bulk Modulus (GPa) = 40.48523 46.74649 43.61586
# Shear Modulus (GPa) = 19.98717 22.84676 21.41697
#
# Velocity S-wave (km/s) = 3.43677 3.67441 3.55757
# Velocity P-wave (km/s) = 6.29867 6.75474 6.53069
#
# Compressibility (1/GPa) = 0.02470036
#
# Stress axis : x y z
#
# Youngs Moduli (GPa) = 38.40894 74.44510 93.06499
#
# Poissons Ratio (x) = 0.67761 0.11495
# Poissons Ratio (y) = 0.34960 0.22515
# Poissons Ratio (z) = 0.04744 0.18010
#
# Static dielectric constant tensor:
#      x y z
#    x 2.704790 0.000000 0.000000 
#    y 0.000000 2.470640 0.000000 
#    z 0.000000 0.000000 3.488000 
# 
# 
# High freq. dielectric constant tensor:
#      x y z
#    x 1.605920 0.000000 0.000000 
#    y 0.000000 1.654150 0.000000 
#    z 0.000000 0.000000 1.682440 
# 
# From -- ./inp_files/2648.got.cif
#   From: 2010.03.12/outbox.cif.g09.slc.cpg/sg51_2_cif.got.tgz:2648.got - 2010.04.16 13:43:02.
