data_PCOD8206037
_publ_section_title
;
Structure prediction by ZEFSAII (Michael W. Deem and Ramdas Pophale) SiO2 
 PCOD8206037
Probable space group: P M M A
;
_chemical_formula_sum "Si O2"
_cell_formula_units_Z 64
_cell_length_a 26.817663
_cell_length_b 8.903286
_cell_length_c 17.240403
_cell_angle_alpha 90.000000
_cell_angle_beta 90.000000
_cell_angle_gamma 90.000000
_cell_volume 4116.410400
_symmetry_space_group_name_H-M "P M M A"
_symmetry_group_IT_number 51
_symmetry_cell_setting 'orthorhombic'
loop_
_space_group_symop_operation_xyz
x,y,z
1/2-x,-y,z
1/2+x,-y,-z
-x,y,-z
-x,-y,-z
1/2+x,y,-z
1/2-x,y,z
x,-y,z
loop_
_atom_site_type_symbol
_atom_site_label
_atom_site_fract_x
_atom_site_fract_y
_atom_site_fract_z
Si Si1 0.963278 0.178178 0.323113
Si Si2 0.058976 0.833962 0.511358
Si Si3 0.383211 0.671907 0.208973
Si Si4 0.960428 0.176360 0.896244
Si Si5 0.393729 0.325365 0.983956
Si Si6 0.195402 0.675149 0.088399
Si Si7 0.557336 0.673460 0.168379
Si Si8 0.433572 0.328177 0.360916
O O1 0.932160 0.225355 0.400650
O O2 0.933331 0.238361 0.248563
O O3 0.019139 0.242453 0.325160
O O4 0.968230 0.000000 0.318642
O O5 0.083655 0.729996 0.445580
O O6 0.000000 0.837941 0.500000
O O7 0.081700 0.000000 0.501136
O O8 0.397945 0.500000 0.186944
O O9 0.421304 0.787779 0.171145
O O10 0.328529 0.707892 0.173659
O O11 0.386653 0.692583 0.302177
O O12 0.010232 0.265413 0.877635
O O13 0.971683 0.000000 0.899020
O O14 0.938913 0.230842 0.978626
O O15 0.401258 0.500000 0.006365
O O16 0.395636 0.304442 0.890451
O O17 0.341188 0.265930 0.019580
O O18 0.250000 0.754221 0.083451
O O19 0.203080 0.500000 0.076552
O O20 0.549032 0.500000 0.189205
O O21 0.449389 0.500000 0.369788
#
# Coordination Sequence:
#
# PCOD8206037 Si02
#       8
#     8   8   8   8   8   8   8   8
#     4  10  19  29  40  56  80 112 146 177 207 240
#     4   8  16  28  39  53  78 109 141 176 205 233
#     4   9  17  28  42  63  87 110 139 174 210 247
#     4  11  20  28  41  59  81 111 144 174 205 244
#     4   9  19  32  44  60  82 107 137 173 213 253
#     4   8  14  28  49  66  81 105 137 171 208 254
#     4  11  20  29  41  57  82 113 141 174 212 247
#     4  10  17  25  40  59  82 111 142 173 205 244
#
# _framework density 15.547526
#
# number of rings (size 3 to 8) (size 9 to 14) (size 15 to 20)
#    0.000    2.500    1.250    4.125    0.000    5.750 
#    0.000    0.000    0.000    6.000    0.000    0.000 
#    0.000    1.000    0.000   12.500    0.000    2.000 
#
# Total GULP energy -793010.296163 kJ/mol
# GULP energy per Si atom -12390.785878 kJ/mol
# Density = 1.551214 g / cm^3
# Si number density = 15.547526 Si / 1000 Ang^3
#
#
#
# Elastic Constant Matrix: (Units=GPa)
#
#
# Indices 1 2 3 4 5 6 
#
# 1 51.1451 12.5811 43.3966 0.0000 0.0000 0.0000
# 2 12.5811 57.5625 40.6668 0.0000 0.0000 0.0000
# 3 43.3966 40.6668 148.5596 0.0000 0.0000 0.0000
# 4 0.0000 0.0000 0.0000 24.9969 0.0000 0.0000
# 5 0.0000 0.0000 0.0000 0.0000 12.2153 0.0000
# 6 0.0000 0.0000 0.0000 0.0000 0.0000 1.3885
#
#
#
# Elastic Compliance Matrix: (Units=1/GPa)
#
#
# Indices 1 2 3 4 5 6 
#
# 1 0.026003 -0.000393 -0.007488 0.000000 0.000000 0.000000
# 2 -0.000393 0.021544 -0.005783 0.000000 0.000000 0.000000
# 3 -0.007488 -0.005783 0.010502 0.000000 0.000000 0.000000
# 4 0.000000 0.000000 0.000000 0.040005 0.000000 0.000000
# 5 0.000000 0.000000 0.000000 0.000000 0.081865 0.000000
# 6 0.000000 0.000000 0.000000 0.000000 0.000000 0.720190
#
#
# Mechanical properties :
#
#
# Convention : Reuss Voigt Hill
#
# Bulk Modulus (GPa) = 32.55170 50.06180 41.30675
# Shear Modulus (GPa) = 5.33234 18.42831 11.88033
#
# Velocity S-wave (km/s) = 1.85395 3.44654 2.76729
# Velocity P-wave (km/s) = 5.05621 6.93594 6.06929
#
# Compressibility (1/GPa) = 0.03072036
#
# Stress axis : x y z
#
# Youngs Moduli (GPa) = 38.45769 46.41750 95.22317
#
# Poissons Ratio (x) = 0.01824 0.71305
# Poissons Ratio (y) = 0.01511 0.55063
# Poissons Ratio (z) = 0.28798 0.26841
#
# Static dielectric constant tensor:
#      x y z
#    x 2.746220 0.000000 0.000000 
#    y 0.000000 2.938240 0.000000 
#    z 0.000000 0.000000 3.382910 
# 
# 
# High freq. dielectric constant tensor:
#      x y z
#    x 1.530140 0.000000 0.000000 
#    y 0.000000 1.594030 0.000000 
#    z 0.000000 0.000000 1.608210 
# 
# From -- ./inp_files/30971.got.cif
#   From: 2010.03.12/outbox.cif.g09.slc.cpg/sg51_16_cif.got.tgz:30971.got - 2010.04.16 13:43:02.
