data_PCOD8206807
_publ_section_title
;
Structure prediction by ZEFSAII (Michael W. Deem and Ramdas Pophale) SiO2 
 PCOD8206807
Probable space group: P M M A
;
_chemical_formula_sum "Si O2"
_cell_formula_units_Z 64
_cell_length_a 28.498957
_cell_length_b 8.775773
_cell_length_c 15.691750
_cell_angle_alpha 90.000000
_cell_angle_beta 90.000000
_cell_angle_gamma 90.000000
_cell_volume 3924.512597
_symmetry_space_group_name_H-M "P M M A"
_symmetry_group_IT_number 51
_symmetry_cell_setting 'orthorhombic'
loop_
_space_group_symop_operation_xyz
x,y,z
1/2-x,-y,z
1/2+x,-y,-z
-x,y,-z
-x,-y,-z
1/2+x,y,-z
1/2-x,y,z
x,-y,z
loop_
_atom_site_type_symbol
_atom_site_label
_atom_site_fract_x
_atom_site_fract_y
_atom_site_fract_z
Si Si1 0.644449 0.320330 0.663320
Si Si2 0.196192 0.319928 0.170833
Si Si3 0.953215 0.320038 0.591726
Si Si4 0.196798 0.679888 0.826494
Si Si5 0.138386 0.680811 0.663495
Si Si6 0.950048 0.819517 0.408449
Si Si7 0.805742 0.171819 0.001422
Si Si8 0.302678 0.318508 0.501502
O O1 0.652253 0.500000 0.662494
O O2 0.665374 0.253437 0.751058
O O3 0.589414 0.280236 0.655500
O O4 0.672534 0.251171 0.582860
O O5 0.250000 0.268799 0.185393
O O6 0.192376 0.500000 0.164527
O O7 0.174937 0.252458 0.083623
O O8 0.962734 0.500000 0.587485
O O9 0.939377 0.263516 0.497642
O O10 0.999057 0.232849 0.625984
O O11 0.250000 0.738774 0.810713
O O12 0.196743 0.500000 0.834145
O O13 0.164367 0.734899 0.749036
O O14 0.175153 0.746581 0.913676
O O15 0.130547 0.500000 0.661691
O O16 0.088450 0.765831 0.659947
O O17 0.169541 0.737975 0.584378
O O18 0.949402 0.000000 0.421135
O O19 0.750000 0.183458 0.001014
O O20 0.824031 0.000000 0.001835
O O21 0.250000 0.253775 0.505827
O O22 0.302225 0.500000 0.499620
#
# Coordination Sequence:
#
# PCOD8206807 Si02
#       8
#     8   8   8   8   8   8   8   8
#     4   9  16  26  44  71  94 117 151 190 232 270
#     4   9  16  27  45  69  95 121 152 190 226 265
#     4  10  18  32  51  68  88 117 155 199 239 276
#     4   9  17  29  47  71  95 120 155 197 234 269
#     4  10  18  30  47  69  93 122 156 190 230 274
#     4  11  21  32  46  66  91 121 156 195 236 276
#     4   9  17  29  44  63  90 125 159 190 228 271
#     4   9  15  24  41  66  94 121 152 187 220 261
#
# _framework density 16.307759000000001
#
# number of rings (size 3 to 8) (size 9 to 14) (size 15 to 20)
#    0.000    2.500    1.250    3.375    0.000    5.000 
#    0.000    1.250    0.000    1.125    0.000    0.875 
#    0.000    7.000    0.000    0.000    0.000    0.000 
#
# Total GULP energy -793502.653482 kJ/mol
# GULP energy per Si atom -12398.478961 kJ/mol
# Density = 1.627064 g / cm^3
# Si number density = 16.307759 Si / 1000 Ang^3
#
#
#
# Elastic Constant Matrix: (Units=GPa)
#
#
# Indices 1 2 3 4 5 6 
#
# 1 99.5272 24.5469 65.2490 0.0000 0.0000 0.0000
# 2 24.5469 35.4295 26.7530 0.0000 0.0000 0.0000
# 3 65.2490 26.7530 145.4400 0.0000 0.0000 0.0000
# 4 0.0000 0.0000 0.0000 7.5577 0.0000 0.0000
# 5 0.0000 0.0000 0.0000 0.0000 15.1565 0.0000
# 6 0.0000 0.0000 0.0000 0.0000 0.0000 10.6140
#
#
#
# Elastic Compliance Matrix: (Units=1/GPa)
#
#
# Indices 1 2 3 4 5 6 
#
# 1 0.015362 -0.006317 -0.005730 0.000000 0.000000 0.000000
# 2 -0.006317 0.035375 -0.003673 0.000000 0.000000 0.000000
# 3 -0.005730 -0.003673 0.010122 0.000000 0.000000 0.000000
# 4 0.000000 0.000000 0.000000 0.132316 0.000000 0.000000
# 5 0.000000 0.000000 0.000000 0.000000 0.065978 0.000000
# 6 0.000000 0.000000 0.000000 0.000000 0.000000 0.094215
#
#
# Mechanical properties :
#
#
# Convention : Reuss Voigt Hill
#
# Bulk Modulus (GPa) = 33.99108 57.05492 45.52300
# Shear Modulus (GPa) = 12.67062 17.58883 15.12972
#
# Velocity S-wave (km/s) = 2.79044 3.28770 3.04922
# Velocity P-wave (km/s) = 5.59203 7.03380 6.35394
#
# Compressibility (1/GPa) = 0.02941948
#
# Stress axis : x y z
#
# Youngs Moduli (GPa) = 65.09628 28.26842 98.79482
#
# Poissons Ratio (x) = 0.17856 0.56609
# Poissons Ratio (y) = 0.41119 0.36290
# Poissons Ratio (z) = 0.37300 0.10384
#
# Static dielectric constant tensor:
#      x y z
#    x 3.074770 0.000000 0.000000 
#    y 0.000000 2.830110 0.000000 
#    z 0.000000 0.000000 3.169020 
# 
# 
# High freq. dielectric constant tensor:
#      x y z
#    x 1.609920 0.000000 0.000000 
#    y 0.000000 1.606830 0.000000 
#    z 0.000000 0.000000 1.618010 
# 
# From -- ./inp_files/26613.got.cif
#   From: 2010.03.12/outbox.cif.g09.slc.cpg/sg51_14_cif.got.tgz:26613.got - 2010.04.16 13:43:02.
