data_PCOD8206052
_publ_section_title
;
Structure prediction by ZEFSAII (Michael W. Deem and Ramdas Pophale) SiO2 
 PCOD8206052
Probable space group: P M M A
;
_chemical_formula_sum "Si O2"
_cell_formula_units_Z 48
_cell_length_a 8.868283
_cell_length_b 20.592992
_cell_length_c 20.511528
_cell_angle_alpha 90.000000
_cell_angle_beta 90.000000
_cell_angle_gamma 90.000000
_cell_volume 3745.907153
_symmetry_space_group_name_H-M "P M M A"
_symmetry_group_IT_number 51
_symmetry_cell_setting 'orthorhombic'
loop_
_space_group_symop_operation_xyz
x,y,z
1/2-x,-y,z
1/2+x,-y,-z
-x,y,-z
-x,-y,-z
1/2+x,y,-z
1/2-x,y,z
x,-y,z
loop_
_atom_site_type_symbol
_atom_site_label
_atom_site_fract_x
_atom_site_fract_y
_atom_site_fract_z
Si Si1 0.083354 0.922938 0.809985
Si Si2 0.928853 0.174669 0.570713
Si Si3 0.070055 0.304232 0.572074
Si Si4 0.574082 0.429457 0.570376
Si Si5 0.917908 0.077457 0.936051
Si Si6 0.074047 0.075823 0.665089
O O1 0.250000 0.894030 0.818843
O O2 0.021537 0.904273 0.738345
O O3 0.984541 0.893769 0.868767
O O4 0.089665 0.000000 0.815264
O O5 0.750000 0.182818 0.564119
O O6 0.000000 0.162437 0.500000
O O7 0.002420 0.238936 0.604486
O O8 0.968125 0.113540 0.615276
O O9 0.250000 0.301771 0.571663
O O10 0.000000 0.306099 0.500000
O O11 0.010291 0.370069 0.608421
O O12 0.500000 0.435266 0.500000
O O13 0.750000 0.412498 0.563019
O O14 0.552906 0.500000 0.605829
O O15 0.750000 0.103450 0.940576
O O16 0.926908 0.000000 0.935241
O O17 0.000000 0.105213 0.000000
O O18 0.250000 0.093052 0.654775
O O19 0.046989 0.000000 0.652806
#
# Coordination Sequence:
#
# PCOD8206052 Si02
#       6
#     8   8   8   8   8   8
#     4   8  14  25  39  52  67  86 105 128 161 200
#     4  11  21  32  44  55  68  85 109 141 178 219
#     4  10  17  26  39  52  68  87 108 133 163 200
#     4   9  15  22  33  50  71  91 109 128 152 186
#     4   9  15  21  31  48  69  90 110 130 152 184
#     4   9  18  32  46  57  69  85 107 138 178 221
#
# _framework density 12.813986
#
# number of rings (size 3 to 8) (size 9 to 14) (size 15 to 20)
#    0.000    2.667    0.000    7.000    0.000    4.333 
#    0.000    1.667    0.000    0.000    0.000    0.000 
#    0.000    0.000    0.000    0.000    0.000    0.000 
#
# Total GULP energy -594662.600960 kJ/mol
# GULP energy per Si atom -12388.804187 kJ/mol
# Density = 1.278482 g / cm^3
# Si number density = 12.813986 Si / 1000 Ang^3
#
#
#
# Elastic Constant Matrix: (Units=GPa)
#
#
# Indices 1 2 3 4 5 6 
#
# 1 110.9613 37.0559 38.7675 0.0000 0.0000 0.0000
# 2 37.0559 58.3230 28.4827 0.0000 0.0000 0.0000
# 3 38.7675 28.4827 62.8819 0.0000 0.0000 0.0000
# 4 0.0000 0.0000 0.0000 0.0036 0.0000 0.0000
# 5 0.0000 0.0000 0.0000 0.0000 18.3369 0.0000
# 6 0.0000 0.0000 0.0000 0.0000 0.0000 17.4421
#
#
#
# Elastic Compliance Matrix: (Units=1/GPa)
#
#
# Indices 1 2 3 4 5 6 
#
# 1 0.012708 -0.005454 -0.005364 0.000000 0.000000 0.000000
# 2 -0.005454 0.024357 -0.007670 0.000000 0.000000 0.000000
# 3 -0.005364 -0.007670 0.022684 0.000000 0.000000 0.000000
# 4 0.000000 0.000000 0.000000276.234869 0.000000 0.000000
# 5 0.000000 0.000000 0.000000 0.000000 0.054535 0.000000
# 6 0.000000 0.000000 0.000000 0.000000 0.000000 0.057333
#
#
# Mechanical properties :
#
#
# Convention : Reuss Voigt Hill
#
# Bulk Modulus (GPa) = 43.91322 48.97539 46.44430
# Shear Modulus (GPa) = 0.01809 15.68051 7.84930
#
# Velocity S-wave (km/s) = 0.11893 3.50194 2.47767
# Velocity P-wave (km/s) = 5.86200 7.39288 6.67150
#
# Compressibility (1/GPa) = 0.02277219
#
# Stress axis : x y z
#
# Youngs Moduli (GPa) = 78.69248 41.05575 44.08415
#
# Poissons Ratio (x) = 0.22394 0.23646
# Poissons Ratio (y) = 0.42922 0.33813
# Poissons Ratio (z) = 0.42209 0.31490
#
# Static dielectric constant tensor:
#      x y z
#    x 2.749870 0.000000 0.000000 
#    y 0.000000 2.975060 0.000000 
#    z 0.000000 0.000000 2.416470 
# 
# 
# High freq. dielectric constant tensor:
#      x y z
#    x 1.503880 0.000000 0.000000 
#    y 0.000000 1.456860 0.000000 
#    z 0.000000 0.000000 1.443820 
# 
# From -- ./inp_files/28102.got.cif
#   From: 2010.03.12/outbox.cif.g09.slc.cpg/sg51_15_cif.got.tgz:28102.got - 2010.04.16 13:43:02.
