data_PCOD8206352
_publ_section_title
;
Structure prediction by ZEFSAII (Michael W. Deem and Ramdas Pophale) SiO2 
 PCOD8206352
Probable space group: P M M A
;
_chemical_formula_sum "Si O2"
_cell_formula_units_Z 64
_cell_length_a 13.852167
_cell_length_b 8.765218
_cell_length_c 32.087861
_cell_angle_alpha 90.000000
_cell_angle_beta 90.000000
_cell_angle_gamma 90.000000
_cell_volume 3896.020275
_symmetry_space_group_name_H-M "P M M A"
_symmetry_group_IT_number 51
_symmetry_cell_setting 'orthorhombic'
loop_
_space_group_symop_operation_xyz
x,y,z
1/2-x,-y,z
1/2+x,-y,-z
-x,y,-z
-x,-y,-z
1/2+x,y,-z
1/2-x,y,z
x,-y,z
loop_
_atom_site_type_symbol
_atom_site_label
_atom_site_fract_x
_atom_site_fract_y
_atom_site_fract_z
Si Si1 0.525816 0.818996 0.895224
Si Si2 0.859948 0.818695 0.816503
Si Si3 0.639174 0.180397 0.480871
Si Si4 0.138240 0.177407 0.023744
Si Si5 0.539410 0.320201 0.559076
Si Si6 0.364656 0.822810 0.363455
Si Si7 0.643507 0.180483 0.726832
Si Si8 0.859654 0.679379 0.061371
O O1 0.573527 0.750458 0.853177
O O2 0.587006 0.760998 0.934802
O O3 0.418616 0.751828 0.900232
O O4 0.521604 0.000000 0.893168
O O5 0.750000 0.758421 0.821383
O O6 0.905285 0.769314 0.770998
O O7 0.858624 0.000000 0.820336
O O8 0.750000 0.223508 0.470864
O O9 0.611663 0.241558 0.526457
O O10 0.569621 0.257570 0.446573
O O11 0.623458 0.000000 0.480224
O O12 0.250000 0.214058 0.030031
O O13 0.117705 0.000000 0.016936
O O14 0.097895 0.262003 0.982769
O O15 0.539682 0.500000 0.551520
O O16 0.576814 0.282357 0.604955
O O17 0.250000 0.793320 0.366853
O O18 0.404844 0.772069 0.317298
O O19 0.387238 0.000000 0.372621
O O20 0.750000 0.252317 0.727603
O O21 0.652796 0.000000 0.726045
O O22 0.750000 0.735602 0.066583
O O23 0.868466 0.500000 0.063016
#
# Coordination Sequence:
#
# PCOD8206352 Si02
#       8
#     8   8   8   8   8   8   8   8
#     4  10  18  27  44  68  88 108 135 168 208 251
#     4   8  13  23  41  67  95 115 134 165 207 256
#     4  10  20  34  50  65  86 119 156 192 227 263
#     4   9  17  29  44  63  87 111 134 163 202 248
#     4  11  21  30  44  67  94 122 151 186 226 266
#     4   9  16  27  44  65  90 121 155 186 214 250
#     4   7  11  21  39  63  89 116 143 172 208 249
#     4  10  21  34  44  55  76 109 146 180 211 242
#
# _framework density 16.427018
#
# number of rings (size 3 to 8) (size 9 to 14) (size 15 to 20)
#    0.000    2.750    0.000    5.250    0.000    7.000 
#    0.000    0.000    0.000    1.875    0.000    2.625 
#    0.000    3.000    0.000    0.000    0.000    0.000 
#
# Total GULP energy -793053.970926 kJ/mol
# GULP energy per Si atom -12391.468296 kJ/mol
# Density = 1.638963 g / cm^3
# Si number density = 16.427018 Si / 1000 Ang^3
#
#
#
# Elastic Constant Matrix: (Units=GPa)
#
#
# Indices 1 2 3 4 5 6 
#
# 1 74.9506 23.0206 56.0559 0.0000 0.0000 0.0000
# 2 23.0206 33.3823 22.5907 0.0000 0.0000 0.0000
# 3 56.0559 22.5907 138.2930 0.0000 0.0000 0.0000
# 4 0.0000 0.0000 0.0000 1.7177 0.0000 0.0000
# 5 0.0000 0.0000 0.0000 0.0000 23.0147 0.0000
# 6 0.0000 0.0000 0.0000 0.0000 0.0000 14.1095
#
#
#
# Elastic Compliance Matrix: (Units=1/GPa)
#
#
# Indices 1 2 3 4 5 6 
#
# 1 0.021855 -0.010205 -0.007192 0.000000 0.000000 0.000000
# 2 -0.010205 0.038444 -0.002144 0.000000 0.000000 0.000000
# 3 -0.007192 -0.002144 0.010496 0.000000 0.000000 0.000000
# 4 0.000000 0.000000 0.000000 0.582159 0.000000 0.000000
# 5 0.000000 0.000000 0.000000 0.000000 0.043451 0.000000
# 6 0.000000 0.000000 0.000000 0.000000 0.000000 0.070874
#
#
# Mechanical properties :
#
#
# Convention : Reuss Voigt Hill
#
# Bulk Modulus (GPa) = 31.53056 49.99558 40.76307
# Shear Modulus (GPa) = 6.12047 17.43230 11.77639
#
# Velocity S-wave (km/s) = 1.93234 3.26114 2.68039
# Velocity P-wave (km/s) = 4.92083 6.68439 5.86923
#
# Compressibility (1/GPa) = 0.03171526
#
# Stress axis : x y z
#
# Youngs Moduli (GPa) = 45.75570 26.01204 95.27128
#
# Poissons Ratio (x) = 0.26544 0.68518
# Poissons Ratio (y) = 0.46692 0.20422
# Poissons Ratio (z) = 0.32907 0.05576
#
# Static dielectric constant tensor:
#      x y z
#    x 3.038800 0.000000 0.000000 
#    y 0.000000 2.821380 0.000000 
#    z 0.000000 0.000000 3.449820 
# 
# 
# High freq. dielectric constant tensor:
#      x y z
#    x 1.607610 0.000000 0.000000 
#    y 0.000000 1.609680 0.000000 
#    z 0.000000 0.000000 1.631890 
# 
# From -- ./inp_files/37840.got.cif
#   From: 2010.03.12/outbox.cif.g09.slc.cpg/sg51_19_cif.got.tgz:37840.got - 2010.04.16 13:43:02.
