data_PCOD8206696
_publ_section_title
;
Structure prediction by ZEFSAII (Michael W. Deem and Ramdas Pophale) SiO2 
 PCOD8206696
Probable space group: P M M A
;
_chemical_formula_sum "Si O2"
_cell_formula_units_Z 48
_cell_length_a 8.824679
_cell_length_b 16.296771
_cell_length_c 18.327203
_cell_angle_alpha 90.000000
_cell_angle_beta 90.000000
_cell_angle_gamma 90.000000
_cell_volume 2635.704209
_symmetry_space_group_name_H-M "P M M A"
_symmetry_group_IT_number 51
_symmetry_cell_setting 'orthorhombic'
loop_
_space_group_symop_operation_xyz
x,y,z
1/2-x,-y,z
1/2+x,-y,-z
-x,y,-z
-x,-y,-z
1/2+x,y,-z
1/2-x,y,z
x,-y,z
loop_
_atom_site_type_symbol
_atom_site_label
_atom_site_fract_x
_atom_site_fract_y
_atom_site_fract_z
Si Si1 0.929003 0.406951 0.220029
Si Si2 0.075875 0.160784 0.423400
Si Si3 0.075336 0.675577 0.925484
Si Si4 0.069839 0.000000 0.080769
Si Si5 0.070289 0.000000 0.580171
Si Si6 0.924005 0.745656 0.719377
Si Si7 0.927656 0.158605 0.152175
O O1 0.750000 0.392756 0.227125
O O2 0.975588 0.500000 0.237952
O O3 0.984680 0.383405 0.138786
O O4 0.012345 0.346595 0.275899
O O5 0.250000 0.138409 0.439300
O O6 0.059276 0.233979 0.366015
O O7 0.000000 0.186481 0.500000
O O8 0.993961 0.083025 0.383999
O O9 0.250000 0.660559 0.936644
O O10 0.040158 0.770203 0.906718
O O11 0.000000 0.648426 0.000000
O O12 0.018275 0.079041 0.126397
O O13 0.250000 0.000000 0.073123
O O14 0.000000 0.000000 0.000000
O O15 0.000000 0.000000 0.500000
O O16 0.250000 0.000000 0.581604
O O17 0.750000 0.749044 0.744805
O O18 0.016554 0.810086 0.768948
O O19 0.750000 0.137739 0.157588
#
# Coordination Sequence:
#
# PCOD8206696 Si02
#       7
#     8   8   8   4   4   8   8
#     4   9  19  36  55  75 102 136 172 210 256 315
#     4  10  20  34  53  78 109 141 174 213 258 308
#     4   9  18  31  49  73 100 130 165 207 254 303
#     4  12  24  37  54  77 107 143 185 231 272 311
#     4  10  18  29  48  73 102 135 169 203 241 287
#     4  10  21  36  55  80 107 135 170 217 267 314
#     4  10  21  37  54  73 101 140 182 221 263 313
#
# _framework density 18.211452999999999
#
# number of rings (size 3 to 8) (size 9 to 14) (size 15 to 20)
#    0.000    2.167    0.000    5.500    0.000    8.667 
#    0.000    0.833    0.000    0.500    0.000    0.000 
#    0.000    0.000    0.000    0.000    0.000    0.000 
#
# Total GULP energy -595120.487464 kJ/mol
# GULP energy per Si atom -12398.343489 kJ/mol
# Density = 1.817000 g / cm^3
# Si number density = 18.211453 Si / 1000 Ang^3
#
#
#
# Elastic Constant Matrix: (Units=GPa)
#
#
# Indices 1 2 3 4 5 6 
#
# 1 115.4198 59.7232 48.3283 0.0000 0.0000 0.0000
# 2 59.7232 124.9842 52.0397 0.0000 0.0000 0.0000
# 3 48.3283 52.0397 87.8600 0.0000 0.0000 0.0000
# 4 0.0000 0.0000 0.0000 17.2902 0.0000 0.0000
# 5 0.0000 0.0000 0.0000 0.0000 29.6449 0.0000
# 6 0.0000 0.0000 0.0000 0.0000 0.0000 29.6832
#
#
#
# Elastic Compliance Matrix: (Units=1/GPa)
#
#
# Indices 1 2 3 4 5 6 
#
# 1 0.012728 -0.004204 -0.004511 0.000000 0.000000 0.000000
# 2 -0.004204 0.012008 -0.004800 0.000000 0.000000 0.000000
# 3 -0.004511 -0.004800 0.016707 0.000000 0.000000 0.000000
# 4 0.000000 0.000000 0.000000 0.057836 0.000000 0.000000
# 5 0.000000 0.000000 0.000000 0.000000 0.033733 0.000000
# 6 0.000000 0.000000 0.000000 0.000000 0.000000 0.033689
#
#
# Mechanical properties :
#
#
# Convention : Reuss Voigt Hill
#
# Bulk Modulus (GPa) = 69.38530 72.04962 70.71746
# Shear Modulus (GPa) = 25.18433 26.53519 25.85976
#
# Velocity S-wave (km/s) = 3.72275 3.82129 3.77234
# Velocity P-wave (km/s) = 7.52735 7.68885 7.60853
#
# Compressibility (1/GPa) = 0.01441228
#
# Stress axis : x y z
#
# Youngs Moduli (GPa) = 78.56560 83.27468 59.85678
#
# Poissons Ratio (x) = 0.35006 0.27004
# Poissons Ratio (y) = 0.33027 0.28733
# Poissons Ratio (z) = 0.35444 0.39975
#
# Static dielectric constant tensor:
#      x y z
#    x 3.465060 0.000000 0.000000 
#    y 0.000000 3.544960 0.000000 
#    z 0.000000 0.000000 3.240720 
# 
# 
# High freq. dielectric constant tensor:
#      x y z
#    x 1.717120 0.000000 0.000000 
#    y 0.000000 1.700330 0.000000 
#    z 0.000000 0.000000 1.690440 
# 
# From -- ./inp_files/27679.got.cif
#   From: 2010.03.12/outbox.cif.g09.slc.cpg/sg51_14_cif.got.tgz:27679.got - 2010.04.16 13:43:02.
