data_PCOD8206295
_publ_section_title
;
Structure prediction by ZEFSAII (Michael W. Deem and Ramdas Pophale) SiO2 
 PCOD8206295
Probable space group: P M M A
;
_chemical_formula_sum "Si O2"
_cell_formula_units_Z 64
_cell_length_a 18.380706
_cell_length_b 9.099746
_cell_length_c 25.980992
_cell_angle_alpha 90.000000
_cell_angle_beta 90.000000
_cell_angle_gamma 90.000000
_cell_volume 4345.574380
_symmetry_space_group_name_H-M "P M M A"
_symmetry_group_IT_number 51
_symmetry_cell_setting 'orthorhombic'
loop_
_space_group_symop_operation_xyz
x,y,z
1/2-x,-y,z
1/2+x,-y,-z
-x,y,-z
-x,-y,-z
1/2+x,y,-z
1/2-x,y,z
x,-y,z
loop_
_atom_site_type_symbol
_atom_site_label
_atom_site_fract_x
_atom_site_fract_y
_atom_site_fract_z
Si Si1 0.666471 0.331287 0.796862
Si Si2 0.833652 0.328342 0.498306
Si Si3 0.832021 0.827173 0.993722
Si Si4 0.410305 0.328025 0.098418
Si Si5 0.916209 0.672788 0.602319
Si Si6 0.665494 0.828689 0.693436
Si Si7 0.963003 0.162436 0.055426
Si Si8 0.457255 0.166036 0.553165
O O1 0.750000 0.305308 0.812914
O O2 0.653879 0.500000 0.780405
O O3 0.616389 0.286886 0.844766
O O4 0.643740 0.226840 0.749981
O O5 0.750000 0.278422 0.495102
O O6 0.843067 0.500000 0.487073
O O7 0.863143 0.289040 0.554900
O O8 0.878627 0.241105 0.454800
O O9 0.750000 0.781718 0.006861
O O10 0.880553 0.782613 0.043806
O O11 0.840677 0.000000 0.982925
O O12 0.856674 0.746053 0.942210
O O13 0.408316 0.500000 0.088254
O O14 0.493491 0.271946 0.092787
O O15 0.926189 0.500000 0.609177
O O16 0.881711 0.739557 0.653069
O O17 0.995900 0.743489 0.594640
O O18 0.750000 0.795983 0.682595
O O19 0.647392 0.000000 0.688910
O O20 0.963368 0.000000 0.080599
O O21 0.000000 0.157095 0.000000
O O22 0.500000 0.169292 0.500000
O O23 0.445955 0.000000 0.572945
#
# Coordination Sequence:
#
# PCOD8206295 Si02
#       8
#     8   8   8   8   8   8   8   8
#     4   9  18  31  43  56  78 107 137 168 201 238
#     4   9  17  28  42  61  84 111 143 173 202 243
#     4   9  17  28  41  57  79 108 139 168 199 238
#     4  10  18  27  41  60  81 106 136 169 204 240
#     4  10  18  29  45  61  81 112 144 171 204 245
#     4  10  20  31  43  61  83 106 136 174 209 240
#     4   8  15  27  40  55  77 105 135 165 198 238
#     4   9  17  28  41  59  83 109 138 173 209 242
#
# _framework density 14.727627999999999
#
# number of rings (size 3 to 8) (size 9 to 14) (size 15 to 20)
#    0.000    2.750    0.000    3.000    0.000    7.500 
#    0.000    1.250    0.000    0.000    0.000    0.000 
#    0.000    1.000    0.000    6.500    0.000    4.250 
#
# Total GULP energy -793484.575632 kJ/mol
# GULP energy per Si atom -12398.196494 kJ/mol
# Density = 1.469411 g / cm^3
# Si number density = 14.727628 Si / 1000 Ang^3
#
#
#
# Elastic Constant Matrix: (Units=GPa)
#
#
# Indices 1 2 3 4 5 6 
#
# 1 116.3513 50.6376 51.8762 0.0000 0.0000 0.0000
# 2 50.6376 75.8138 44.4338 0.0000 0.0000 0.0000
# 3 51.8762 44.4338 70.1512 0.0000 0.0000 0.0000
# 4 0.0000 0.0000 0.0000 21.5739 0.0000 0.0000
# 5 0.0000 0.0000 0.0000 0.0000 25.2396 0.0000
# 6 0.0000 0.0000 0.0000 0.0000 0.0000 24.1787
#
#
#
# Elastic Compliance Matrix: (Units=1/GPa)
#
#
# Indices 1 2 3 4 5 6 
#
# 1 0.014014 -0.005227 -0.007052 0.000000 0.000000 0.000000
# 2 -0.005227 0.022927 -0.010657 0.000000 0.000000 0.000000
# 3 -0.007052 -0.010657 0.026220 0.000000 0.000000 0.000000
# 4 0.000000 0.000000 0.000000 0.046352 0.000000 0.000000
# 5 0.000000 0.000000 0.000000 0.000000 0.039620 0.000000
# 6 0.000000 0.000000 0.000000 0.000000 0.000000 0.041359
#
#
# Mechanical properties :
#
#
# Convention : Reuss Voigt Hill
#
# Bulk Modulus (GPa) = 57.84044 61.80129 59.82087
# Shear Modulus (GPa) = 20.65023 21.88968 21.26996
#
# Velocity S-wave (km/s) = 3.74858 3.85944 3.80441
# Velocity P-wave (km/s) = 7.62198 7.86856 7.74625
#
# Compressibility (1/GPa) = 0.01728894
#
# Stress axis : x y z
#
# Youngs Moduli (GPa) = 71.35823 43.61629 38.13834
#
# Poissons Ratio (x) = 0.22797 0.26897
# Poissons Ratio (y) = 0.37297 0.40644
# Poissons Ratio (z) = 0.50325 0.46482
#
# Static dielectric constant tensor:
#      x y z
#    x 3.154160 0.000000 0.000000 
#    y 0.000000 2.953670 0.000000 
#    z 0.000000 0.000000 2.606480 
# 
# 
# High freq. dielectric constant tensor:
#      x y z
#    x 1.556390 0.000000 0.000000 
#    y 0.000000 1.574070 0.000000 
#    z 0.000000 0.000000 1.526320 
# 
# From -- ./inp_files/35922.got.cif
#   From: 2010.03.12/outbox.cif.g09.slc.cpg/sg51_18_cif.got.tgz:35922.got - 2010.04.16 13:43:02.
