data_PCOD8206815
_publ_section_title
;
Structure prediction by ZEFSAII (Michael W. Deem and Ramdas Pophale) SiO2 
 PCOD8206815
Probable space group: P M M A
;
_chemical_formula_sum "Si O2"
_cell_formula_units_Z 56
_cell_length_a 19.280186
_cell_length_b 12.768673
_cell_length_c 13.656913
_cell_angle_alpha 90.000000
_cell_angle_beta 90.000000
_cell_angle_gamma 90.000000
_cell_volume 3362.091488
_symmetry_space_group_name_H-M "P M M A"
_symmetry_group_IT_number 51
_symmetry_cell_setting 'orthorhombic'
loop_
_space_group_symop_operation_xyz
x,y,z
1/2-x,-y,z
1/2+x,-y,-z
-x,y,-z
-x,-y,-z
1/2+x,y,-z
1/2-x,y,z
x,-y,z
loop_
_atom_site_type_symbol
_atom_site_label
_atom_site_fract_x
_atom_site_fract_y
_atom_site_fract_z
Si Si1 0.101109 0.877455 0.206104
Si Si2 0.172028 0.242078 0.033430
Si Si3 0.934498 0.881473 0.431762
Si Si4 0.938525 0.619897 0.076464
Si Si5 0.673947 0.117046 0.149511
Si Si6 0.543159 0.217011 0.234623
Si Si7 0.327779 0.123677 0.407883
O O1 0.137968 0.797082 0.133246
O O2 0.129224 0.841969 0.312100
O O3 0.018509 0.858966 0.198337
O O4 0.116799 0.000000 0.183858
O O5 0.250000 0.285139 0.053810
O O6 0.128902 0.330232 0.975150
O O7 0.174821 0.139747 0.965838
O O8 0.952951 0.791402 0.352292
O O9 0.868431 0.840896 0.494284
O O10 0.000000 0.892050 0.500000
O O11 0.920844 0.000000 0.387755
O O12 0.921409 0.500000 0.099621
O O13 0.963434 0.670454 0.180724
O O14 0.000000 0.633475 0.000000
O O15 0.750000 0.138776 0.194981
O O16 0.619607 0.185133 0.205517
O O17 0.650207 0.000000 0.164466
O O18 0.250000 0.172627 0.407237
O O19 0.322477 0.000000 0.407299
#
# Coordination Sequence:
#
# PCOD8206815 Si02
#       7
#     8   8   8   8   8   8   8
#     4  11  19  29  48  77 111 144 174 204 244 304
#     4  10  20  33  50  75 102 134 171 207 256 310
#     4  10  18  30  47  70 103 138 170 203 240 295
#     4  10  21  39  57  74  99 129 169 223 270 309
#     4   9  18  30  43  66 103 139 168 202 242 293
#     4  11  20  32  52  76  98 135 176 213 258 308
#     4   9  18  30  45  69 102 141 177 206 241 286
#
# _framework density 16.656298
#
# number of rings (size 3 to 8) (size 9 to 14) (size 15 to 20)
#    0.000    2.000    2.857    2.143    0.000    2.286 
#    0.000    3.571    0.000    0.429    0.000    0.000 
#    0.000    2.286    0.000    0.000    0.000    0.000 
#
# Total GULP energy -693743.583734 kJ/mol
# GULP energy per Si atom -12388.278281 kJ/mol
# Density = 1.661839 g / cm^3
# Si number density = 16.656298 Si / 1000 Ang^3
#
#
#
# Elastic Constant Matrix: (Units=GPa)
#
#
# Indices 1 2 3 4 5 6 
#
# 1 67.1475 42.1374 24.0401 0.0000 0.0000 0.0000
# 2 42.1374 64.3517 47.1783 0.0000 0.0000 0.0000
# 3 24.0401 47.1783 96.5759 0.0000 0.0000 0.0000
# 4 0.0000 0.0000 0.0000 17.3525 0.0000 0.0000
# 5 0.0000 0.0000 0.0000 0.0000 28.2087 0.0000
# 6 0.0000 0.0000 0.0000 0.0000 0.0000 6.6129
#
#
#
# Elastic Compliance Matrix: (Units=1/GPa)
#
#
# Indices 1 2 3 4 5 6 
#
# 1 0.025774 -0.018966 0.002849 0.000000 0.000000 0.000000
# 2 -0.018966 0.038166 -0.013924 0.000000 0.000000 0.000000
# 3 0.002849 -0.013924 0.016447 0.000000 0.000000 0.000000
# 4 0.000000 0.000000 0.000000 0.057629 0.000000 0.000000
# 5 0.000000 0.000000 0.000000 0.000000 0.035450 0.000000
# 6 0.000000 0.000000 0.000000 0.000000 0.000000 0.151221
#
#
# Mechanical properties :
#
#
# Convention : Reuss Voigt Hill
#
# Bulk Modulus (GPa) = 49.24353 50.53184 49.88769
# Shear Modulus (GPa) = 12.77021 18.08275 15.42648
#
# Velocity S-wave (km/s) = 2.77192 3.29848 3.04660
# Velocity P-wave (km/s) = 6.31454 6.70153 6.51091
#
# Compressibility (1/GPa) = 0.02030723
#
# Stress axis : x y z
#
# Youngs Moduli (GPa) = 38.79851 26.20125 60.80089
#
# Poissons Ratio (x) = 0.49692 -0.17323
# Poissons Ratio (y) = 0.73584 0.84656
# Poissons Ratio (z) = -0.11054 0.36481
#
# Static dielectric constant tensor:
#      x y z
#    x 3.544590 0.000000 0.000000 
#    y 0.000000 2.951030 0.000000 
#    z 0.000000 0.000000 3.497270 
# 
# 
# High freq. dielectric constant tensor:
#      x y z
#    x 1.665270 0.000000 0.000000 
#    y 0.000000 1.587010 0.000000 
#    z 0.000000 0.000000 1.641140 
# 
# From -- ./inp_files/18260.got.cif
#   From: 2010.03.12/outbox.cif.g09.slc.cpg/sg51_10_cif.got.tgz:18260.got - 2010.04.16 13:43:02.
