data_PCOD8206556
_publ_section_title
;
Structure prediction by ZEFSAII (Michael W. Deem and Ramdas Pophale) SiO2 
 PCOD8206556
Probable space group: P M M A
;
_chemical_formula_sum "Si O2"
_cell_formula_units_Z 64
_cell_length_a 21.974837
_cell_length_b 9.044989
_cell_length_c 20.191562
_cell_angle_alpha 90.000000
_cell_angle_beta 90.000000
_cell_angle_gamma 90.000000
_cell_volume 4013.318456
_symmetry_space_group_name_H-M "P M M A"
_symmetry_group_IT_number 51
_symmetry_cell_setting 'orthorhombic'
loop_
_space_group_symop_operation_xyz
x,y,z
1/2-x,-y,z
1/2+x,-y,-z
-x,y,-z
-x,-y,-z
1/2+x,y,-z
1/2-x,y,z
x,-y,z
loop_
_atom_site_type_symbol
_atom_site_label
_atom_site_fract_x
_atom_site_fract_y
_atom_site_fract_z
Si Si1 0.819993 0.169838 0.641563
Si Si2 0.082574 0.174140 0.465708
Si Si3 0.408529 0.832779 0.114438
Si Si4 0.027488 0.330101 0.733850
Si Si5 0.037424 0.673734 0.585730
Si Si6 0.551600 0.833712 0.140086
Si Si7 0.110998 0.673330 0.244344
Si Si8 0.071607 0.333219 0.986917
O O1 0.750000 0.203151 0.626210
O O2 0.856166 0.208304 0.574488
O O3 0.841142 0.270892 0.701943
O O4 0.831242 0.000000 0.661912
O O5 0.087907 0.251408 0.538052
O O6 0.026759 0.247278 0.426770
O O7 0.070942 0.000000 0.474084
O O8 0.480227 0.827859 0.126442
O O9 0.374416 0.749942 0.174146
O O10 0.384482 0.000000 0.110535
O O11 0.393183 0.752365 0.045334
O O12 0.032999 0.500000 0.755222
O O13 0.056684 0.300271 0.661886
O O14 0.064649 0.236133 0.787870
O O15 0.956594 0.284253 0.731275
O O16 0.030811 0.500000 0.570423
O O17 0.586799 0.743925 0.083062
O O18 0.576522 0.000000 0.139649
O O19 0.119113 0.500000 0.234851
O O20 0.096129 0.500000 0.984481
O O21 0.000000 0.329924 0.000000
#
# Coordination Sequence:
#
# PCOD8206556 Si02
#       8
#     8   8   8   8   8   8   8   8
#     4  10  21  35  48  62  84 113 143 179 222 264
#     4  10  19  30  45  64  83 106 140 177 215 261
#     4   9  16  25  37  53  74 102 136 173 209 243
#     4   9  17  27  39  57  81 109 137 170 211 254
#     4  10  18  29  45  63  86 111 137 174 219 261
#     4   9  16  23  34  52  75 104 137 171 204 242
#     4  10  18  29  43  60  80 104 140 178 214 256
#     4   9  15  23  34  49  72 103 137 171 204 239
#
# _framework density 15.946902
#
# number of rings (size 3 to 8) (size 9 to 14) (size 15 to 20)
#    0.000    2.500    1.250    3.000    0.000    6.750 
#    0.000    0.000    0.000    0.000    0.000    0.000 
#    0.000    0.000    0.000    1.125    0.000   19.375 
#
# Total GULP energy -793507.474002 kJ/mol
# GULP energy per Si atom -12398.554281 kJ/mol
# Density = 1.591061 g / cm^3
# Si number density = 15.946902 Si / 1000 Ang^3
#
#
#
# Elastic Constant Matrix: (Units=GPa)
#
#
# Indices 1 2 3 4 5 6 
#
# 1 37.0297 27.6555 34.7073 0.0000 0.0000 0.0000
# 2 27.6555 124.9093 79.8388 0.0000 0.0000 0.0000
# 3 34.7073 79.8388 153.1462 0.0000 0.0000 0.0000
# 4 0.0000 0.0000 0.0000 34.9790 0.0000 0.0000
# 5 0.0000 0.0000 0.0000 0.0000 11.9852 0.0000
# 6 0.0000 0.0000 0.0000 0.0000 0.0000 10.5007
#
#
#
# Elastic Compliance Matrix: (Units=1/GPa)
#
#
# Indices 1 2 3 4 5 6 
#
# 1 0.035630 -0.004090 -0.005942 0.000000 0.000000 0.000000
# 2 -0.004090 0.012476 -0.005577 0.000000 0.000000 0.000000
# 3 -0.005942 -0.005577 0.010784 0.000000 0.000000 0.000000
# 4 0.000000 0.000000 0.000000 0.028589 0.000000 0.000000
# 5 0.000000 0.000000 0.000000 0.000000 0.083436 0.000000
# 6 0.000000 0.000000 0.000000 0.000000 0.000000 0.095232
#
#
# Mechanical properties :
#
#
# Convention : Reuss Voigt Hill
#
# Bulk Modulus (GPa) = 36.13997 66.60982 51.37489
# Shear Modulus (GPa) = 16.30842 23.01854 19.66348
#
# Velocity S-wave (km/s) = 3.20139 3.80340 3.51530
# Velocity P-wave (km/s) = 6.03134 7.81973 6.98303
#
# Compressibility (1/GPa) = 0.02767019
#
# Stress axis : x y z
#
# Youngs Moduli (GPa) = 28.06635 80.15247 92.73093
#
# Poissons Ratio (x) = 0.32786 0.55103
# Poissons Ratio (y) = 0.11480 0.51717
# Poissons Ratio (z) = 0.16678 0.44702
#
# Static dielectric constant tensor:
#      x y z
#    x 2.413210 0.000000 0.000000 
#    y 0.000000 3.193230 0.000000 
#    z 0.000000 0.000000 3.265410 
# 
# 
# High freq. dielectric constant tensor:
#      x y z
#    x 1.526570 0.000000 0.000000 
#    y 0.000000 1.631280 0.000000 
#    z 0.000000 0.000000 1.628660 
# 
# From -- ./inp_files/34126.got.cif
#   From: 2010.03.12/outbox.cif.g09.slc.cpg/sg51_18_cif.got.tgz:34126.got - 2010.04.16 13:43:02.
