data_PCOD8206096
_publ_section_title
;
Structure prediction by ZEFSAII (Michael W. Deem and Ramdas Pophale) SiO2 
 PCOD8206096
Probable space group: P M M A
;
_chemical_formula_sum "Si O2"
_cell_formula_units_Z 56
_cell_length_a 26.457283
_cell_length_b 9.207569
_cell_length_c 14.590773
_cell_angle_alpha 90.000000
_cell_angle_beta 90.000000
_cell_angle_gamma 90.000000
_cell_volume 3554.418214
_symmetry_space_group_name_H-M "P M M A"
_symmetry_group_IT_number 51
_symmetry_cell_setting 'orthorhombic'
loop_
_space_group_symop_operation_xyz
x,y,z
1/2-x,-y,z
1/2+x,-y,-z
-x,y,-z
-x,-y,-z
1/2+x,y,-z
1/2-x,y,z
x,-y,z
loop_
_atom_site_type_symbol
_atom_site_label
_atom_site_fract_x
_atom_site_fract_y
_atom_site_fract_z
Si Si1 0.538572 0.666769 0.623977
Si Si2 0.569996 0.172230 0.919662
Si Si3 0.625692 0.667606 0.769177
Si Si4 0.392500 0.833285 0.506118
Si Si5 0.307525 0.830253 0.369235
Si Si6 0.940766 0.832306 0.314070
Si Si7 0.042926 0.829459 0.884378
O O1 0.528521 0.500000 0.601524
O O2 0.576352 0.688458 0.707916
O O3 0.561883 0.738637 0.533566
O O4 0.486422 0.740572 0.647472
O O5 0.614584 0.254329 0.865745
O O6 0.515279 0.223841 0.881367
O O7 0.578155 0.000000 0.908416
O O8 0.572915 0.226723 0.025904
O O9 0.639099 0.500000 0.786264
O O10 0.673018 0.742801 0.719071
O O11 0.339040 0.787321 0.461056
O O12 0.392799 0.810592 0.617160
O O13 0.404038 0.000000 0.481477
O O14 0.250000 0.785566 0.389059
O O15 0.312805 0.000000 0.347037
O O16 0.928324 0.781934 0.209543
O O17 0.957773 0.000000 0.311652
O O18 0.040573 0.000000 0.896753
#
# Coordination Sequence:
#
# PCOD8206096 Si02
#       7
#     8   8   8   8   8   8   8
#     4  10  19  28  38  57  87 119 146 174 209 252
#     4   9  15  27  44  61  83 116 154 184 211 248
#     4  10  19  29  43  65  90 115 144 179 221 262
#     4   9  18  29  43  62  82 108 142 178 216 258
#     4   9  18  33  50  66  84 108 140 178 220 267
#     4  10  17  27  42  60  84 115 149 181 210 249
#     4   8  15  25  41  62  84 115 154 185 208 242
#
# _framework density 15.755039999999999
#
# number of rings (size 3 to 8) (size 9 to 14) (size 15 to 20)
#    0.000    2.714    1.429    2.143    0.000    3.714 
#    0.000    2.143    0.000    0.000    0.000    1.000 
#    0.000    5.714    0.000    0.143    0.000    0.429 
#
# Total GULP energy -694004.097741 kJ/mol
# GULP energy per Si atom -12392.930317 kJ/mol
# Density = 1.571918 g / cm^3
# Si number density = 15.755040 Si / 1000 Ang^3
#
#
#
# Elastic Constant Matrix: (Units=GPa)
#
#
# Indices 1 2 3 4 5 6 
#
# 1 65.7099 29.5115 51.1155 0.0000 0.0000 0.0000
# 2 29.5115 53.8065 40.4299 0.0000 0.0000 0.0000
# 3 51.1155 40.4299 140.2409 0.0000 0.0000 0.0000
# 4 0.0000 0.0000 0.0000 9.6994 0.0000 0.0000
# 5 0.0000 0.0000 0.0000 0.0000 13.4780 0.0000
# 6 0.0000 0.0000 0.0000 0.0000 0.0000 6.3214
#
#
#
# Elastic Compliance Matrix: (Units=1/GPa)
#
#
# Indices 1 2 3 4 5 6 
#
# 1 0.023866 -0.008366 -0.006287 0.000000 0.000000 0.000000
# 2 -0.008366 0.026657 -0.004636 0.000000 0.000000 0.000000
# 3 -0.006287 -0.004636 0.010759 0.000000 0.000000 0.000000
# 4 0.000000 0.000000 0.000000 0.103099 0.000000 0.000000
# 5 0.000000 0.000000 0.000000 0.000000 0.074195 0.000000
# 6 0.000000 0.000000 0.000000 0.000000 0.000000 0.158192
#
#
# Mechanical properties :
#
#
# Convention : Reuss Voigt Hill
#
# Bulk Modulus (GPa) = 44.04440 55.76344 49.90392
# Shear Modulus (GPa) = 11.28888 15.14646 13.21767
#
# Velocity S-wave (km/s) = 2.67970 3.10396 2.89960
# Velocity P-wave (km/s) = 6.13114 6.95104 6.55392
#
# Compressibility (1/GPa) = 0.02270436
#
# Stress axis : x y z
#
# Youngs Moduli (GPa) = 41.89979 37.51384 92.94967
#
# Poissons Ratio (x) = 0.31384 0.58438
# Poissons Ratio (y) = 0.35054 0.43087
# Poissons Ratio (z) = 0.26343 0.17390
#
# Static dielectric constant tensor:
#      x y z
#    x 2.719230 0.000000 0.000000 
#    y 0.000000 2.904240 0.000000 
#    z 0.000000 0.000000 3.370930 
# 
# 
# High freq. dielectric constant tensor:
#      x y z
#    x 1.556370 0.000000 0.000000 
#    y 0.000000 1.594890 0.000000 
#    z 0.000000 0.000000 1.612930 
# 
# From -- ./inp_files/26468.got.cif
#   From: 2010.03.12/outbox.cif.g09.slc.cpg/sg51_14_cif.got.tgz:26468.got - 2010.04.16 13:43:02.
