data_PCOD8206183
_publ_section_title
;
Structure prediction by ZEFSAII (Michael W. Deem and Ramdas Pophale) SiO2 
 PCOD8206183
Probable space group: P M M A
;
_chemical_formula_sum "Si O2"
_cell_formula_units_Z 64
_cell_length_a 18.628168
_cell_length_b 19.469795
_cell_length_c 10.098118
_cell_angle_alpha 90.000000
_cell_angle_beta 90.000000
_cell_angle_gamma 90.000000
_cell_volume 3662.452207
_symmetry_space_group_name_H-M "P M M A"
_symmetry_group_IT_number 51
_symmetry_cell_setting 'orthorhombic'
loop_
_space_group_symop_operation_xyz
x,y,z
1/2-x,-y,z
1/2+x,-y,-z
-x,y,-z
-x,-y,-z
1/2+x,y,-z
1/2-x,y,z
x,-y,z
loop_
_atom_site_type_symbol
_atom_site_label
_atom_site_fract_x
_atom_site_fract_y
_atom_site_fract_z
Si Si1 0.432715 0.925278 0.903380
Si Si2 0.932704 0.925913 0.403543
Si Si3 0.090991 0.292021 0.251175
Si Si4 0.585549 0.214437 0.491268
Si Si5 0.168393 0.578900 0.644104
Si Si6 0.421086 0.694097 0.749041
Si Si7 0.834477 0.423425 0.659680
Si Si8 0.914616 0.783738 0.008528
O O1 0.456221 0.910993 0.749859
O O2 0.384653 0.860433 0.954707
O O3 0.392408 0.000000 0.911026
O O4 0.500000 0.930213 0.000000
O O5 0.884337 0.862371 0.457747
O O6 0.000000 0.931492 0.500000
O O7 0.891720 0.000000 0.409650
O O8 0.116879 0.245620 0.374203
O O9 0.129117 0.365935 0.248795
O O10 0.006871 0.308724 0.252155
O O11 0.116416 0.246245 0.127367
O O12 0.500000 0.209105 0.500000
O O13 0.609931 0.264309 0.374909
O O14 0.250000 0.605505 0.662421
O O15 0.163485 0.500000 0.686031
O O16 0.113479 0.618705 0.740067
O O17 0.143250 0.588702 0.492533
O O18 0.391557 0.729755 0.880384
O O19 0.750000 0.417410 0.675837
O O20 0.859683 0.500000 0.703922
O O21 0.000000 0.790303 0.000000
#
# Coordination Sequence:
#
# PCOD8206183 Si02
#       8
#     8   8   8   8   8   8   8   8
#     4   9  16  25  37  56  88 130 163 187 230 287
#     4   9  16  24  36  58  90 127 161 194 232 274
#     4  10  19  30  47  70  95 125 158 192 232 280
#     4   9  16  25  40  63  89 120 155 193 230 267
#     4   9  18  32  50  72  96 121 151 192 237 277
#     4  10  17  30  47  68  96 122 156 191 233 275
#     4   9  18  33  51  71  95 120 150 192 239 283
#     4   9  18  29  42  64  95 129 156 192 236 273
#
# _framework density 17.474630999999999
#
# number of rings (size 3 to 8) (size 9 to 14) (size 15 to 20)
#    0.000    2.750    2.500    0.750    5.250    0.500 
#    0.000    2.500    0.000    3.750    0.000    0.000 
#    0.000    6.000    0.000    0.000    0.000    0.000 
#
# Total GULP energy -792841.874602 kJ/mol
# GULP energy per Si atom -12388.154291 kJ/mol
# Density = 1.743486 g / cm^3
# Si number density = 17.474631 Si / 1000 Ang^3
#
#
#
# Elastic Constant Matrix: (Units=GPa)
#
#
# Indices 1 2 3 4 5 6 
#
# 1 17.3668 26.8769 16.2999 0.0000 0.0000 0.0000
# 2 26.8769 161.4941 68.5025 0.0000 0.0000 0.0000
# 3 16.2999 68.5025 123.9917 0.0000 0.0000 0.0000
# 4 0.0000 0.0000 0.0000 25.9463 0.0000 0.0000
# 5 0.0000 0.0000 0.0000 0.0000 10.3549 0.0000
# 6 0.0000 0.0000 0.0000 0.0000 0.0000 2.4389
#
#
#
# Elastic Compliance Matrix: (Units=1/GPa)
#
#
# Indices 1 2 3 4 5 6 
#
# 1 0.079108 -0.011434 -0.004082 0.000000 0.000000 0.000000
# 2 -0.011434 0.009740 -0.003878 0.000000 0.000000 0.000000
# 3 -0.004082 -0.003878 0.010744 0.000000 0.000000 0.000000
# 4 0.000000 0.000000 0.000000 0.038541 0.000000 0.000000
# 5 0.000000 0.000000 0.000000 0.000000 0.096573 0.000000
# 6 0.000000 0.000000 0.000000 0.000000 0.000000 0.410014
#
#
# Mechanical properties :
#
#
# Convention : Reuss Voigt Hill
#
# Bulk Modulus (GPa) = 16.44646 58.46791 37.45719
# Shear Modulus (GPa) = 7.10452 20.49291 13.79872
#
# Velocity S-wave (km/s) = 2.01853 3.42822 2.81311
# Velocity P-wave (km/s) = 3.85547 7.01439 5.65978
#
# Compressibility (1/GPa) = 0.06080334
#
# Stress axis : x y z
#
# Youngs Moduli (GPa) = 12.64095 102.66848 93.07274
#
# Poissons Ratio (x) = 1.17391 0.37997
# Poissons Ratio (y) = 0.14454 0.36094
# Poissons Ratio (z) = 0.05161 0.39816
#
# Static dielectric constant tensor:
#      x y z
#    x 2.570570 0.000000 0.000000 
#    y 0.000000 3.866180 0.000000 
#    z 0.000000 0.000000 3.376870 
# 
# 
# High freq. dielectric constant tensor:
#      x y z
#    x 1.595000 0.000000 0.000000 
#    y 0.000000 1.703850 0.000000 
#    z 0.000000 0.000000 1.676550 
# 
# From -- ./inp_files/11246.got.cif
#   From: 2010.03.12/outbox.cif.g09.slc.cpg/sg51_6_cif.got.tgz:11246.got - 2010.04.16 13:43:02.
