data_PCOD8206136
_publ_section_title
;
Structure prediction by ZEFSAII (Michael W. Deem and Ramdas Pophale) SiO2 
 PCOD8206136
Probable space group: P M M A
;
_chemical_formula_sum "Si O2"
_cell_formula_units_Z 56
_cell_length_a 22.200605
_cell_length_b 9.063574
_cell_length_c 19.195643
_cell_angle_alpha 90.000000
_cell_angle_beta 90.000000
_cell_angle_gamma 90.000000
_cell_volume 3862.486363
_symmetry_space_group_name_H-M "P M M A"
_symmetry_group_IT_number 51
_symmetry_cell_setting 'orthorhombic'
loop_
_space_group_symop_operation_xyz
x,y,z
1/2-x,-y,z
1/2+x,-y,-z
-x,y,-z
-x,-y,-z
1/2+x,y,-z
1/2-x,y,z
x,-y,z
loop_
_atom_site_type_symbol
_atom_site_label
_atom_site_fract_x
_atom_site_fract_y
_atom_site_fract_z
Si Si1 0.109517 0.835624 0.162927
Si Si2 0.034497 0.172579 0.650079
Si Si3 0.479813 0.836697 0.801687
Si Si4 0.899020 0.173532 0.611631
Si Si5 0.521520 0.673427 0.924187
Si Si6 0.320916 0.668915 0.274342
Si Si7 0.930535 0.332485 0.479341
O O1 0.085682 0.752368 0.092759
O O2 0.161501 0.743540 0.200769
O O3 0.051856 0.847148 0.214802
O O4 0.133272 0.000000 0.144060
O O5 0.051651 0.216558 0.729994
O O6 0.077406 0.262747 0.597760
O O7 0.965288 0.215091 0.637886
O O8 0.044768 0.000000 0.636836
O O9 0.470822 0.725376 0.867113
O O10 0.456063 0.000000 0.822564
O O11 0.849920 0.246150 0.661354
O O12 0.890563 0.240671 0.534156
O O13 0.887376 0.000000 0.608740
O O14 0.530295 0.500000 0.919284
O O15 0.500000 0.724229 0.000000
O O16 0.250000 0.679523 0.282873
O O17 0.343333 0.500000 0.273753
O O18 0.907358 0.500000 0.477943
O O19 0.000000 0.321638 0.500000
#
# Coordination Sequence:
#
# PCOD8206136 Si02
#       7
#     8   8   8   8   8   8   8
#     4   9  17  29  42  57  76 104 137 171 204 238
#     4   9  15  25  38  54  74  99 131 162 198 240
#     4   8  15  25  38  55  76 102 132 164 197 232
#     4  10  17  28  42  54  72  99 131 168 203 237
#     4   9  16  25  39  59  81 106 134 164 201 243
#     4  11  22  32  43  59  79 106 140 178 214 244
#     4   9  17  25  35  54  75  97 126 160 200 243
#
# _framework density 14.498433
#
# number of rings (size 3 to 8) (size 9 to 14) (size 15 to 20)
#    0.857    1.857    1.429    1.714    0.000    5.143 
#    0.000    0.000    0.000    0.000    0.000    0.000 
#    0.000    0.000    0.000    1.286    0.000   22.143 
#
# Total GULP energy -693831.948225 kJ/mol
# GULP energy per Si atom -12389.856218 kJ/mol
# Density = 1.446543 g / cm^3
# Si number density = 14.498433 Si / 1000 Ang^3
#
#
#
# Elastic Constant Matrix: (Units=GPa)
#
#
# Indices 1 2 3 4 5 6 
#
# 1 26.3305 26.3636 25.0894 0.0000 0.0000 0.0000
# 2 26.3636 101.5521 61.0015 0.0000 0.0000 0.0000
# 3 25.0894 61.0015 118.0123 0.0000 0.0000 0.0000
# 4 0.0000 0.0000 0.0000 28.2154 0.0000 0.0000
# 5 0.0000 0.0000 0.0000 0.0000 14.3622 0.0000
# 6 0.0000 0.0000 0.0000 0.0000 0.0000 13.7050
#
#
#
# Elastic Compliance Matrix: (Units=1/GPa)
#
#
# Indices 1 2 3 4 5 6 
#
# 1 0.054247 -0.010377 -0.006169 0.000000 0.000000 0.000000
# 2 -0.010377 0.016267 -0.006202 0.000000 0.000000 0.000000
# 3 -0.006169 -0.006202 0.012991 0.000000 0.000000 0.000000
# 4 0.000000 0.000000 0.000000 0.035442 0.000000 0.000000
# 5 0.000000 0.000000 0.000000 0.000000 0.069627 0.000000
# 6 0.000000 0.000000 0.000000 0.000000 0.000000 0.072966
#
#
# Mechanical properties :
#
#
# Convention : Reuss Voigt Hill
#
# Bulk Modulus (GPa) = 26.30998 52.31154 39.31076
# Shear Modulus (GPa) = 15.63937 20.15256 17.89596
#
# Velocity S-wave (km/s) = 3.28791 3.73229 3.51713
# Velocity P-wave (km/s) = 5.70964 7.39814 6.60804
#
# Compressibility (1/GPa) = 0.03800839
#
# Stress axis : x y z
#
# Youngs Moduli (GPa) = 18.43412 61.47485 76.97553
#
# Poissons Ratio (x) = 0.63795 0.47485
# Poissons Ratio (y) = 0.19130 0.47742
# Poissons Ratio (z) = 0.11372 0.38128
#
# Static dielectric constant tensor:
#      x y z
#    x 2.266770 0.000000 0.000000 
#    y 0.000000 2.922040 0.000000 
#    z 0.000000 0.000000 2.867390 
# 
# 
# High freq. dielectric constant tensor:
#      x y z
#    x 1.478400 0.000000 0.000000 
#    y 0.000000 1.570340 0.000000 
#    z 0.000000 0.000000 1.554310 
# 
# From -- ./inp_files/34031.got.cif
#   From: 2010.03.12/outbox.cif.g09.slc.cpg/sg51_18_cif.got.tgz:34031.got - 2010.04.16 13:43:02.
