data_PCOD8206244
_publ_section_title
;
Structure prediction by ZEFSAII (Michael W. Deem and Ramdas Pophale) SiO2 
 PCOD8206244
Probable space group: P M M A
;
_chemical_formula_sum "Si O2"
_cell_formula_units_Z 64
_cell_length_a 9.001624
_cell_length_b 27.234570
_cell_length_c 18.085793
_cell_angle_alpha 90.000000
_cell_angle_beta 90.000000
_cell_angle_gamma 90.000000
_cell_volume 4433.829075
_symmetry_space_group_name_H-M "P M M A"
_symmetry_group_IT_number 51
_symmetry_cell_setting 'orthorhombic'
loop_
_space_group_symop_operation_xyz
x,y,z
1/2-x,-y,z
1/2+x,-y,-z
-x,y,-z
-x,-y,-z
1/2+x,y,-z
1/2-x,y,z
x,-y,z
loop_
_atom_site_type_symbol
_atom_site_label
_atom_site_fract_x
_atom_site_fract_y
_atom_site_fract_z
Si Si1 0.583734 0.299465 0.702887
Si Si2 0.927066 0.355244 0.421747
Si Si3 0.924241 0.750172 0.172006
Si Si4 0.424921 0.841962 0.920778
Si Si5 0.576805 0.051825 0.078060
Si Si6 0.576256 0.444296 0.656137
Si Si7 0.577433 0.345072 0.078091
Si Si8 0.913669 0.396061 0.800784
O O1 0.750000 0.283831 0.678165
O O2 0.483064 0.311926 0.632059
O O3 0.508799 0.255777 0.750077
O O4 0.590970 0.346593 0.754135
O O5 0.750000 0.354082 0.426917
O O6 0.000000 0.344194 0.500000
O O7 0.977670 0.409049 0.394571
O O8 0.750000 0.750628 0.189070
O O9 0.981718 0.800865 0.136118
O O10 0.964589 0.706727 0.115105
O O11 0.250000 0.835748 0.933238
O O12 0.466033 0.895764 0.884559
O O13 0.500000 0.834400 0.000000
O O14 0.750000 0.052608 0.062422
O O15 0.535354 0.000000 0.121097
O O16 0.500000 0.050362 0.000000
O O17 0.750000 0.430541 0.645276
O O18 0.543255 0.500000 0.632112
O O19 0.534016 0.438184 0.743215
O O20 0.750000 0.350801 0.064930
O O21 0.525199 0.390058 0.130578
O O22 0.500000 0.349019 0.000000
O O23 0.750000 0.408033 0.832617
#
# Coordination Sequence:
#
# PCOD8206244 Si02
#       8
#     8   8   8   8   8   8   8   8
#     4   9  17  30  46  62  80 104 132 159 190 230
#     4  11  21  33  49  68  90 112 134 159 185 217
#     4   9  17  27  38  55  78 103 130 162 203 245
#     4   9  16  24  34  50  74 102 135 176 217 253
#     4   8  13  21  32  45  63  92 131 173 214 252
#     4   9  18  33  51  69  88 109 132 158 190 227
#     4  10  18  26  38  55  75  98 125 159 197 237
#     4   8  15  28  44  60  78 100 125 153 187 228
#
# _framework density 14.434476999999999
#
# number of rings (size 3 to 8) (size 9 to 14) (size 15 to 20)
#    0.000    2.875    0.000    3.000    0.000    4.500 
#    0.000    0.000    0.000    0.375    0.000    0.000 
#    0.000    0.000    0.000    0.000    0.000    0.625 
#
# Total GULP energy -792945.117774 kJ/mol
# GULP energy per Si atom -12389.767465 kJ/mol
# Density = 1.440162 g / cm^3
# Si number density = 14.434477 Si / 1000 Ang^3
#
#
#
# Elastic Constant Matrix: (Units=GPa)
#
#
# Indices 1 2 3 4 5 6 
#
# 1 68.6273 25.3881 47.0618 0.0000 0.0000 0.0000
# 2 25.3881 69.8017 41.5087 0.0000 0.0000 0.0000
# 3 47.0618 41.5087 87.1318 0.0000 0.0000 0.0000
# 4 0.0000 0.0000 0.0000 11.7505 0.0000 0.0000
# 5 0.0000 0.0000 0.0000 0.0000 23.6319 0.0000
# 6 0.0000 0.0000 0.0000 0.0000 0.0000 12.8818
#
#
#
# Elastic Compliance Matrix: (Units=1/GPa)
#
#
# Indices 1 2 3 4 5 6 
#
# 1 0.023238 -0.001379 -0.011895 0.000000 0.000000 0.000000
# 2 -0.001379 0.020071 -0.008817 0.000000 0.000000 0.000000
# 3 -0.011895 -0.008817 0.022102 0.000000 0.000000 0.000000
# 4 0.000000 0.000000 0.000000 0.085103 0.000000 0.000000
# 5 0.000000 0.000000 0.000000 0.000000 0.042316 0.000000
# 6 0.000000 0.000000 0.000000 0.000000 0.000000 0.077629
#
#
# Mechanical properties :
#
#
# Convention : Reuss Voigt Hill
#
# Bulk Modulus (GPa) = 47.10259 50.38647 48.74453
# Shear Modulus (GPa) = 15.54164 17.09297 16.31731
#
# Velocity S-wave (km/s) = 3.28487 3.44492 3.36585
# Velocity P-wave (km/s) = 6.86222 7.12784 6.99629
#
# Compressibility (1/GPa) = 0.02123025
#
# Stress axis : x y z
#
# Youngs Moduli (GPa) = 43.03205 49.82347 45.24538
#
# Poissons Ratio (x) = 0.06870 0.53818
# Poissons Ratio (y) = 0.05934 0.39892
# Poissons Ratio (z) = 0.51186 0.43928
#
# Static dielectric constant tensor:
#      x y z
#    x 2.867420 0.000000 0.000000 
#    y 0.000000 3.150640 0.000000 
#    z 0.000000 0.000000 2.689160 
# 
# 
# High freq. dielectric constant tensor:
#      x y z
#    x 1.559920 0.000000 0.000000 
#    y 0.000000 1.532160 0.000000 
#    z 0.000000 0.000000 1.520170 
# 
# From -- ./inp_files/28662.got.cif
#   From: 2010.03.12/outbox.cif.g09.slc.cpg/sg51_15_cif.got.tgz:28662.got - 2010.04.16 13:43:02.
