data_PCOD8206000
_publ_section_title
;
Structure prediction by ZEFSAII (Michael W. Deem and Ramdas Pophale) SiO2 
 PCOD8206000
Probable space group: P M M A
;
_chemical_formula_sum "Si O2"
_cell_formula_units_Z 64
_cell_length_a 22.323794
_cell_length_b 9.067895
_cell_length_c 20.430007
_cell_angle_alpha 90.000000
_cell_angle_beta 90.000000
_cell_angle_gamma 90.000000
_cell_volume 4135.642639
_symmetry_space_group_name_H-M "P M M A"
_symmetry_group_IT_number 51
_symmetry_cell_setting 'orthorhombic'
loop_
_space_group_symop_operation_xyz
x,y,z
1/2-x,-y,z
1/2+x,-y,-z
-x,y,-z
-x,-y,-z
1/2+x,y,-z
1/2-x,y,z
x,-y,z
loop_
_atom_site_type_symbol
_atom_site_label
_atom_site_fract_x
_atom_site_fract_y
_atom_site_fract_z
Si Si1 0.414378 0.674314 0.538370
Si Si2 0.544903 0.672846 0.856743
Si Si3 0.076324 0.169804 0.881716
Si Si4 0.609066 0.167231 0.256518
Si Si5 0.969185 0.827631 0.727889
Si Si6 0.682818 0.324938 0.362939
Si Si7 0.960968 0.674532 0.597045
Si Si8 0.930793 0.836373 0.978792
O O1 0.416362 0.500000 0.542162
O O2 0.355287 0.735808 0.574937
O O3 0.415615 0.720441 0.461884
O O4 0.473066 0.731601 0.576409
O O5 0.552860 0.500000 0.847879
O O6 0.476758 0.714550 0.871708
O O7 0.564479 0.752725 0.789497
O O8 0.584852 0.726178 0.919148
O O9 0.122597 0.189459 0.821390
O O10 0.050947 0.000000 0.879298
O O11 0.105980 0.199593 0.953516
O O12 0.539928 0.208067 0.269981
O O13 0.653039 0.273596 0.295485
O O14 0.622141 0.000000 0.278310
O O15 0.940874 0.758942 0.662225
O O16 0.956012 0.000000 0.729809
O O17 0.750000 0.261580 0.368840
O O18 0.683448 0.500000 0.362298
O O19 0.959939 0.500000 0.609970
O O20 0.914985 0.000000 0.953913
O O21 0.000000 0.825399 0.000000
#
# Coordination Sequence:
#
# PCOD8206000 Si02
#       8
#     8   8   8   8   8   8   8   8
#     4   8  15  27  42  60  79  99 127 162 203 245
#     4  10  17  22  32  51  74 100 131 162 191 229
#     4   8  15  26  37  49  69  98 130 163 199 231
#     4   9  17  28  40  55  75 100 132 167 200 236
#     4  10  18  27  38  55  78 103 131 165 202 239
#     4  10  19  30  44  60  79 104 133 165 201 243
#     4   9  15  26  44  59  75 101 130 164 202 239
#     4   8  13  23  35  46  67  99 129 159 193 227
#
# _framework density 15.475224000000001
#
# number of rings (size 3 to 8) (size 9 to 14) (size 15 to 20)
#    0.000    3.000    1.250    3.750    0.000    4.500 
#    0.000    1.875    0.000    0.000    0.000    0.000 
#    0.000    0.000    0.000    1.125    0.000   16.625 
#
# Total GULP energy -792915.353953 kJ/mol
# GULP energy per Si atom -12389.302406 kJ/mol
# Density = 1.544000 g / cm^3
# Si number density = 15.475224 Si / 1000 Ang^3
#
#
#
# Elastic Constant Matrix: (Units=GPa)
#
#
# Indices 1 2 3 4 5 6 
#
# 1 38.9771 11.4722 33.9815 0.0000 0.0000 0.0000
# 2 11.4722 64.0480 51.4953 0.0000 0.0000 0.0000
# 3 33.9815 51.4953 164.0328 0.0000 0.0000 0.0000
# 4 0.0000 0.0000 0.0000 28.3128 0.0000 0.0000
# 5 0.0000 0.0000 0.0000 0.0000 10.0371 0.0000
# 6 0.0000 0.0000 0.0000 0.0000 0.0000 8.1536
#
#
#
# Elastic Compliance Matrix: (Units=1/GPa)
#
#
# Indices 1 2 3 4 5 6 
#
# 1 0.031325 -0.000526 -0.006324 0.000000 0.000000 0.000000
# 2 -0.000526 0.020894 -0.006450 0.000000 0.000000 0.000000
# 3 -0.006324 -0.006450 0.009431 0.000000 0.000000 0.000000
# 4 0.000000 0.000000 0.000000 0.035320 0.000000 0.000000
# 5 0.000000 0.000000 0.000000 0.000000 0.099630 0.000000
# 6 0.000000 0.000000 0.000000 0.000000 0.000000 0.122645
#
#
# Mechanical properties :
#
#
# Convention : Reuss Voigt Hill
#
# Bulk Modulus (GPa) = 28.53181 51.21733 39.87457
# Shear Modulus (GPa) = 13.98492 20.64130 17.31311
#
# Velocity S-wave (km/s) = 3.00942 3.65612 3.34842
# Velocity P-wave (km/s) = 5.52744 7.14081 6.38529
#
# Compressibility (1/GPa) = 0.03504860
#
# Stress axis : x y z
#
# Youngs Moduli (GPa) = 31.92385 47.86170 106.02890
#
# Poissons Ratio (x) = 0.02518 0.67054
# Poissons Ratio (y) = 0.01680 0.68391
# Poissons Ratio (z) = 0.20189 0.30872
#
# Static dielectric constant tensor:
#      x y z
#    x 2.520520 0.000000 0.000000 
#    y 0.000000 2.787390 0.000000 
#    z 0.000000 0.000000 3.536000 
# 
# 
# High freq. dielectric constant tensor:
#      x y z
#    x 1.505370 0.000000 0.000000 
#    y 0.000000 1.583550 0.000000 
#    z 0.000000 0.000000 1.619520 
# 
# From -- ./inp_files/34230.got.cif
#   From: 2010.03.12/outbox.cif.g09.slc.cpg/sg51_18_cif.got.tgz:34230.got - 2010.04.16 13:43:02.
