data_PCOD8206085
_publ_section_title
;
Structure prediction by ZEFSAII (Michael W. Deem and Ramdas Pophale) SiO2 
 PCOD8206085
Probable space group: P M M A
;
_chemical_formula_sum "Si O2"
_cell_formula_units_Z 48
_cell_length_a 19.467583
_cell_length_b 8.858851
_cell_length_c 15.495201
_cell_angle_alpha 90.000000
_cell_angle_beta 90.000000
_cell_angle_gamma 90.000000
_cell_volume 2672.308828
_symmetry_space_group_name_H-M "P M M A"
_symmetry_group_IT_number 51
_symmetry_cell_setting 'orthorhombic'
loop_
_space_group_symop_operation_xyz
x,y,z
1/2-x,-y,z
1/2+x,-y,-z
-x,y,-z
-x,-y,-z
1/2+x,y,-z
1/2-x,y,z
x,-y,z
loop_
_atom_site_type_symbol
_atom_site_label
_atom_site_fract_x
_atom_site_fract_y
_atom_site_fract_z
Si Si1 0.078839 0.678391 0.584337
Si Si2 0.330284 0.327144 0.900979
Si Si3 0.174375 0.678075 0.094752
Si Si4 0.582424 0.176658 0.242872
Si Si5 0.424790 0.172738 0.228295
Si Si6 0.069686 0.824302 0.418429
O O1 0.086423 0.500000 0.578262
O O2 0.113084 0.737472 0.672970
O O3 0.113752 0.754528 0.498372
O O4 0.000366 0.730622 0.585729
O O5 0.250000 0.310521 0.881043
O O6 0.353858 0.500000 0.886948
O O7 0.372099 0.217780 0.838925
O O8 0.346661 0.271875 0.998203
O O9 0.250000 0.744689 0.117824
O O10 0.178913 0.500000 0.096426
O O11 0.118202 0.729008 0.162554
O O12 0.503914 0.225777 0.224767
O O13 0.586186 0.000000 0.262118
O O14 0.393949 0.195662 0.325261
O O15 0.418476 0.000000 0.199384
O O16 0.053564 0.000000 0.435061
#
# Coordination Sequence:
#
# PCOD8206085 Si02
#       6
#     8   8   8   8   8   8
#     4  10  17  26  44  70  97 128 165 200 239 288
#     4   9  19  36  54  72  96 127 164 203 244 293
#     4   9  19  35  53  72  96 128 164 202 245 293
#     4  10  20  33  49  73 103 131 162 201 246 291
#     4   9  19  32  48  73 102 131 162 200 242 285
#     4   9  16  28  44  66  99 132 161 198 243 288
#
# _framework density 17.961997
#
# number of rings (size 3 to 8) (size 9 to 14) (size 15 to 20)
#    0.000    2.667    0.000    5.500    0.000    6.000 
#    0.000    5.000    0.000    1.000    0.000    4.667 
#    0.000    0.000    0.000    0.000    0.000    0.000 
#
# Total GULP energy -594874.864472 kJ/mol
# GULP energy per Si atom -12393.226343 kJ/mol
# Density = 1.792111 g / cm^3
# Si number density = 17.961997 Si / 1000 Ang^3
#
#
#
# Elastic Constant Matrix: (Units=GPa)
#
#
# Indices 1 2 3 4 5 6 
#
# 1 43.8730 24.0892 51.3889 0.0000 0.0000 0.0000
# 2 24.0892 70.4534 51.5095 0.0000 0.0000 0.0000
# 3 51.3889 51.5095 152.2670 0.0000 0.0000 0.0000
# 4 0.0000 0.0000 0.0000 37.2142 0.0000 0.0000
# 5 0.0000 0.0000 0.0000 0.0000 -12.0396 0.0000
# 6 0.0000 0.0000 0.0000 0.0000 0.0000 17.7199
#
#
#
# Elastic Compliance Matrix: (Units=1/GPa)
#
#
# Indices 1 2 3 4 5 6 
#
# 1 0.038938 -0.004923 -0.011476 0.000000 0.000000 0.000000
# 2 -0.004923 0.019480 -0.004928 0.000000 0.000000 0.000000
# 3 -0.011476 -0.004928 0.012108 0.000000 0.000000 0.000000
# 4 0.000000 0.000000 0.000000 0.026871 0.000000 0.000000
# 5 0.000000 0.000000 0.000000 0.000000 -0.083059 0.000000
# 6 0.000000 0.000000 0.000000 0.000000 0.000000 0.056434
#
#
# Mechanical properties :
#
#
# Convention : Reuss Voigt Hill
#
# Bulk Modulus (GPa) = 35.87970 57.84097 46.86034
# Shear Modulus (GPa) = 40.74408 17.88595 29.31502
#
# Velocity S-wave (km/s) = 4.76789 3.15900 4.04426
# Velocity P-wave (km/s) = 7.09430 6.75111 6.92483
#
# Compressibility (1/GPa) = 0.02787091
#
# Stress axis : x y z
#
# Youngs Moduli (GPa) = 25.68186 51.33389 82.59326
#
# Poissons Ratio (x) = 0.25274 0.94782
# Poissons Ratio (y) = 0.12644 0.40704
# Poissons Ratio (z) = 0.29472 0.25299
#
# Static dielectric constant tensor:
#      x y z
#    x 2.945790 0.000000 0.000000 
#    y 0.000000 3.220480 0.000000 
#    z 0.000000 0.000000 3.992880 
# 
# 
# High freq. dielectric constant tensor:
#      x y z
#    x 1.641260 0.000000 0.000000 
#    y 0.000000 1.697650 0.000000 
#    z 0.000000 0.000000 1.719720 
# 
# From -- ./inp_files/24737.got.cif
#   From: 2010.03.12/outbox.cif.g09.slc.cpg/sg51_13_cif.got.tgz:24737.got - 2010.04.16 13:43:02.
