data_PCOD8206092
_publ_section_title
;
Structure prediction by ZEFSAII (Michael W. Deem and Ramdas Pophale) SiO2 
 PCOD8206092
Probable space group: P M M A
;
_chemical_formula_sum "Si O2"
_cell_formula_units_Z 64
_cell_length_a 23.466785
_cell_length_b 8.907526
_cell_length_c 20.373593
_cell_angle_alpha 90.000000
_cell_angle_beta 90.000000
_cell_angle_gamma 90.000000
_cell_volume 4258.712468
_symmetry_space_group_name_H-M "P M M A"
_symmetry_group_IT_number 51
_symmetry_cell_setting 'orthorhombic'
loop_
_space_group_symop_operation_xyz
x,y,z
1/2-x,-y,z
1/2+x,-y,-z
-x,y,-z
-x,-y,-z
1/2+x,y,-z
1/2-x,y,z
x,-y,z
loop_
_atom_site_type_symbol
_atom_site_label
_atom_site_fract_x
_atom_site_fract_y
_atom_site_fract_z
Si Si1 0.579757 0.332119 0.044377
Si Si2 0.525739 0.675237 0.650787
Si Si3 0.813584 0.678375 0.293897
Si Si4 0.099173 0.675379 0.597630
Si Si5 0.436360 0.830791 0.473232
Si Si6 0.514593 0.177475 0.783817
Si Si7 0.895558 0.679794 0.181243
Si Si8 0.549437 0.670394 0.908394
O O1 0.601166 0.500000 0.032227
O O2 0.615869 0.262570 0.105612
O O3 0.515808 0.332157 0.070575
O O4 0.583967 0.256856 0.971484
O O5 0.536387 0.500000 0.661420
O O6 0.460262 0.710472 0.633357
O O7 0.567215 0.733686 0.593144
O O8 0.542538 0.763887 0.716603
O O9 0.750000 0.746637 0.297702
O O10 0.811722 0.500000 0.295634
O O11 0.850395 0.736054 0.355611
O O12 0.842421 0.730922 0.225651
O O13 0.104861 0.500000 0.582986
O O14 0.104851 0.760615 0.528394
O O15 0.500000 0.825515 0.500000
O O16 0.416703 0.000000 0.458254
O O17 0.452194 0.248297 0.789190
O O18 0.556072 0.227839 0.843733
O O19 0.509785 0.000000 0.783311
O O20 0.904344 0.500000 0.182447
O O21 0.569602 0.500000 0.893066
#
# Coordination Sequence:
#
# PCOD8206092 Si02
#       8
#     8   8   8   8   8   8   8   8
#     4   7  11  20  37  52  65  90 128 162 187 221
#     4  10  17  27  41  56  74 102 132 160 190 233
#     4   9  16  26  42  62  79  98 132 174 205 228
#     4   9  16  27  41  56  73  99 131 162 195 234
#     4   9  17  27  39  57  77  97 122 159 197 233
#     4  11  19  24  34  54  78 102 127 159 194 230
#     4   9  15  27  41  53  70  99 133 164 198 233
#     4   8  13  23  35  49  68  95 127 157 186 223
#
# _framework density 15.028017
#
# number of rings (size 3 to 8) (size 9 to 14) (size 15 to 20)
#    0.000    3.000    1.250    3.375    0.000    2.000 
#    0.000    5.000    0.000    1.500    0.000    0.000 
#    0.000    0.000    0.000    1.125    0.000   24.250 
#
# Total GULP energy -792841.325566 kJ/mol
# GULP energy per Si atom -12388.145712 kJ/mol
# Density = 1.499381 g / cm^3
# Si number density = 15.028017 Si / 1000 Ang^3
#
#
#
# Elastic Constant Matrix: (Units=GPa)
#
#
# Indices 1 2 3 4 5 6 
#
# 1 41.6441 12.0527 45.8227 0.0000 0.0000 0.0000
# 2 12.0527 55.3449 42.6881 0.0000 0.0000 0.0000
# 3 45.8227 42.6881 154.1127 0.0000 0.0000 0.0000
# 4 0.0000 0.0000 0.0000 11.7873 0.0000 0.0000
# 5 0.0000 0.0000 0.0000 0.0000 14.4283 0.0000
# 6 0.0000 0.0000 0.0000 0.0000 0.0000 5.5803
#
#
#
# Elastic Compliance Matrix: (Units=1/GPa)
#
#
# Indices 1 2 3 4 5 6 
#
# 1 0.035701 0.000525 -0.010761 0.000000 0.000000 0.000000
# 2 0.000525 0.022985 -0.006523 0.000000 0.000000 0.000000
# 3 -0.010761 -0.006523 0.011495 0.000000 0.000000 0.000000
# 4 0.000000 0.000000 0.000000 0.084837 0.000000 0.000000
# 5 0.000000 0.000000 0.000000 0.000000 0.069308 0.000000
# 6 0.000000 0.000000 0.000000 0.000000 0.000000 0.179203
#
#
# Mechanical properties :
#
#
# Convention : Reuss Voigt Hill
#
# Bulk Modulus (GPa) = 27.27421 50.24763 38.76092
# Shear Modulus (GPa) = 11.12919 16.39504 13.76212
#
# Velocity S-wave (km/s) = 2.72428 3.30656 3.02944
# Velocity P-wave (km/s) = 5.29943 6.93443 6.17131
#
# Compressibility (1/GPa) = 0.03666467
#
# Stress axis : x y z
#
# Youngs Moduli (GPa) = 28.01011 43.50599 86.99444
#
# Poissons Ratio (x) = -0.02283 0.93611
# Poissons Ratio (y) = -0.01470 0.56745
# Poissons Ratio (z) = 0.30140 0.28378
#
# Static dielectric constant tensor:
#      x y z
#    x 2.511400 0.000000 0.000000 
#    y 0.000000 2.721360 0.000000 
#    z 0.000000 0.000000 3.437390 
# 
# 
# High freq. dielectric constant tensor:
#      x y z
#    x 1.494750 0.000000 0.000000 
#    y 0.000000 1.555880 0.000000 
#    z 0.000000 0.000000 1.599220 
# 
# From -- ./inp_files/30987.got.cif
#   From: 2010.03.12/outbox.cif.g09.slc.cpg/sg51_16_cif.got.tgz:30987.got - 2010.04.16 13:43:02.
