data_PCOD8206220
_publ_section_title
;
Structure prediction by ZEFSAII (Michael W. Deem and Ramdas Pophale) SiO2 
 PCOD8206220
Probable space group: P M M A
;
_chemical_formula_sum "Si O2"
_cell_formula_units_Z 44
_cell_length_a 13.613255
_cell_length_b 18.380154
_cell_length_c 8.937500
_cell_angle_alpha 90.000000
_cell_angle_beta 90.000000
_cell_angle_gamma 90.000000
_cell_volume 2236.285152
_symmetry_space_group_name_H-M "P M M A"
_symmetry_group_IT_number 51
_symmetry_cell_setting 'orthorhombic'
loop_
_space_group_symop_operation_xyz
x,y,z
1/2-x,-y,z
1/2+x,-y,-z
-x,y,-z
-x,-y,-z
1/2+x,y,-z
1/2-x,y,z
x,-y,z
loop_
_atom_site_type_symbol
_atom_site_label
_atom_site_fract_x
_atom_site_fract_y
_atom_site_fract_z
Si Si1 0.948794 0.724622 0.146061
Si Si2 0.903546 0.884816 0.061480
Si Si3 0.086475 0.674543 0.400844
Si Si4 0.750000 0.678402 0.045039
Si Si5 0.750000 0.077870 0.297226
Si Si6 0.750000 0.414284 0.762465
Si Si7 0.250000 0.174745 0.144084
Si Si8 0.250000 0.216729 0.481825
O O1 0.932382 0.809671 0.137837
O O2 0.843903 0.682157 0.156874
O O3 0.025636 0.717622 0.278049
O O4 0.000000 0.691495 0.000000
O O5 0.844504 0.926990 0.188932
O O6 0.843356 0.870177 0.910418
O O7 0.000000 0.927293 0.000000
O O8 0.153633 0.613841 0.324120
O O9 0.152652 0.732411 0.496266
O O10 0.000000 0.637402 0.500000
O O11 0.750000 0.607743 0.938048
O O12 0.750000 0.744928 0.927466
O O13 0.750000 0.151202 0.397007
O O14 0.750000 0.000000 0.387705
O O15 0.750000 0.500000 0.754191
O O16 0.250000 0.179221 0.321077
#
# Coordination Sequence:
#
# PCOD8206220 Si02
#       8
#     8   8   8   4   4   4   4   4
#     4  10  17  32  62  92 115 139 194 253 295 332
#     4   9  18  33  58  84 108 144 190 246 289 343
#     4  11  22  36  60  89 114 155 203 248 290 346
#     4  10  17  34  58  89 120 149 190 240 293 345
#     4  11  24  38  53  82 120 158 193 238 304 364
#     4  11  23  40  57  82 126 163 189 239 304 360
#     4   9  16  31  57  83 107 139 191 241 287 331
#     4  11  20  37  58  84 120 153 197 248 298 350
#
# _framework density 19.675488000000001
#
# number of rings (size 3 to 8) (size 9 to 14) (size 15 to 20)
#    0.000    1.818    3.636    3.818    0.000    2.182 
#    0.000    3.636    0.000   13.636    0.000    0.000 
#    0.000    0.000    0.000    0.000    0.000    0.000 
#
# Total GULP energy -545075.169669 kJ/mol
# GULP energy per Si atom -12388.072038 kJ/mol
# Density = 1.963071 g / cm^3
# Si number density = 19.675488 Si / 1000 Ang^3
#
#
#
# Elastic Constant Matrix: (Units=GPa)
#
#
# Indices 1 2 3 4 5 6 
#
# 1 154.2198 45.7883 33.3378 0.0000 0.0000 0.0000
# 2 45.7883 96.8920 22.7262 0.0000 0.0000 0.0000
# 3 33.3378 22.7262 53.7252 0.0000 0.0000 0.0000
# 4 0.0000 0.0000 0.0000 17.2046 0.0000 0.0000
# 5 0.0000 0.0000 0.0000 0.0000 33.3485 0.0000
# 6 0.0000 0.0000 0.0000 0.0000 0.0000 -13.2701
#
#
#
# Elastic Compliance Matrix: (Units=1/GPa)
#
#
# Indices 1 2 3 4 5 6 
#
# 1 0.008195 -0.002975 -0.003827 0.000000 0.000000 0.000000
# 2 -0.002975 0.012538 -0.003457 0.000000 0.000000 0.000000
# 3 -0.003827 -0.003457 0.022450 0.000000 0.000000 0.000000
# 4 0.000000 0.000000 0.000000 0.058124 0.000000 0.000000
# 5 0.000000 0.000000 0.000000 0.000000 0.029986 0.000000
# 6 0.000000 0.000000 0.000000 0.000000 0.000000 -0.075357
#
#
# Mechanical properties :
#
#
# Convention : Reuss Voigt Hill
#
# Bulk Modulus (GPa) = 44.12181 56.50461 50.31321
# Shear Modulus (GPa) = 59.51775 20.98891 40.25333
#
# Velocity S-wave (km/s) = 5.50594 3.26966 4.52803
# Velocity P-wave (km/s) = 7.93057 6.56010 7.27767
#
# Compressibility (1/GPa) = 0.02266453
#
# Stress axis : x y z
#
# Youngs Moduli (GPa) = 122.02932 79.75975 44.54296
#
# Poissons Ratio (x) = 0.23729 0.17045
# Poissons Ratio (y) = 0.36305 0.15400
# Poissons Ratio (z) = 0.46695 0.27576
#
# Static dielectric constant tensor:
#      x y z
#    x 4.767080 0.000000 0.000000 
#    y 0.000000 3.113430 0.000000 
#    z 0.000000 0.000000 3.683240 
# 
# 
# High freq. dielectric constant tensor:
#      x y z
#    x 1.797910 0.000000 0.000000 
#    y 0.000000 1.719520 0.000000 
#    z 0.000000 0.000000 1.757190 
# 
# From -- ./inp_files/8193.got.cif
#   From: 2010.03.12/outbox.cif.g09.slc.cpg/sg51_5_cif.got.tgz:8193.got - 2010.04.16 13:43:02.
