data_PCOD8206296
_publ_section_title
;
Structure prediction by ZEFSAII (Michael W. Deem and Ramdas Pophale) SiO2 
 PCOD8206296
Probable space group: P M M A
;
_chemical_formula_sum "Si O2"
_cell_formula_units_Z 64
_cell_length_a 26.382820
_cell_length_b 9.029056
_cell_length_c 17.997704
_cell_angle_alpha 90.000000
_cell_angle_beta 90.000000
_cell_angle_gamma 90.000000
_cell_volume 4287.268331
_symmetry_space_group_name_H-M "P M M A"
_symmetry_group_IT_number 51
_symmetry_cell_setting 'orthorhombic'
loop_
_space_group_symop_operation_xyz
x,y,z
1/2-x,-y,z
1/2+x,-y,-z
-x,y,-z
-x,-y,-z
1/2+x,y,-z
1/2-x,y,z
x,-y,z
loop_
_atom_site_type_symbol
_atom_site_label
_atom_site_fract_x
_atom_site_fract_y
_atom_site_fract_z
Si Si1 0.894598 0.326581 0.073576
Si Si2 0.508230 0.674004 0.170822
Si Si3 0.691228 0.829411 0.159435
Si Si4 0.049792 0.167123 0.049647
Si Si5 0.504200 0.170572 0.327542
Si Si6 0.103466 0.170555 0.574309
Si Si7 0.194082 0.823758 0.673462
Si Si8 0.050169 0.666971 0.450931
O O1 0.891739 0.500000 0.058663
O O2 0.841079 0.269635 0.103573
O O3 0.938293 0.286677 0.132717
O O4 0.905282 0.248016 0.994831
O O5 0.498922 0.500000 0.174283
O O6 0.461660 0.746161 0.125755
O O7 0.509044 0.739388 0.252467
O O8 0.750000 0.812189 0.138041
O O9 0.681710 0.769591 0.243091
O O10 0.673991 0.000000 0.152405
O O11 0.066597 0.000000 0.068485
O O12 0.000000 0.169484 0.000000
O O13 0.556751 0.188703 0.370311
O O14 0.458555 0.238032 0.376522
O O15 0.491875 0.000000 0.310626
O O16 0.152842 0.237749 0.615470
O O17 0.095626 0.261488 0.498518
O O18 0.111215 0.000000 0.552205
O O19 0.250000 0.767706 0.649313
O O20 0.192740 0.000000 0.674658
O O21 0.065056 0.500000 0.428910
O O22 0.000000 0.670047 0.500000
#
# Coordination Sequence:
#
# PCOD8206296 Si02
#       8
#     8   8   8   8   8   8   8   8
#     4  10  19  29  42  60  84 113 141 171 209 250
#     4  10  19  29  41  60  86 112 138 169 207 249
#     4   9  17  29  44  61  82 110 145 181 211 241
#     4   9  17  29  44  60  79 106 140 174 205 241
#     4  10  18  27  41  60  81 107 140 173 203 240
#     4   9  16  26  41  59  79 106 140 173 203 240
#     4   8  14  25  41  60  81 106 138 175 209 238
#     4   9  17  28  40  55  78 106 134 167 207 247
#
# _framework density 14.927921
#
# number of rings (size 3 to 8) (size 9 to 14) (size 15 to 20)
#    0.000    2.750    0.000    3.375    0.000    6.250 
#    0.000    0.625    0.000    1.125    0.000    0.000 
#    0.000    1.000    0.000    6.000    0.000    4.625 
#
# Total GULP energy -793534.914787 kJ/mol
# GULP energy per Si atom -12398.983044 kJ/mol
# Density = 1.489394 g / cm^3
# Si number density = 14.927921 Si / 1000 Ang^3
#
#
#
# Elastic Constant Matrix: (Units=GPa)
#
#
# Indices 1 2 3 4 5 6 
#
# 1 63.7058 31.6041 26.2498 0.0000 0.0000 0.0000
# 2 31.6041 80.2872 38.0121 0.0000 0.0000 0.0000
# 3 26.2498 38.0121 47.4829 0.0000 0.0000 0.0000
# 4 0.0000 0.0000 0.0000 27.0873 0.0000 0.0000
# 5 0.0000 0.0000 0.0000 0.0000 26.9344 0.0000
# 6 0.0000 0.0000 0.0000 0.0000 0.0000 17.4235
#
#
#
# Elastic Compliance Matrix: (Units=1/GPa)
#
#
# Indices 1 2 3 4 5 6 
#
# 1 0.021302 -0.004525 -0.008154 0.000000 0.000000 0.000000
# 2 -0.004525 0.021018 -0.014325 0.000000 0.000000 0.000000
# 3 -0.008154 -0.014325 0.037036 0.000000 0.000000 0.000000
# 4 0.000000 0.000000 0.000000 0.036918 0.000000 0.000000
# 5 0.000000 0.000000 0.000000 0.000000 0.037127 0.000000
# 6 0.000000 0.000000 0.000000 0.000000 0.000000 0.057394
#
#
# Mechanical properties :
#
#
# Convention : Reuss Voigt Hill
#
# Bulk Modulus (GPa) = 39.44958 42.57868 41.01413
# Shear Modulus (GPa) = 18.29822 20.66304 19.48063
#
# Velocity S-wave (km/s) = 3.50490 3.72450 3.61637
# Velocity P-wave (km/s) = 6.54700 6.86153 6.70611
#
# Compressibility (1/GPa) = 0.02534881
#
# Stress axis : x y z
#
# Youngs Moduli (GPa) = 46.94481 47.57720 27.00108
#
# Poissons Ratio (x) = 0.21527 0.22017
# Poissons Ratio (y) = 0.21241 0.38679
# Poissons Ratio (z) = 0.38279 0.68154
#
# Static dielectric constant tensor:
#      x y z
#    x 2.789280 0.000000 0.000000 
#    y 0.000000 2.922050 0.000000 
#    z 0.000000 0.000000 2.844900 
# 
# 
# High freq. dielectric constant tensor:
#      x y z
#    x 1.538410 0.000000 0.000000 
#    y 0.000000 1.575320 0.000000 
#    z 0.000000 0.000000 1.558330 
# 
# From -- ./inp_files/30949.got.cif
#   From: 2010.03.12/outbox.cif.g09.slc.cpg/sg51_16_cif.got.tgz:30949.got - 2010.04.16 13:43:02.
