data_PCOD8206491
_publ_section_title
;
Structure prediction by ZEFSAII (Michael W. Deem and Ramdas Pophale) SiO2 
 PCOD8206491
Probable space group: P M M A
;
_chemical_formula_sum "Si O2"
_cell_formula_units_Z 48
_cell_length_a 25.788643
_cell_length_b 9.402115
_cell_length_c 11.860123
_cell_angle_alpha 90.000000
_cell_angle_beta 90.000000
_cell_angle_gamma 90.000000
_cell_volume 2875.697779
_symmetry_space_group_name_H-M "P M M A"
_symmetry_group_IT_number 51
_symmetry_cell_setting 'orthorhombic'
loop_
_space_group_symop_operation_xyz
x,y,z
1/2-x,-y,z
1/2+x,-y,-z
-x,y,-z
-x,-y,-z
1/2+x,y,-z
1/2-x,y,z
x,-y,z
loop_
_atom_site_type_symbol
_atom_site_label
_atom_site_fract_x
_atom_site_fract_y
_atom_site_fract_z
Si Si1 0.387918 0.166845 0.484812
Si Si2 0.425043 0.663133 0.290406
Si Si3 0.309082 0.833835 0.676505
Si Si4 0.881166 0.338434 0.168440
Si Si5 0.944721 0.669115 0.959171
Si Si6 0.459072 0.341755 0.635714
O O1 0.384007 0.244689 0.363394
O O2 0.337349 0.205619 0.559141
O O3 0.438278 0.223231 0.550788
O O4 0.393581 0.000000 0.464893
O O5 0.406276 0.500000 0.287721
O O6 0.428943 0.726899 0.164211
O O7 0.480128 0.678865 0.351222
O O8 0.250000 0.783100 0.665250
O O9 0.334851 0.756758 0.783311
O O10 0.313568 0.000000 0.700860
O O11 0.860811 0.500000 0.165205
O O12 0.932921 0.325063 0.242707
O O13 0.898575 0.286011 0.044456
O O14 0.950467 0.500000 0.953875
O O15 0.000000 0.733647 0.000000
O O16 0.446907 0.500000 0.586907
#
# Coordination Sequence:
#
# PCOD8206491 Si02
#       6
#     8   8   8   8   8   8
#     4  10  20  31  44  65  92 120 154 197 239 277
#     4  10  18  28  45  67  95 130 160 183 216 269
#     4   9  19  36  54  68  87 119 156 197 247 292
#     4   9  16  28  49  75  97 119 155 198 231 266
#     4   9  15  27  47  70  97 130 162 186 215 268
#     4   9  16  27  44  66  93 125 158 187 218 268
#
# _framework density 16.691600999999999
#
# number of rings (size 3 to 8) (size 9 to 14) (size 15 to 20)
#    0.000    2.667    1.667    1.000    0.000    3.667 
#    0.000    0.833    0.000    2.000    0.000    4.667 
#    0.000    0.000    0.000    0.000    0.000    0.000 
#
# Total GULP energy -595062.792315 kJ/mol
# GULP energy per Si atom -12397.141507 kJ/mol
# Density = 1.665361 g / cm^3
# Si number density = 16.691601 Si / 1000 Ang^3
#
#
#
# Elastic Constant Matrix: (Units=GPa)
#
#
# Indices 1 2 3 4 5 6 
#
# 1 83.6849 36.6608 52.7469 0.0000 0.0000 0.0000
# 2 36.6608 55.5733 47.5998 0.0000 0.0000 0.0000
# 3 52.7469 47.5998 127.8213 0.0000 0.0000 0.0000
# 4 0.0000 0.0000 0.0000 16.6490 0.0000 0.0000
# 5 0.0000 0.0000 0.0000 0.0000 13.1359 0.0000
# 6 0.0000 0.0000 0.0000 0.0000 0.0000 18.9198
#
#
#
# Elastic Compliance Matrix: (Units=1/GPa)
#
#
# Indices 1 2 3 4 5 6 
#
# 1 0.018428 -0.008286 -0.004519 0.000000 0.000000 0.000000
# 2 -0.008286 0.030148 -0.007807 0.000000 0.000000 0.000000
# 3 -0.004519 -0.007807 0.012596 0.000000 0.000000 0.000000
# 4 0.000000 0.000000 0.000000 0.060064 0.000000 0.000000
# 5 0.000000 0.000000 0.000000 0.000000 0.076128 0.000000
# 6 0.000000 0.000000 0.000000 0.000000 0.000000 0.052855
#
#
# Mechanical properties :
#
#
# Convention : Reuss Voigt Hill
#
# Bulk Modulus (GPa) = 50.13416 60.12159 55.12788
# Shear Modulus (GPa) = 16.77345 18.41240 17.59292
#
# Velocity S-wave (km/s) = 3.17346 3.32489 3.25006
# Velocity P-wave (km/s) = 6.59762 7.13001 6.86898
#
# Compressibility (1/GPa) = 0.01994648
#
# Stress axis : x y z
#
# Youngs Moduli (GPa) = 54.26600 33.17001 79.39296
#
# Poissons Ratio (x) = 0.27485 0.35876
# Poissons Ratio (y) = 0.44965 0.61986
# Poissons Ratio (z) = 0.24521 0.25897
#
# Static dielectric constant tensor:
#      x y z
#    x 2.922810 0.000000 0.000000 
#    y 0.000000 2.971370 0.000000 
#    z 0.000000 0.000000 3.346820 
# 
# 
# High freq. dielectric constant tensor:
#      x y z
#    x 1.610230 0.000000 0.000000 
#    y 0.000000 1.622380 0.000000 
#    z 0.000000 0.000000 1.650970 
# 
# From -- ./inp_files/18591.got.cif
#   From: 2010.03.12/outbox.cif.g09.slc.cpg/sg51_10_cif.got.tgz:18591.got - 2010.04.16 13:43:02.
