data_PCOD8206141
_publ_section_title
;
Structure prediction by ZEFSAII (Michael W. Deem and Ramdas Pophale) SiO2 
 PCOD8206141
Probable space group: P M M A
;
_chemical_formula_sum "Si O2"
_cell_formula_units_Z 64
_cell_length_a 29.751276
_cell_length_b 8.921234
_cell_length_c 15.189671
_cell_angle_alpha 90.000000
_cell_angle_beta 90.000000
_cell_angle_gamma 90.000000
_cell_volume 4031.613540
_symmetry_space_group_name_H-M "P M M A"
_symmetry_group_IT_number 51
_symmetry_cell_setting 'orthorhombic'
loop_
_space_group_symop_operation_xyz
x,y,z
1/2-x,-y,z
1/2+x,-y,-z
-x,y,-z
-x,-y,-z
1/2+x,y,-z
1/2-x,y,z
x,-y,z
loop_
_atom_site_type_symbol
_atom_site_label
_atom_site_fract_x
_atom_site_fract_y
_atom_site_fract_z
Si Si1 0.940012 0.322602 0.856290
Si Si2 0.298744 0.677971 0.017860
Si Si3 0.040406 0.678057 0.817400
Si Si4 0.617582 0.823838 0.703538
Si Si5 0.801003 0.671551 0.781442
Si Si6 0.065482 0.677284 0.441490
Si Si7 0.893756 0.678688 0.035415
Si Si8 0.031177 0.322688 0.623889
O O1 0.935053 0.500000 0.846117
O O2 0.915223 0.249451 0.774437
O O3 0.992098 0.273459 0.855741
O O4 0.918000 0.264232 0.946753
O O5 0.250000 0.739541 0.982765
O O6 0.297164 0.500000 0.015076
O O7 0.341720 0.736732 0.961899
O O8 0.305594 0.728654 0.118403
O O9 0.043785 0.500000 0.816327
O O10 0.079598 0.744284 0.880257
O O11 0.047176 0.742844 0.718270
O O12 0.668843 0.776818 0.720589
O O13 0.605519 0.765095 0.606047
O O14 0.612526 0.000000 0.707835
O O15 0.750000 0.686341 0.748331
O O16 0.817727 0.500000 0.774425
O O17 0.072309 0.500000 0.430383
O O18 0.064969 0.723803 0.545069
O O19 0.019023 0.732784 0.397351
O O20 0.894991 0.500000 0.036378
O O21 0.028981 0.500000 0.629226
#
# Coordination Sequence:
#
# PCOD8206141 Si02
#       8
#     8   8   8   8   8   8   8   8
#     4  10  17  28  43  60  87 121 154 183 211 258
#     4   8  13  22  38  61  86 110 138 173 212 257
#     4   9  15  23  40  66  88 108 146 196 229 255
#     4  12  22  29  42  66  94 121 149 182 223 266
#     4   9  17  31  50  67  85 114 150 183 218 263
#     4   9  16  29  47  63  82 113 150 187 226 267
#     4   9  15  22  38  65  89 111 144 185 225 259
#     4   8  14  25  44  66  83 105 147 195 229 258
#
# _framework density 15.874536000000001
#
# number of rings (size 3 to 8) (size 9 to 14) (size 15 to 20)
#    0.000    2.750    2.500    3.000    0.000    1.750 
#    0.000    1.250    0.000    1.500    0.000    0.875 
#    0.000    5.000    0.000    0.000    0.000    0.000 
#
# Total GULP energy -793113.818976 kJ/mol
# GULP energy per Si atom -12392.403422 kJ/mol
# Density = 1.583841 g / cm^3
# Si number density = 15.874536 Si / 1000 Ang^3
#
#
#
# Elastic Constant Matrix: (Units=GPa)
#
#
# Indices 1 2 3 4 5 6 
#
# 1 123.2739 19.1944 65.0618 0.0000 0.0000 0.0000
# 2 19.1944 26.7155 16.5058 0.0000 0.0000 0.0000
# 3 65.0618 16.5058 106.4726 0.0000 0.0000 0.0000
# 4 0.0000 0.0000 0.0000 2.7328 0.0000 0.0000
# 5 0.0000 0.0000 0.0000 0.0000 21.1168 0.0000
# 6 0.0000 0.0000 0.0000 0.0000 0.0000 5.1014
#
#
#
# Elastic Compliance Matrix: (Units=1/GPa)
#
#
# Indices 1 2 3 4 5 6 
#
# 1 0.012487 -0.004708 -0.006901 0.000000 0.000000 0.000000
# 2 -0.004708 0.043172 -0.003816 0.000000 0.000000 0.000000
# 3 -0.006901 -0.003816 0.014200 0.000000 0.000000 0.000000
# 4 0.000000 0.000000 0.000000 0.365924 0.000000 0.000000
# 5 0.000000 0.000000 0.000000 0.000000 0.047356 0.000000
# 6 0.000000 0.000000 0.000000 0.000000 0.000000 0.196026
#
#
# Mechanical properties :
#
#
# Convention : Reuss Voigt Hill
#
# Bulk Modulus (GPa) = 25.63427 50.88734 38.26080
# Shear Modulus (GPa) = 6.91547 16.17018 11.54283
#
# Velocity S-wave (km/s) = 2.08945 3.19505 2.69946
# Velocity P-wave (km/s) = 4.69086 6.76289 5.81983
#
# Compressibility (1/GPa) = 0.03901028
#
# Stress axis : x y z
#
# Youngs Moduli (GPa) = 80.08251 23.16331 70.42103
#
# Poissons Ratio (x) = 0.10906 0.48594
# Poissons Ratio (y) = 0.37705 0.26870
# Poissons Ratio (z) = 0.55261 0.08838
#
# Static dielectric constant tensor:
#      x y z
#    x 3.261040 0.000000 0.000000 
#    y 0.000000 2.510310 0.000000 
#    z 0.000000 0.000000 3.254490 
# 
# 
# High freq. dielectric constant tensor:
#      x y z
#    x 1.603830 0.000000 0.000000 
#    y 0.000000 1.557160 0.000000 
#    z 0.000000 0.000000 1.596370 
# 
# From -- ./inp_files/26690.got.cif
#   From: 2010.03.12/outbox.cif.g09.slc.cpg/sg51_14_cif.got.tgz:26690.got - 2010.04.16 13:43:02.
