data_PCOD8206506
_publ_section_title
;
Structure prediction by ZEFSAII (Michael W. Deem and Ramdas Pophale) SiO2 
 PCOD8206506
Probable space group: P M M A
;
_chemical_formula_sum "Si O2"
_cell_formula_units_Z 64
_cell_length_a 14.574950
_cell_length_b 9.183699
_cell_length_c 28.364368
_cell_angle_alpha 90.000000
_cell_angle_beta 90.000000
_cell_angle_gamma 90.000000
_cell_volume 3796.626073
_symmetry_space_group_name_H-M "P M M A"
_symmetry_group_IT_number 51
_symmetry_cell_setting 'orthorhombic'
loop_
_space_group_symop_operation_xyz
x,y,z
1/2-x,-y,z
1/2+x,-y,-z
-x,y,-z
-x,-y,-z
1/2+x,y,-z
1/2-x,y,z
x,-y,z
loop_
_atom_site_type_symbol
_atom_site_label
_atom_site_fract_x
_atom_site_fract_y
_atom_site_fract_z
Si Si1 0.355975 0.668822 0.470785
Si Si2 0.601353 0.337969 0.980407
Si Si3 0.852498 0.167128 0.434234
Si Si4 0.849182 0.166367 0.067834
Si Si5 0.647082 0.827089 0.802882
Si Si6 0.540184 0.827763 0.892574
Si Si7 0.463204 0.830536 0.389678
Si Si8 0.646840 0.827132 0.698852
O O1 0.250000 0.695292 0.458392
O O2 0.381640 0.500000 0.471871
O O3 0.379964 0.733815 0.521685
O O4 0.416028 0.747020 0.431975
O O5 0.640882 0.500000 0.971440
O O6 0.603314 0.247935 0.931932
O O7 0.500000 0.346761 0.000000
O O8 0.660708 0.257427 0.019872
O O9 0.750000 0.205782 0.415451
O O10 0.926646 0.194463 0.392611
O O11 0.856559 0.000000 0.451202
O O12 0.750000 0.182120 0.094106
O O13 0.932819 0.218078 0.101507
O O14 0.868030 0.000000 0.053109
O O15 0.750000 0.773037 0.815362
O O16 0.574839 0.769693 0.841797
O O17 0.618783 0.768108 0.750871
O O18 0.645824 0.000000 0.802180
O O19 0.553878 0.000000 0.897359
O O20 0.425198 0.767896 0.339976
O O21 0.437945 0.000000 0.394639
O O22 0.750000 0.773955 0.686086
O O23 0.644679 0.000000 0.699806
#
# Coordination Sequence:
#
# PCOD8206506 Si02
#       8
#     8   8   8   8   8   8   8   8
#     4  10  20  31  43  63  91 118 143 175 215 256
#     4   9  17  28  41  59  84 111 139 173 211 248
#     4   9  18  31  44  60  86 118 149 179 210 248
#     4   9  17  28  41  58  83 115 146 172 200 240
#     4   8  14  25  42  64  86 106 132 170 214 255
#     4   9  16  27  44  63  83 109 141 174 207 247
#     4  10  18  28  46  67  85 112 148 180 212 252
#     4   8  14  25  42  65  88 106 131 171 214 255
#
# _framework density 16.857071999999999
#
# number of rings (size 3 to 8) (size 9 to 14) (size 15 to 20)
#    0.000    3.000    0.000    2.250    0.000    5.500 
#    0.000    1.250    0.000    1.500    0.000    7.000 
#    0.000    0.000    0.000    6.375    0.000    8.125 
#
# Total GULP energy -793110.582418 kJ/mol
# GULP energy per Si atom -12392.352850 kJ/mol
# Density = 1.681870 g / cm^3
# Si number density = 16.857072 Si / 1000 Ang^3
#
#
#
# Elastic Constant Matrix: (Units=GPa)
#
#
# Indices 1 2 3 4 5 6 
#
# 1 109.7706 26.7652 83.6210 0.0000 0.0000 0.0000
# 2 26.7652 42.0023 27.2754 0.0000 0.0000 0.0000
# 3 83.6210 27.2754 123.1134 0.0000 0.0000 0.0000
# 4 0.0000 0.0000 0.0000 0.3774 0.0000 0.0000
# 5 0.0000 0.0000 0.0000 0.0000 27.0384 0.0000
# 6 0.0000 0.0000 0.0000 0.0000 0.0000 11.2980
#
#
#
# Elastic Compliance Matrix: (Units=1/GPa)
#
#
# Indices 1 2 3 4 5 6 
#
# 1 0.019575 -0.004485 -0.012302 0.000000 0.000000 0.000000
# 2 -0.004485 0.028837 -0.003342 0.000000 0.000000 0.000000
# 3 -0.012302 -0.003342 0.017219 0.000000 0.000000 0.000000
# 4 0.000000 0.000000 0.000000 2.649689 0.000000 0.000000
# 5 0.000000 0.000000 0.000000 0.000000 0.036984 0.000000
# 6 0.000000 0.000000 0.000000 0.000000 0.000000 0.088512
#
#
# Mechanical properties :
#
#
# Convention : Reuss Voigt Hill
#
# Bulk Modulus (GPa) = 39.41415 61.13441 50.27428
# Shear Modulus (GPa) = 1.73038 16.89107 9.31073
#
# Velocity S-wave (km/s) = 1.01426 3.16890 2.35273
# Velocity P-wave (km/s) = 4.98034 7.05225 6.10484
#
# Compressibility (1/GPa) = 0.02537160
#
# Stress axis : x y z
#
# Youngs Moduli (GPa) = 51.08573 34.67802 58.07588
#
# Poissons Ratio (x) = 0.15553 0.71445
# Poissons Ratio (y) = 0.22913 0.19411
# Poissons Ratio (z) = 0.62846 0.11590
#
# Static dielectric constant tensor:
#      x y z
#    x 3.369900 0.000000 0.000000 
#    y 0.000000 3.019380 0.000000 
#    z 0.000000 0.000000 3.302510 
# 
# 
# High freq. dielectric constant tensor:
#      x y z
#    x 1.652310 0.000000 0.000000 
#    y 0.000000 1.624070 0.000000 
#    z 0.000000 0.000000 1.627180 
# 
# From -- ./inp_files/37794.got.cif
#   From: 2010.03.12/outbox.cif.g09.slc.cpg/sg51_19_cif.got.tgz:37794.got - 2010.04.16 13:43:02.
