data_PCOD8206693
_publ_section_title
;
Structure prediction by ZEFSAII (Michael W. Deem and Ramdas Pophale) SiO2 
 PCOD8206693
Probable space group: P M M A
;
_chemical_formula_sum "Si O2"
_cell_formula_units_Z 56
_cell_length_a 21.571010
_cell_length_b 9.019158
_cell_length_c 16.735958
_cell_angle_alpha 90.000000
_cell_angle_beta 90.000000
_cell_angle_gamma 90.000000
_cell_volume 3256.019915
_symmetry_space_group_name_H-M "P M M A"
_symmetry_group_IT_number 51
_symmetry_cell_setting 'orthorhombic'
loop_
_space_group_symop_operation_xyz
x,y,z
1/2-x,-y,z
1/2+x,-y,-z
-x,y,-z
-x,-y,-z
1/2+x,y,-z
1/2-x,y,z
x,-y,z
loop_
_atom_site_type_symbol
_atom_site_label
_atom_site_fract_x
_atom_site_fract_y
_atom_site_fract_z
Si Si1 0.317664 0.174149 0.644953
Si Si2 0.680001 0.172897 0.035318
Si Si3 0.563215 0.671226 0.958461
Si Si4 0.584434 0.825555 0.480004
Si Si5 0.118471 0.827776 0.801362
Si Si6 0.474306 0.676148 0.384212
Si Si7 0.507068 0.669716 0.794693
O O1 0.250000 0.247981 0.641593
O O2 0.349461 0.205879 0.560035
O O3 0.355531 0.243381 0.719254
O O4 0.312179 0.000000 0.660840
O O5 0.750000 0.231133 0.015395
O O6 0.667739 0.203468 0.128776
O O7 0.675843 0.000000 0.016041
O O8 0.626657 0.249949 0.983554
O O9 0.569520 0.500000 0.982749
O O10 0.558907 0.693688 0.862638
O O11 0.500000 0.734835 0.000000
O O12 0.534260 0.755874 0.420224
O O13 0.583768 0.742881 0.565881
O O14 0.571226 0.000000 0.490343
O O15 0.053465 0.755493 0.823322
O O16 0.105201 0.000000 0.790384
O O17 0.478480 0.500000 0.396239
O O18 0.466917 0.722269 0.291423
O O19 0.486980 0.500000 0.788368
#
# Coordination Sequence:
#
# PCOD8206693 Si02
#       7
#     8   8   8   8   8   8   8
#     4   9  17  29  46  70 100 132 162 195 236 286
#     4  10  21  35  52  77 107 137 171 211 256 309
#     4  10  20  35  54  75 101 135 174 215 257 303
#     4  10  18  29  48  72  96 124 164 201 232 286
#     4  10  18  30  50  74 102 135 166 197 244 304
#     4  10  19  31  48  68  96 128 156 197 250 291
#     4  10  20  33  50  73 102 132 165 208 253 299
#
# _framework density 17.198912
#
# number of rings (size 3 to 8) (size 9 to 14) (size 15 to 20)
#    0.000    2.143    2.857    2.143    0.000    3.429 
#    0.000    0.000    0.000    5.571    0.000    4.000 
#    0.000    0.000    0.000    0.000    0.000    0.000 
#
# Total GULP energy -694114.755815 kJ/mol
# GULP energy per Si atom -12394.906354 kJ/mol
# Density = 1.715977 g / cm^3
# Si number density = 17.198912 Si / 1000 Ang^3
#
#
#
# Elastic Constant Matrix: (Units=GPa)
#
#
# Indices 1 2 3 4 5 6 
#
# 1 118.7716 37.6139 54.1913 0.0000 0.0000 0.0000
# 2 37.6139 54.6593 39.1558 0.0000 0.0000 0.0000
# 3 54.1913 39.1558 112.1555 0.0000 0.0000 0.0000
# 4 0.0000 0.0000 0.0000 24.3882 0.0000 0.0000
# 5 0.0000 0.0000 0.0000 0.0000 21.6605 0.0000
# 6 0.0000 0.0000 0.0000 0.0000 0.0000 2.4289
#
#
#
# Elastic Compliance Matrix: (Units=1/GPa)
#
#
# Indices 1 2 3 4 5 6 
#
# 1 0.011896 -0.005426 -0.003854 0.000000 0.000000 0.000000
# 2 -0.005426 0.026871 -0.006760 0.000000 0.000000 0.000000
# 3 -0.003854 -0.006760 0.013138 0.000000 0.000000 0.000000
# 4 0.000000 0.000000 0.000000 0.041003 0.000000 0.000000
# 5 0.000000 0.000000 0.000000 0.000000 0.046167 0.000000
# 6 0.000000 0.000000 0.000000 0.000000 0.000000 0.411703
#
#
# Mechanical properties :
#
#
# Convention : Reuss Voigt Hill
#
# Bulk Modulus (GPa) = 50.43559 60.83427 55.63493
# Shear Modulus (GPa) = 8.48225 20.00389 14.24307
#
# Velocity S-wave (km/s) = 2.22319 3.41411 2.88086
# Velocity P-wave (km/s) = 5.99822 7.14068 6.59424
#
# Compressibility (1/GPa) = 0.01982727
#
# Stress axis : x y z
#
# Youngs Moduli (GPa) = 84.06108 37.21458 76.11391
#
# Poissons Ratio (x) = 0.20191 0.29332
# Poissons Ratio (y) = 0.45609 0.51451
# Poissons Ratio (z) = 0.32395 0.25156
#
# Static dielectric constant tensor:
#      x y z
#    x 3.223320 0.000000 0.000000 
#    y 0.000000 3.092420 0.000000 
#    z 0.000000 0.000000 3.494030 
# 
# 
# High freq. dielectric constant tensor:
#      x y z
#    x 1.643870 0.000000 0.000000 
#    y 0.000000 1.651000 0.000000 
#    z 0.000000 0.000000 1.668960 
# 
# From -- ./inp_files/30449.got.cif
#   From: 2010.03.12/outbox.cif.g09.slc.cpg/sg51_16_cif.got.tgz:30449.got - 2010.04.16 13:43:02.
