data_PCOD8206254
_publ_section_title
;
Structure prediction by ZEFSAII (Michael W. Deem and Ramdas Pophale) SiO2 
 PCOD8206254
Probable space group: P M M A
;
_chemical_formula_sum "Si O2"
_cell_formula_units_Z 64
_cell_length_a 18.175577
_cell_length_b 13.833910
_cell_length_c 16.432952
_cell_angle_alpha 90.000000
_cell_angle_beta 90.000000
_cell_angle_gamma 90.000000
_cell_volume 4131.889889
_symmetry_space_group_name_H-M "P M M A"
_symmetry_group_IT_number 51
_symmetry_cell_setting 'orthorhombic'
loop_
_space_group_symop_operation_xyz
x,y,z
1/2-x,-y,z
1/2+x,-y,-z
-x,y,-z
-x,-y,-z
1/2+x,y,-z
1/2-x,y,z
x,-y,z
loop_
_atom_site_type_symbol
_atom_site_label
_atom_site_fract_x
_atom_site_fract_y
_atom_site_fract_z
Si Si1 0.337114 0.105130 0.926412
Si Si2 0.459817 0.613144 0.751718
Si Si3 0.836191 0.300603 0.149691
Si Si4 0.971499 0.612095 0.583453
Si Si5 0.331803 0.386836 0.325478
Si Si6 0.167127 0.612918 0.021062
Si Si7 0.836076 0.889719 0.888485
Si Si8 0.600990 0.705335 0.825821
O O1 0.250000 0.100345 0.927610
O O2 0.362343 0.189625 0.865010
O O3 0.368531 0.000000 0.898132
O O4 0.362196 0.127748 0.018507
O O5 0.469546 0.500000 0.773898
O O6 0.379424 0.652609 0.774785
O O7 0.469355 0.628778 0.655066
O O8 0.518631 0.677922 0.800214
O O9 0.750000 0.307560 0.170399
O O10 0.857498 0.361844 0.070100
O O11 0.959506 0.500000 0.565141
O O12 0.891979 0.655125 0.610846
O O13 0.000000 0.662808 0.500000
O O14 0.250000 0.366322 0.359356
O O15 0.346270 0.500000 0.311515
O O16 0.340782 0.337984 0.237853
O O17 0.250000 0.651971 0.034716
O O18 0.162267 0.500000 0.034487
O O19 0.113897 0.663243 0.084741
O O20 0.750000 0.864423 0.878235
O O21 0.885479 0.820872 0.830718
O O22 0.851267 0.000000 0.862276
#
# Coordination Sequence:
#
# PCOD8206254 Si02
#       8
#     8   8   8   8   8   8   8   8
#     4   8  14  27  46  63  79 108 153 195 227 258
#     4  10  21  33  45  64  89 118 147 180 227 273
#     4  10  19  32  46  61  85 117 154 194 228 260
#     4   8  15  30  48  63  85 116 143 170 214 272
#     4   9  16  25  41  66  91 114 143 181 217 253
#     4  10  18  26  39  58  81 117 158 184 206 248
#     4   9  16  27  44  64  86 116 155 192 225 261
#     4  11  18  28  42  60  90 119 149 183 221 261
#
# _framework density 15.489279
#
# number of rings (size 3 to 8) (size 9 to 14) (size 15 to 20)
#    0.000    2.625    1.250    4.125    0.000    2.250 
#    0.000    2.500    0.000    3.750    0.000    0.000 
#    0.000   12.500    0.000   14.750    0.000    0.000 
#
# Total GULP energy -793252.757517 kJ/mol
# GULP energy per Si atom -12394.574336 kJ/mol
# Density = 1.545402 g / cm^3
# Si number density = 15.489279 Si / 1000 Ang^3
#
#
#
# Elastic Constant Matrix: (Units=GPa)
#
#
# Indices 1 2 3 4 5 6 
#
# 1 71.7368 35.3332 45.8504 0.0000 0.0000 0.0000
# 2 35.3332 79.8200 32.6720 0.0000 0.0000 0.0000
# 3 45.8504 32.6720 78.2776 0.0000 0.0000 0.0000
# 4 0.0000 0.0000 0.0000 5.0304 0.0000 0.0000
# 5 0.0000 0.0000 0.0000 0.0000 17.5229 0.0000
# 6 0.0000 0.0000 0.0000 0.0000 0.0000 19.2145
#
#
#
# Elastic Compliance Matrix: (Units=1/GPa)
#
#
# Indices 1 2 3 4 5 6 
#
# 1 0.024440 -0.005981 -0.011819 0.000000 0.000000 0.000000
# 2 -0.005981 0.016573 -0.003414 0.000000 0.000000 0.000000
# 3 -0.011819 -0.003414 0.021123 0.000000 0.000000 0.000000
# 4 0.000000 0.000000 0.000000 0.198790 0.000000 0.000000
# 5 0.000000 0.000000 0.000000 0.000000 0.057068 0.000000
# 6 0.000000 0.000000 0.000000 0.000000 0.000000 0.052044
#
#
# Mechanical properties :
#
#
# Convention : Reuss Voigt Hill
#
# Bulk Modulus (GPa) = 50.74133 50.83840 50.78987
# Shear Modulus (GPa) = 11.93217 16.08550 14.00884
#
# Velocity S-wave (km/s) = 2.77853 3.22606 3.01062
# Velocity P-wave (km/s) = 6.56687 6.83883 6.70423
#
# Compressibility (1/GPa) = 0.01970780
#
# Stress axis : x y z
#
# Youngs Moduli (GPa) = 40.91697 60.33858 47.34168
#
# Poissons Ratio (x) = 0.36087 0.55954
# Poissons Ratio (y) = 0.24471 0.16164
# Poissons Ratio (z) = 0.48360 0.20601
#
# Static dielectric constant tensor:
#      x y z
#    x 2.865620 0.000000 0.000000 
#    y 0.000000 3.238560 0.000000 
#    z 0.000000 0.000000 2.840990 
# 
# 
# High freq. dielectric constant tensor:
#      x y z
#    x 1.580730 0.000000 0.000000 
#    y 0.000000 1.583760 0.000000 
#    z 0.000000 0.000000 1.561350 
# 
# From -- ./inp_files/25348.got.cif
#   From: 2010.03.12/outbox.cif.g09.slc.cpg/sg51_13_cif.got.tgz:25348.got - 2010.04.16 13:43:02.
