data_PCOD8206386
_publ_section_title
;
Structure prediction by ZEFSAII (Michael W. Deem and Ramdas Pophale) SiO2 
 PCOD8206386
Probable space group: P M M A
;
_chemical_formula_sum "Si O2"
_cell_formula_units_Z 64
_cell_length_a 8.953418
_cell_length_b 18.149577
_cell_length_c 26.445048
_cell_angle_alpha 90.000000
_cell_angle_beta 90.000000
_cell_angle_gamma 90.000000
_cell_volume 4297.340118
_symmetry_space_group_name_H-M "P M M A"
_symmetry_group_IT_number 51
_symmetry_cell_setting 'orthorhombic'
loop_
_space_group_symop_operation_xyz
x,y,z
1/2-x,-y,z
1/2+x,-y,-z
-x,y,-z
-x,-y,-z
1/2+x,y,-z
1/2-x,y,z
x,-y,z
loop_
_atom_site_type_symbol
_atom_site_label
_atom_site_fract_x
_atom_site_fract_y
_atom_site_fract_z
Si Si1 0.574306 0.917911 0.845099
Si Si2 0.915017 0.795158 0.103604
Si Si3 0.417789 0.704744 0.793479
Si Si4 0.078509 0.585234 0.148407
Si Si5 0.918386 0.087527 0.549625
Si Si6 0.426965 0.166498 0.255298
Si Si7 0.924405 0.086195 0.348008
Si Si8 0.427886 0.651058 0.947687
O O1 0.750000 0.920547 0.848443
O O2 0.518623 0.867066 0.891551
O O3 0.522446 0.885154 0.791378
O O4 0.506614 0.000000 0.850504
O O5 0.750000 0.823371 0.089794
O O6 0.913291 0.751278 0.155651
O O7 0.972711 0.737041 0.061621
O O8 0.250000 0.686721 0.774822
O O9 0.506023 0.629316 0.804680
O O10 0.503440 0.752022 0.750856
O O11 0.250000 0.610304 0.141698
O O12 0.065897 0.500000 0.162491
O O13 0.992000 0.599491 0.096220
O O14 0.750000 0.119056 0.552687
O O15 0.000000 0.119848 0.500000
O O16 0.012061 0.112976 0.598274
O O17 0.913783 0.000000 0.546444
O O18 0.250000 0.173554 0.258358
O O19 0.488426 0.130864 0.305822
O O20 0.750000 0.104578 0.345566
O O21 0.955323 0.000000 0.339589
O O22 0.250000 0.641561 0.948803
O O23 0.500000 0.624699 0.000000
#
# Coordination Sequence:
#
# PCOD8206386 Si02
#       8
#     8   8   8   8   8   8   8   8
#     4   9  17  27  40  59  80 102 129 162 201 243
#     4   8  16  29  43  60  79 101 129 159 193 235
#     4   9  17  30  46  63  84 109 137 166 198 239
#     4  10  20  33  49  69  91 113 137 163 191 228
#     4   9  16  26  39  53  71  99 137 180 224 267
#     4  10  18  28  42  59  82 110 139 172 211 253
#     4  10  19  28  38  55  80 109 143 184 226 263
#     4  10  20  33  49  67  86 108 134 163 197 237
#
# _framework density 14.892934
#
# number of rings (size 3 to 8) (size 9 to 14) (size 15 to 20)
#    0.000    2.625    0.000    3.375    0.000    8.250 
#    0.000    0.000    0.000    0.375    0.000    0.000 
#    0.000    0.000    0.000    0.000    0.000    0.625 
#
# Total GULP energy -793458.476700 kJ/mol
# GULP energy per Si atom -12397.788698 kJ/mol
# Density = 1.485904 g / cm^3
# Si number density = 14.892934 Si / 1000 Ang^3
#
#
#
# Elastic Constant Matrix: (Units=GPa)
#
#
# Indices 1 2 3 4 5 6 
#
# 1 86.7872 36.7232 28.7573 0.0000 0.0000 0.0000
# 2 36.7232 70.6566 22.1654 0.0000 0.0000 0.0000
# 3 28.7573 22.1654 45.8151 0.0000 0.0000 0.0000
# 4 0.0000 0.0000 0.0000 10.8850 0.0000 0.0000
# 5 0.0000 0.0000 0.0000 0.0000 25.7440 0.0000
# 6 0.0000 0.0000 0.0000 0.0000 0.0000 22.4026
#
#
#
# Elastic Compliance Matrix: (Units=1/GPa)
#
#
# Indices 1 2 3 4 5 6 
#
# 1 0.016651 -0.006337 -0.007386 0.000000 0.000000 0.000000
# 2 -0.006337 0.019097 -0.005261 0.000000 0.000000 0.000000
# 3 -0.007386 -0.005261 0.029008 0.000000 0.000000 0.000000
# 4 0.000000 0.000000 0.000000 0.091870 0.000000 0.000000
# 5 0.000000 0.000000 0.000000 0.000000 0.038844 0.000000
# 6 0.000000 0.000000 0.000000 0.000000 0.000000 0.044638
#
#
# Mechanical properties :
#
#
# Convention : Reuss Voigt Hill
#
# Bulk Modulus (GPa) = 37.33046 42.06120 39.69583
# Shear Modulus (GPa) = 17.42121 19.51385 18.46753
#
# Velocity S-wave (km/s) = 3.42389 3.62370 3.52521
# Velocity P-wave (km/s) = 6.38365 6.76845 6.57887
#
# Compressibility (1/GPa) = 0.02678778
#
# Stress axis : x y z
#
# Youngs Moduli (GPa) = 60.05522 52.36331 34.47304
#
# Poissons Ratio (x) = 0.33185 0.25461
# Poissons Ratio (y) = 0.38060 0.18138
# Poissons Ratio (z) = 0.44355 0.27550
#
# Static dielectric constant tensor:
#      x y z
#    x 3.066410 0.000000 0.000000 
#    y 0.000000 2.797260 0.000000 
#    z 0.000000 0.000000 2.763280 
# 
# 
# High freq. dielectric constant tensor:
#      x y z
#    x 1.587930 0.000000 0.000000 
#    y 0.000000 1.540090 0.000000 
#    z 0.000000 0.000000 1.540940 
# 
# From -- ./inp_files/35108.got.cif
#   From: 2010.03.12/outbox.cif.g09.slc.cpg/sg51_18_cif.got.tgz:35108.got - 2010.04.16 13:43:02.
