data_PCOD8206236
_publ_section_title
;
Structure prediction by ZEFSAII (Michael W. Deem and Ramdas Pophale) SiO2 
 PCOD8206236
Probable space group: P M M A
;
_chemical_formula_sum "Si O2"
_cell_formula_units_Z 64
_cell_length_a 8.995234
_cell_length_b 26.740928
_cell_length_c 18.236675
_cell_angle_alpha 90.000000
_cell_angle_beta 90.000000
_cell_angle_gamma 90.000000
_cell_volume 4386.666304
_symmetry_space_group_name_H-M "P M M A"
_symmetry_group_IT_number 51
_symmetry_cell_setting 'orthorhombic'
loop_
_space_group_symop_operation_xyz
x,y,z
1/2-x,-y,z
1/2+x,-y,-z
-x,y,-z
-x,-y,-z
1/2+x,y,-z
1/2-x,y,z
x,-y,z
loop_
_atom_site_type_symbol
_atom_site_label
_atom_site_fract_x
_atom_site_fract_y
_atom_site_fract_z
Si Si1 0.426381 0.641009 0.923131
Si Si2 0.914013 0.703365 0.211609
Si Si3 0.916510 0.600874 0.299230
Si Si4 0.925099 0.161370 0.420969
Si Si5 0.922039 0.346908 0.577520
Si Si6 0.079276 0.557228 0.168428
Si Si7 0.422810 0.052735 0.577155
Si Si8 0.080059 0.753975 0.332469
O O1 0.250000 0.633785 0.930501
O O2 0.465383 0.688013 0.870209
O O3 0.493500 0.589655 0.891954
O O4 0.500000 0.654166 0.000000
O O5 0.750000 0.727969 0.210107
O O6 0.907927 0.652889 0.257531
O O7 0.027569 0.741904 0.249403
O O8 0.750000 0.580467 0.314443
O O9 0.002223 0.608762 0.375796
O O10 0.006262 0.561980 0.248910
O O11 0.750000 0.169103 0.431544
O O12 0.964955 0.106166 0.386260
O O13 0.000000 0.169516 0.500000
O O14 0.983222 0.200862 0.362778
O O15 0.750000 0.360120 0.567453
O O16 0.943986 0.293715 0.616197
O O17 0.000000 0.343506 0.500000
O O18 0.250000 0.575325 0.173084
O O19 0.068615 0.500000 0.142881
O O20 0.500000 0.050764 0.500000
O O21 0.250000 0.053675 0.560777
O O22 0.463393 0.000000 0.620311
O O23 0.250000 0.770852 0.329486
#
# Coordination Sequence:
#
# PCOD8206236 Si02
#       8
#     8   8   8   8   8   8   8   8
#     4  10  20  33  50  70  91 113 136 163 192 226
#     4   8  16  30  45  61  81 106 134 161 191 230
#     4   9  17  30  47  64  82 105 133 164 197 237
#     4  10  18  26  37  53  76 104 135 176 218 253
#     4  10  19  29  42  60  81 105 133 166 204 244
#     4  10  20  33  49  68  89 112 136 162 193 230
#     4   8  14  24  36  49  66  93 131 172 213 253
#     4  10  19  28  40  58  80 106 134 166 203 243
#
# _framework density 14.589667
#
# number of rings (size 3 to 8) (size 9 to 14) (size 15 to 20)
#    0.000    2.625    0.000    3.375    0.000    7.750 
#    0.000    0.000    0.000    0.375    0.000    0.000 
#    0.000    0.000    0.000    0.000    0.000    0.625 
#
# Total GULP energy -793076.877022 kJ/mol
# GULP energy per Si atom -12391.826203 kJ/mol
# Density = 1.455646 g / cm^3
# Si number density = 14.589667 Si / 1000 Ang^3
#
#
#
# Elastic Constant Matrix: (Units=GPa)
#
#
# Indices 1 2 3 4 5 6 
#
# 1 95.4591 35.3490 53.1833 0.0000 0.0000 0.0000
# 2 35.3490 59.0300 37.3766 0.0000 0.0000 0.0000
# 3 53.1833 37.3766 84.9581 0.0000 0.0000 0.0000
# 4 0.0000 0.0000 0.0000 6.1002 0.0000 0.0000
# 5 0.0000 0.0000 0.0000 0.0000 24.7522 0.0000
# 6 0.0000 0.0000 0.0000 0.0000 0.0000 16.0815
#
#
#
# Elastic Compliance Matrix: (Units=1/GPa)
#
#
# Indices 1 2 3 4 5 6 
#
# 1 0.017003 -0.004772 -0.008545 0.000000 0.000000 0.000000
# 2 -0.004772 0.024821 -0.007933 0.000000 0.000000 0.000000
# 3 -0.008545 -0.007933 0.020609 0.000000 0.000000 0.000000
# 4 0.000000 0.000000 0.000000 0.163928 0.000000 0.000000
# 5 0.000000 0.000000 0.000000 0.000000 0.040400 0.000000
# 6 0.000000 0.000000 0.000000 0.000000 0.000000 0.062183
#
#
# Mechanical properties :
#
#
# Convention : Reuss Voigt Hill
#
# Bulk Modulus (GPa) = 50.16228 54.58500 52.37364
# Shear Modulus (GPa) = 13.22443 16.95602 15.09022
#
# Velocity S-wave (km/s) = 3.01395 3.41279 3.21956
# Velocity P-wave (km/s) = 6.82412 7.28177 7.05666
#
# Compressibility (1/GPa) = 0.01993530
#
# Stress axis : x y z
#
# Youngs Moduli (GPa) = 58.81259 40.28884 48.52192
#
# Poissons Ratio (x) = 0.19225 0.41460
# Poissons Ratio (y) = 0.28064 0.38490
# Poissons Ratio (z) = 0.50253 0.31959
#
# Static dielectric constant tensor:
#      x y z
#    x 3.069720 0.000000 0.000000 
#    y 0.000000 2.984210 0.000000 
#    z 0.000000 0.000000 2.743010 
# 
# 
# High freq. dielectric constant tensor:
#      x y z
#    x 1.578380 0.000000 0.000000 
#    y 0.000000 1.534710 0.000000 
#    z 0.000000 0.000000 1.525870 
# 
# From -- ./inp_files/28641.got.cif
#   From: 2010.03.12/outbox.cif.g09.slc.cpg/sg51_15_cif.got.tgz:28641.got - 2010.04.16 13:43:02.
