data_PCOD8206184
_publ_section_title
;
Structure prediction by ZEFSAII (Michael W. Deem and Ramdas Pophale) SiO2 
 PCOD8206184
Probable space group: P M M A
;
_chemical_formula_sum "Si O2"
_cell_formula_units_Z 48
_cell_length_a 17.615771
_cell_length_b 12.841012
_cell_length_c 12.379808
_cell_angle_alpha 90.000000
_cell_angle_beta 90.000000
_cell_angle_gamma 90.000000
_cell_volume 2800.366135
_symmetry_space_group_name_H-M "P M M A"
_symmetry_group_IT_number 51
_symmetry_cell_setting 'orthorhombic'
loop_
_space_group_symop_operation_xyz
x,y,z
1/2-x,-y,z
1/2+x,-y,-z
-x,y,-z
-x,-y,-z
1/2+x,y,-z
1/2-x,y,z
x,-y,z
loop_
_atom_site_type_symbol
_atom_site_label
_atom_site_fract_x
_atom_site_fract_y
_atom_site_fract_z
Si Si1 0.113242 0.379742 0.199101
Si Si2 0.663341 0.618199 0.428611
Si Si3 0.948311 0.302397 0.251407
Si Si4 0.334025 0.236466 0.373654
Si Si5 0.517498 0.880518 0.623850
Si Si6 0.085805 0.614876 0.965193
O O1 0.134382 0.500000 0.213301
O O2 0.169817 0.310259 0.269110
O O3 0.027298 0.363546 0.241340
O O4 0.127452 0.345238 0.074053
O O5 0.750000 0.640192 0.391963
O O6 0.654452 0.500000 0.469907
O O7 0.607284 0.635916 0.329747
O O8 0.639419 0.694196 0.525224
O O9 0.907231 0.302258 0.133298
O O10 0.963679 0.186230 0.296310
O O11 0.250000 0.188900 0.391750
O O12 0.393736 0.143587 0.356048
O O13 0.500000 0.854258 0.500000
O O14 0.501024 0.000000 0.651832
O O15 0.116442 0.500000 0.929179
O O16 0.000000 0.600069 0.000000
#
# Coordination Sequence:
#
# PCOD8206184 Si02
#       6
#     8   8   8   8   8   8
#     4   9  17  28  47  72  98 132 167 195 227 279
#     4  10  19  29  43  68 101 131 155 186 235 296
#     4  10  17  30  50  69  95 129 161 206 244 286
#     4  10  20  33  48  70 101 132 159 195 246 298
#     4  10  20  35  52  73  96 121 165 217 252 292
#     4   8  14  26  45  70  98 128 162 195 229 277
#
# _framework density 17.140616000000001
#
# number of rings (size 3 to 8) (size 9 to 14) (size 15 to 20)
#    0.000    2.500    1.667    3.000    0.000    1.333 
#    0.000    3.333    0.000   14.000    0.000    0.000 
#    0.000    0.000    0.000    0.000    0.000    0.000 
#
# Total GULP energy -594891.230659 kJ/mol
# GULP energy per Si atom -12393.567305 kJ/mol
# Density = 1.710160 g / cm^3
# Si number density = 17.140616 Si / 1000 Ang^3
#
#
#
# Elastic Constant Matrix: (Units=GPa)
#
#
# Indices 1 2 3 4 5 6 
#
# 1 43.0629 16.7148 17.9310 0.0000 0.0000 0.0000
# 2 16.7148 76.7532 41.8766 0.0000 0.0000 0.0000
# 3 17.9310 41.8766 115.4947 0.0000 0.0000 0.0000
# 4 0.0000 0.0000 0.0000 22.1481 0.0000 0.0000
# 5 0.0000 0.0000 0.0000 0.0000 16.5824 0.0000
# 6 0.0000 0.0000 0.0000 0.0000 0.0000 -0.9257
#
#
#
# Elastic Compliance Matrix: (Units=1/GPa)
#
#
# Indices 1 2 3 4 5 6 
#
# 1 0.025917 -0.004299 -0.002465 0.000000 0.000000 0.000000
# 2 -0.004299 0.016955 -0.005480 0.000000 0.000000 0.000000
# 3 -0.002465 -0.005480 0.011028 0.000000 0.000000 0.000000
# 4 0.000000 0.000000 0.000000 0.045151 0.000000 0.000000
# 5 0.000000 0.000000 0.000000 0.000000 0.060305 0.000000
# 6 0.000000 0.000000 0.000000 0.000000 0.000000 -1.080310
#
#
# Mechanical properties :
#
#
# Convention : Reuss Voigt Hill
#
# Bulk Modulus (GPa) = 34.00020 43.15062 38.57541
# Shear Modulus (GPa) = -5.63913 18.14687 6.25387
#
# Velocity S-wave (km/s) = -1.81578 3.25731 1.91220
# Velocity P-wave (km/s) = 3.93485 6.27502 5.23731
#
# Compressibility (1/GPa) = 0.02941159
#
# Stress axis : x y z
#
# Youngs Moduli (GPa) = 38.58487 58.97973 90.67739
#
# Poissons Ratio (x) = 0.25356 0.22351
# Poissons Ratio (y) = 0.16588 0.49693
# Poissons Ratio (z) = 0.09511 0.32322
#
# Static dielectric constant tensor:
#      x y z
#    x 3.051420 0.000000 0.000000 
#    y 0.000000 2.918120 0.000000 
#    z 0.000000 0.000000 3.632760 
# 
# 
# High freq. dielectric constant tensor:
#      x y z
#    x 1.646440 0.000000 0.000000 
#    y 0.000000 1.628800 0.000000 
#    z 0.000000 0.000000 1.668750 
# 
# From -- ./inp_files/17372.got.cif
#   From: 2010.03.12/outbox.cif.g09.slc.cpg/sg51_9_cif.got.tgz:17372.got - 2010.04.16 13:43:02.
