data_PCOD8206478
_publ_section_title
;
Structure prediction by ZEFSAII (Michael W. Deem and Ramdas Pophale) SiO2 
 PCOD8206478
Probable space group: P M M A
;
_chemical_formula_sum "Si O2"
_cell_formula_units_Z 64
_cell_length_a 19.712505
_cell_length_b 9.041342
_cell_length_c 21.613833
_cell_angle_alpha 90.000000
_cell_angle_beta 90.000000
_cell_angle_gamma 90.000000
_cell_volume 3852.179408
_symmetry_space_group_name_H-M "P M M A"
_symmetry_group_IT_number 51
_symmetry_cell_setting 'orthorhombic'
loop_
_space_group_symop_operation_xyz
x,y,z
1/2-x,-y,z
1/2+x,-y,-z
-x,y,-z
-x,-y,-z
1/2+x,y,-z
1/2-x,y,z
x,-y,z
loop_
_atom_site_type_symbol
_atom_site_label
_atom_site_fract_x
_atom_site_fract_y
_atom_site_fract_z
Si Si1 0.906263 0.825458 0.836664
Si Si2 0.061669 0.329315 0.348470
Si Si3 0.672474 0.174054 0.415727
Si Si4 0.925736 0.826134 0.306593
Si Si5 0.174297 0.670043 0.253633
Si Si6 0.964661 0.329191 0.192954
Si Si7 0.424624 0.329504 0.488841
Si Si8 0.982034 0.671032 0.932678
O O1 0.835376 0.769769 0.808474
O O2 0.917866 0.764502 0.906751
O O3 0.962648 0.747544 0.791736
O O4 0.913355 0.000000 0.835968
O O5 0.042643 0.500000 0.336123
O O6 0.123694 0.274174 0.306483
O O7 0.091171 0.307696 0.416961
O O8 0.994047 0.235060 0.337618
O O9 0.750000 0.232644 0.414440
O O10 0.637348 0.215973 0.350421
O O11 0.632139 0.244834 0.472428
O O12 0.670509 0.000000 0.425882
O O13 0.911544 0.753305 0.238220
O O14 0.932647 0.000000 0.297457
O O15 0.250000 0.695163 0.278309
O O16 0.161513 0.500000 0.235574
O O17 0.966746 0.500000 0.211746
O O18 0.955269 0.311248 0.117627
O O19 0.500000 0.264518 0.500000
O O20 0.422416 0.500000 0.509859
O O21 0.960570 0.500000 0.938290
O O22 0.000000 0.735609 0.000000
#
# Coordination Sequence:
#
# PCOD8206478 Si02
#       8
#     8   8   8   8   8   8   8   8
#     4  10  18  28  44  70 101 131 168 212 255 292
#     4  10  19  32  51  73  99 127 162 210 255 302
#     4  10  23  40  54  73 103 135 167 207 259 316
#     4  11  20  31  52  76  98 127 165 209 253 303
#     4  10  20  33  48  67  96 139 180 212 256 310
#     4   9  17  29  47  71 100 131 162 202 248 294
#     4  10  20  34  54  80 102 128 169 212 256 307
#     4   8  15  28  46  70 102 136 165 199 246 296
#
# _framework density 16.613973000000001
#
# number of rings (size 3 to 8) (size 9 to 14) (size 15 to 20)
#    0.750    1.500    2.500    1.500    0.000    2.500 
#    0.000    1.250    0.000    0.000    0.000    0.875 
#    0.000    5.000    0.000    0.000    0.000    0.000 
#
# Total GULP energy -792908.594473 kJ/mol
# GULP energy per Si atom -12389.196789 kJ/mol
# Density = 1.657616 g / cm^3
# Si number density = 16.613973 Si / 1000 Ang^3
#
#
#
# Elastic Constant Matrix: (Units=GPa)
#
#
# Indices 1 2 3 4 5 6 
#
# 1 101.7620 38.6318 55.8326 0.0000 0.0000 0.0000
# 2 38.6318 72.2900 39.5526 0.0000 0.0000 0.0000
# 3 55.8326 39.5526 124.3724 0.0000 0.0000 0.0000
# 4 0.0000 0.0000 0.0000 22.7150 0.0000 0.0000
# 5 0.0000 0.0000 0.0000 0.0000 18.7352 0.0000
# 6 0.0000 0.0000 0.0000 0.0000 0.0000 18.8895
#
#
#
# Elastic Compliance Matrix: (Units=1/GPa)
#
#
# Indices 1 2 3 4 5 6 
#
# 1 0.014409 -0.005038 -0.004866 0.000000 0.000000 0.000000
# 2 -0.005038 0.018508 -0.003624 0.000000 0.000000 0.000000
# 3 -0.004866 -0.003624 0.011378 0.000000 0.000000 0.000000
# 4 0.000000 0.000000 0.000000 0.044024 0.000000 0.000000
# 5 0.000000 0.000000 0.000000 0.000000 0.053375 0.000000
# 6 0.000000 0.000000 0.000000 0.000000 0.000000 0.052939
#
#
# Mechanical properties :
#
#
# Convention : Reuss Voigt Hill
#
# Bulk Modulus (GPa) = 58.01129 62.93984 60.47556
# Shear Modulus (GPa) = 21.98407 23.02845 22.50626
#
# Velocity S-wave (km/s) = 3.64157 3.72706 3.68456
# Velocity P-wave (km/s) = 7.25771 7.51580 7.38788
#
# Compressibility (1/GPa) = 0.01723802
#
# Stress axis : x y z
#
# Youngs Moduli (GPa) = 69.39938 54.02944 87.89152
#
# Poissons Ratio (x) = 0.27219 0.42772
# Poissons Ratio (y) = 0.34962 0.31856
# Poissons Ratio (z) = 0.33773 0.19583
#
# Static dielectric constant tensor:
#      x y z
#    x 2.931010 0.000000 0.000000 
#    y 0.000000 3.055300 0.000000 
#    z 0.000000 0.000000 3.267730 
# 
# 
# High freq. dielectric constant tensor:
#      x y z
#    x 1.600470 0.000000 0.000000 
#    y 0.000000 1.640080 0.000000 
#    z 0.000000 0.000000 1.643800 
# 
# From -- ./inp_files/35926.got.cif
#   From: 2010.03.12/outbox.cif.g09.slc.cpg/sg51_18_cif.got.tgz:35926.got - 2010.04.16 13:43:02.
