data_PCOD8206202
_publ_section_title
;
Structure prediction by ZEFSAII (Michael W. Deem and Ramdas Pophale) SiO2 
 PCOD8206202
Probable space group: P M M A
;
_chemical_formula_sum "Si O2"
_cell_formula_units_Z 64
_cell_length_a 17.711374
_cell_length_b 19.934221
_cell_length_c 10.051799
_cell_angle_alpha 90.000000
_cell_angle_beta 90.000000
_cell_angle_gamma 90.000000
_cell_volume 3548.912717
_symmetry_space_group_name_H-M "P M M A"
_symmetry_group_IT_number 51
_symmetry_cell_setting 'orthorhombic'
loop_
_space_group_symop_operation_xyz
x,y,z
1/2-x,-y,z
1/2+x,-y,-z
-x,y,-z
-x,-y,-z
1/2+x,y,-z
1/2-x,y,z
x,-y,z
loop_
_atom_site_type_symbol
_atom_site_label
_atom_site_fract_x
_atom_site_fract_y
_atom_site_fract_z
Si Si1 0.588117 0.342797 0.527268
Si Si2 0.339486 0.575475 0.696839
Si Si3 0.336688 0.159449 0.265005
Si Si4 0.837515 0.314119 0.791433
Si Si5 0.660420 0.319759 0.088302
Si Si6 0.911659 0.807336 0.477120
Si Si7 0.160266 0.177846 0.797277
Si Si8 0.339755 0.924789 0.021540
O O1 0.500000 0.351970 0.500000
O O2 0.631899 0.399062 0.445256
O O3 0.609577 0.351449 0.683170
O O4 0.617520 0.269525 0.482612
O O5 0.250000 0.578108 0.695328
O O6 0.368835 0.500000 0.720633
O O7 0.371657 0.622267 0.815211
O O8 0.250000 0.142257 0.286673
O O9 0.348427 0.234549 0.213303
O O10 0.376272 0.147894 0.406148
O O11 0.372325 0.109355 0.155575
O O12 0.750000 0.333621 0.766124
O O13 0.866184 0.336030 0.937947
O O14 0.750000 0.317624 0.089068
O O15 0.631206 0.247780 0.139774
O O16 0.884960 0.837446 0.337657
O O17 0.000000 0.809475 0.500000
O O18 0.250000 0.179173 0.770169
O O19 0.135253 0.118079 0.894272
O O20 0.250000 0.924706 0.029710
O O21 0.372191 0.000000 0.008492
#
# Coordination Sequence:
#
# PCOD8206202 Si02
#       8
#     8   8   8   8   8   8   8   8
#     4  10  20  33  50  73 105 136 169 212 258 304
#     4  10  20  34  53  76 103 137 173 209 254 307
#     4   9  16  29  50  75 100 130 165 207 259 308
#     4   9  16  29  52  78 100 126 168 215 255 300
#     4   9  16  29  51  77 100 126 166 214 257 298
#     4  10  20  32  49  74 105 132 171 218 255 298
#     4  10  17  30  54  79 100 131 170 213 261 303
#     4   9  17  30  51  80 108 130 163 214 265 311
#
# _framework density 18.033694000000001
#
# number of rings (size 3 to 8) (size 9 to 14) (size 15 to 20)
#    0.000    2.500    2.500    0.750    0.000    1.250 
#    0.000    2.500    0.000    8.250    0.000    0.000 
#    0.000    0.000    0.000    0.000    0.000    0.000 
#
# Total GULP energy -793500.638333 kJ/mol
# GULP energy per Si atom -12398.447474 kJ/mol
# Density = 1.799265 g / cm^3
# Si number density = 18.033694 Si / 1000 Ang^3
#
#
#
# Elastic Constant Matrix: (Units=GPa)
#
#
# Indices 1 2 3 4 5 6 
#
# 1 34.6197 27.5839 39.6024 0.0000 0.0000 0.0000
# 2 27.5839 114.1156 76.4621 0.0000 0.0000 0.0000
# 3 39.6024 76.4621 179.4131 0.0000 0.0000 0.0000
# 4 0.0000 0.0000 0.0000 26.9716 0.0000 0.0000
# 5 0.0000 0.0000 0.0000 0.0000 11.2022 0.0000
# 6 0.0000 0.0000 0.0000 0.0000 0.0000 4.7192
#
#
#
# Elastic Compliance Matrix: (Units=1/GPa)
#
#
# Indices 1 2 3 4 5 6 
#
# 1 0.040863 -0.005366 -0.006733 0.000000 0.000000 0.000000
# 2 -0.005366 0.012970 -0.004343 0.000000 0.000000 0.000000
# 3 -0.006733 -0.004343 0.008911 0.000000 0.000000 0.000000
# 4 0.000000 0.000000 0.000000 0.037076 0.000000 0.000000
# 5 0.000000 0.000000 0.000000 0.000000 0.089268 0.000000
# 6 0.000000 0.000000 0.000000 0.000000 0.000000 0.211902
#
#
# Mechanical properties :
#
#
# Convention : Reuss Voigt Hill
#
# Bulk Modulus (GPa) = 33.48999 68.38277 50.93638
# Shear Modulus (GPa) = 11.26566 20.87860 16.07213
#
# Velocity S-wave (km/s) = 2.50211 3.40627 2.98858
# Velocity P-wave (km/s) = 5.19216 7.31246 6.34155
#
# Compressibility (1/GPa) = 0.02985966
#
# Stress axis : x y z
#
# Youngs Moduli (GPa) = 24.47224 77.09973 112.22256
#
# Poissons Ratio (x) = 0.41372 0.75558
# Poissons Ratio (y) = 0.13132 0.48740
# Poissons Ratio (z) = 0.16477 0.33486
#
# Static dielectric constant tensor:
#      x y z
#    x 2.957170 0.000000 0.000000 
#    y 0.000000 3.328980 0.000000 
#    z 0.000000 0.000000 3.551550 
# 
# 
# High freq. dielectric constant tensor:
#      x y z
#    x 1.663340 0.000000 0.000000 
#    y 0.000000 1.672990 0.000000 
#    z 0.000000 0.000000 1.714110 
# 
# From -- ./inp_files/10033.got.cif
#   From: 2010.03.12/outbox.cif.g09.slc.cpg/sg51_6_cif.got.tgz:10033.got - 2010.04.16 13:43:02.
