data_PCOD8206169
_publ_section_title
;
Structure prediction by ZEFSAII (Michael W. Deem and Ramdas Pophale) SiO2 
 PCOD8206169
Probable space group: P M M A
;
_chemical_formula_sum "Si O2"
_cell_formula_units_Z 56
_cell_length_a 18.217160
_cell_length_b 14.435263
_cell_length_c 13.747148
_cell_angle_alpha 90.000000
_cell_angle_beta 90.000000
_cell_angle_gamma 90.000000
_cell_volume 3615.080577
_symmetry_space_group_name_H-M "P M M A"
_symmetry_group_IT_number 51
_symmetry_cell_setting 'orthorhombic'
loop_
_space_group_symop_operation_xyz
x,y,z
1/2-x,-y,z
1/2+x,-y,-z
-x,y,-z
-x,-y,-z
1/2+x,y,-z
1/2-x,y,z
x,-y,z
loop_
_atom_site_type_symbol
_atom_site_label
_atom_site_fract_x
_atom_site_fract_y
_atom_site_fract_z
Si Si1 0.024989 0.609031 0.398140
Si Si2 0.461783 0.609308 0.806375
Si Si3 0.835250 0.290215 0.088554
Si Si4 0.098212 0.100370 0.903824
Si Si5 0.936106 0.100582 0.870123
Si Si6 0.392591 0.703358 0.129363
Si Si7 0.670077 0.391328 0.694480
O O1 0.029816 0.500000 0.412993
O O2 0.106403 0.648826 0.374889
O O3 0.000000 0.655715 0.500000
O O4 0.970751 0.632831 0.308650
O O5 0.468936 0.500000 0.824673
O O6 0.382137 0.643956 0.840414
O O7 0.525558 0.660176 0.867783
O O8 0.750000 0.316899 0.099005
O O9 0.845936 0.183129 0.121103
O O10 0.862611 0.305110 0.979178
O O11 0.022228 0.112901 0.844696
O O12 0.134025 0.000000 0.877614
O O13 0.076314 0.101822 0.015561
O O14 0.893397 0.190318 0.829797
O O15 0.908534 0.000000 0.828318
O O16 0.336460 0.649382 0.197577
O O17 0.750000 0.366529 0.650794
O O18 0.659355 0.500000 0.706698
#
# Coordination Sequence:
#
# PCOD8206169 Si02
#       7
#     8   8   8   8   8   8   8
#     4   8  15  30  50  66  80 104 140 181 225 267
#     4  10  20  32  45  61  83 113 148 182 212 251
#     4  11  21  29  39  60  90 122 150 176 208 247
#     4   8  14  26  41  57  78 108 146 184 216 246
#     4   8  13  23  42  62  78 103 144 187 219 246
#     4  10  17  29  45  61  84 120 153 179 206 248
#     4   9  17  28  43  66  91 113 144 184 216 246
#
# _framework density 15.490665
#
# number of rings (size 3 to 8) (size 9 to 14) (size 15 to 20)
#    0.000    2.857    1.429    3.000    0.000    2.286 
#    0.000    0.714    0.000    3.857    0.000    0.000 
#    0.000   14.286    0.000    1.143    0.000    0.571 
#
# Total GULP energy -693774.497888 kJ/mol
# GULP energy per Si atom -12388.830319 kJ/mol
# Density = 1.545541 g / cm^3
# Si number density = 15.490665 Si / 1000 Ang^3
#
#
#
# Elastic Constant Matrix: (Units=GPa)
#
#
# Indices 1 2 3 4 5 6 
#
# 1 104.6753 41.1531 46.4955 0.0000 0.0000 0.0000
# 2 41.1531 61.9705 23.2211 0.0000 0.0000 0.0000
# 3 46.4955 23.2211 68.1292 0.0000 0.0000 0.0000
# 4 0.0000 0.0000 0.0000 1.0586 0.0000 0.0000
# 5 0.0000 0.0000 0.0000 0.0000 11.5537 0.0000
# 6 0.0000 0.0000 0.0000 0.0000 0.0000 17.1774
#
#
#
# Elastic Compliance Matrix: (Units=1/GPa)
#
#
# Indices 1 2 3 4 5 6 
#
# 1 0.016367 -0.007662 -0.008558 0.000000 0.000000 0.000000
# 2 -0.007662 0.022086 -0.002299 0.000000 0.000000 0.000000
# 3 -0.008558 -0.002299 0.021302 0.000000 0.000000 0.000000
# 4 0.000000 0.000000 0.000000 0.944635 0.000000 0.000000
# 5 0.000000 0.000000 0.000000 0.000000 0.086553 0.000000
# 6 0.000000 0.000000 0.000000 0.000000 0.000000 0.058216
#
#
# Mechanical properties :
#
#
# Convention : Reuss Voigt Hill
#
# Bulk Modulus (GPa) = 44.01958 50.72383 47.37170
# Shear Modulus (GPa) = 4.18841 14.21829 9.20335
#
# Velocity S-wave (km/s) = 1.64612 3.03291 2.44011
# Velocity P-wave (km/s) = 5.66493 6.71421 6.21177
#
# Compressibility (1/GPa) = 0.02271716
#
# Stress axis : x y z
#
# Youngs Moduli (GPa) = 61.09748 45.27690 46.94323
#
# Poissons Ratio (x) = 0.34692 0.40176
# Poissons Ratio (y) = 0.46814 0.10791
# Poissons Ratio (z) = 0.52290 0.10408
#
# Static dielectric constant tensor:
#      x y z
#    x 3.005010 0.000000 0.000000 
#    y 0.000000 3.268580 0.000000 
#    z 0.000000 0.000000 2.759500 
# 
# 
# High freq. dielectric constant tensor:
#      x y z
#    x 1.586360 0.000000 0.000000 
#    y 0.000000 1.592690 0.000000 
#    z 0.000000 0.000000 1.544380 
# 
# From -- ./inp_files/25260.got.cif
#   From: 2010.03.12/outbox.cif.g09.slc.cpg/sg51_13_cif.got.tgz:25260.got - 2010.04.16 13:43:02.
