data_PCOD8206844
_publ_section_title
;
Structure prediction by ZEFSAII (Michael W. Deem and Ramdas Pophale) SiO2 
 PCOD8206844
Probable space group: P M M A
;
_chemical_formula_sum "Si O2"
_cell_formula_units_Z 64
_cell_length_a 19.927466
_cell_length_b 9.220038
_cell_length_c 19.772203
_cell_angle_alpha 90.000000
_cell_angle_beta 90.000000
_cell_angle_gamma 90.000000
_cell_volume 3632.786278
_symmetry_space_group_name_H-M "P M M A"
_symmetry_group_IT_number 51
_symmetry_cell_setting 'orthorhombic'
loop_
_space_group_symop_operation_xyz
x,y,z
1/2-x,-y,z
1/2+x,-y,-z
-x,y,-z
-x,-y,-z
1/2+x,y,-z
1/2-x,y,z
x,-y,z
loop_
_atom_site_type_symbol
_atom_site_label
_atom_site_fract_x
_atom_site_fract_y
_atom_site_fract_z
Si Si1 0.324954 0.327793 0.110706
Si Si2 0.576018 0.335744 0.524836
Si Si3 0.458986 0.830037 0.347995
Si Si4 0.587348 0.669736 0.161897
Si Si5 0.941613 0.671016 0.791906
Si Si6 0.394103 0.835553 0.599293
Si Si7 0.825230 0.672224 0.039688
Si Si8 0.174618 0.833473 0.733487
O O1 0.250000 0.276803 0.132134
O O2 0.328169 0.500000 0.108864
O O3 0.379292 0.269620 0.163988
O O4 0.341999 0.267975 0.035408
O O5 0.500000 0.327988 0.500000
O O6 0.599481 0.500000 0.538113
O O7 0.585704 0.243720 0.593226
O O8 0.620568 0.266820 0.464871
O O9 0.439605 0.757802 0.277487
O O10 0.536672 0.798223 0.362553
O O11 0.442651 0.000000 0.345232
O O12 0.600580 0.500000 0.165200
O O13 0.508534 0.705972 0.164834
O O14 0.620540 0.734586 0.093255
O O15 0.622494 0.735932 0.227000
O O16 0.936638 0.500000 0.776113
O O17 0.335092 0.810854 0.653200
O O18 0.396633 0.000000 0.572224
O O19 0.750000 0.721655 0.061063
O O20 0.828903 0.500000 0.038250
O O21 0.250000 0.787026 0.752158
O O22 0.160663 0.000000 0.752727
#
# Coordination Sequence:
#
# PCOD8206844 Si02
#       8
#     8   8   8   8   8   8   8   8
#     4   8  15  29  48  69  94 125 161 201 248 300
#     4   9  17  28  46  71  96 121 152 196 240 279
#     4  10  18  30  48  69  96 129 158 192 240 291
#     4  10  19  29  45  71 101 127 158 204 250 291
#     4  10  19  29  46  73 100 125 158 205 252 291
#     4   9  17  30  46  66  92 125 163 197 231 280
#     4   8  14  26  44  66  94 128 163 198 239 290
#     4  10  20  33  48  67  96 136 174 202 233 283
#
# _framework density 17.617331
#
# number of rings (size 3 to 8) (size 9 to 14) (size 15 to 20)
#    0.000    2.750    1.250    1.875    0.000    3.750 
#    0.000    2.500    0.000    1.875    0.000    3.500 
#    0.000    0.000    0.000    0.000    0.000    0.000 
#
# Total GULP energy -793387.482236 kJ/mol
# GULP energy per Si atom -12396.679410 kJ/mol
# Density = 1.757723 g / cm^3
# Si number density = 17.617331 Si / 1000 Ang^3
#
#
#
# Elastic Constant Matrix: (Units=GPa)
#
#
# Indices 1 2 3 4 5 6 
#
# 1 89.0810 35.1267 62.0940 0.0000 0.0000 0.0000
# 2 35.1267 53.2772 51.3959 0.0000 0.0000 0.0000
# 3 62.0940 51.3959 134.4038 0.0000 0.0000 0.0000
# 4 0.0000 0.0000 0.0000 10.1976 0.0000 0.0000
# 5 0.0000 0.0000 0.0000 0.0000 17.2499 0.0000
# 6 0.0000 0.0000 0.0000 0.0000 0.0000 11.5453
#
#
#
# Elastic Compliance Matrix: (Units=1/GPa)
#
#
# Indices 1 2 3 4 5 6 
#
# 1 0.017686 -0.005987 -0.005882 0.000000 0.000000 0.000000
# 2 -0.005987 0.031768 -0.009382 0.000000 0.000000 0.000000
# 3 -0.005882 -0.009382 0.013745 0.000000 0.000000 0.000000
# 4 0.000000 0.000000 0.000000 0.098062 0.000000 0.000000
# 5 0.000000 0.000000 0.000000 0.000000 0.057971 0.000000
# 6 0.000000 0.000000 0.000000 0.000000 0.000000 0.086615
#
#
# Mechanical properties :
#
#
# Convention : Reuss Voigt Hill
#
# Bulk Modulus (GPa) = 48.31361 63.77725 56.04543
# Shear Modulus (GPa) = 14.07465 16.34160 15.20813
#
# Velocity S-wave (km/s) = 2.82957 3.04893 2.94130
# Velocity P-wave (km/s) = 6.17727 6.97672 6.58913
#
# Compressibility (1/GPa) = 0.02069810
#
# Stress axis : x y z
#
# Youngs Moduli (GPa) = 56.54086 31.47837 72.75275
#
# Poissons Ratio (x) = 0.18846 0.42790
# Poissons Ratio (y) = 0.33852 0.68257
# Poissons Ratio (z) = 0.33255 0.29533
#
# Static dielectric constant tensor:
#      x y z
#    x 3.213950 0.000000 0.000000 
#    y 0.000000 3.035390 0.000000 
#    z 0.000000 0.000000 3.434620 
# 
# 
# High freq. dielectric constant tensor:
#      x y z
#    x 1.655610 0.000000 0.000000 
#    y 0.000000 1.654280 0.000000 
#    z 0.000000 0.000000 1.688400 
# 
# From -- ./inp_files/30691.got.cif
#   From: 2010.03.12/outbox.cif.g09.slc.cpg/sg51_16_cif.got.tgz:30691.got - 2010.04.16 13:43:02.
