data_PCOD8206309
_publ_section_title
;
Structure prediction by ZEFSAII (Michael W. Deem and Ramdas Pophale) SiO2 
 PCOD8206309
Probable space group: P M M A
;
_chemical_formula_sum "Si O2"
_cell_formula_units_Z 52
_cell_length_a 8.912450
_cell_length_b 26.757287
_cell_length_c 13.571544
_cell_angle_alpha 90.000000
_cell_angle_beta 90.000000
_cell_angle_gamma 90.000000
_cell_volume 3236.446575
_symmetry_space_group_name_H-M "P M M A"
_symmetry_group_IT_number 51
_symmetry_cell_setting 'orthorhombic'
loop_
_space_group_symop_operation_xyz
x,y,z
1/2-x,-y,z
1/2+x,-y,-z
-x,y,-z
-x,-y,-z
1/2+x,y,-z
1/2-x,y,z
x,-y,z
loop_
_atom_site_type_symbol
_atom_site_label
_atom_site_fract_x
_atom_site_fract_y
_atom_site_fract_z
Si Si1 0.572426 0.838832 0.892752
Si Si2 0.075570 0.052732 0.104512
Si Si3 0.572736 0.500000 0.606554
Si Si4 0.927108 0.251537 0.216036
Si Si5 0.924247 0.599038 0.717643
Si Si6 0.573952 0.351469 0.104459
Si Si7 0.425322 0.300905 0.395480
O O1 0.750000 0.829063 0.901160
O O2 0.534645 0.893994 0.845150
O O3 0.498446 0.799560 0.820377
O O4 0.500000 0.833132 0.000000
O O5 0.250000 0.053276 0.083266
O O6 0.032668 0.000000 0.161712
O O7 0.000000 0.051455 0.000000
O O8 0.750000 0.500000 0.591587
O O9 0.500000 0.500000 0.500000
O O10 0.518774 0.451792 0.667543
O O11 0.750000 0.245876 0.226431
O O12 0.970254 0.295985 0.140801
O O13 0.997600 0.261954 0.322104
O O14 0.750000 0.596416 0.745932
O O15 0.956865 0.642863 0.639998
O O16 0.015598 0.607596 0.817945
O O17 0.750000 0.357750 0.093612
O O18 0.500000 0.362008 0.000000
O O19 0.500000 0.292960 0.500000
O O20 0.250000 0.289120 0.401583
#
# Coordination Sequence:
#
# PCOD8206309 Si02
#       7
#     8   8   4   8   8   8   8
#     4  10  18  27  41  62  89 121 155 190 227 266
#     4   8  14  24  37  54  79 113 151 187 222 261
#     4  10  20  34  53  76  99 122 147 182 226 268
#     4  10  20  32  46  66  91 119 152 189 227 269
#     4   9  19  34  51  72  97 122 150 183 219 263
#     4  10  20  33  50  69  91 121 155 189 225 266
#     4  10  19  32  50  70  93 120 148 181 222 268
#
# _framework density 16.067004000000001
#
# number of rings (size 3 to 8) (size 9 to 14) (size 15 to 20)
#    0.000    2.462    0.000    2.769    0.000    4.923 
#    0.000    0.385    0.000    0.000    0.000    0.000 
#    0.000    0.615    0.000    1.692    0.000    2.769 
#
# Total GULP energy -644488.377788 kJ/mol
# GULP energy per Si atom -12394.007265 kJ/mol
# Density = 1.603043 g / cm^3
# Si number density = 16.067004 Si / 1000 Ang^3
#
#
#
# Elastic Constant Matrix: (Units=GPa)
#
#
# Indices 1 2 3 4 5 6 
#
# 1 68.6571 50.5818 52.3994 0.0000 0.0000 0.0000
# 2 50.5818 148.4746 69.3203 0.0000 0.0000 0.0000
# 3 52.3994 69.3203 118.2163 0.0000 0.0000 0.0000
# 4 0.0000 0.0000 0.0000 19.1571 0.0000 0.0000
# 5 0.0000 0.0000 0.0000 0.0000 29.6150 0.0000
# 6 0.0000 0.0000 0.0000 0.0000 0.0000 20.2374
#
#
#
# Elastic Compliance Matrix: (Units=1/GPa)
#
#
# Indices 1 2 3 4 5 6 
#
# 1 0.023938 -0.004408 -0.008026 0.000000 0.000000 0.000000
# 2 -0.004408 0.010086 -0.003960 0.000000 0.000000 0.000000
# 3 -0.008026 -0.003960 0.014339 0.000000 0.000000 0.000000
# 4 0.000000 0.000000 0.000000 0.052200 0.000000 0.000000
# 5 0.000000 0.000000 0.000000 0.000000 0.033767 0.000000
# 6 0.000000 0.000000 0.000000 0.000000 0.000000 0.049414
#
#
# Mechanical properties :
#
#
# Convention : Reuss Voigt Hill
#
# Bulk Modulus (GPa) = 64.20786 75.55011 69.87898
# Shear Modulus (GPa) = 22.55073 24.67166 23.61120
#
# Velocity S-wave (km/s) = 3.75045 3.92286 3.83762
# Velocity P-wave (km/s) = 7.66837 8.22450 7.95130
#
# Compressibility (1/GPa) = 0.01557442
#
# Stress axis : x y z
#
# Youngs Moduli (GPa) = 41.77473 99.14842 69.74098
#
# Poissons Ratio (x) = 0.43705 0.55972
# Poissons Ratio (y) = 0.18414 0.27620
# Poissons Ratio (z) = 0.33527 0.39266
#
# Static dielectric constant tensor:
#      x y z
#    x 3.163430 0.000000 0.000000 
#    y 0.000000 3.521570 0.000000 
#    z 0.000000 0.000000 2.801260 
# 
# 
# High freq. dielectric constant tensor:
#      x y z
#    x 1.631040 0.000000 0.000000 
#    y 0.000000 1.623070 0.000000 
#    z 0.000000 0.000000 1.586870 
# 
# From -- ./inp_files/14589.got.cif
#   From: 2010.03.12/outbox.cif.g09.slc.cpg/sg51_8_cif.got.tgz:14589.got - 2010.04.16 13:43:02.
