data_PCOD8206557
_publ_section_title
;
Structure prediction by ZEFSAII (Michael W. Deem and Ramdas Pophale) SiO2 
 PCOD8206557
Probable space group: P M M A
;
_chemical_formula_sum "Si O2"
_cell_formula_units_Z 56
_cell_length_a 26.765420
_cell_length_b 9.187142
_cell_length_c 14.415983
_cell_angle_alpha 90.000000
_cell_angle_beta 90.000000
_cell_angle_gamma 90.000000
_cell_volume 3544.857268
_symmetry_space_group_name_H-M "P M M A"
_symmetry_group_IT_number 51
_symmetry_cell_setting 'orthorhombic'
loop_
_space_group_symop_operation_xyz
x,y,z
1/2-x,-y,z
1/2+x,-y,-z
-x,y,-z
-x,-y,-z
1/2+x,y,-z
1/2-x,y,z
x,-y,z
loop_
_atom_site_type_symbol
_atom_site_label
_atom_site_fract_x
_atom_site_fract_y
_atom_site_fract_z
Si Si1 0.192449 0.671700 0.887481
Si Si2 0.444119 0.832216 0.175783
Si Si3 0.429990 0.828266 0.575157
Si Si4 0.616738 0.831947 0.995396
Si Si5 0.379066 0.336141 0.726610
Si Si6 0.959751 0.171190 0.620629
Si Si7 0.040705 0.666266 0.879139
O O1 0.250000 0.716232 0.882156
O O2 0.184309 0.500000 0.900678
O O3 0.165474 0.723973 0.792616
O O4 0.167755 0.750418 0.976283
O O5 0.393364 0.815964 0.115397
O O6 0.433983 0.782269 0.282252
O O7 0.485826 0.730450 0.131103
O O8 0.462860 0.000000 0.174343
O O9 0.384560 0.757439 0.633039
O O10 0.483106 0.772846 0.616150
O O11 0.427392 0.773198 0.467704
O O12 0.423553 0.000000 0.584308
O O13 0.621286 0.000000 0.024546
O O14 0.569426 0.762061 0.045842
O O15 0.366500 0.500000 0.696637
O O16 0.431010 0.326287 0.781528
O O17 0.962604 0.000000 0.609463
O O18 0.037356 0.500000 0.914454
#
# Coordination Sequence:
#
# PCOD8206557 Si02
#       7
#     8   8   8   8   8   8   8
#     4   9  19  36  53  67  87 115 144 179 227 279
#     4  10  18  29  43  61  89 122 153 186 220 256
#     4   9  15  26  44  62  83 118 155 181 211 252
#     4  10  20  30  44  66  89 115 147 185 226 264
#     4   9  17  28  43  65  89 112 144 183 223 263
#     4   8  15  26  41  61  86 119 156 183 207 249
#     4  10  19  29  41  60  89 124 156 184 214 257
#
# _framework density 15.797534000000001
#
# number of rings (size 3 to 8) (size 9 to 14) (size 15 to 20)
#    0.000    2.714    1.429    3.000    0.000    5.429 
#    0.000    2.143    0.000    0.000    0.000    1.000 
#    0.000    5.714    0.000    0.000    0.000    0.000 
#
# Total GULP energy -694030.857078 kJ/mol
# GULP energy per Si atom -12393.408162 kJ/mol
# Density = 1.576158 g / cm^3
# Si number density = 15.797534 Si / 1000 Ang^3
#
#
#
# Elastic Constant Matrix: (Units=GPa)
#
#
# Indices 1 2 3 4 5 6 
#
# 1 85.2143 33.1180 53.6380 0.0000 0.0000 0.0000
# 2 33.1180 54.0261 38.3265 0.0000 0.0000 0.0000
# 3 53.6380 38.3265 117.4775 0.0000 0.0000 0.0000
# 4 0.0000 0.0000 0.0000 14.2555 0.0000 0.0000
# 5 0.0000 0.0000 0.0000 0.0000 14.1863 0.0000
# 6 0.0000 0.0000 0.0000 0.0000 0.0000 18.8145
#
#
#
# Elastic Compliance Matrix: (Units=1/GPa)
#
#
# Indices 1 2 3 4 5 6 
#
# 1 0.018232 -0.006858 -0.006087 0.000000 0.000000 0.000000
# 2 -0.006858 0.026663 -0.005567 0.000000 0.000000 0.000000
# 3 -0.006087 -0.005567 0.013108 0.000000 0.000000 0.000000
# 4 0.000000 0.000000 0.000000 0.070148 0.000000 0.000000
# 5 0.000000 0.000000 0.000000 0.000000 0.070490 0.000000
# 6 0.000000 0.000000 0.000000 0.000000 0.000000 0.053151
#
#
# Mechanical properties :
#
#
# Convention : Reuss Voigt Hill
#
# Bulk Modulus (GPa) = 47.66910 56.32033 51.99471
# Shear Modulus (GPa) = 16.90278 18.22697 17.56487
#
# Velocity S-wave (km/s) = 3.27458 3.40043 3.33810
# Velocity P-wave (km/s) = 6.67366 7.15164 6.91678
#
# Compressibility (1/GPa) = 0.02097795
#
# Stress axis : x y z
#
# Youngs Moduli (GPa) = 54.84901 37.50494 76.29049
#
# Poissons Ratio (x) = 0.25721 0.46437
# Poissons Ratio (y) = 0.37616 0.42474
# Poissons Ratio (z) = 0.33386 0.20881
#
# Static dielectric constant tensor:
#      x y z
#    x 2.700500 0.000000 0.000000 
#    y 0.000000 2.922690 0.000000 
#    z 0.000000 0.000000 3.269190 
# 
# 
# High freq. dielectric constant tensor:
#      x y z
#    x 1.559320 0.000000 0.000000 
#    y 0.000000 1.599880 0.000000 
#    z 0.000000 0.000000 1.609590 
# 
# From -- ./inp_files/26498.got.cif
#   From: 2010.03.12/outbox.cif.g09.slc.cpg/sg51_14_cif.got.tgz:26498.got - 2010.04.16 13:43:02.
