data_PCOD8206204
_publ_section_title
;
Structure prediction by ZEFSAII (Michael W. Deem and Ramdas Pophale) SiO2 
 PCOD8206204
Probable space group: P M M A
;
_chemical_formula_sum "Si O2"
_cell_formula_units_Z 40
_cell_length_a 14.895138
_cell_length_b 14.231520
_cell_length_c 9.231612
_cell_angle_alpha 90.000000
_cell_angle_beta 90.000000
_cell_angle_gamma 90.000000
_cell_volume 1956.921306
_symmetry_space_group_name_H-M "P M M A"
_symmetry_group_IT_number 51
_symmetry_cell_setting 'orthorhombic'
loop_
_space_group_symop_operation_xyz
x,y,z
1/2-x,-y,z
1/2+x,-y,-z
-x,y,-z
-x,-y,-z
1/2+x,y,-z
1/2-x,y,z
x,-y,z
loop_
_atom_site_type_symbol
_atom_site_label
_atom_site_fract_x
_atom_site_fract_y
_atom_site_fract_z
Si Si1 0.093033 0.104470 0.417363
Si Si2 0.352181 0.393880 0.176627
Si Si3 0.600058 0.604300 0.496426
Si Si4 0.024444 0.782724 0.154991
Si Si5 0.654944 0.229909 0.333380
O O1 0.086217 0.152656 0.258177
O O2 0.154883 0.165080 0.522924
O O3 0.000000 0.096953 0.500000
O O4 0.133206 0.000000 0.394009
O O5 0.250000 0.368430 0.126957
O O6 0.377242 0.500000 0.121164
O O7 0.353502 0.394502 0.349182
O O8 0.425153 0.316896 0.122843
O O9 0.500000 0.651051 0.500000
O O10 0.591602 0.500000 0.431955
O O11 0.659874 0.662928 0.386829
O O12 0.927331 0.777543 0.226858
O O13 0.000000 0.829371 0.000000
O O14 0.750000 0.208754 0.252780
#
# Coordination Sequence:
#
# PCOD8206204 Si02
#       5
#     8   8   8   8   8
#     4   9  19  38  61  83 108 142 186 235 287 340
#     4  10  20  35  56  81 112 154 200 243 289 340
#     4  10  17  30  55  84 113 144 188 245 294 334
#     4  11  23  38  57  85 121 157 192 234 286 348
#     4  11  21  36  58  86 115 147 191 241 290 342
#
# _framework density 20.440272
#
# number of rings (size 3 to 8) (size 9 to 14) (size 15 to 20)
#    0.000    1.800    4.000    1.200    0.000    3.200 
#    0.000    0.000    0.000    0.000    0.000    2.800 
#    0.000    0.000    0.000    0.000    0.000    0.000 
#
# Total GULP energy -495540.763031 kJ/mol
# GULP energy per Si atom -12388.519076 kJ/mol
# Density = 2.039375 g / cm^3
# Si number density = 20.440272 Si / 1000 Ang^3
#
#
#
# Elastic Constant Matrix: (Units=GPa)
#
#
# Indices 1 2 3 4 5 6 
#
# 1 120.9409 32.9240 21.0716 0.0000 0.0000 0.0000
# 2 32.9240 107.2814 32.6669 0.0000 0.0000 0.0000
# 3 21.0716 32.6669 86.5778 0.0000 0.0000 0.0000
# 4 0.0000 0.0000 0.0000 11.9910 0.0000 0.0000
# 5 0.0000 0.0000 0.0000 0.0000 7.3495 0.0000
# 6 0.0000 0.0000 0.0000 0.0000 0.0000 -1.2157
#
#
#
# Elastic Compliance Matrix: (Units=1/GPa)
#
#
# Indices 1 2 3 4 5 6 
#
# 1 0.009154 -0.002407 -0.001320 0.000000 0.000000 0.000000
# 2 -0.002407 0.011164 -0.003627 0.000000 0.000000 0.000000
# 3 -0.001320 -0.003627 0.013240 0.000000 0.000000 0.000000
# 4 0.000000 0.000000 0.000000 0.083396 0.000000 0.000000
# 5 0.000000 0.000000 0.000000 0.000000 0.136064 0.000000
# 6 0.000000 0.000000 0.000000 0.000000 0.000000 -0.822592
#
#
# Mechanical properties :
#
#
# Convention : Reuss Voigt Hill
#
# Bulk Modulus (GPa) = 53.04772 54.23614 53.64193
# Shear Modulus (GPa) = -9.11438 18.83413 4.85987
#
# Velocity S-wave (km/s) = -2.11393 3.03879 1.54362
# Velocity P-wave (km/s) = 4.47779 6.23730 5.42929
#
# Compressibility (1/GPa) = 0.01885095
#
# Stress axis : x y z
#
# Youngs Moduli (GPa) = 109.24439 89.57052 75.52991
#
# Poissons Ratio (x) = 0.21564 0.09966
# Poissons Ratio (y) = 0.26300 0.27391
# Poissons Ratio (z) = 0.14415 0.32483
#
# Static dielectric constant tensor:
#      x y z
#    x 3.921080 0.000000 0.000000 
#    y 0.000000 4.012260 0.000000 
#    z 0.000000 0.000000 3.408000 
# 
# 
# High freq. dielectric constant tensor:
#      x y z
#    x 1.801670 0.000000 0.000000 
#    y 0.000000 1.794570 0.000000 
#    z 0.000000 0.000000 1.761480 
# 
# From -- ./inp_files/7962.got.cif
#   From: 2010.03.12/outbox.cif.g09.slc.cpg/sg51_4_cif.got.tgz:7962.got - 2010.04.16 13:43:02.
