data_PCOD8206190
_publ_section_title
;
Structure prediction by ZEFSAII (Michael W. Deem and Ramdas Pophale) SiO2 
 PCOD8206190
Probable space group: P M M A
;
_chemical_formula_sum "Si O2"
_cell_formula_units_Z 48
_cell_length_a 18.335382
_cell_length_b 14.049602
_cell_length_c 10.090728
_cell_angle_alpha 90.000000
_cell_angle_beta 90.000000
_cell_angle_gamma 90.000000
_cell_volume 2599.420166
_symmetry_space_group_name_H-M "P M M A"
_symmetry_group_IT_number 51
_symmetry_cell_setting 'orthorhombic'
loop_
_space_group_symop_operation_xyz
x,y,z
1/2-x,-y,z
1/2+x,-y,-z
-x,y,-z
-x,-y,-z
1/2+x,y,-z
1/2-x,y,z
x,-y,z
loop_
_atom_site_type_symbol
_atom_site_label
_atom_site_fract_x
_atom_site_fract_y
_atom_site_fract_z
Si Si1 0.951606 0.391395 0.376098
Si Si2 0.165107 0.241991 0.270099
Si Si3 0.834560 0.893897 0.197099
Si Si4 0.833715 0.239568 0.429934
Si Si5 0.579535 0.790882 0.975329
Si Si6 0.073152 0.608422 0.161915
O O1 0.925810 0.500000 0.395419
O O2 0.880891 0.325293 0.370346
O O3 0.000000 0.358240 0.500000
O O4 0.997725 0.379805 0.241808
O O5 0.250000 0.230390 0.235346
O O6 0.147042 0.210457 0.419474
O O7 0.116617 0.178341 0.166247
O O8 0.140195 0.352984 0.253764
O O9 0.750000 0.897356 0.162780
O O10 0.848204 0.855266 0.344887
O O11 0.868333 0.000000 0.186371
O O12 0.869676 0.821081 0.094671
O O13 0.750000 0.273387 0.420421
O O14 0.570901 0.674975 0.969804
O O15 0.500000 0.837823 0.000000
O O16 0.087493 0.500000 0.119198
#
# Coordination Sequence:
#
# PCOD8206190 Si02
#       6
#     8   8   8   8   8   8
#     4  10  17  30  51  80 115 151 185 220 272 331
#     4   9  19  34  54  82 112 145 186 230 277 327
#     4  10  22  40  60  81 109 147 187 234 297 352
#     4  10  20  35  57  82 113 150 191 240 285 335
#     4  10  20  36  58  83 110 151 188 233 279 337
#     4   9  19  32  53  83 113 151 187 225 272 326
#
# _framework density 18.465655999999999
#
# number of rings (size 3 to 8) (size 9 to 14) (size 15 to 20)
#    1.000    1.333    1.667    1.500    0.000    1.333 
#    0.000    3.333    0.000    7.500    0.000    0.000 
#    0.000    0.000    0.000    0.000    0.000    0.000 
#
# Total GULP energy -594737.614716 kJ/mol
# GULP energy per Si atom -12390.366973 kJ/mol
# Density = 1.842363 g / cm^3
# Si number density = 18.465656 Si / 1000 Ang^3
#
#
#
# Elastic Constant Matrix: (Units=GPa)
#
#
# Indices 1 2 3 4 5 6 
#
# 1 83.9012 47.7966 59.1195 0.0000 0.0000 0.0000
# 2 47.7966 83.8606 59.9412 0.0000 0.0000 0.0000
# 3 59.1195 59.9412 114.6479 0.0000 0.0000 0.0000
# 4 0.0000 0.0000 0.0000 20.4560 0.0000 0.0000
# 5 0.0000 0.0000 0.0000 0.0000 29.1730 0.0000
# 6 0.0000 0.0000 0.0000 0.0000 0.0000 15.4518
#
#
#
# Elastic Compliance Matrix: (Units=1/GPa)
#
#
# Indices 1 2 3 4 5 6 
#
# 1 0.020839 -0.006700 -0.007243 0.000000 0.000000 0.000000
# 2 -0.006700 0.021194 -0.007626 0.000000 0.000000 0.000000
# 3 -0.007243 -0.007626 0.016444 0.000000 0.000000 0.000000
# 4 0.000000 0.000000 0.000000 0.048885 0.000000 0.000000
# 5 0.000000 0.000000 0.000000 0.000000 0.034278 0.000000
# 6 0.000000 0.000000 0.000000 0.000000 0.000000 0.064717
#
#
# Mechanical properties :
#
#
# Convention : Reuss Voigt Hill
#
# Bulk Modulus (GPa) = 65.19080 68.45825 66.82452
# Shear Modulus (GPa) = 19.63784 20.71966 20.17875
#
# Velocity S-wave (km/s) = 3.26464 3.35336 3.30930
# Velocity P-wave (km/s) = 7.04208 7.22130 7.13225
#
# Compressibility (1/GPa) = 0.01533959
#
# Stress axis : x y z
#
# Youngs Moduli (GPa) = 47.98583 47.18273 60.81171
#
# Poissons Ratio (x) = 0.31615 0.44045
# Poissons Ratio (y) = 0.32153 0.46373
# Poissons Ratio (z) = 0.34756 0.35980
#
# Static dielectric constant tensor:
#      x y z
#    x 3.434790 0.000000 0.000000 
#    y 0.000000 3.179520 0.000000 
#    z 0.000000 0.000000 3.397410 
# 
# 
# High freq. dielectric constant tensor:
#      x y z
#    x 1.716910 0.000000 0.000000 
#    y 0.000000 1.684430 0.000000 
#    z 0.000000 0.000000 1.721690 
# 
# From -- ./inp_files/16388.got.cif
#   From: 2010.03.12/outbox.cif.g09.slc.cpg/sg51_9_cif.got.tgz:16388.got - 2010.04.16 13:43:02.
