data_PCOD8206822
_publ_section_title
;
Structure prediction by ZEFSAII (Michael W. Deem and Ramdas Pophale) SiO2 
 PCOD8206822
Probable space group: P M M A
;
_chemical_formula_sum "Si O2"
_cell_formula_units_Z 40
_cell_length_a 8.972268
_cell_length_b 15.536722
_cell_length_c 19.657491
_cell_angle_alpha 90.000000
_cell_angle_beta 90.000000
_cell_angle_gamma 90.000000
_cell_volume 2740.247043
_symmetry_space_group_name_H-M "P M M A"
_symmetry_group_IT_number 51
_symmetry_cell_setting 'orthorhombic'
loop_
_space_group_symop_operation_xyz
x,y,z
1/2-x,-y,z
1/2+x,-y,-z
-x,y,-z
-x,-y,-z
1/2+x,y,-z
1/2-x,y,z
x,-y,z
loop_
_atom_site_type_symbol
_atom_site_label
_atom_site_fract_x
_atom_site_fract_y
_atom_site_fract_z
Si Si1 0.926512 0.669848 0.927092
Si Si2 0.927331 0.097316 0.286902
Si Si3 0.926106 0.000000 0.927275
Si Si4 0.423642 0.837415 0.159013
Si Si5 0.070778 0.500000 0.925308
Si Si6 0.914176 0.102362 0.435676
O O1 0.750000 0.654680 0.936599
O O2 0.962076 0.748891 0.878057
O O3 0.005020 0.586842 0.891267
O O4 0.000000 0.689458 0.000000
O O5 0.750000 0.101329 0.286138
O O6 0.985793 0.125920 0.362075
O O7 0.993609 0.161989 0.231342
O O8 0.981535 0.000000 0.270816
O O9 0.981849 0.084225 0.887283
O O10 0.750000 0.000000 0.937219
O O11 0.000000 0.000000 0.000000
O O12 0.250000 0.847599 0.173342
O O13 0.250000 0.500000 0.925523
O O14 0.000000 0.500000 0.000000
O O15 0.750000 0.142059 0.439621
O O16 0.000000 0.142846 0.500000
O O17 0.907616 0.000000 0.441681
#
# Coordination Sequence:
#
# PCOD8206822 Si02
#       6
#     8   8   4   8   4   8
#     4  10  19  31  46  64  83 105 134 172 213 255
#     4   9  17  28  41  57  79 108 141 174 207 244
#     4  10  20  32  42  56  77 104 141 178 207 240
#     4  10  20  31  43  59  82 109 140 175 209 245
#     4  10  18  30  48  66  82 102 127 164 211 260
#     4   8  14  24  37  55  76  99 132 170 205 241
#
# _framework density 14.597223
#
# number of rings (size 3 to 8) (size 9 to 14) (size 15 to 20)
#    0.000    2.600    1.000    4.500    0.000    3.200 
#    0.000    2.000    0.000    0.000    0.000    0.000 
#    0.000    0.000    0.000    0.900    0.000   11.800 
#
# Total GULP energy -495756.782383 kJ/mol
# GULP energy per Si atom -12393.919560 kJ/mol
# Density = 1.456400 g / cm^3
# Si number density = 14.597223 Si / 1000 Ang^3
#
#
#
# Elastic Constant Matrix: (Units=GPa)
#
#
# Indices 1 2 3 4 5 6 
#
# 1 62.5488 37.8723 44.8405 0.0000 0.0000 0.0000
# 2 37.8723 89.1664 48.0509 0.0000 0.0000 0.0000
# 3 44.8405 48.0509 120.7568 0.0000 0.0000 0.0000
# 4 0.0000 0.0000 0.0000 7.8240 0.0000 0.0000
# 5 0.0000 0.0000 0.0000 0.0000 26.1112 0.0000
# 6 0.0000 0.0000 0.0000 0.0000 0.0000 17.5571
#
#
#
# Elastic Compliance Matrix: (Units=1/GPa)
#
#
# Indices 1 2 3 4 5 6 
#
# 1 0.024894 -0.007118 -0.006411 0.000000 0.000000 0.000000
# 2 -0.007118 0.016312 -0.003847 0.000000 0.000000 0.000000
# 3 -0.006411 -0.003847 0.012193 0.000000 0.000000 0.000000
# 4 0.000000 0.000000 0.000000 0.127811 0.000000 0.000000
# 5 0.000000 0.000000 0.000000 0.000000 0.038298 0.000000
# 6 0.000000 0.000000 0.000000 0.000000 0.000000 0.056957
#
#
# Mechanical properties :
#
#
# Convention : Reuss Voigt Hill
#
# Bulk Modulus (GPa) = 53.63616 59.33328 56.48472
# Shear Modulus (GPa) = 15.75136 19.74570 17.74853
#
# Velocity S-wave (km/s) = 3.28848 3.68190 3.49074
# Velocity P-wave (km/s) = 7.15840 7.66879 7.41799
#
# Compressibility (1/GPa) = 0.01864414
#
# Stress axis : x y z
#
# Youngs Moduli (GPa) = 40.17074 61.30548 82.01584
#
# Poissons Ratio (x) = 0.43639 0.52583
# Poissons Ratio (y) = 0.28595 0.31555
# Poissons Ratio (z) = 0.25755 0.23587
#
# Static dielectric constant tensor:
#      x y z
#    x 2.844070 0.000000 0.000000 
#    y 0.000000 2.919520 0.000000 
#    z 0.000000 0.000000 2.882580 
# 
# 
# High freq. dielectric constant tensor:
#      x y z
#    x 1.562720 0.000000 0.000000 
#    y 0.000000 1.522390 0.000000 
#    z 0.000000 0.000000 1.547710 
# 
# From -- ./inp_files/31533.got.cif
#   From: 2010.03.12/outbox.cif.g09.slc.cpg/sg51_16_cif.got.tgz:31533.got - 2010.04.16 13:43:02.
