data_PCOD8206492
_publ_section_title
;
Structure prediction by ZEFSAII (Michael W. Deem and Ramdas Pophale) SiO2 
 PCOD8206492
Probable space group: P M M A
;
_chemical_formula_sum "Si O2"
_cell_formula_units_Z 48
_cell_length_a 9.365218
_cell_length_b 13.758254
_cell_length_c 23.997136
_cell_angle_alpha 90.000000
_cell_angle_beta 90.000000
_cell_angle_gamma 90.000000
_cell_volume 3092.008129
_symmetry_space_group_name_H-M "P M M A"
_symmetry_group_IT_number 51
_symmetry_cell_setting 'orthorhombic'
loop_
_space_group_symop_operation_xyz
x,y,z
1/2-x,-y,z
1/2+x,-y,-z
-x,y,-z
-x,-y,-z
1/2+x,y,-z
1/2-x,y,z
x,-y,z
loop_
_atom_site_type_symbol
_atom_site_label
_atom_site_fract_x
_atom_site_fract_y
_atom_site_fract_z
Si Si1 0.091712 0.115725 0.550474
Si Si2 0.919502 0.107858 0.328009
Si Si3 0.420023 0.781369 0.780713
Si Si4 0.083391 0.388466 0.167980
Si Si5 0.914401 0.889555 0.873854
Si Si6 0.586878 0.289268 0.945690
O O1 0.250000 0.159477 0.544190
O O2 0.025283 0.143880 0.611122
O O3 0.000000 0.160797 0.500000
O O4 0.096851 0.000000 0.546280
O O5 0.750000 0.100328 0.331266
O O6 0.966444 0.183871 0.280808
O O7 0.980714 0.000000 0.314074
O O8 0.250000 0.775705 0.787990
O O9 0.489259 0.675697 0.789958
O O10 0.481857 0.859853 0.823818
O O11 0.250000 0.366469 0.178672
O O12 0.044870 0.500000 0.178955
O O13 0.043557 0.361049 0.104579
O O14 0.750000 0.875112 0.854485
O O15 0.945247 0.821756 0.927275
O O16 0.946248 0.000000 0.891420
O O17 0.750000 0.303690 0.962120
O O18 0.500000 0.318254 0.000000
#
# Coordination Sequence:
#
# PCOD8206492 Si02
#       6
#     8   8   8   8   8   8
#     4   8  13  22  35  51  76 112 149 178 202 231
#     4   8  14  24  38  58  87 120 145 168 206 248
#     4  10  18  28  45  68  89 108 139 181 215 249
#     4   9  19  36  52  63  82 112 137 163 211 267
#     4   9  18  32  46  60  85 120 148 170 203 247
#     4   9  18  31  46  65  86 108 136 169 206 249
#
# _framework density 15.523892
#
# number of rings (size 3 to 8) (size 9 to 14) (size 15 to 20)
#    0.000    3.167    0.000    3.000    0.000    4.667 
#    0.000    1.667    0.000    4.000    0.000    0.000 
#    0.000    0.667    0.000    1.500    0.000    2.667 
#
# Total GULP energy -594938.953431 kJ/mol
# GULP energy per Si atom -12394.561530 kJ/mol
# Density = 1.548856 g / cm^3
# Si number density = 15.523892 Si / 1000 Ang^3
#
#
#
# Elastic Constant Matrix: (Units=GPa)
#
#
# Indices 1 2 3 4 5 6 
#
# 1 57.0337 29.4384 49.9755 0.0000 0.0000 0.0000
# 2 29.4384 81.3769 39.8669 0.0000 0.0000 0.0000
# 3 49.9755 39.8669 123.1503 0.0000 0.0000 0.0000
# 4 0.0000 0.0000 0.0000 14.0616 0.0000 0.0000
# 5 0.0000 0.0000 0.0000 0.0000 25.4491 0.0000
# 6 0.0000 0.0000 0.0000 0.0000 0.0000 18.8463
#
#
#
# Elastic Compliance Matrix: (Units=1/GPa)
#
#
# Indices 1 2 3 4 5 6 
#
# 1 0.029252 -0.005665 -0.010037 0.000000 0.000000 0.000000
# 2 -0.005665 0.015702 -0.002784 0.000000 0.000000 0.000000
# 3 -0.010037 -0.002784 0.013095 0.000000 0.000000 0.000000
# 4 0.000000 0.000000 0.000000 0.071116 0.000000 0.000000
# 5 0.000000 0.000000 0.000000 0.000000 0.039294 0.000000
# 6 0.000000 0.000000 0.000000 0.000000 0.000000 0.053061
#
#
# Mechanical properties :
#
#
# Convention : Reuss Voigt Hill
#
# Bulk Modulus (GPa) = 47.44629 55.56917 51.50773
# Shear Modulus (GPa) = 18.83118 21.15674 19.99396
#
# Velocity S-wave (km/s) = 3.48666 3.69569 3.59269
# Velocity P-wave (km/s) = 6.84389 7.35421 7.10363
#
# Compressibility (1/GPa) = 0.02107646
#
# Stress axis : x y z
#
# Youngs Moduli (GPa) = 34.18524 63.68689 76.36755
#
# Poissons Ratio (x) = 0.36079 0.76650
# Poissons Ratio (y) = 0.19366 0.21262
# Poissons Ratio (z) = 0.34312 0.17732
#
# Static dielectric constant tensor:
#      x y z
#    x 2.906060 0.000000 0.000000 
#    y 0.000000 2.838130 0.000000 
#    z 0.000000 0.000000 3.088480 
# 
# 
# High freq. dielectric constant tensor:
#      x y z
#    x 1.585420 0.000000 0.000000 
#    y 0.000000 1.566470 0.000000 
#    z 0.000000 0.000000 1.590380 
# 
# From -- ./inp_files/34631.got.cif
#   From: 2010.03.12/outbox.cif.g09.slc.cpg/sg51_18_cif.got.tgz:34631.got - 2010.04.16 13:43:02.
