data_PCOD8206741
_publ_section_title
;
Structure prediction by ZEFSAII (Michael W. Deem and Ramdas Pophale) SiO2 
 PCOD8206741
Probable space group: P M M A
;
_chemical_formula_sum "Si O2"
_cell_formula_units_Z 56
_cell_length_a 14.364091
_cell_length_b 9.262295
_cell_length_c 22.530746
_cell_angle_alpha 90.000000
_cell_angle_beta 90.000000
_cell_angle_gamma 90.000000
_cell_volume 2997.590670
_symmetry_space_group_name_H-M "P M M A"
_symmetry_group_IT_number 51
_symmetry_cell_setting 'orthorhombic'
loop_
_space_group_symop_operation_xyz
x,y,z
1/2-x,-y,z
1/2+x,-y,-z
-x,y,-z
-x,-y,-z
1/2+x,y,-z
1/2-x,y,z
x,-y,z
loop_
_atom_site_type_symbol
_atom_site_label
_atom_site_fract_x
_atom_site_fract_y
_atom_site_fract_z
Si Si1 0.642716 0.668847 0.252931
Si Si2 0.854803 0.832863 0.603720
Si Si3 0.357357 0.835356 0.965966
Si Si4 0.469171 0.330837 0.629875
Si Si5 0.459629 0.171059 0.851954
Si Si6 0.351811 0.171042 0.096376
Si Si7 0.143679 0.164875 0.534895
O O1 0.750000 0.719478 0.252887
O O2 0.634605 0.500000 0.239564
O O3 0.598472 0.708724 0.316038
O O4 0.585176 0.753394 0.203973
O O5 0.750000 0.785346 0.621603
O O6 0.870959 0.805141 0.534276
O O7 0.929362 0.739785 0.640636
O O8 0.869546 0.000000 0.619305
O O9 0.250000 0.820751 0.948987
O O10 0.414808 0.763405 0.912280
O O11 0.390379 0.000000 0.968623
O O12 0.376787 0.764511 0.030755
O O13 0.482973 0.500000 0.622675
O O14 0.423775 0.270288 0.570120
O O15 0.569670 0.211334 0.855413
O O16 0.443216 0.000000 0.845851
O O17 0.250000 0.229241 0.117294
O O18 0.345728 0.000000 0.088275
O O19 0.250000 0.196155 0.553023
O O20 0.117016 0.000000 0.550082
#
# Coordination Sequence:
#
# PCOD8206741 Si02
#       7
#     8   8   8   8   8   8   8
#     4  10  23  41  54  67  96 135 167 200 250 304
#     4   9  19  36  56  79 108 138 166 201 250 306
#     4   8  13  22  40  70 104 130 154 194 249 299
#     4  11  22  35  53  76 102 135 175 215 253 296
#     4  10  18  29  50  77  99 124 167 214 244 279
#     4   8  14  25  43  71 106 135 156 190 247 304
#     4   9  18  33  54  80 109 139 168 202 251 308
#
# _framework density 18.68167
#
# number of rings (size 3 to 8) (size 9 to 14) (size 15 to 20)
#    0.000    2.714    0.000    3.857    0.000    7.143 
#    0.000    2.143    0.000    4.714    0.000    2.000 
#    0.000    0.000    0.000    0.000    0.000    0.000 
#
# Total GULP energy -694137.358442 kJ/mol
# GULP energy per Si atom -12395.309972 kJ/mol
# Density = 1.863915 g / cm^3
# Si number density = 18.681670 Si / 1000 Ang^3
#
#
#
# Elastic Constant Matrix: (Units=GPa)
#
#
# Indices 1 2 3 4 5 6 
#
# 1 125.9551 47.0504 52.4197 0.0000 0.0000 0.0000
# 2 47.0504 45.9724 33.3416 0.0000 0.0000 0.0000
# 3 52.4197 33.3416 54.9073 0.0000 0.0000 0.0000
# 4 0.0000 0.0000 0.0000 -35.8666 0.0000 0.0000
# 5 0.0000 0.0000 0.0000 0.0000 33.5764 0.0000
# 6 0.0000 0.0000 0.0000 0.0000 0.0000 22.4477
#
#
#
# Elastic Compliance Matrix: (Units=1/GPa)
#
#
# Indices 1 2 3 4 5 6 
#
# 1 0.014946 -0.008842 -0.008900 0.000000 0.000000 0.000000
# 2 -0.008842 0.044102 -0.018339 0.000000 0.000000 0.000000
# 3 -0.008900 -0.018339 0.037845 0.000000 0.000000 0.000000
# 4 0.000000 0.000000 0.000000 -0.027881 0.000000 0.000000
# 5 0.000000 0.000000 0.000000 0.000000 0.029783 0.000000
# 6 0.000000 0.000000 0.000000 0.000000 0.000000 0.044548
#
#
# Mechanical properties :
#
#
# Convention : Reuss Voigt Hill
#
# Bulk Modulus (GPa) = 40.43371 54.71759 47.57565
# Shear Modulus (GPa) = 22.34660 10.29969 16.32315
#
# Velocity S-wave (km/s) = 3.46233 2.35058 2.95914
# Velocity P-wave (km/s) = 6.13793 6.05970 6.09894
#
# Compressibility (1/GPa) = 0.02473184
#
# Stress axis : x y z
#
# Youngs Moduli (GPa) = 66.90677 22.67488 26.42354
#
# Poissons Ratio (x) = 0.20049 0.23517
# Poissons Ratio (y) = 0.59159 0.48457
# Poissons Ratio (z) = 0.59546 0.41583
#
# Static dielectric constant tensor:
#      x y z
#    x 3.793840 0.000000 0.000000 
#    y 0.000000 3.035860 0.000000 
#    z 0.000000 0.000000 3.311880 
# 
# 
# High freq. dielectric constant tensor:
#      x y z
#    x 1.747730 0.000000 0.000000 
#    y 0.000000 1.679140 0.000000 
#    z 0.000000 0.000000 1.708570 
# 
# From -- ./inp_files/33291.got.cif
#   From: 2010.03.12/outbox.cif.g09.slc.cpg/sg51_17_cif.got.tgz:33291.got - 2010.04.16 13:43:02.
