data_PCOD8206055
_publ_section_title
;
Structure prediction by ZEFSAII (Michael W. Deem and Ramdas Pophale) SiO2 
 PCOD8206055
Probable space group: P M M A
;
_chemical_formula_sum "Si O2"
_cell_formula_units_Z 44
_cell_length_a 8.628281
_cell_length_b 23.681412
_cell_length_c 14.199984
_cell_angle_alpha 90.000000
_cell_angle_beta 90.000000
_cell_angle_gamma 90.000000
_cell_volume 2901.480987
_symmetry_space_group_name_H-M "P M M A"
_symmetry_group_IT_number 51
_symmetry_cell_setting 'orthorhombic'
loop_
_space_group_symop_operation_xyz
x,y,z
1/2-x,-y,z
1/2+x,-y,-z
-x,y,-z
-x,-y,-z
1/2+x,y,-z
1/2-x,y,z
x,-y,z
loop_
_atom_site_type_symbol
_atom_site_label
_atom_site_fract_x
_atom_site_fract_y
_atom_site_fract_z
Si Si1 0.932925 0.827900 0.604638
Si Si2 0.567315 0.287056 0.396267
Si Si3 0.430746 0.938830 0.603372
Si Si4 0.567696 0.565428 0.099750
Si Si5 0.566868 0.390177 0.714751
Si Si6 0.567104 0.500000 0.603226
O O1 0.750000 0.823485 0.604776
O O2 0.000000 0.831230 0.500000
O O3 0.002895 0.771063 0.650206
O O4 0.987629 0.885878 0.657560
O O5 0.500000 0.298292 0.500000
O O6 0.750000 0.283384 0.405501
O O7 0.519856 0.336560 0.326745
O O8 0.500000 0.943329 0.500000
O O9 0.250000 0.925594 0.595820
O O10 0.459624 0.000000 0.654157
O O11 0.750000 0.576607 0.102699
O O12 0.527309 0.500000 0.118112
O O13 0.481795 0.603183 0.177114
O O14 0.500000 0.584995 0.000000
O O15 0.750000 0.381831 0.706265
O O16 0.507589 0.444847 0.657791
O O17 0.750000 0.500000 0.597267
O O18 0.500000 0.500000 0.500000
#
# Coordination Sequence:
#
# PCOD8206055 Si02
#       6
#     8   8   8   8   8   4
#     4  10  17  26  39  54  74 103 138 177 216 254
#     4  11  21  33  46  62  84 114 149 184 220 261
#     4   9  15  22  33  50  72  98 130 171 215 254
#     4  10  20  34  53  74  93 114 138 171 214 262
#     4  11  21  35  50  68  89 114 144 178 219 263
#     4  10  22  34  47  64  87 114 141 176 216 256
#
# _framework density 15.164669
#
# number of rings (size 3 to 8) (size 9 to 14) (size 15 to 20)
#    0.000    1.818    0.909    7.636    0.000    4.727 
#    0.000    0.000    0.000    0.000    0.000    0.000 
#    0.000    0.000    0.000    0.000    0.000    0.909 
#
# Total GULP energy -545416.021192 kJ/mol
# GULP energy per Si atom -12395.818663 kJ/mol
# Density = 1.513015 g / cm^3
# Si number density = 15.164669 Si / 1000 Ang^3
#
#
#
# Elastic Constant Matrix: (Units=GPa)
#
#
# Indices 1 2 3 4 5 6 
#
# 1 110.9147 53.1514 23.5499 0.0000 0.0000 0.0000
# 2 53.1514 140.5729 37.4837 0.0000 0.0000 0.0000
# 3 23.5499 37.4837 60.8271 0.0000 0.0000 0.0000
# 4 0.0000 0.0000 0.0000 1.9753 0.0000 0.0000
# 5 0.0000 0.0000 0.0000 0.0000 20.1885 0.0000
# 6 0.0000 0.0000 0.0000 0.0000 0.0000 27.1756
#
#
#
# Elastic Compliance Matrix: (Units=1/GPa)
#
#
# Indices 1 2 3 4 5 6 
#
# 1 0.011225 -0.003692 -0.002071 0.000000 0.000000 0.000000
# 2 -0.003692 0.009727 -0.004565 0.000000 0.000000 0.000000
# 3 -0.002071 -0.004565 0.020055 0.000000 0.000000 0.000000
# 4 0.000000 0.000000 0.000000 0.506243 0.000000 0.000000
# 5 0.000000 0.000000 0.000000 0.000000 0.049533 0.000000
# 6 0.000000 0.000000 0.000000 0.000000 0.000000 0.036798
#
#
# Mechanical properties :
#
#
# Convention : Reuss Voigt Hill
#
# Bulk Modulus (GPa) = 49.13599 60.07607 54.60603
# Shear Modulus (GPa) = 7.56408 23.07655 15.32031
#
# Velocity S-wave (km/s) = 2.23580 3.90517 3.18191
# Velocity P-wave (km/s) = 6.25596 7.74827 7.04176
#
# Compressibility (1/GPa) = 0.02035168
#
# Stress axis : x y z
#
# Youngs Moduli (GPa) = 89.08810 102.80790 49.86389
#
# Poissons Ratio (x) = 0.37957 0.10325
# Poissons Ratio (y) = 0.32892 0.22761
# Poissons Ratio (z) = 0.18447 0.46928
#
# Static dielectric constant tensor:
#      x y z
#    x 3.067400 0.000000 0.000000 
#    y 0.000000 3.827750 0.000000 
#    z 0.000000 0.000000 2.485020 
# 
# 
# High freq. dielectric constant tensor:
#      x y z
#    x 1.603670 0.000000 0.000000 
#    y 0.000000 1.593810 0.000000 
#    z 0.000000 0.000000 1.514810 
# 
# From -- ./inp_files/14433.got.cif
#   From: 2010.03.12/outbox.cif.g09.slc.cpg/sg51_8_cif.got.tgz:14433.got - 2010.04.16 13:43:02.
