data_PCOD8206178
_publ_section_title
;
Structure prediction by ZEFSAII (Michael W. Deem and Ramdas Pophale) SiO2 
 PCOD8206178
Probable space group: P M M A
;
_chemical_formula_sum "Si O2"
_cell_formula_units_Z 48
_cell_length_a 14.626273
_cell_length_b 8.786443
_cell_length_c 18.675301
_cell_angle_alpha 90.000000
_cell_angle_beta 90.000000
_cell_angle_gamma 90.000000
_cell_volume 2400.017352
_symmetry_space_group_name_H-M "P M M A"
_symmetry_group_IT_number 51
_symmetry_cell_setting 'orthorhombic'
loop_
_space_group_symop_operation_xyz
x,y,z
1/2-x,-y,z
1/2+x,-y,-z
-x,y,-z
-x,-y,-z
1/2+x,y,-z
1/2-x,y,z
x,-y,z
loop_
_atom_site_type_symbol
_atom_site_label
_atom_site_fract_x
_atom_site_fract_y
_atom_site_fract_z
Si Si1 0.604380 0.670737 0.980617
Si Si2 0.250000 0.820750 0.919729
Si Si3 0.451210 0.819145 0.427535
Si Si4 0.250000 0.678406 0.762763
Si Si5 0.922982 0.327759 0.827201
Si Si6 0.750000 0.826360 0.590845
Si Si7 0.445397 0.680328 0.708443
Si Si8 0.750000 0.666417 0.729524
O O1 0.646948 0.500000 0.978804
O O2 0.605063 0.752389 0.902010
O O3 0.500000 0.664134 0.000000
O O4 0.659900 0.768255 0.037959
O O5 0.250000 0.759100 0.839185
O O6 0.250000 0.000000 0.915183
O O7 0.500000 0.767584 0.500000
O O8 0.346766 0.753365 0.435048
O O9 0.507637 0.753559 0.360830
O O10 0.448525 0.000000 0.417923
O O11 0.250000 0.500000 0.779234
O O12 0.338381 0.724155 0.714886
O O13 0.949929 0.500000 0.848272
O O14 0.837743 0.318024 0.776695
O O15 0.007499 0.257091 0.782000
O O16 0.750000 0.807088 0.675928
O O17 0.750000 0.000000 0.567275
O O18 0.460671 0.500000 0.702332
O O19 0.750000 0.500000 0.690722
#
# Coordination Sequence:
#
# PCOD8206178 Si02
#       8
#     8   4   8   4   8   4   8   4
#     4  10  20  37  61  83 110 154 204 249 296 353
#     4  12  25  39  56  85 125 161 195 244 304 361
#     4  10  22  39  59  85 120 159 192 228 282 349
#     4  10  22  40  62  85 114 154 201 248 293 350
#     4   9  17  30  53  83 110 140 184 238 291 340
#     4  10  20  36  56  81 113 147 186 225 268 329
#     4  10  20  37  61  88 114 144 192 248 293 338
#     4  10  17  29  52  79 108 138 176 229 283 330
#
# _framework density 19.999856000000001
#
# number of rings (size 3 to 8) (size 9 to 14) (size 15 to 20)
#    0.000    2.000    1.667    2.250    0.000    6.000 
#    0.000    3.333    0.000    0.000    0.000    0.000 
#    0.000    0.000    0.000    0.000    0.000    0.000 
#
# Total GULP energy -594733.037169 kJ/mol
# GULP energy per Si atom -12390.271608 kJ/mol
# Density = 1.995434 g / cm^3
# Si number density = 19.999856 Si / 1000 Ang^3
#
#
#
# Elastic Constant Matrix: (Units=GPa)
#
#
# Indices 1 2 3 4 5 6 
#
# 1 169.7272 33.7668 68.2505 0.0000 0.0000 0.0000
# 2 33.7668 41.8528 31.8941 0.0000 0.0000 0.0000
# 3 68.2505 31.8941 134.1920 0.0000 0.0000 0.0000
# 4 0.0000 0.0000 0.0000 18.4352 0.0000 0.0000
# 5 0.0000 0.0000 0.0000 0.0000 122.1876 0.0000
# 6 0.0000 0.0000 0.0000 0.0000 0.0000 22.4052
#
#
#
# Elastic Compliance Matrix: (Units=1/GPa)
#
#
# Indices 1 2 3 4 5 6 
#
# 1 0.007934 -0.004062 -0.003070 0.000000 0.000000 0.000000
# 2 -0.004062 0.031258 -0.005363 0.000000 0.000000 0.000000
# 3 -0.003070 -0.005363 0.010288 0.000000 0.000000 0.000000
# 4 0.000000 0.000000 0.000000 0.054244 0.000000 0.000000
# 5 0.000000 0.000000 0.000000 0.000000 0.008184 0.000000
# 6 0.000000 0.000000 0.000000 0.000000 0.000000 0.044633
#
#
# Mechanical properties :
#
#
# Convention : Reuss Voigt Hill
#
# Bulk Modulus (GPa) = 40.83356 68.17719 54.50537
# Shear Modulus (GPa) = 26.35814 46.72963 36.54389
#
# Velocity S-wave (km/s) = 3.63425 4.83898 4.27922
# Velocity P-wave (km/s) = 6.17022 8.08602 7.19220
#
# Compressibility (1/GPa) = 0.02448966
#
# Stress axis : x y z
#
# Youngs Moduli (GPa) = 126.03269 31.99231 97.19918
#
# Poissons Ratio (x) = 0.12995 0.29841
# Poissons Ratio (y) = 0.51194 0.52130
# Poissons Ratio (z) = 0.38693 0.17158
#
# Static dielectric constant tensor:
#      x y z
#    x 3.943460 0.000000 0.000000 
#    y 0.000000 3.380700 0.000000 
#    z 0.000000 0.000000 3.837940 
# 
# 
# High freq. dielectric constant tensor:
#      x y z
#    x 1.805330 0.000000 0.000000 
#    y 0.000000 1.735970 0.000000 
#    z 0.000000 0.000000 1.784240 
# 
# From -- ./inp_files/29717.got.cif
#   From: 2010.03.12/outbox.cif.g09.slc.cpg/sg51_15_cif.got.tgz:29717.got - 2010.04.16 13:43:02.
