data_PCOD8206324
_publ_section_title
;
Structure prediction by ZEFSAII (Michael W. Deem and Ramdas Pophale) SiO2 
 PCOD8206324
Probable space group: P M M A
;
_chemical_formula_sum "Si O2"
_cell_formula_units_Z 56
_cell_length_a 27.925129
_cell_length_b 9.312779
_cell_length_c 13.929139
_cell_angle_alpha 90.000000
_cell_angle_beta 90.000000
_cell_angle_gamma 90.000000
_cell_volume 3622.419618
_symmetry_space_group_name_H-M "P M M A"
_symmetry_group_IT_number 51
_symmetry_cell_setting 'orthorhombic'
loop_
_space_group_symop_operation_xyz
x,y,z
1/2-x,-y,z
1/2+x,-y,-z
-x,y,-z
-x,-y,-z
1/2+x,y,-z
1/2-x,y,z
x,-y,z
loop_
_atom_site_type_symbol
_atom_site_label
_atom_site_fract_x
_atom_site_fract_y
_atom_site_fract_z
Si Si1 0.511448 0.831693 0.893268
Si Si2 0.804211 0.667749 0.748286
Si Si3 0.559770 0.337399 0.625507
Si Si4 0.537634 0.336188 0.270656
Si Si5 0.302149 0.329308 0.472051
Si Si6 0.395601 0.669270 0.569774
Si Si7 0.892708 0.168765 0.790062
O O1 0.473574 0.756961 0.822680
O O2 0.566490 0.791254 0.868578
O O3 0.502833 0.000000 0.882300
O O4 0.500000 0.777314 0.000000
O O5 0.750000 0.705738 0.780474
O O6 0.813977 0.500000 0.762214
O O7 0.812075 0.715587 0.637794
O O8 0.841982 0.755127 0.814753
O O9 0.579159 0.500000 0.643953
O O10 0.504295 0.327315 0.650890
O O11 0.567113 0.293341 0.515046
O O12 0.590147 0.226767 0.687906
O O13 0.545378 0.500000 0.236732
O O14 0.584094 0.272941 0.327940
O O15 0.250000 0.270458 0.505108
O O16 0.302165 0.500000 0.476490
O O17 0.343236 0.265981 0.542610
O O18 0.391525 0.500000 0.580945
O O19 0.884404 0.000000 0.784653
#
# Coordination Sequence:
#
# PCOD8206324 Si02
#       7
#     8   8   8   8   8   8   8
#     4   9  19  35  49  60  81 113 144 175 219 273
#     4   9  16  27  43  62  86 118 150 173 201 249
#     4   9  15  25  39  56  84 118 144 166 200 249
#     4   9  17  26  41  65  85 104 138 180 215 245
#     4   8  13  21  36  58  82 112 148 174 192 230
#     4   9  14  22  38  59  85 114 143 173 203 241
#     4  10  18  27  42  64  86 110 143 182 218 248
#
# _framework density 15.45928
#
# number of rings (size 3 to 8) (size 9 to 14) (size 15 to 20)
#    0.000    3.000    1.429    1.714    0.000    2.857 
#    0.000    0.714    0.000    3.429    0.000    1.000 
#    0.000    3.429    0.000    0.000    0.000    0.000 
#
# Total GULP energy -693875.088692 kJ/mol
# GULP energy per Si atom -12390.626584 kJ/mol
# Density = 1.542409 g / cm^3
# Si number density = 15.459280 Si / 1000 Ang^3
#
#
#
# Elastic Constant Matrix: (Units=GPa)
#
#
# Indices 1 2 3 4 5 6 
#
# 1 103.2694 33.1386 56.1775 0.0000 0.0000 0.0000
# 2 33.1386 37.4820 29.0412 0.0000 0.0000 0.0000
# 3 56.1775 29.0412 92.7728 0.0000 0.0000 0.0000
# 4 0.0000 0.0000 0.0000 14.8088 0.0000 0.0000
# 5 0.0000 0.0000 0.0000 0.0000 16.8402 0.0000
# 6 0.0000 0.0000 0.0000 0.0000 0.0000 14.7570
#
#
#
# Elastic Compliance Matrix: (Units=1/GPa)
#
#
# Indices 1 2 3 4 5 6 
#
# 1 0.016466 -0.009020 -0.007147 0.000000 0.000000 0.000000
# 2 -0.009020 0.040164 -0.007111 0.000000 0.000000 0.000000
# 3 -0.007147 -0.007111 0.017333 0.000000 0.000000 0.000000
# 4 0.000000 0.000000 0.000000 0.067527 0.000000 0.000000
# 5 0.000000 0.000000 0.000000 0.000000 0.059382 0.000000
# 6 0.000000 0.000000 0.000000 0.000000 0.000000 0.067764
#
#
# Mechanical properties :
#
#
# Convention : Reuss Voigt Hill
#
# Bulk Modulus (GPa) = 36.48758 52.24875 44.36817
# Shear Modulus (GPa) = 15.41652 16.95900 16.18776
#
# Velocity S-wave (km/s) = 3.16133 3.31571 3.23944
# Velocity P-wave (km/s) = 6.08103 6.96632 6.53868
#
# Compressibility (1/GPa) = 0.02740658
#
# Stress axis : x y z
#
# Youngs Moduli (GPa) = 60.73162 24.89802 57.69446
#
# Poissons Ratio (x) = 0.22459 0.41235
# Poissons Ratio (y) = 0.54782 0.41024
# Poissons Ratio (z) = 0.43405 0.17704
#
# Static dielectric constant tensor:
#      x y z
#    x 3.395790 0.000000 0.000000 
#    y 0.000000 2.706790 0.000000 
#    z 0.000000 0.000000 2.738550 
# 
# 
# High freq. dielectric constant tensor:
#      x y z
#    x 1.599750 0.000000 0.000000 
#    y 0.000000 1.563800 0.000000 
#    z 0.000000 0.000000 1.552060 
# 
# From -- ./inp_files/26537.got.cif
#   From: 2010.03.12/outbox.cif.g09.slc.cpg/sg51_14_cif.got.tgz:26537.got - 2010.04.16 13:43:02.
