data_PCOD8206194
_publ_section_title
;
Structure prediction by ZEFSAII (Michael W. Deem and Ramdas Pophale) SiO2 
 PCOD8206194
Probable space group: P M M A
;
_chemical_formula_sum "Si O2"
_cell_formula_units_Z 40
_cell_length_a 17.828035
_cell_length_b 14.461964
_cell_length_c 7.917300
_cell_angle_alpha 90.000000
_cell_angle_beta 90.000000
_cell_angle_gamma 90.000000
_cell_volume 2041.304794
_symmetry_space_group_name_H-M "P M M A"
_symmetry_group_IT_number 51
_symmetry_cell_setting 'orthorhombic'
loop_
_space_group_symop_operation_xyz
x,y,z
1/2-x,-y,z
1/2+x,-y,-z
-x,y,-z
-x,-y,-z
1/2+x,y,-z
1/2-x,y,z
x,-y,z
loop_
_atom_site_type_symbol
_atom_site_label
_atom_site_fract_x
_atom_site_fract_y
_atom_site_fract_z
Si Si1 0.071904 0.103085 0.108375
Si Si2 0.089633 0.604899 0.991095
Si Si3 0.416630 0.719340 0.304853
Si Si4 0.908919 0.282064 0.326680
Si Si5 0.835596 0.896811 0.208249
O O1 0.090487 0.171707 0.261784
O O2 0.054572 0.000000 0.179262
O O3 0.144734 0.101560 0.989728
O O4 0.000000 0.139632 0.000000
O O5 0.118686 0.500000 0.992028
O O6 0.124651 0.654352 0.823945
O O7 0.120834 0.657643 0.157129
O O8 0.000000 0.609755 0.000000
O O9 0.503670 0.697414 0.323329
O O10 0.377553 0.694426 0.484825
O O11 0.890608 0.174187 0.301083
O O12 0.750000 0.864385 0.229973
O O13 0.847685 0.000000 0.284163
#
# Coordination Sequence:
#
# PCOD8206194 Si02
#       5
#     8   8   8   8   8
#     4  10  17  30  52  75 102 136 175 218 261 308
#     4   9  17  31  50  76 110 138 166 215 270 310
#     4  10  18  30  51  80 105 131 174 218 259 303
#     4  10  19  31  51  77 105 137 172 211 258 312
#     4  10  20  34  52  75 107 144 175 209 260 316
#
# _framework density 19.595309
#
# number of rings (size 3 to 8) (size 9 to 14) (size 15 to 20)
#    0.000    2.200    4.000    0.600    0.000    1.600 
#    0.000    7.000    0.000    3.000    0.000    0.000 
#    0.000    0.000    0.000    0.000    0.000    0.000 
#
# Total GULP energy -495654.125684 kJ/mol
# GULP energy per Si atom -12391.353142 kJ/mol
# Density = 1.955071 g / cm^3
# Si number density = 19.595309 Si / 1000 Ang^3
#
#
#
# Elastic Constant Matrix: (Units=GPa)
#
#
# Indices 1 2 3 4 5 6 
#
# 1 21.7279 6.0788 8.3901 0.0000 0.0000 0.0000
# 2 6.0788 136.3599 83.8303 0.0000 0.0000 0.0000
# 3 8.3901 83.8303 177.6969 0.0000 0.0000 0.0000
# 4 0.0000 0.0000 0.0000 14.8973 0.0000 0.0000
# 5 0.0000 0.0000 0.0000 0.0000 7.6077 0.0000
# 6 0.0000 0.0000 0.0000 0.0000 0.0000 7.4346
#
#
#
# Elastic Compliance Matrix: (Units=1/GPa)
#
#
# Indices 1 2 3 4 5 6 
#
# 1 0.046981 -0.001029 -0.001733 0.000000 0.000000 0.000000
# 2 -0.001029 0.010352 -0.004835 0.000000 0.000000 0.000000
# 3 -0.001733 -0.004835 0.007990 0.000000 0.000000 0.000000
# 4 0.000000 0.000000 0.000000 0.067126 0.000000 0.000000
# 5 0.000000 0.000000 0.000000 0.000000 0.131445 0.000000
# 6 0.000000 0.000000 0.000000 0.000000 0.000000 0.134506
#
#
# Mechanical properties :
#
#
# Convention : Reuss Voigt Hill
#
# Bulk Modulus (GPa) = 19.94845 59.15368 39.55106
# Shear Modulus (GPa) = 11.61971 21.82031 16.72001
#
# Velocity S-wave (km/s) = 2.43777 3.34061 2.92424
# Velocity P-wave (km/s) = 4.25746 6.71809 5.62400
#
# Compressibility (1/GPa) = 0.05012921
#
# Stress axis : x y z
#
# Youngs Moduli (GPa) = 21.28532 96.60125 125.15132
#
# Poissons Ratio (x) = 0.09941 0.21686
# Poissons Ratio (y) = 0.02190 0.60511
# Poissons Ratio (z) = 0.03688 0.46707
#
# Static dielectric constant tensor:
#      x y z
#    x 3.178620 0.000000 0.000000 
#    y 0.000000 3.645840 0.000000 
#    z 0.000000 0.000000 4.036830 
# 
# 
# High freq. dielectric constant tensor:
#      x y z
#    x 1.700520 0.000000 0.000000 
#    y 0.000000 1.764020 0.000000 
#    z 0.000000 0.000000 1.758260 
# 
# From -- ./inp_files/10767.got.cif
#   From: 2010.03.12/outbox.cif.g09.slc.cpg/sg51_6_cif.got.tgz:10767.got - 2010.04.16 13:43:02.
