data_PCOD8206128
_publ_section_title
;
Structure prediction by ZEFSAII (Michael W. Deem and Ramdas Pophale) SiO2 
 PCOD8206128
Probable space group: P M M A
;
_chemical_formula_sum "Si O2"
_cell_formula_units_Z 44
_cell_length_a 8.721094
_cell_length_b 17.611120
_cell_length_c 15.329061
_cell_angle_alpha 90.000000
_cell_angle_beta 90.000000
_cell_angle_gamma 90.000000
_cell_volume 2354.363392
_symmetry_space_group_name_H-M "P M M A"
_symmetry_group_IT_number 51
_symmetry_cell_setting 'orthorhombic'
loop_
_space_group_symop_operation_xyz
x,y,z
1/2-x,-y,z
1/2+x,-y,-z
-x,y,-z
-x,-y,-z
1/2+x,y,-z
1/2-x,y,z
x,-y,z
loop_
_atom_site_type_symbol
_atom_site_label
_atom_site_fract_x
_atom_site_fract_y
_atom_site_fract_z
Si Si1 0.072053 0.287044 0.418222
Si Si2 0.432299 0.585385 0.091547
Si Si3 0.569805 0.122815 0.412278
Si Si4 0.072536 0.704429 0.227502
Si Si5 0.430361 0.000000 0.096017
Si Si6 0.432077 0.124635 0.233051
O O1 0.250000 0.267770 0.434211
O O2 0.049774 0.328858 0.325642
O O3 0.000000 0.334944 0.500000
O O4 0.973139 0.210954 0.414042
O O5 0.250000 0.588880 0.088054
O O6 0.487170 0.500000 0.114693
O O7 0.503593 0.643619 0.162395
O O8 0.500000 0.611914 0.000000
O O9 0.500000 0.083533 0.500000
O O10 0.750000 0.109598 0.412574
O O11 0.501691 0.088834 0.322073
O O12 0.250000 0.710362 0.203994
O O13 0.003955 0.789540 0.217486
O O14 0.483293 0.925708 0.150226
O O15 0.250000 0.000000 0.084645
O O16 0.500000 0.000000 0.000000
O O17 0.250000 0.124876 0.245333
#
# Coordination Sequence:
#
# PCOD8206128 Si02
#       6
#     8   8   8   8   4   8
#     4   9  15  25  42  65  94 125 156 189 226 269
#     4   9  17  30  47  67  91 119 150 185 229 277
#     4  10  17  27  46  72  99 126 155 190 233 279
#     4   8  15  28  47  68  91 120 152 186 223 269
#     4  10  22  38  55  70  91 124 157 196 242 284
#     4   9  18  34  51  69  94 124 159 195 232 274
#
# _framework density 18.688704000000001
#
# number of rings (size 3 to 8) (size 9 to 14) (size 15 to 20)
#    0.000    2.909    0.000    4.364    0.000    1.455 
#    0.000    5.000    0.000    0.545    0.000    0.000 
#    0.000    0.000    0.000    0.000    0.000    6.545 
#
# Total GULP energy -545116.396295 kJ/mol
# GULP energy per Si atom -12389.009007 kJ/mol
# Density = 1.864617 g / cm^3
# Si number density = 18.688704 Si / 1000 Ang^3
#
#
#
# Elastic Constant Matrix: (Units=GPa)
#
#
# Indices 1 2 3 4 5 6 
#
# 1 55.5427 19.5544 44.1280 0.0000 0.0000 0.0000
# 2 19.5544 79.5211 78.3607 0.0000 0.0000 0.0000
# 3 44.1280 78.3607 200.8159 0.0000 0.0000 0.0000
# 4 0.0000 0.0000 0.0000 0.9869 0.0000 0.0000
# 5 0.0000 0.0000 0.0000 0.0000 34.6392 0.0000
# 6 0.0000 0.0000 0.0000 0.0000 0.0000 9.3656
#
#
#
# Elastic Compliance Matrix: (Units=1/GPa)
#
#
# Indices 1 2 3 4 5 6 
#
# 1 0.021865 -0.001043 -0.004398 0.000000 0.000000 0.000000
# 2 -0.001043 0.020481 -0.007763 0.000000 0.000000 0.000000
# 3 -0.004398 -0.007763 0.008975 0.000000 0.000000 0.000000
# 4 0.000000 0.000000 0.000000 1.013231 0.000000 0.000000
# 5 0.000000 0.000000 0.000000 0.000000 0.028869 0.000000
# 6 0.000000 0.000000 0.000000 0.000000 0.000000 0.106774
#
#
# Mechanical properties :
#
#
# Convention : Reuss Voigt Hill
#
# Bulk Modulus (GPa) = 40.13737 68.88512 54.51124
# Shear Modulus (GPa) = 4.04888 21.92078 12.98483
#
# Velocity S-wave (km/s) = 1.47350 3.42854 2.63876
# Velocity P-wave (km/s) = 4.94149 7.25344 6.20608
#
# Compressibility (1/GPa) = 0.02491444
#
# Stress axis : x y z
#
# Youngs Moduli (GPa) = 45.73442 48.82485 111.41816
#
# Poissons Ratio (x) = 0.05094 0.48998
# Poissons Ratio (y) = 0.04771 0.86492
# Poissons Ratio (z) = 0.20113 0.37902
#
# Static dielectric constant tensor:
#      x y z
#    x 3.243350 0.000000 0.000000 
#    y 0.000000 3.361440 0.000000 
#    z 0.000000 0.000000 4.154640 
# 
# 
# High freq. dielectric constant tensor:
#      x y z
#    x 1.704240 0.000000 0.000000 
#    y 0.000000 1.685000 0.000000 
#    z 0.000000 0.000000 1.744570 
# 
# From -- ./inp_files/20967.got.cif
#   From: 2010.03.12/outbox.cif.g09.slc.cpg/sg51_11_cif.got.tgz:20967.got - 2010.04.16 13:43:02.
