data_PCOD8206896
_publ_section_title
;
Structure prediction by ZEFSAII (Michael W. Deem and Ramdas Pophale) SiO2 
 PCOD8206896
Probable space group: P M M A
;
_chemical_formula_sum "Si O2"
_cell_formula_units_Z 64
_cell_length_a 23.892428
_cell_length_b 9.220744
_cell_length_c 15.206168
_cell_angle_alpha 90.000000
_cell_angle_beta 90.000000
_cell_angle_gamma 90.000000
_cell_volume 3350.009471
_symmetry_space_group_name_H-M "P M M A"
_symmetry_group_IT_number 51
_symmetry_cell_setting 'orthorhombic'
loop_
_space_group_symop_operation_xyz
x,y,z
1/2-x,-y,z
1/2+x,-y,-z
-x,y,-z
-x,-y,-z
1/2+x,y,-z
1/2-x,y,z
x,-y,z
loop_
_atom_site_type_symbol
_atom_site_label
_atom_site_fract_x
_atom_site_fract_y
_atom_site_fract_z
Si Si1 0.345070 0.664940 0.043122
Si Si2 0.000843 0.672229 0.277436
Si Si3 0.686082 0.672757 0.487730
Si Si4 0.121692 0.327053 0.683216
Si Si5 0.187147 0.328043 0.851445
Si Si6 0.118558 0.671614 0.343236
Si Si7 0.187805 0.163725 0.201075
Si Si8 0.526829 0.665537 0.913881
O O1 0.322356 0.500000 0.049160
O O2 0.308018 0.769474 0.103392
O O3 0.407224 0.675694 0.079200
O O4 0.341185 0.720444 0.942812
O O5 0.000341 0.500000 0.268914
O O6 0.942748 0.728387 0.319882
O O7 0.052899 0.717517 0.340462
O O8 0.007838 0.738154 0.178562
O O9 0.750000 0.731569 0.493650
O O10 0.686879 0.500000 0.486996
O O11 0.656177 0.733436 0.400109
O O12 0.648854 0.730636 0.569127
O O13 0.122859 0.500000 0.682219
O O14 0.150630 0.264711 0.771221
O O15 0.250000 0.265559 0.845468
O O16 0.188296 0.500000 0.843826
O O17 0.125396 0.500000 0.335835
O O18 0.147631 0.738729 0.258945
O O19 0.250000 0.165530 0.241849
O O20 0.164475 0.000000 0.196680
O O21 0.505363 0.500000 0.913194
O O22 0.500000 0.743761 0.000000
#
# Coordination Sequence:
#
# PCOD8206896 Si02
#       8
#     8   8   8   8   8   8   8   8
#     4  10  18  30  49  74 101 131 167 206 246 292
#     4   9  16  26  41  66  96 127 162 200 245 290
#     4   9  17  28  44  68  99 135 166 197 249 306
#     4   9  16  26  41  67 104 134 158 201 254 297
#     4   9  16  25  40  66  99 133 167 201 242 294
#     4  10  19  33  52  74 100 129 166 207 248 298
#     4  11  23  36  50  71 100 133 167 206 254 302
#     4   9  15  24  41  67  98 129 162 200 240 284
#
# _framework density 19.104424999999999
#
# number of rings (size 3 to 8) (size 9 to 14) (size 15 to 20)
#    0.000    2.500    1.250    2.250    0.000    7.000 
#    0.000    2.500    0.000    0.375    0.000    2.625 
#    0.000    4.000    0.000    0.000    0.000    0.000 
#
# Total GULP energy -793283.198946 kJ/mol
# GULP energy per Si atom -12395.049984 kJ/mol
# Density = 1.906094 g / cm^3
# Si number density = 19.104425 Si / 1000 Ang^3
#
#
#
# Elastic Constant Matrix: (Units=GPa)
#
#
# Indices 1 2 3 4 5 6 
#
# 1 135.7621 11.9172 76.4571 0.0000 0.0000 0.0000
# 2 11.9172 16.9834 14.8104 0.0000 0.0000 0.0000
# 3 76.4571 14.8104 152.5777 0.0000 0.0000 0.0000
# 4 0.0000 0.0000 0.0000 0.6082 0.0000 0.0000
# 5 0.0000 0.0000 0.0000 0.0000 40.7701 0.0000
# 6 0.0000 0.0000 0.0000 0.0000 0.0000 6.0667
#
#
#
# Elastic Compliance Matrix: (Units=1/GPa)
#
#
# Indices 1 2 3 4 5 6 
#
# 1 0.010401 -0.003008 -0.004920 0.000000 0.000000 0.000000
# 2 -0.003008 0.065196 -0.004821 0.000000 0.000000 0.000000
# 3 -0.004920 -0.004821 0.009487 0.000000 0.000000 0.000000
# 4 0.000000 0.000000 0.000000 1.644065 0.000000 0.000000
# 5 0.000000 0.000000 0.000000 0.000000 0.024528 0.000000
# 6 0.000000 0.000000 0.000000 0.000000 0.000000 0.164834
#
#
# Mechanical properties :
#
#
# Convention : Reuss Voigt Hill
#
# Bulk Modulus (GPa) = 16.78238 56.85474 36.81856
# Shear Modulus (GPa) = 2.54599 22.96490 12.75545
#
# Velocity S-wave (km/s) = 1.15567 3.47085 2.58673
# Velocity P-wave (km/s) = 3.25336 6.77400 5.31373
#
# Compressibility (1/GPa) = 0.05958629
#
# Stress axis : x y z
#
# Youngs Moduli (GPa) = 96.14909 15.33838 105.40362
#
# Poissons Ratio (x) = 0.04613 0.51856
# Poissons Ratio (y) = 0.28919 0.50818
# Poissons Ratio (z) = 0.47303 0.07395
#
# Static dielectric constant tensor:
#      x y z
#    x 3.748990 0.000000 0.000000 
#    y 0.000000 2.738760 0.000000 
#    z 0.000000 0.000000 3.722540 
# 
# 
# High freq. dielectric constant tensor:
#      x y z
#    x 1.759210 0.000000 0.000000 
#    y 0.000000 1.651410 0.000000 
#    z 0.000000 0.000000 1.752810 
# 
# From -- ./inp_files/26307.got.cif
#   From: 2010.03.12/outbox.cif.g09.slc.cpg/sg51_14_cif.got.tgz:26307.got - 2010.04.16 13:43:02.
