data_PCOD8206905
_publ_section_title
;
Structure prediction by ZEFSAII (Michael W. Deem and Ramdas Pophale) SiO2 
 PCOD8206905
Probable space group: P M M A
;
_chemical_formula_sum "Si O2"
_cell_formula_units_Z 64
_cell_length_a 16.810377
_cell_length_b 17.063374
_cell_length_c 12.238802
_cell_angle_alpha 90.000000
_cell_angle_beta 90.000000
_cell_angle_gamma 90.000000
_cell_volume 3510.599382
_symmetry_space_group_name_H-M "P M M A"
_symmetry_group_IT_number 51
_symmetry_cell_setting 'orthorhombic'
loop_
_space_group_symop_operation_xyz
x,y,z
1/2-x,-y,z
1/2+x,-y,-z
-x,y,-z
-x,-y,-z
1/2+x,y,-z
1/2-x,y,z
x,-y,z
loop_
_atom_site_type_symbol
_atom_site_label
_atom_site_fract_x
_atom_site_fract_y
_atom_site_fract_z
Si Si1 0.547765 0.132335 0.233465
Si Si2 0.338465 0.301476 0.010849
Si Si3 0.954084 0.711249 0.783628
Si Si4 0.051438 0.587384 0.890954
Si Si5 0.337545 0.206396 0.358557
Si Si6 0.909454 0.910444 0.466594
Si Si7 0.378611 0.084184 0.192925
Si Si8 0.161176 0.127637 0.954808
O O1 0.519925 0.220770 0.205652
O O2 0.597027 0.124615 0.345279
O O3 0.468237 0.080420 0.239853
O O4 0.606154 0.097074 0.142573
O O5 0.250000 0.326809 0.050081
O O6 0.369288 0.365923 0.924308
O O7 0.334383 0.220938 0.945244
O O8 0.394122 0.288396 0.114995
O O9 0.902560 0.725083 0.671052
O O10 0.003015 0.629692 0.791260
O O11 0.073061 0.500000 0.850088
O O12 0.000000 0.583491 0.000000
O O13 0.250000 0.243012 0.381967
O O14 0.361815 0.150434 0.458027
O O15 0.329164 0.152604 0.250564
O O16 0.000000 0.910332 0.500000
O O17 0.875280 0.000000 0.474340
O O18 0.339229 0.000000 0.218513
O O19 0.380749 0.099441 0.064756
O O20 0.250000 0.091691 0.946391
#
# Coordination Sequence:
#
# PCOD8206905 Si02
#       8
#     8   8   8   8   8   8   8   8
#     4  11  21  35  56  74 100 148 189 226 279 341
#     4  10  18  30  49  76 112 147 180 224 270 317
#     4  10  18  31  54  78 107 139 179 228 271 325
#     4   9  18  31  51  80 113 150 183 213 261 330
#     4  11  22  36  58  82 104 139 185 235 289 337
#     4  11  22  38  55  76 106 142 188 243 288 332
#     4  11  22  34  52  76 102 135 182 233 281 334
#     4  11  22  34  49  74 108 143 180 224 279 336
#
# _framework density 18.230505000000001
#
# number of rings (size 3 to 8) (size 9 to 14) (size 15 to 20)
#    0.000    1.500    6.250    1.875    0.000    4.000 
#    0.000    0.000    0.000    1.125    0.000    1.750 
#    0.000    0.000    0.000    0.000    0.000    0.000 
#
# Total GULP energy -793073.881118 kJ/mol
# GULP energy per Si atom -12391.779392 kJ/mol
# Density = 1.818901 g / cm^3
# Si number density = 18.230505 Si / 1000 Ang^3
#
#
#
# Elastic Constant Matrix: (Units=GPa)
#
#
# Indices 1 2 3 4 5 6 
#
# 1 63.9421 16.2729 30.2907 0.0000 0.0000 0.0000
# 2 16.2729 92.4786 14.6574 0.0000 0.0000 0.0000
# 3 30.2907 14.6574 92.7595 0.0000 0.0000 0.0000
# 4 0.0000 0.0000 0.0000 33.6113 0.0000 0.0000
# 5 0.0000 0.0000 0.0000 0.0000 19.8701 0.0000
# 6 0.0000 0.0000 0.0000 0.0000 0.0000 8.9982
#
#
#
# Elastic Compliance Matrix: (Units=1/GPa)
#
#
# Indices 1 2 3 4 5 6 
#
# 1 0.019016 -0.002423 -0.005827 0.000000 0.000000 0.000000
# 2 -0.002423 0.011400 -0.001010 0.000000 0.000000 0.000000
# 3 -0.005827 -0.001010 0.012843 0.000000 0.000000 0.000000
# 4 0.000000 0.000000 0.000000 0.029752 0.000000 0.000000
# 5 0.000000 0.000000 0.000000 0.000000 0.050327 0.000000
# 6 0.000000 0.000000 0.000000 0.000000 0.000000 0.111133
#
#
# Mechanical properties :
#
#
# Convention : Reuss Voigt Hill
#
# Bulk Modulus (GPa) = 40.42155 41.29135 40.85645
# Shear Modulus (GPa) = 19.13973 25.02653 22.08313
#
# Velocity S-wave (km/s) = 3.24369 3.70913 3.48419
# Velocity P-wave (km/s) = 6.02074 6.40642 6.21657
#
# Compressibility (1/GPa) = 0.02473928
#
# Stress axis : x y z
#
# Youngs Moduli (GPa) = 52.58727 87.72148 77.86358
#
# Poissons Ratio (x) = 0.21251 0.45370
# Poissons Ratio (y) = 0.12740 0.07866
# Poissons Ratio (z) = 0.30642 0.08862
#
# Static dielectric constant tensor:
#      x y z
#    x 3.497610 0.000000 0.000000 
#    y 0.000000 3.434890 0.000000 
#    z 0.000000 0.000000 3.295380 
# 
# 
# High freq. dielectric constant tensor:
#      x y z
#    x 1.707870 0.000000 0.000000 
#    y 0.000000 1.680480 0.000000 
#    z 0.000000 0.000000 1.681790 
# 
# From -- ./inp_files/17680.got.cif
#   From: 2010.03.12/outbox.cif.g09.slc.cpg/sg51_9_cif.got.tgz:17680.got - 2010.04.16 13:43:02.
