data_PCOD8206819
_publ_section_title
;
Structure prediction by ZEFSAII (Michael W. Deem and Ramdas Pophale) SiO2 
 PCOD8206819
Probable space group: P M M A
;
_chemical_formula_sum "Si O2"
_cell_formula_units_Z 48
_cell_length_a 7.833886
_cell_length_b 17.211972
_cell_length_c 18.972232
_cell_angle_alpha 90.000000
_cell_angle_beta 90.000000
_cell_angle_gamma 90.000000
_cell_volume 2558.151760
_symmetry_space_group_name_H-M "P M M A"
_symmetry_group_IT_number 51
_symmetry_cell_setting 'orthorhombic'
loop_
_space_group_symop_operation_xyz
x,y,z
1/2-x,-y,z
1/2+x,-y,-z
-x,y,-z
-x,-y,-z
1/2+x,y,-z
1/2-x,y,z
x,-y,z
loop_
_atom_site_type_symbol
_atom_site_label
_atom_site_fract_x
_atom_site_fract_y
_atom_site_fract_z
Si Si1 0.440658 0.692590 0.333815
Si Si2 0.450190 0.000000 0.419173
Si Si3 0.054808 0.834850 0.580990
Si Si4 0.750000 0.586423 0.169750
Si Si5 0.449676 0.000000 0.920020
Si Si6 0.440844 0.308666 0.171559
Si Si7 0.750000 0.586955 0.337165
Si Si8 0.048191 0.832176 0.918619
O O1 0.250000 0.657003 0.342204
O O2 0.444837 0.772882 0.376267
O O3 0.481509 0.711615 0.252578
O O4 0.579439 0.631356 0.363641
O O5 0.500000 0.000000 0.500000
O O6 0.525907 0.079102 0.385530
O O7 0.250000 0.000000 0.408980
O O8 0.250000 0.810703 0.588655
O O9 0.000000 0.833949 0.500000
O O10 0.750000 0.500000 0.137171
O O11 0.579474 0.629857 0.142620
O O12 0.750000 0.581662 0.253481
O O13 0.515193 0.082652 0.889041
O O14 0.250000 0.000000 0.912612
O O15 0.500000 0.000000 0.000000
O O16 0.250000 0.344025 0.163665
O O17 0.448902 0.230047 0.127442
O O18 0.750000 0.500000 0.369497
O O19 0.250000 0.821392 0.908889
O O20 0.000000 0.821101 0.000000
#
# Coordination Sequence:
#
# PCOD8206819 Si02
#       8
#     8   4   8   4   4   8   4   8
#     4  10  20  35  54  80 109 138 175 218 261 313
#     4  10  18  30  47  72 105 136 180 222 258 303
#     4  11  20  33  53  78 105 142 180 220 263 311
#     4   9  18  34  56  79 105 135 170 215 262 311
#     4   8  16  28  45  70 101 134 174 217 253 293
#     4  10  20  34  54  80 108 137 174 216 261 312
#     4   9  18  34  56  81 105 135 172 215 264 315
#     4  10  18  31  51  76 105 140 178 218 259 308
#
# _framework density 18.763546000000002
#
# number of rings (size 3 to 8) (size 9 to 14) (size 15 to 20)
#    0.000    2.167    1.667    3.750    0.000    1.333 
#    0.000    4.167    0.000    5.000    0.000    0.000 
#    0.000    0.000    0.000    0.000    0.000    0.000 
#
# Total GULP energy -594878.819997 kJ/mol
# GULP energy per Si atom -12393.308750 kJ/mol
# Density = 1.872084 g / cm^3
# Si number density = 18.763546 Si / 1000 Ang^3
#
#
#
# Elastic Constant Matrix: (Units=GPa)
#
#
# Indices 1 2 3 4 5 6 
#
# 1 123.1819 54.3891 19.7191 0.0000 0.0000 0.0000
# 2 54.3891 160.2711 35.7048 0.0000 0.0000 0.0000
# 3 19.7191 35.7048 36.6180 0.0000 0.0000 0.0000
# 4 0.0000 0.0000 0.0000 10.4582 0.0000 0.0000
# 5 0.0000 0.0000 0.0000 0.0000 20.7514 0.0000
# 6 0.0000 0.0000 0.0000 0.0000 0.0000 22.2058
#
#
#
# Elastic Compliance Matrix: (Units=1/GPa)
#
#
# Indices 1 2 3 4 5 6 
#
# 1 0.009736 -0.002729 -0.002582 0.000000 0.000000 0.000000
# 2 -0.002729 0.008736 -0.007048 0.000000 0.000000 0.000000
# 3 -0.002582 -0.007048 0.035572 0.000000 0.000000 0.000000
# 4 0.000000 0.000000 0.000000 0.095619 0.000000 0.000000
# 5 0.000000 0.000000 0.000000 0.000000 0.048190 0.000000
# 6 0.000000 0.000000 0.000000 0.000000 0.000000 0.045033
#
#
# Mechanical properties :
#
#
# Convention : Reuss Voigt Hill
#
# Bulk Modulus (GPa) = 34.10036 59.96632 47.03334
# Shear Modulus (GPa) = 18.02583 24.70027 21.36305
#
# Velocity S-wave (km/s) = 3.10285 3.63215 3.37789
# Velocity P-wave (km/s) = 5.57226 7.04403 6.35092
#
# Compressibility (1/GPa) = 0.02932520
#
# Stress axis : x y z
#
# Youngs Moduli (GPa) = 102.70825 114.47305 28.11186
#
# Poissons Ratio (x) = 0.31237 0.07259
# Poissons Ratio (y) = 0.28027 0.19814
# Poissons Ratio (z) = 0.26523 0.80685
#
# Static dielectric constant tensor:
#      x y z
#    x 3.663540 0.000000 0.000000 
#    y 0.000000 3.859970 0.000000 
#    z 0.000000 0.000000 3.003550 
# 
# 
# High freq. dielectric constant tensor:
#      x y z
#    x 1.747630 0.000000 0.000000 
#    y 0.000000 1.733680 0.000000 
#    z 0.000000 0.000000 1.676150 
# 
# From -- ./inp_files/27696.got.cif
#   From: 2010.03.12/outbox.cif.g09.slc.cpg/sg51_14_cif.got.tgz:27696.got - 2010.04.16 13:43:02.
