data_PCOD8206595
_publ_section_title
;
Structure prediction by ZEFSAII (Michael W. Deem and Ramdas Pophale) SiO2 
 PCOD8206595
Probable space group: P M M A
;
_chemical_formula_sum "Si O2"
_cell_formula_units_Z 64
_cell_length_a 19.058536
_cell_length_b 9.401572
_cell_length_c 20.017159
_cell_angle_alpha 90.000000
_cell_angle_beta 90.000000
_cell_angle_gamma 90.000000
_cell_volume 3586.678521
_symmetry_space_group_name_H-M "P M M A"
_symmetry_group_IT_number 51
_symmetry_cell_setting 'orthorhombic'
loop_
_space_group_symop_operation_xyz
x,y,z
1/2-x,-y,z
1/2+x,-y,-z
-x,y,-z
-x,-y,-z
1/2+x,y,-z
1/2-x,y,z
x,-y,z
loop_
_atom_site_type_symbol
_atom_site_label
_atom_site_fract_x
_atom_site_fract_y
_atom_site_fract_z
Si Si1 0.940446 0.832787 0.640229
Si Si2 0.171333 0.661492 0.707044
Si Si3 0.935233 0.658701 0.908989
Si Si4 0.592016 0.166787 0.403679
Si Si5 0.597240 0.339658 0.053098
Si Si6 0.624582 0.163350 0.174232
Si Si7 0.962722 0.837435 0.787997
Si Si8 0.829389 0.169348 0.536803
O O1 0.872156 0.772461 0.601277
O O2 0.008954 0.800333 0.594871
O O3 0.945730 0.768510 0.715163
O O4 0.933555 0.000000 0.648813
O O5 0.250000 0.660886 0.678373
O O6 0.143576 0.500000 0.716082
O O7 0.122292 0.745888 0.657262
O O8 0.172231 0.742243 0.777524
O O9 0.911615 0.500000 0.889677
O O10 0.016575 0.661312 0.926375
O O11 0.918445 0.757525 0.845412
O O12 0.893609 0.708938 0.975699
O O13 0.629053 0.220810 0.471143
O O14 0.606501 0.000000 0.391061
O O15 0.626988 0.500000 0.062727
O O16 0.636708 0.226575 0.100023
O O17 0.545049 0.177566 0.199210
O O18 0.649484 0.000000 0.174550
O O19 0.938637 0.000000 0.791077
O O20 0.750000 0.230844 0.537587
O O21 0.827671 0.000000 0.537745
#
# Coordination Sequence:
#
# PCOD8206595 Si02
#       8
#     8   8   8   8   8   8   8   8
#     4   9  16  28  45  69 101 130 157 198 250 295
#     4  11  23  35  47  66  94 129 164 200 247 299
#     4   8  14  24  39  61  90 123 156 191 233 281
#     4  10  18  32  52  73  95 123 161 203 245 291
#     4   8  14  25  40  60  89 124 156 190 236 284
#     4  10  18  29  45  66  91 122 161 201 242 286
#     4   9  16  26  41  64  93 123 154 194 243 287
#     4   9  17  28  47  75 100 125 160 200 242 291
#
# _framework density 17.843807000000002
#
# number of rings (size 3 to 8) (size 9 to 14) (size 15 to 20)
#    0.000    2.750    1.250    2.250    0.000    4.000 
#    0.000    2.500    0.000    2.250    0.000    0.875 
#    0.000    3.000    0.000    0.000    0.000    0.000 
#
# Total GULP energy -793199.910063 kJ/mol
# GULP energy per Si atom -12393.748595 kJ/mol
# Density = 1.780319 g / cm^3
# Si number density = 17.843807 Si / 1000 Ang^3
#
#
#
# Elastic Constant Matrix: (Units=GPa)
#
#
# Indices 1 2 3 4 5 6 
#
# 1 64.2267 21.8435 47.6704 0.0000 0.0000 0.0000
# 2 21.8435 64.5762 43.6287 0.0000 0.0000 0.0000
# 3 47.6704 43.6287 139.4131 0.0000 0.0000 0.0000
# 4 0.0000 0.0000 0.0000 16.0869 0.0000 0.0000
# 5 0.0000 0.0000 0.0000 0.0000 12.8458 0.0000
# 6 0.0000 0.0000 0.0000 0.0000 0.0000 9.2652
#
#
#
# Elastic Compliance Matrix: (Units=1/GPa)
#
#
# Indices 1 2 3 4 5 6 
#
# 1 0.021284 -0.002894 -0.006372 0.000000 0.000000 0.000000
# 2 -0.002894 0.020031 -0.005279 0.000000 0.000000 0.000000
# 3 -0.006372 -0.005279 0.011004 0.000000 0.000000 0.000000
# 4 0.000000 0.000000 0.000000 0.062162 0.000000 0.000000
# 5 0.000000 0.000000 0.000000 0.000000 0.077847 0.000000
# 6 0.000000 0.000000 0.000000 0.000000 0.000000 0.107930
#
#
# Mechanical properties :
#
#
# Convention : Reuss Voigt Hill
#
# Bulk Modulus (GPa) = 43.05148 54.94459 48.99804
# Shear Modulus (GPa) = 14.83279 17.97780 16.40530
#
# Velocity S-wave (km/s) = 2.88628 3.17757 3.03542
# Velocity P-wave (km/s) = 5.94026 6.65743 6.30905
#
# Compressibility (1/GPa) = 0.02322800
#
# Stress axis : x y z
#
# Youngs Moduli (GPa) = 46.98460 49.92205 90.87837
#
# Poissons Ratio (x) = 0.14450 0.57906
# Poissons Ratio (y) = 0.13600 0.47974
# Poissons Ratio (z) = 0.29938 0.26354
#
# Static dielectric constant tensor:
#      x y z
#    x 3.059660 0.000000 0.000000 
#    y 0.000000 3.146750 0.000000 
#    z 0.000000 0.000000 3.677720 
# 
# 
# High freq. dielectric constant tensor:
#      x y z
#    x 1.648130 0.000000 0.000000 
#    y 0.000000 1.661670 0.000000 
#    z 0.000000 0.000000 1.702540 
# 
# From -- ./inp_files/30688.got.cif
#   From: 2010.03.12/outbox.cif.g09.slc.cpg/sg51_16_cif.got.tgz:30688.got - 2010.04.16 13:43:02.
