data_PCOD8206143
_publ_section_title
;
Structure prediction by ZEFSAII (Michael W. Deem and Ramdas Pophale) SiO2 
 PCOD8206143
Probable space group: P M M A
;
_chemical_formula_sum "Si O2"
_cell_formula_units_Z 56
_cell_length_a 16.995943
_cell_length_b 12.875667
_cell_length_c 16.417491
_cell_angle_alpha 90.000000
_cell_angle_beta 90.000000
_cell_angle_gamma 90.000000
_cell_volume 3592.706907
_symmetry_space_group_name_H-M "P M M A"
_symmetry_group_IT_number 51
_symmetry_cell_setting 'orthorhombic'
loop_
_space_group_symop_operation_xyz
x,y,z
1/2-x,-y,z
1/2+x,-y,-z
-x,y,-z
-x,-y,-z
1/2+x,y,-z
1/2-x,y,z
x,-y,z
loop_
_atom_site_type_symbol
_atom_site_label
_atom_site_fract_x
_atom_site_fract_y
_atom_site_fract_z
Si Si1 0.661962 0.382225 0.489496
Si Si2 0.983904 0.377423 0.088372
Si Si3 0.160132 0.762531 0.358913
Si Si4 0.924138 0.618958 0.755196
Si Si5 0.987620 0.881163 0.595304
Si Si6 0.161567 0.621619 0.809930
Si Si7 0.927647 0.691944 0.336768
O O1 0.750000 0.358319 0.456927
O O2 0.654065 0.500000 0.518389
O O3 0.642525 0.315148 0.567838
O O4 0.599313 0.359608 0.420168
O O5 0.986888 0.500000 0.080119
O O6 0.896926 0.343422 0.117841
O O7 0.049753 0.343622 0.154303
O O8 0.000000 0.325509 0.000000
O O9 0.250000 0.802865 0.356661
O O10 0.142672 0.698746 0.275648
O O11 0.101738 0.859097 0.374288
O O12 0.893103 0.500000 0.756151
O O13 0.999246 0.625037 0.695776
O O14 0.000000 0.857563 0.500000
O O15 0.047789 0.811105 0.647328
O O16 0.007574 0.000000 0.615125
O O17 0.250000 0.646215 0.838519
O O18 0.150432 0.500000 0.788787
O O19 0.142573 0.687768 0.728934
#
# Coordination Sequence:
#
# PCOD8206143 Si02
#       7
#     8   8   8   8   8   8   8
#     4  10  18  26  39  61  89 119 147 176 210 251
#     4   8  14  26  42  61  89 125 161 185 204 246
#     4  10  20  32  44  62  87 115 148 185 221 258
#     4   9  17  27  42  63  88 119 148 177 218 259
#     4  10  20  35  49  61  79 109 152 195 229 264
#     4   9  16  26  43  67  95 123 149 182 223 262
#     4  10  17  28  44  63  84 114 148 186 221 262
#
# _framework density 15.587133
#
# number of rings (size 3 to 8) (size 9 to 14) (size 15 to 20)
#    0.000    2.571    1.429    3.000    0.000    2.286 
#    0.000    2.857    0.000    4.286    0.000    0.000 
#    0.000   46.286    0.000    5.143    0.000    0.000 
#
# Total GULP energy -694199.636200 kJ/mol
# GULP energy per Si atom -12396.422075 kJ/mol
# Density = 1.555166 g / cm^3
# Si number density = 15.587133 Si / 1000 Ang^3
#
#
#
# Elastic Constant Matrix: (Units=GPa)
#
#
# Indices 1 2 3 4 5 6 
#
# 1 58.8478 13.7877 34.2624 0.0000 0.0000 0.0000
# 2 13.7877 53.2135 22.8207 0.0000 0.0000 0.0000
# 3 34.2624 22.8207 96.0962 0.0000 0.0000 0.0000
# 4 0.0000 0.0000 0.0000 5.7726 0.0000 0.0000
# 5 0.0000 0.0000 0.0000 0.0000 17.7719 0.0000
# 6 0.0000 0.0000 0.0000 0.0000 0.0000 16.2448
#
#
#
# Elastic Compliance Matrix: (Units=1/GPa)
#
#
# Indices 1 2 3 4 5 6 
#
# 1 0.021756 -0.002572 -0.007146 0.000000 0.000000 0.000000
# 2 -0.002572 0.021227 -0.004124 0.000000 0.000000 0.000000
# 3 -0.007146 -0.004124 0.013933 0.000000 0.000000 0.000000
# 4 0.000000 0.000000 0.000000 0.173232 0.000000 0.000000
# 5 0.000000 0.000000 0.000000 0.000000 0.056269 0.000000
# 6 0.000000 0.000000 0.000000 0.000000 0.000000 0.061558
#
#
# Mechanical properties :
#
#
# Convention : Reuss Voigt Hill
#
# Bulk Modulus (GPa) = 34.20883 38.87767 36.54325
# Shear Modulus (GPa) = 12.97337 17.11031 15.04184
#
# Velocity S-wave (km/s) = 2.88811 3.31678 3.10984
# Velocity P-wave (km/s) = 5.75466 6.29796 6.03243
#
# Compressibility (1/GPa) = 0.02923222
#
# Stress axis : x y z
#
# Youngs Moduli (GPa) = 45.96359 47.10924 71.76970
#
# Poissons Ratio (x) = 0.12119 0.51288
# Poissons Ratio (y) = 0.11824 0.29596
# Poissons Ratio (z) = 0.32846 0.19427
#
# Static dielectric constant tensor:
#      x y z
#    x 3.060440 0.000000 0.000000 
#    y 0.000000 2.659290 0.000000 
#    z 0.000000 0.000000 3.191210 
# 
# 
# High freq. dielectric constant tensor:
#      x y z
#    x 1.600510 0.000000 0.000000 
#    y 0.000000 1.556140 0.000000 
#    z 0.000000 0.000000 1.587630 
# 
# From -- ./inp_files/30231.got.cif
#   From: 2010.03.12/outbox.cif.g09.slc.cpg/sg51_16_cif.got.tgz:30231.got - 2010.04.16 13:43:02.
