data_PCOD8206749
_publ_section_title
;
Structure prediction by ZEFSAII (Michael W. Deem and Ramdas Pophale) SiO2 
 PCOD8206749
Probable space group: P M M A
;
_chemical_formula_sum "Si O2"
_cell_formula_units_Z 40
_cell_length_a 19.587842
_cell_length_b 9.017106
_cell_length_c 12.812390
_cell_angle_alpha 90.000000
_cell_angle_beta 90.000000
_cell_angle_gamma 90.000000
_cell_volume 2262.996681
_symmetry_space_group_name_H-M "P M M A"
_symmetry_group_IT_number 51
_symmetry_cell_setting 'orthorhombic'
loop_
_space_group_symop_operation_xyz
x,y,z
1/2-x,-y,z
1/2+x,-y,-z
-x,y,-z
-x,-y,-z
1/2+x,y,-z
1/2-x,y,z
x,-y,z
loop_
_atom_site_type_symbol
_atom_site_label
_atom_site_fract_x
_atom_site_fract_y
_atom_site_fract_z
Si Si1 0.068877 0.324353 0.214715
Si Si2 0.919325 0.163210 0.989464
Si Si3 0.174570 0.324175 0.385896
Si Si4 0.575932 0.174970 0.217273
Si Si5 0.830014 0.330421 0.379515
O O1 0.062290 0.500000 0.216853
O O2 0.100158 0.276433 0.102595
O O3 0.119956 0.262716 0.303348
O O4 0.995515 0.255478 0.238203
O O5 0.889566 0.000000 0.962447
O O6 0.892991 0.218311 0.103066
O O7 0.000000 0.152384 0.000000
O O8 0.250000 0.259150 0.360469
O O9 0.178400 0.500000 0.379435
O O10 0.152288 0.278880 0.502813
O O11 0.630283 0.222337 0.302811
O O12 0.562624 0.000000 0.222566
O O13 0.750000 0.313840 0.358092
O O14 0.853311 0.500000 0.360962
#
# Coordination Sequence:
#
# PCOD8206749 Si02
#       5
#     8   8   8   8   8
#     4  10  18  29  51  77  97 122 161 204 239 281
#     4   8  16  31  47  65  95 131 159 190 239 287
#     4   8  16  32  51  71  97 127 156 193 245 291
#     4  10  20  33  49  70 100 132 159 194 240 289
#     4   9  18  34  54  72  93 124 162 201 238 281
#
# _framework density 17.675675999999999
#
# number of rings (size 3 to 8) (size 9 to 14) (size 15 to 20)
#    0.000    3.000    0.000    3.600    0.000    5.600 
#    0.000    7.000    0.000    8.400    0.000    0.000 
#    0.000    0.000    0.000    0.000    0.000    0.000 
#
# Total GULP energy -495784.029042 kJ/mol
# GULP energy per Si atom -12394.600726 kJ/mol
# Density = 1.763545 g / cm^3
# Si number density = 17.675676 Si / 1000 Ang^3
#
#
#
# Elastic Constant Matrix: (Units=GPa)
#
#
# Indices 1 2 3 4 5 6 
#
# 1 63.3218 33.9695 69.1993 0.0000 0.0000 0.0000
# 2 33.9695 62.9266 50.6815 0.0000 0.0000 0.0000
# 3 69.1993 50.6815 155.5173 0.0000 0.0000 0.0000
# 4 0.0000 0.0000 0.0000 15.2315 0.0000 0.0000
# 5 0.0000 0.0000 0.0000 0.0000 5.9695 0.0000
# 6 0.0000 0.0000 0.0000 0.0000 0.0000 5.1292
#
#
#
# Elastic Compliance Matrix: (Units=1/GPa)
#
#
# Indices 1 2 3 4 5 6 
#
# 1 0.033646 -0.008278 -0.012273 0.000000 0.000000 0.000000
# 2 -0.008278 0.023584 -0.004002 0.000000 0.000000 0.000000
# 3 -0.012273 -0.004002 0.013196 0.000000 0.000000 0.000000
# 4 0.000000 0.000000 0.000000 0.065653 0.000000 0.000000
# 5 0.000000 0.000000 0.000000 0.000000 0.167517 0.000000
# 6 0.000000 0.000000 0.000000 0.000000 0.000000 0.194960
#
#
# Mechanical properties :
#
#
# Convention : Reuss Voigt Hill
#
# Bulk Modulus (GPa) = 46.90896 65.49625 56.20260
# Shear Modulus (GPa) = 9.01277 13.79376 11.40326
#
# Velocity S-wave (km/s) = 2.26054 2.79656 2.54271
# Velocity P-wave (km/s) = 5.78011 6.89656 6.36287
#
# Compressibility (1/GPa) = 0.02131789
#
# Stress axis : x y z
#
# Youngs Moduli (GPa) = 29.72151 42.40230 75.78233
#
# Poissons Ratio (x) = 0.35100 0.93011
# Poissons Ratio (y) = 0.24603 0.30331
# Poissons Ratio (z) = 0.36478 0.16971
#
# Static dielectric constant tensor:
#      x y z
#    x 3.167360 0.000000 0.000000 
#    y 0.000000 3.110010 0.000000 
#    z 0.000000 0.000000 3.796170 
# 
# 
# High freq. dielectric constant tensor:
#      x y z
#    x 1.657890 0.000000 0.000000 
#    y 0.000000 1.667950 0.000000 
#    z 0.000000 0.000000 1.698280 
# 
# From -- ./inp_files/17898.got.cif
#   From: 2010.03.12/outbox.cif.g09.slc.cpg/sg51_9_cif.got.tgz:17898.got - 2010.04.16 13:43:02.
