data_PCOD8206776
_publ_section_title
;
Structure prediction by ZEFSAII (Michael W. Deem and Ramdas Pophale) SiO2 
 PCOD8206776
Probable space group: P M M A
;
_chemical_formula_sum "Si O2"
_cell_formula_units_Z 44
_cell_length_a 8.691149
_cell_length_b 14.382418
_cell_length_c 19.344676
_cell_angle_alpha 90.000000
_cell_angle_beta 90.000000
_cell_angle_gamma 90.000000
_cell_volume 2418.079428
_symmetry_space_group_name_H-M "P M M A"
_symmetry_group_IT_number 51
_symmetry_cell_setting 'orthorhombic'
loop_
_space_group_symop_operation_xyz
x,y,z
1/2-x,-y,z
1/2+x,-y,-z
-x,y,-z
-x,-y,-z
1/2+x,y,-z
1/2-x,y,z
x,-y,z
loop_
_atom_site_type_symbol
_atom_site_label
_atom_site_fract_x
_atom_site_fract_y
_atom_site_fract_z
Si Si1 0.566912 0.000000 0.923871
Si Si2 0.431463 0.740349 0.203920
Si Si3 0.068931 0.188655 0.924857
Si Si4 0.067419 0.603371 0.321577
Si Si5 0.432588 0.103737 0.309078
Si Si6 0.932132 0.241720 0.575448
O O1 0.502354 0.094455 0.890601
O O2 0.750000 0.000000 0.921337
O O3 0.500000 0.000000 0.000000
O O4 0.250000 0.742099 0.189557
O O5 0.521437 0.732873 0.130772
O O6 0.479635 0.650566 0.248901
O O7 0.485981 0.832781 0.245002
O O8 0.250000 0.179401 0.933398
O O9 0.000000 0.212304 0.000000
O O10 0.250000 0.598863 0.325429
O O11 0.995104 0.500000 0.325941
O O12 0.006764 0.665295 0.385762
O O13 0.250000 0.097975 0.308133
O O14 0.486268 0.151595 0.380806
O O15 0.504369 0.000000 0.303186
O O16 0.750000 0.244766 0.570570
O O17 0.000000 0.235388 0.500000
#
# Coordination Sequence:
#
# PCOD8206776 Si02
#       6
#     4   8   8   8   8   8
#     4  10  18  30  46  66  94 128 165 198 231 276
#     4   9  17  30  50  73  92 121 164 205 247 295
#     4  11  21  33  48  70 101 132 163 201 245 289
#     4   8  15  30  51  72  95 124 160 201 246 300
#     4   8  15  28  45  65  90 125 165 198 232 284
#     4   9  17  29  46  69  96 124 159 197 238 288
#
# _framework density 18.196258
#
# number of rings (size 3 to 8) (size 9 to 14) (size 15 to 20)
#    0.000    2.909    0.000    5.727    1.273    0.727 
#    0.000    3.636    0.000    3.273    0.000    0.000 
#    0.000    0.000    0.000    0.000    0.000    0.000 
#
# Total GULP energy -545254.378774 kJ/mol
# GULP energy per Si atom -12392.144972 kJ/mol
# Density = 1.815484 g / cm^3
# Si number density = 18.196258 Si / 1000 Ang^3
#
#
#
# Elastic Constant Matrix: (Units=GPa)
#
#
# Indices 1 2 3 4 5 6 
#
# 1 65.5006 12.1280 27.5642 0.0000 0.0000 0.0000
# 2 12.1280 109.4056 39.9856 0.0000 0.0000 0.0000
# 3 27.5642 39.9856 124.9806 0.0000 0.0000 0.0000
# 4 0.0000 0.0000 0.0000 18.3610 0.0000 0.0000
# 5 0.0000 0.0000 0.0000 0.0000 30.5346 0.0000
# 6 0.0000 0.0000 0.0000 0.0000 0.0000 11.9833
#
#
#
# Elastic Compliance Matrix: (Units=1/GPa)
#
#
# Indices 1 2 3 4 5 6 
#
# 1 0.016861 -0.000578 -0.003534 0.000000 0.000000 0.000000
# 2 -0.000578 0.010370 -0.003190 0.000000 0.000000 0.000000
# 3 -0.003534 -0.003190 0.009801 0.000000 0.000000 0.000000
# 4 0.000000 0.000000 0.000000 0.054463 0.000000 0.000000
# 5 0.000000 0.000000 0.000000 0.000000 0.032750 0.000000
# 6 0.000000 0.000000 0.000000 0.000000 0.000000 0.083450
#
#
# Mechanical properties :
#
#
# Convention : Reuss Voigt Hill
#
# Bulk Modulus (GPa) = 44.58502 51.02692 47.80597
# Shear Modulus (GPa) = 21.76035 26.85637 24.30836
#
# Velocity S-wave (km/s) = 3.46189 3.84595 3.65896
# Velocity P-wave (km/s) = 6.36671 6.91557 6.64681
#
# Compressibility (1/GPa) = 0.02242906
#
# Stress axis : x y z
#
# Youngs Moduli (GPa) = 59.30797 96.42856 102.02650
#
# Poissons Ratio (x) = 0.05569 0.36055
# Poissons Ratio (y) = 0.03425 0.32551
# Poissons Ratio (z) = 0.20959 0.30765
#
# Static dielectric constant tensor:
#      x y z
#    x 2.810060 0.000000 0.000000 
#    y 0.000000 3.993070 0.000000 
#    z 0.000000 0.000000 3.588230 
# 
# 
# High freq. dielectric constant tensor:
#      x y z
#    x 1.667960 0.000000 0.000000 
#    y 0.000000 1.690040 0.000000 
#    z 0.000000 0.000000 1.710070 
# 
# From -- ./inp_files/27367.got.cif
#   From: 2010.03.12/outbox.cif.g09.slc.cpg/sg51_14_cif.got.tgz:27367.got - 2010.04.16 13:43:02.
