data_PCOD8206370
_publ_section_title
;
Structure prediction by ZEFSAII (Michael W. Deem and Ramdas Pophale) SiO2 
 PCOD8206370
Probable space group: P M M A
;
_chemical_formula_sum "Si O2"
_cell_formula_units_Z 60
_cell_length_a 9.028143
_cell_length_b 17.575255
_cell_length_c 22.959025
_cell_angle_alpha 90.000000
_cell_angle_beta 90.000000
_cell_angle_gamma 90.000000
_cell_volume 3642.952473
_symmetry_space_group_name_H-M "P M M A"
_symmetry_group_IT_number 51
_symmetry_cell_setting 'orthorhombic'
loop_
_space_group_symop_operation_xyz
x,y,z
1/2-x,-y,z
1/2+x,-y,-z
-x,y,-z
-x,-y,-z
1/2+x,y,-z
1/2-x,y,z
x,-y,z
loop_
_atom_site_type_symbol
_atom_site_label
_atom_site_fract_x
_atom_site_fract_y
_atom_site_fract_z
Si Si1 0.923412 0.413778 0.762205
Si Si2 0.422535 0.648347 0.439522
Si Si3 0.415694 0.179518 0.760182
Si Si4 0.574810 0.784302 0.938164
Si Si5 0.427727 0.500000 0.563520
Si Si6 0.918977 0.279718 0.678126
Si Si7 0.577772 0.085841 0.848868
Si Si8 0.081994 0.683542 0.850678
O O1 0.750000 0.407769 0.775299
O O2 0.968835 0.500000 0.745295
O O3 0.970388 0.358450 0.709093
O O4 0.008288 0.390452 0.821455
O O5 0.500000 0.673348 0.500000
O O6 0.250000 0.628737 0.451539
O O7 0.506102 0.576789 0.408737
O O8 0.438474 0.714837 0.391770
O O9 0.250000 0.154115 0.746007
O O10 0.489299 0.206836 0.699823
O O11 0.497840 0.107703 0.788536
O O12 0.424172 0.248925 0.804554
O O13 0.750000 0.775459 0.944902
O O14 0.529977 0.859294 0.901567
O O15 0.510431 0.708686 0.907463
O O16 0.500000 0.794829 0.000000
O O17 0.250000 0.500000 0.563984
O O18 0.500000 0.500000 0.500000
O O19 0.750000 0.264335 0.695181
O O20 0.750000 0.094312 0.836217
O O21 0.533745 0.000000 0.866287
O O22 0.250000 0.664646 0.869165
#
# Coordination Sequence:
#
# PCOD8206370 Si02
#       8
#     8   8   8   8   4   8   8   8
#     4   9  17  29  46  66  86 111 146 188 232 275
#     4  10  19  30  44  60  84 117 155 193 232 275
#     4   9  17  29  46  67  91 117 148 188 228 265
#     4  10  19  31  48  69  93 122 156 186 216 256
#     4  10  18  28  40  54  76 110 148 186 227 270
#     4   9  18  30  46  64  86 119 154 189 227 274
#     4   9  18  32  49  69  96 128 156 181 213 259
#     4   9  17  30  46  64  88 116 147 184 227 270
#
# _framework density 16.470157
#
# number of rings (size 3 to 8) (size 9 to 14) (size 15 to 20)
#    0.000    2.667    0.000    3.000    0.933    5.600 
#    0.000    0.000    0.000    0.400    0.000    0.000 
#    0.000    0.533    0.000    1.733    0.000    2.133 
#
# Total GULP energy -743756.514835 kJ/mol
# GULP energy per Si atom -12395.941914 kJ/mol
# Density = 1.643267 g / cm^3
# Si number density = 16.470157 Si / 1000 Ang^3
#
#
#
# Elastic Constant Matrix: (Units=GPa)
#
#
# Indices 1 2 3 4 5 6 
#
# 1 88.6062 23.2503 47.7496 0.0000 0.0000 0.0000
# 2 23.2503 38.0455 35.1852 0.0000 0.0000 0.0000
# 3 47.7496 35.1852 92.4162 0.0000 0.0000 0.0000
# 4 0.0000 0.0000 0.0000 19.0293 0.0000 0.0000
# 5 0.0000 0.0000 0.0000 0.0000 27.0579 0.0000
# 6 0.0000 0.0000 0.0000 0.0000 0.0000 18.6341
#
#
#
# Elastic Compliance Matrix: (Units=1/GPa)
#
#
# Indices 1 2 3 4 5 6 
#
# 1 0.015900 -0.003271 -0.006970 0.000000 0.000000 0.000000
# 2 -0.003271 0.041242 -0.014012 0.000000 0.000000 0.000000
# 3 -0.006970 -0.014012 0.019756 0.000000 0.000000 0.000000
# 4 0.000000 0.000000 0.000000 0.052551 0.000000 0.000000
# 5 0.000000 0.000000 0.000000 0.000000 0.036958 0.000000
# 6 0.000000 0.000000 0.000000 0.000000 0.000000 0.053665
#
#
# Mechanical properties :
#
#
# Convention : Reuss Voigt Hill
#
# Bulk Modulus (GPa) = 35.21995 47.93757 41.57876
# Shear Modulus (GPa) = 17.98293 20.46978 19.22636
#
# Velocity S-wave (km/s) = 3.30790 3.52922 3.42035
# Velocity P-wave (km/s) = 6.00168 6.76580 6.39516
#
# Compressibility (1/GPa) = 0.02839300
#
# Stress axis : x y z
#
# Youngs Moduli (GPa) = 62.89182 24.24740 50.61626
#
# Poissons Ratio (x) = 0.07931 0.35280
# Poissons Ratio (y) = 0.20572 0.70922
# Poissons Ratio (z) = 0.43836 0.33975
#
# Static dielectric constant tensor:
#      x y z
#    x 3.219920 0.000000 0.000000 
#    y 0.000000 3.071650 0.000000 
#    z 0.000000 0.000000 2.983420 
# 
# 
# High freq. dielectric constant tensor:
#      x y z
#    x 1.645380 0.000000 0.000000 
#    y 0.000000 1.598670 0.000000 
#    z 0.000000 0.000000 1.617060 
# 
# From -- ./inp_files/35103.got.cif
#   From: 2010.03.12/outbox.cif.g09.slc.cpg/sg51_18_cif.got.tgz:35103.got - 2010.04.16 13:43:02.
