data_PCOD8206733
_publ_section_title
;
Structure prediction by ZEFSAII (Michael W. Deem and Ramdas Pophale) SiO2 
 PCOD8206733
Probable space group: P M M A
;
_chemical_formula_sum "Si O2"
_cell_formula_units_Z 64
_cell_length_a 14.383120
_cell_length_b 8.855832
_cell_length_c 28.383419
_cell_angle_alpha 90.000000
_cell_angle_beta 90.000000
_cell_angle_gamma 90.000000
_cell_volume 3615.323643
_symmetry_space_group_name_H-M "P M M A"
_symmetry_group_IT_number 51
_symmetry_cell_setting 'orthorhombic'
loop_
_space_group_symop_operation_xyz
x,y,z
1/2-x,-y,z
1/2+x,-y,-z
-x,y,-z
-x,-y,-z
1/2+x,y,-z
1/2-x,y,z
x,-y,z
loop_
_atom_site_type_symbol
_atom_site_label
_atom_site_fract_x
_atom_site_fract_y
_atom_site_fract_z
Si Si1 0.648590 0.332082 0.412111
Si Si2 0.854284 0.678460 0.258348
Si Si3 0.399480 0.325521 0.486334
Si Si4 0.647835 0.825013 0.610293
Si Si5 0.029692 0.175225 0.661067
Si Si6 0.026712 0.319271 0.933584
Si Si7 0.640730 0.820298 0.981950
Si Si8 0.646795 0.678945 0.153149
O O1 0.750000 0.330185 0.388448
O O2 0.603656 0.500000 0.406017
O O3 0.662154 0.295494 0.467353
O O4 0.587784 0.207620 0.386139
O O5 0.750000 0.735448 0.271283
O O6 0.857006 0.500000 0.261163
O O7 0.930938 0.739688 0.293888
O O8 0.880141 0.734505 0.205653
O O9 0.500000 0.260984 0.500000
O O10 0.404641 0.500000 0.472586
O O11 0.358006 0.244859 0.441299
O O12 0.750000 0.792488 0.631129
O O13 0.574086 0.764526 0.648902
O O14 0.627899 0.000000 0.602833
O O15 0.032723 0.000000 0.672934
O O16 0.017724 0.500000 0.938177
O O17 0.067909 0.266228 0.883265
O O18 0.924472 0.243342 0.939496
O O19 0.101278 0.259838 0.971511
O O20 0.750000 0.778370 0.974160
O O21 0.628509 0.000000 0.985920
O O22 0.750000 0.741485 0.139599
O O23 0.651813 0.500000 0.152337
#
# Coordination Sequence:
#
# PCOD8206733 Si02
#       8
#     8   8   8   8   8   8   8   8
#     4  10  20  33  49  70  97 127 153 180 224 281
#     4   9  18  34  55  76 100 129 156 188 240 302
#     4  10  19  33  53  74  96 121 154 193 229 271
#     4  10  22  38  53  69  93 127 162 195 235 280
#     4  11  22  34  50  72  97 122 155 198 237 277
#     4  10  18  29  50  76 100 130 172 219 260 298
#     4  10  20  32  45  66 103 146 180 211 250 298
#     4   8  15  29  50  76 102 127 158 198 246 298
#
# _framework density 17.702425999999999
#
# number of rings (size 3 to 8) (size 9 to 14) (size 15 to 20)
#    0.000    2.250    1.250    3.750    0.000    5.500 
#    0.000    1.250    0.000    2.250    0.000    3.500 
#    0.000    0.000    0.000    0.000    0.000    0.000 
#
# Total GULP energy -793109.986772 kJ/mol
# GULP energy per Si atom -12392.343543 kJ/mol
# Density = 1.766213 g / cm^3
# Si number density = 17.702426 Si / 1000 Ang^3
#
#
#
# Elastic Constant Matrix: (Units=GPa)
#
#
# Indices 1 2 3 4 5 6 
#
# 1 136.6799 35.5040 65.0549 0.0000 0.0000 0.0000
# 2 35.5040 40.6994 26.2906 0.0000 0.0000 0.0000
# 3 65.0549 26.2906 111.2573 0.0000 0.0000 0.0000
# 4 0.0000 0.0000 0.0000 -11.5657 0.0000 0.0000
# 5 0.0000 0.0000 0.0000 0.0000 26.8145 0.0000
# 6 0.0000 0.0000 0.0000 0.0000 0.0000 23.5786
#
#
#
# Elastic Compliance Matrix: (Units=1/GPa)
#
#
# Indices 1 2 3 4 5 6 
#
# 1 0.011509 -0.006718 -0.005142 0.000000 0.000000 0.000000
# 2 -0.006718 0.032918 -0.003850 0.000000 0.000000 0.000000
# 3 -0.005142 -0.003850 0.012905 0.000000 0.000000 0.000000
# 4 0.000000 0.000000 0.000000 -0.086463 0.000000 0.000000
# 5 0.000000 0.000000 0.000000 0.000000 0.037293 0.000000
# 6 0.000000 0.000000 0.000000 0.000000 0.000000 0.042411
#
#
# Mechanical properties :
#
#
# Convention : Reuss Voigt Hill
#
# Bulk Modulus (GPa) = 38.59422 60.25951 49.42687
# Shear Modulus (GPa) = 55.16826 18.55129 36.85977
#
# Velocity S-wave (km/s) = 5.58855 3.24072 4.56805
# Velocity P-wave (km/s) = 7.96816 6.93665 7.47023
#
# Compressibility (1/GPa) = 0.02591061
#
# Stress axis : x y z
#
# Youngs Moduli (GPa) = 86.88934 30.37827 77.49103
#
# Poissons Ratio (x) = 0.20409 0.39846
# Poissons Ratio (y) = 0.58374 0.29838
# Poissons Ratio (z) = 0.44679 0.11697
#
# Static dielectric constant tensor:
#      x y z
#    x 3.614570 0.000000 0.000000 
#    y 0.000000 3.137300 0.000000 
#    z 0.000000 0.000000 3.357350 
# 
# 
# High freq. dielectric constant tensor:
#      x y z
#    x 1.687850 0.000000 0.000000 
#    y 0.000000 1.671220 0.000000 
#    z 0.000000 0.000000 1.668890 
# 
# From -- ./inp_files/37845.got.cif
#   From: 2010.03.12/outbox.cif.g09.slc.cpg/sg51_19_cif.got.tgz:37845.got - 2010.04.16 13:43:02.
