data_PCOD8206446
_publ_section_title
;
Structure prediction by ZEFSAII (Michael W. Deem and Ramdas Pophale) SiO2 
 PCOD8206446
Probable space group: P M M A
;
_chemical_formula_sum "Si O2"
_cell_formula_units_Z 56
_cell_length_a 8.949443
_cell_length_b 21.443760
_cell_length_c 18.310495
_cell_angle_alpha 90.000000
_cell_angle_beta 90.000000
_cell_angle_gamma 90.000000
_cell_volume 3513.961746
_symmetry_space_group_name_H-M "P M M A"
_symmetry_group_IT_number 51
_symmetry_cell_setting 'orthorhombic'
loop_
_space_group_symop_operation_xyz
x,y,z
1/2-x,-y,z
1/2+x,-y,-z
-x,y,-z
-x,-y,-z
1/2+x,y,-z
1/2-x,y,z
x,-y,z
loop_
_atom_site_type_symbol
_atom_site_label
_atom_site_fract_x
_atom_site_fract_y
_atom_site_fract_z
Si Si1 0.428114 0.312092 0.921635
Si Si2 0.576087 0.930200 0.426140
Si Si3 0.585678 0.630078 0.709882
Si Si4 0.574287 0.568619 0.166684
Si Si5 0.581917 0.757376 0.798275
Si Si6 0.925948 0.184884 0.331035
Si Si7 0.072540 0.292830 0.422821
O O1 0.250000 0.308797 0.926239
O O2 0.484867 0.378749 0.889201
O O3 0.488062 0.255454 0.871855
O O4 0.500000 0.304006 0.000000
O O5 0.500000 0.905483 0.500000
O O6 0.750000 0.929832 0.442792
O O7 0.538618 0.884873 0.358702
O O8 0.519857 0.000000 0.406052
O O9 0.750000 0.599612 0.711360
O O10 0.475216 0.582517 0.750110
O O11 0.587718 0.695304 0.751365
O O12 0.536693 0.646235 0.627211
O O13 0.750000 0.569483 0.166749
O O14 0.514714 0.500000 0.142898
O O15 0.750000 0.779687 0.818017
O O16 0.498694 0.809415 0.749433
O O17 0.750000 0.198769 0.325561
O O18 0.997815 0.231581 0.389317
O O19 0.250000 0.281686 0.428780
O O20 0.000000 0.307848 0.500000
#
# Coordination Sequence:
#
# PCOD8206446 Si02
#       7
#     8   8   8   8   8   8   8
#     4  10  19  31  47  67  93 120 144 172 211 256
#     4   9  18  30  42  59  87 123 159 192 224 258
#     4   8  16  29  43  60  81 106 136 173 216 259
#     4   9  18  31  46  64  85 111 143 175 207 249
#     4   9  17  30  46  64  87 113 144 180 218 259
#     4  10  18  28  44  64  87 116 150 185 221 260
#     4  10  19  29  42  62  86 109 139 180 225 268
#
# _framework density 15.936429
#
# number of rings (size 3 to 8) (size 9 to 14) (size 15 to 20)
#    0.000    2.714    0.000    3.000    0.000    7.429 
#    0.000    0.000    0.000    0.429    0.000    0.000 
#    0.000    0.571    0.000    1.571    0.000    2.286 
#
# Total GULP energy -694135.385489 kJ/mol
# GULP energy per Si atom -12395.274741 kJ/mol
# Density = 1.590016 g / cm^3
# Si number density = 15.936429 Si / 1000 Ang^3
#
#
#
# Elastic Constant Matrix: (Units=GPa)
#
#
# Indices 1 2 3 4 5 6 
#
# 1 70.1638 31.2423 47.3464 0.0000 0.0000 0.0000
# 2 31.2423 60.1769 49.3799 0.0000 0.0000 0.0000
# 3 47.3464 49.3799 126.5137 0.0000 0.0000 0.0000
# 4 0.0000 0.0000 0.0000 17.2441 0.0000 0.0000
# 5 0.0000 0.0000 0.0000 0.0000 30.9149 0.0000
# 6 0.0000 0.0000 0.0000 0.0000 0.0000 17.6336
#
#
#
# Elastic Compliance Matrix: (Units=1/GPa)
#
#
# Indices 1 2 3 4 5 6 
#
# 1 0.020634 -0.006438 -0.005209 0.000000 0.000000 0.000000
# 2 -0.006438 0.026457 -0.007917 0.000000 0.000000 0.000000
# 3 -0.005209 -0.007917 0.012944 0.000000 0.000000 0.000000
# 4 0.000000 0.000000 0.000000 0.057991 0.000000 0.000000
# 5 0.000000 0.000000 0.000000 0.000000 0.032347 0.000000
# 6 0.000000 0.000000 0.000000 0.000000 0.000000 0.056710
#
#
# Mechanical properties :
#
#
# Convention : Reuss Voigt Hill
#
# Bulk Modulus (GPa) = 47.83296 56.97683 52.40489
# Shear Modulus (GPa) = 19.74878 21.75091 20.74984
#
# Velocity S-wave (km/s) = 3.52408 3.69840 3.61229
# Velocity P-wave (km/s) = 6.82926 7.35308 7.09601
#
# Compressibility (1/GPa) = 0.02090609
#
# Stress axis : x y z
#
# Youngs Moduli (GPa) = 48.46286 37.79757 77.25649
#
# Poissons Ratio (x) = 0.24335 0.40245
# Poissons Ratio (y) = 0.31201 0.61164
# Poissons Ratio (z) = 0.25246 0.29924
#
# Static dielectric constant tensor:
#      x y z
#    x 3.173790 0.000000 0.000000 
#    y 0.000000 3.050800 0.000000 
#    z 0.000000 0.000000 3.109290 
# 
# 
# High freq. dielectric constant tensor:
#      x y z
#    x 1.623760 0.000000 0.000000 
#    y 0.000000 1.578240 0.000000 
#    z 0.000000 0.000000 1.602310 
# 
# From -- ./inp_files/28194.got.cif
#   From: 2010.03.12/outbox.cif.g09.slc.cpg/sg51_15_cif.got.tgz:28194.got - 2010.04.16 13:43:02.
