data_PCOD8206462
_publ_section_title
;
Structure prediction by ZEFSAII (Michael W. Deem and Ramdas Pophale) SiO2 
 PCOD8206462
Probable space group: P M M A
;
_chemical_formula_sum "Si O2"
_cell_formula_units_Z 64
_cell_length_a 9.305392
_cell_length_b 23.102797
_cell_length_c 18.823896
_cell_angle_alpha 90.000000
_cell_angle_beta 90.000000
_cell_angle_gamma 90.000000
_cell_volume 4046.772125
_symmetry_space_group_name_H-M "P M M A"
_symmetry_group_IT_number 51
_symmetry_cell_setting 'orthorhombic'
loop_
_space_group_symop_operation_xyz
x,y,z
1/2-x,-y,z
1/2+x,-y,-z
-x,y,-z
-x,-y,-z
1/2+x,y,-z
1/2-x,y,z
x,-y,z
loop_
_atom_site_type_symbol
_atom_site_label
_atom_site_fract_x
_atom_site_fract_y
_atom_site_fract_z
Si Si1 0.915607 0.879003 0.068240
Si Si2 0.082533 0.256661 0.930083
Si Si3 0.419072 0.066272 0.786072
Si Si4 0.916561 0.229090 0.570981
Si Si5 0.416614 0.567260 0.571299
Si Si6 0.583425 0.657093 0.654444
Si Si7 0.916439 0.274719 0.793725
Si Si8 0.583380 0.838995 0.708530
O O1 0.750000 0.892687 0.054595
O O2 0.943613 0.811356 0.079901
O O3 0.973981 0.913014 0.136799
O O4 0.000000 0.902500 0.000000
O O5 0.250000 0.272404 0.936511
O O6 0.014852 0.288509 0.861764
O O7 0.000000 0.279087 0.000000
O O8 0.250000 0.076008 0.780080
O O9 0.493188 0.103796 0.724941
O O10 0.463148 0.000000 0.774512
O O11 0.750000 0.230849 0.552444
O O12 0.964100 0.290723 0.602893
O O13 0.950151 0.178908 0.627741
O O14 0.000000 0.214066 0.500000
O O15 0.500000 0.585184 0.500000
O O16 0.250000 0.583413 0.561596
O O17 0.437567 0.500000 0.588574
O O18 0.484244 0.602135 0.637093
O O19 0.750000 0.641256 0.642546
O O20 0.557182 0.674942 0.736079
O O21 0.750000 0.273108 0.816861
O O22 0.961989 0.213208 0.760490
O O23 0.750000 0.853192 0.718766
#
# Coordination Sequence:
#
# PCOD8206462 Si02
#       8
#     8   8   8   8   8   8   8   8
#     4   9  18  30  43  62  86 113 145 180 216 259
#     4  10  18  28  44  65  90 121 154 186 224 273
#     4  10  20  33  47  64  87 112 143 184 223 264
#     4   9  18  31  47  70  94 116 142 180 225 269
#     4  10  20  32  46  66  95 132 170 202 230 263
#     4   9  18  31  47  69  97 125 156 192 230 269
#     4   9  17  30  47  67  92 120 149 188 231 271
#     4   9  18  32  48  65  88 113 142 178 220 271
#
# _framework density 15.815073999999999
#
# number of rings (size 3 to 8) (size 9 to 14) (size 15 to 20)
#    0.000    2.625    1.250    2.625    0.000    4.750 
#    0.000    2.500    0.000    0.375    0.000    0.000 
#    0.000    0.500    0.000    1.625    0.000    2.375 
#
# Total GULP energy -793675.191529 kJ/mol
# GULP energy per Si atom -12401.174868 kJ/mol
# Density = 1.577908 g / cm^3
# Si number density = 15.815074 Si / 1000 Ang^3
#
#
#
# Elastic Constant Matrix: (Units=GPa)
#
#
# Indices 1 2 3 4 5 6 
#
# 1 76.1212 40.0954 57.8981 0.0000 0.0000 0.0000
# 2 40.0954 63.3220 39.3401 0.0000 0.0000 0.0000
# 3 57.8981 39.3401 110.0494 0.0000 0.0000 0.0000
# 4 0.0000 0.0000 0.0000 22.7136 0.0000 0.0000
# 5 0.0000 0.0000 0.0000 0.0000 34.4688 0.0000
# 6 0.0000 0.0000 0.0000 0.0000 0.0000 24.6451
#
#
#
# Elastic Compliance Matrix: (Units=1/GPa)
#
#
# Indices 1 2 3 4 5 6 
#
# 1 0.026301 -0.010357 -0.010135 0.000000 0.000000 0.000000
# 2 -0.010357 0.024380 -0.003266 0.000000 0.000000 0.000000
# 3 -0.010135 -0.003266 0.015586 0.000000 0.000000 0.000000
# 4 0.000000 0.000000 0.000000 0.044026 0.000000 0.000000
# 5 0.000000 0.000000 0.000000 0.000000 0.029012 0.000000
# 6 0.000000 0.000000 0.000000 0.000000 0.000000 0.040576
#
#
# Mechanical properties :
#
#
# Convention : Reuss Voigt Hill
#
# Bulk Modulus (GPa) = 53.33115 58.23997 55.78556
# Shear Modulus (GPa) = 21.39975 23.84277 22.62126
#
# Velocity S-wave (km/s) = 3.68247 3.88699 3.78611
# Velocity P-wave (km/s) = 7.20248 7.55318 7.37991
#
# Compressibility (1/GPa) = 0.01875077
#
# Stress axis : x y z
#
# Youngs Moduli (GPa) = 38.02145 41.01781 64.15881
#
# Poissons Ratio (x) = 0.42483 0.65023
# Poissons Ratio (y) = 0.39380 0.20955
# Poissons Ratio (z) = 0.38533 0.13397
#
# Static dielectric constant tensor:
#      x y z
#    x 2.968420 0.000000 0.000000 
#    y 0.000000 2.746860 0.000000 
#    z 0.000000 0.000000 2.968580 
# 
# 
# High freq. dielectric constant tensor:
#      x y z
#    x 1.611070 0.000000 0.000000 
#    y 0.000000 1.573420 0.000000 
#    z 0.000000 0.000000 1.604660 
# 
# From -- ./inp_files/28605.got.cif
#   From: 2010.03.12/outbox.cif.g09.slc.cpg/sg51_15_cif.got.tgz:28605.got - 2010.04.16 13:43:02.
