data_PCOD8206649
_publ_section_title
;
Structure prediction by ZEFSAII (Michael W. Deem and Ramdas Pophale) SiO2 
 PCOD8206649
Probable space group: P M M A
;
_chemical_formula_sum "Si O2"
_cell_formula_units_Z 48
_cell_length_a 8.755485
_cell_length_b 16.443361
_cell_length_c 18.328754
_cell_angle_alpha 90.000000
_cell_angle_beta 90.000000
_cell_angle_gamma 90.000000
_cell_volume 2638.783393
_symmetry_space_group_name_H-M "P M M A"
_symmetry_group_IT_number 51
_symmetry_cell_setting 'orthorhombic'
loop_
_space_group_symop_operation_xyz
x,y,z
1/2-x,-y,z
1/2+x,-y,-z
-x,y,-z
-x,-y,-z
1/2+x,y,-z
1/2-x,y,z
x,-y,z
loop_
_atom_site_type_symbol
_atom_site_label
_atom_site_fract_x
_atom_site_fract_y
_atom_site_fract_z
Si Si1 0.930874 0.000000 0.580354
Si Si2 0.073940 0.737830 0.716392
Si Si3 0.430872 0.161703 0.855473
Si Si4 0.430587 0.686666 0.073553
Si Si5 0.570658 0.590098 0.784467
Si Si6 0.068388 0.000000 0.081336
Si Si7 0.927694 0.161226 0.422083
O O1 0.000000 0.000000 0.500000
O O2 0.994728 0.917647 0.616399
O O3 0.750000 0.000000 0.580790
O O4 0.250000 0.721352 0.731614
O O5 0.018538 0.805510 0.775172
O O6 0.042946 0.765979 0.633922
O O7 0.989194 0.651904 0.723313
O O8 0.250000 0.148489 0.861643
O O9 0.486671 0.227161 0.914477
O O10 0.514502 0.077474 0.872156
O O11 0.250000 0.700042 0.068588
O O12 0.476402 0.623346 0.136326
O O13 0.500000 0.648766 0.000000
O O14 0.750000 0.585337 0.776431
O O15 0.499423 0.500000 0.773721
O O16 0.250000 0.000000 0.074690
O O17 0.000000 0.000000 0.000000
O O18 0.750000 0.143093 0.433992
O O19 0.000000 0.184280 0.500000
#
# Coordination Sequence:
#
# PCOD8206649 Si02
#       7
#     4   8   8   8   8   4   8
#     4  10  18  29  46  71 101 134 168 200 239 283
#     4   9  20  36  55  77 102 133 168 207 252 303
#     4  10  20  36  53  71  97 132 172 211 254 299
#     4  10  19  32  50  73 101 131 164 204 250 299
#     4   9  19  35  54  76 102 131 164 204 251 302
#     4  12  24  37  52  73 100 134 176 218 257 295
#     4  10  19  33  52  77 107 138 172 209 251 297
#
# _framework density 18.190200999999998
#
# number of rings (size 3 to 8) (size 9 to 14) (size 15 to 20)
#    0.000    2.167    0.000    4.500    0.000    4.000 
#    0.000    3.333    0.000    0.500    0.000    0.000 
#    0.000    0.000    0.000    0.000    0.000    0.000 
#
# Total GULP energy -595128.913028 kJ/mol
# GULP energy per Si atom -12398.519021 kJ/mol
# Density = 1.814880 g / cm^3
# Si number density = 18.190201 Si / 1000 Ang^3
#
#
#
# Elastic Constant Matrix: (Units=GPa)
#
#
# Indices 1 2 3 4 5 6 
#
# 1 93.2079 54.2778 39.4224 0.0000 0.0000 0.0000
# 2 54.2778 152.4359 53.3145 0.0000 0.0000 0.0000
# 3 39.4224 53.3145 88.6381 0.0000 0.0000 0.0000
# 4 0.0000 0.0000 0.0000 12.0754 0.0000 0.0000
# 5 0.0000 0.0000 0.0000 0.0000 27.0684 0.0000
# 6 0.0000 0.0000 0.0000 0.0000 0.0000 28.4762
#
#
#
# Elastic Compliance Matrix: (Units=1/GPa)
#
#
# Indices 1 2 3 4 5 6 
#
# 1 0.014725 -0.003739 -0.004300 0.000000 0.000000 0.000000
# 2 -0.003739 0.009257 -0.003905 0.000000 0.000000 0.000000
# 3 -0.004300 -0.003905 0.015543 0.000000 0.000000 0.000000
# 4 0.000000 0.000000 0.000000 0.082813 0.000000 0.000000
# 5 0.000000 0.000000 0.000000 0.000000 0.036943 0.000000
# 6 0.000000 0.000000 0.000000 0.000000 0.000000 0.035117
#
#
# Mechanical properties :
#
#
# Convention : Reuss Voigt Hill
#
# Bulk Modulus (GPa) = 63.95148 69.81238 66.88193
# Shear Modulus (GPa) = 22.37143 26.00849 24.18996
#
# Velocity S-wave (km/s) = 3.51074 3.78538 3.65065
# Velocity P-wave (km/s) = 7.18799 7.58735 7.39037
#
# Compressibility (1/GPa) = 0.01563685
#
# Stress axis : x y z
#
# Youngs Moduli (GPa) = 67.91273 108.02218 64.33712
#
# Poissons Ratio (x) = 0.40391 0.27664
# Poissons Ratio (y) = 0.25394 0.25125
# Poissons Ratio (z) = 0.29202 0.42184
#
# Static dielectric constant tensor:
#      x y z
#    x 3.411400 0.000000 0.000000 
#    y 0.000000 3.651070 0.000000 
#    z 0.000000 0.000000 3.246530 
# 
# 
# High freq. dielectric constant tensor:
#      x y z
#    x 1.714040 0.000000 0.000000 
#    y 0.000000 1.700060 0.000000 
#    z 0.000000 0.000000 1.690460 
# 
# From -- ./inp_files/27674.got.cif
#   From: 2010.03.12/outbox.cif.g09.slc.cpg/sg51_14_cif.got.tgz:27674.got - 2010.04.16 13:43:02.
