data_PCOD8206046
_publ_section_title
;
Structure prediction by ZEFSAII (Michael W. Deem and Ramdas Pophale) SiO2 
 PCOD8206046
Probable space group: P M M A
;
_chemical_formula_sum "Si O2"
_cell_formula_units_Z 56
_cell_length_a 16.443290
_cell_length_b 17.993916
_cell_length_c 11.624886
_cell_angle_alpha 90.000000
_cell_angle_beta 90.000000
_cell_angle_gamma 90.000000
_cell_volume 3439.561726
_symmetry_space_group_name_H-M "P M M A"
_symmetry_group_IT_number 51
_symmetry_cell_setting 'orthorhombic'
loop_
_space_group_symop_operation_xyz
x,y,z
1/2-x,-y,z
1/2+x,-y,-z
-x,y,-z
-x,-y,-z
1/2+x,y,-z
1/2-x,y,z
x,-y,z
loop_
_atom_site_type_symbol
_atom_site_label
_atom_site_fract_x
_atom_site_fract_y
_atom_site_fract_z
Si Si1 0.842431 0.649883 0.260953
Si Si2 0.073778 0.686416 0.312855
Si Si3 0.155684 0.181183 0.386168
Si Si4 0.596800 0.418684 0.497052
Si Si5 0.987419 0.586017 0.134333
Si Si6 0.417674 0.778289 0.633592
Si Si7 0.486523 0.918651 0.365491
O O1 0.750000 0.633448 0.228008
O O2 0.867635 0.612081 0.379549
O O3 0.896332 0.613925 0.160391
O O4 0.855362 0.739497 0.276557
O O5 0.136224 0.754829 0.290788
O O6 0.123768 0.633117 0.398220
O O7 0.051348 0.639893 0.198969
O O8 0.993509 0.720825 0.375041
O O9 0.250000 0.160734 0.391293
O O10 0.123698 0.211115 0.509548
O O11 0.106514 0.107836 0.346892
O O12 0.500000 0.423436 0.500000
O O13 0.634598 0.500000 0.515518
O O14 0.998798 0.500000 0.174059
O O15 0.000000 0.594583 0.000000
O O16 0.449290 0.857726 0.683612
O O17 0.500000 0.925308 0.500000
O O18 0.499384 0.000000 0.307242
#
# Coordination Sequence:
#
# PCOD8206046 Si02
#       7
#     8   8   8   8   8   8   8
#     4  11  21  32  49  73  97 119 153 204 249 285
#     4  10  17  30  46  65  91 121 156 196 234 284
#     4  10  17  25  41  65  94 124 153 188 234 279
#     4  11  18  26  44  69  93 119 148 187 242 295
#     4  10  21  36  52  67  86 125 172 203 237 285
#     4   9  16  27  44  64  91 125 155 184 230 282
#     4   8  15  26  40  59  88 128 165 186 206 257
#
# _framework density 16.281144000000001
#
# number of rings (size 3 to 8) (size 9 to 14) (size 15 to 20)
#    0.000    2.143    4.286    2.571    0.000    1.429 
#    0.000    0.714    0.000    3.429    0.000    0.000 
#    0.000   46.286    0.000    5.143    0.000    2.571 
#
# Total GULP energy -693751.929263 kJ/mol
# GULP energy per Si atom -12388.427308 kJ/mol
# Density = 1.624409 g / cm^3
# Si number density = 16.281144 Si / 1000 Ang^3
#
#
#
# Elastic Constant Matrix: (Units=GPa)
#
#
# Indices 1 2 3 4 5 6 
#
# 1 83.2684 39.7138 25.0532 0.0000 0.0000 0.0000
# 2 39.7138 139.7922 32.6591 0.0000 0.0000 0.0000
# 3 25.0532 32.6591 50.8108 0.0000 0.0000 0.0000
# 4 0.0000 0.0000 0.0000 10.9502 0.0000 0.0000
# 5 0.0000 0.0000 0.0000 0.0000 8.8082 0.0000
# 6 0.0000 0.0000 0.0000 0.0000 0.0000 15.8209
#
#
#
# Elastic Compliance Matrix: (Units=1/GPa)
#
#
# Indices 1 2 3 4 5 6 
#
# 1 0.015100 -0.003001 -0.005517 0.000000 0.000000 0.000000
# 2 -0.003001 0.009014 -0.004314 0.000000 0.000000 0.000000
# 3 -0.005517 -0.004314 0.025174 0.000000 0.000000 0.000000
# 4 0.000000 0.000000 0.000000 0.091322 0.000000 0.000000
# 5 0.000000 0.000000 0.000000 0.000000 0.113530 0.000000
# 6 0.000000 0.000000 0.000000 0.000000 0.000000 0.063208
#
#
# Mechanical properties :
#
#
# Convention : Reuss Voigt Hill
#
# Bulk Modulus (GPa) = 42.32847 52.08039 47.20443
# Shear Modulus (GPa) = 14.24961 18.87888 16.56425
#
# Velocity S-wave (km/s) = 2.96162 3.40892 3.19311
# Velocity P-wave (km/s) = 6.14409 6.89579 6.53076
#
# Compressibility (1/GPa) = 0.02362476
#
# Stress axis : x y z
#
# Youngs Moduli (GPa) = 66.22300 110.93931 39.72391
#
# Poissons Ratio (x) = 0.33294 0.21914
# Poissons Ratio (y) = 0.19874 0.17137
# Poissons Ratio (z) = 0.36532 0.47860
#
# Static dielectric constant tensor:
#      x y z
#    x 4.835440 0.000000 0.000000 
#    y 0.000000 3.737040 0.000000 
#    z 0.000000 0.000000 2.595190 
# 
# 
# High freq. dielectric constant tensor:
#      x y z
#    x 1.611660 0.000000 0.000000 
#    y 0.000000 1.641300 0.000000 
#    z 0.000000 0.000000 1.564120 
# 
# From -- ./inp_files/17635.got.cif
#   From: 2010.03.12/outbox.cif.g09.slc.cpg/sg51_9_cif.got.tgz:17635.got - 2010.04.16 13:43:02.
