data_PCOD8206718
_publ_section_title
;
Structure prediction by ZEFSAII (Michael W. Deem and Ramdas Pophale) SiO2 
 PCOD8206718
Probable space group: P M M A
;
_chemical_formula_sum "Si O2"
_cell_formula_units_Z 48
_cell_length_a 23.710362
_cell_length_b 8.950018
_cell_length_c 12.779386
_cell_angle_alpha 90.000000
_cell_angle_beta 90.000000
_cell_angle_gamma 90.000000
_cell_volume 2711.890074
_symmetry_space_group_name_H-M "P M M A"
_symmetry_group_IT_number 51
_symmetry_cell_setting 'orthorhombic'
loop_
_space_group_symop_operation_xyz
x,y,z
1/2-x,-y,z
1/2+x,-y,-z
-x,y,-z
-x,-y,-z
1/2+x,y,-z
1/2-x,y,z
x,-y,z
loop_
_atom_site_type_symbol
_atom_site_label
_atom_site_fract_x
_atom_site_fract_y
_atom_site_fract_z
Si Si1 0.381643 0.677709 0.695219
Si Si2 0.685832 0.176107 0.887330
Si Si3 0.314892 0.673387 0.895960
Si Si4 0.999228 0.677501 0.618434
Si Si5 0.880398 0.322864 0.703226
Si Si6 0.313048 0.322036 0.498313
O O1 0.378393 0.500000 0.692702
O O2 0.354746 0.735618 0.803316
O O3 0.446049 0.733568 0.682710
O O4 0.346066 0.742959 0.598133
O O5 0.750000 0.225456 0.859842
O O6 0.641903 0.248269 0.808103
O O7 0.679340 0.000000 0.883711
O O8 0.669554 0.232216 0.002280
O O9 0.250000 0.696998 0.862014
O O10 0.326849 0.500000 0.919851
O O11 0.999009 0.500000 0.610137
O O12 0.944197 0.731740 0.681379
O O13 0.000000 0.742588 0.500000
O O14 0.876915 0.500000 0.716311
O O15 0.842615 0.265656 0.607080
O O16 0.250000 0.257606 0.500300
O O17 0.313265 0.500000 0.501494
#
# Coordination Sequence:
#
# PCOD8206718 Si02
#       6
#     8   8   8   8   8   8
#     4   9  15  25  43  70 102 129 156 194 243 292
#     4  10  21  36  52  69  94 129 164 201 248 297
#     4   9  17  30  50  74  97 123 160 206 249 289
#     4   9  15  26  44  71 105 136 161 192 238 288
#     4  10  18  29  49  75 101 129 163 200 237 283
#     4   9  15  22  38  69 103 126 149 192 246 290
#
# _framework density 17.699832000000001
#
# number of rings (size 3 to 8) (size 9 to 14) (size 15 to 20)
#    0.000    2.667    1.667    1.500    0.000    3.667 
#    0.000    0.833    0.000    7.500    0.000    2.333 
#    0.000    0.000    0.000    0.000    0.000    0.000 
#
# Total GULP energy -595119.722612 kJ/mol
# GULP energy per Si atom -12398.327554 kJ/mol
# Density = 1.765955 g / cm^3
# Si number density = 17.699832 Si / 1000 Ang^3
#
#
#
# Elastic Constant Matrix: (Units=GPa)
#
#
# Indices 1 2 3 4 5 6 
#
# 1 166.6837 22.9753 94.1565 0.0000 0.0000 0.0000
# 2 22.9753 22.2604 26.2485 0.0000 0.0000 0.0000
# 3 94.1565 26.2485 144.0924 0.0000 0.0000 0.0000
# 4 0.0000 0.0000 0.0000 -2.5027 0.0000 0.0000
# 5 0.0000 0.0000 0.0000 0.0000 32.6169 0.0000
# 6 0.0000 0.0000 0.0000 0.0000 0.0000 8.7590
#
#
#
# Elastic Compliance Matrix: (Units=1/GPa)
#
#
# Indices 1 2 3 4 5 6 
#
# 1 0.009688 -0.003228 -0.005743 0.000000 0.000000 0.000000
# 2 -0.003228 0.058287 -0.008509 0.000000 0.000000 0.000000
# 3 -0.005743 -0.008509 0.012243 0.000000 0.000000 0.000000
# 4 0.000000 0.000000 0.000000 -0.399565 0.000000 0.000000
# 5 0.000000 0.000000 0.000000 0.000000 0.030659 0.000000
# 6 0.000000 0.000000 0.000000 0.000000 0.000000 0.114169
#
#
# Mechanical properties :
#
#
# Convention : Reuss Voigt Hill
#
# Bulk Modulus (GPa) = 22.09470 68.86635 45.48052
# Shear Modulus (GPa) = -40.16911 20.41837 -9.87537
#
# Velocity S-wave (km/s) = -4.76906 3.40014 -2.36463
# Velocity P-wave (km/s) = 4.22079 7.37611 4.27738
#
# Compressibility (1/GPa) = 0.04525973
#
# Stress axis : x y z
#
# Youngs Moduli (GPa) = 103.21744 17.15636 81.68225
#
# Poissons Ratio (x) = 0.05538 0.46908
# Poissons Ratio (y) = 0.33316 0.69501
# Poissons Ratio (z) = 0.59275 0.14598
#
# Static dielectric constant tensor:
#      x y z
#    x 3.530160 0.000000 0.000000 
#    y 0.000000 2.703370 0.000000 
#    z 0.000000 0.000000 3.325460 
# 
# 
# High freq. dielectric constant tensor:
#      x y z
#    x 1.691400 0.000000 0.000000 
#    y 0.000000 1.625310 0.000000 
#    z 0.000000 0.000000 1.689450 
# 
# From -- ./inp_files/18576.got.cif
#   From: 2010.03.12/outbox.cif.g09.slc.cpg/sg51_10_cif.got.tgz:18576.got - 2010.04.16 13:43:02.
