data_PCOD8206399
_publ_section_title
;
Structure prediction by ZEFSAII (Michael W. Deem and Ramdas Pophale) SiO2 
 PCOD8206399
Probable space group: P M M A
;
_chemical_formula_sum "Si O2"
_cell_formula_units_Z 52
_cell_length_a 8.854055
_cell_length_b 26.347725
_cell_length_c 13.557092
_cell_angle_alpha 90.000000
_cell_angle_beta 90.000000
_cell_angle_gamma 90.000000
_cell_volume 3162.655447
_symmetry_space_group_name_H-M "P M M A"
_symmetry_group_IT_number 51
_symmetry_cell_setting 'orthorhombic'
loop_
_space_group_symop_operation_xyz
x,y,z
1/2-x,-y,z
1/2+x,-y,-z
-x,y,-z
-x,-y,-z
1/2+x,y,-z
1/2-x,y,z
x,-y,z
loop_
_atom_site_type_symbol
_atom_site_label
_atom_site_fract_x
_atom_site_fract_y
_atom_site_fract_z
Si Si1 0.072000 0.351396 0.797817
Si Si2 0.927438 0.100545 0.606157
Si Si3 0.430202 0.000000 0.608700
Si Si4 0.426020 0.296447 0.599944
Si Si5 0.572598 0.258341 0.899563
Si Si6 0.075837 0.794227 0.299806
Si Si7 0.926311 0.558094 0.895712
O O1 0.250000 0.351628 0.815200
O O2 0.028850 0.334811 0.687219
O O3 0.997976 0.313079 0.875829
O O4 0.003699 0.407253 0.812703
O O5 0.750000 0.090601 0.591624
O O6 0.960042 0.147112 0.679488
O O7 0.000000 0.112301 0.500000
O O8 0.005650 0.051495 0.658356
O O9 0.500000 0.000000 0.500000
O O10 0.250000 0.000000 0.608714
O O11 0.500000 0.317036 0.500000
O O12 0.250000 0.293992 0.583047
O O13 0.480897 0.239830 0.624916
O O14 0.750000 0.264871 0.913531
O O15 0.532290 0.218304 0.813189
O O16 0.500000 0.236990 0.000000
O O17 0.250000 0.781329 0.319657
O O18 0.750000 0.570026 0.902520
O O19 0.957541 0.500000 0.865808
O O20 0.000000 0.571336 0.000000
#
# Coordination Sequence:
#
# PCOD8206399 Si02
#       7
#     8   8   4   8   8   8   8
#     4  10  20  33  49  70  94 123 155 187 225 269
#     4  10  18  29  44  64  90 120 151 185 223 265
#     4  10  18  28  42  62  87 118 151 184 223 266
#     4  10  20  32  48  69  94 123 155 189 226 267
#     4  10  19  32  48  68  94 123 153 187 226 270
#     4   9  19  32  47  67  92 122 155 188 226 270
#     4  10  20  33  50  72  96 122 151 186 229 274
#
# _framework density 16.441880000000001
#
# number of rings (size 3 to 8) (size 9 to 14) (size 15 to 20)
#    0.000    2.154    0.000    4.846    0.000    5.846 
#    0.000    0.000    0.000    0.462    0.000    0.538 
#    0.000    0.000    0.000    0.000    0.000    0.000 
#
# Total GULP energy -644876.048879 kJ/mol
# GULP energy per Si atom -12401.462478 kJ/mol
# Density = 1.640446 g / cm^3
# Si number density = 16.441880 Si / 1000 Ang^3
#
#
#
# Elastic Constant Matrix: (Units=GPa)
#
#
# Indices 1 2 3 4 5 6 
#
# 1 97.5448 55.3908 46.6962 0.0000 0.0000 0.0000
# 2 55.3908 119.1629 53.1516 0.0000 0.0000 0.0000
# 3 46.6962 53.1516 94.1439 0.0000 0.0000 0.0000
# 4 0.0000 0.0000 0.0000 21.6535 0.0000 0.0000
# 5 0.0000 0.0000 0.0000 0.0000 27.2693 0.0000
# 6 0.0000 0.0000 0.0000 0.0000 0.0000 28.3615
#
#
#
# Elastic Compliance Matrix: (Units=1/GPa)
#
#
# Indices 1 2 3 4 5 6 
#
# 1 0.015401 -0.005014 -0.004808 0.000000 0.000000 0.000000
# 2 -0.005014 0.012849 -0.004767 0.000000 0.000000 0.000000
# 3 -0.004808 -0.004767 0.015698 0.000000 0.000000 0.000000
# 4 0.000000 0.000000 0.000000 0.046182 0.000000 0.000000
# 5 0.000000 0.000000 0.000000 0.000000 0.036671 0.000000
# 6 0.000000 0.000000 0.000000 0.000000 0.000000 0.035259
#
#
# Mechanical properties :
#
#
# Convention : Reuss Voigt Hill
#
# Bulk Modulus (GPa) = 67.70816 69.03654 68.37235
# Shear Modulus (GPa) = 25.48915 25.83106 25.66011
#
# Velocity S-wave (km/s) = 3.94160 3.96795 3.95480
# Velocity P-wave (km/s) = 7.87304 7.94180 7.90749
#
# Compressibility (1/GPa) = 0.01476927
#
# Stress axis : x y z
#
# Youngs Moduli (GPa) = 64.93236 77.82714 63.70125
#
# Poissons Ratio (x) = 0.39024 0.30627
# Poissons Ratio (y) = 0.32558 0.30368
# Poissons Ratio (z) = 0.31219 0.37102
#
# Static dielectric constant tensor:
#      x y z
#    x 3.234890 0.000000 0.000000 
#    y 0.000000 3.283830 0.000000 
#    z 0.000000 0.000000 3.005780 
# 
# 
# High freq. dielectric constant tensor:
#      x y z
#    x 1.652550 0.000000 0.000000 
#    y 0.000000 1.627700 0.000000 
#    z 0.000000 0.000000 1.608680 
# 
# From -- ./inp_files/14736.got.cif
#   From: 2010.03.12/outbox.cif.g09.slc.cpg/sg51_8_cif.got.tgz:14736.got - 2010.04.16 13:43:02.
