data_PCOD8206191
_publ_section_title
;
Structure prediction by ZEFSAII (Michael W. Deem and Ramdas Pophale) SiO2 
 PCOD8206191
Probable space group: P M M A
;
_chemical_formula_sum "Si O2"
_cell_formula_units_Z 56
_cell_length_a 21.549820
_cell_length_b 8.794450
_cell_length_c 16.978637
_cell_angle_alpha 90.000000
_cell_angle_beta 90.000000
_cell_angle_gamma 90.000000
_cell_volume 3217.771156
_symmetry_space_group_name_H-M "P M M A"
_symmetry_group_IT_number 51
_symmetry_cell_setting 'orthorhombic'
loop_
_space_group_symop_operation_xyz
x,y,z
1/2-x,-y,z
1/2+x,-y,-z
-x,y,-z
-x,-y,-z
1/2+x,y,-z
1/2-x,y,z
x,-y,z
loop_
_atom_site_type_symbol
_atom_site_label
_atom_site_fract_x
_atom_site_fract_y
_atom_site_fract_z
Si Si1 0.121280 0.320824 0.196979
Si Si2 0.027885 0.819688 0.623413
Si Si3 0.820030 0.178816 0.654347
Si Si4 0.490406 0.821314 0.796291
Si Si5 0.938242 0.821805 0.041864
Si Si6 0.319490 0.820074 0.050851
Si Si7 0.089378 0.821726 0.473024
O O1 0.122553 0.500000 0.190008
O O2 0.138969 0.270686 0.284478
O O3 0.170957 0.251243 0.136784
O O4 0.053180 0.260325 0.176986
O O5 0.034947 0.755475 0.712567
O O6 0.082222 0.760067 0.563269
O O7 0.963779 0.758980 0.585700
O O8 0.029098 0.000000 0.630727
O O9 0.750000 0.235747 0.658721
O O10 0.844483 0.217641 0.565938
O O11 0.826555 0.000000 0.672011
O O12 0.439985 0.786934 0.864465
O O13 0.505066 0.000000 0.790858
O O14 0.938294 0.000000 0.024998
O O15 0.873358 0.754927 0.007521
O O16 0.000000 0.751618 0.000000
O O17 0.250000 0.774998 0.020834
O O18 0.324584 0.000000 0.059082
O O19 0.078314 0.000000 0.478419
#
# Coordination Sequence:
#
# PCOD8206191 Si02
#       7
#     8   8   8   8   8   8   8
#     4  12  23  32  45  69 101 128 154 193 242 286
#     4   8  13  22  43  69  90 114 145 188 226 262
#     4  10  19  31  48  67  91 126 162 191 225 280
#     4  10  17  30  52  72  95 126 161 195 233 282
#     4   9  16  28  50  75  94 117 158 204 236 272
#     4  10  20  35  53  70  92 126 164 197 232 284
#     4   8  13  23  41  68  92 112 149 189 222 260
#
# _framework density 17.403348999999999
#
# number of rings (size 3 to 8) (size 9 to 14) (size 15 to 20)
#    0.000    2.429    2.857    2.571    0.000    2.286 
#    0.000    1.429    0.000    2.571    0.000    6.000 
#    0.000    0.000    0.000    2.571    0.000    2.857 
#
# Total GULP energy -693847.041233 kJ/mol
# GULP energy per Si atom -12390.125736 kJ/mol
# Density = 1.736374 g / cm^3
# Si number density = 17.403349 Si / 1000 Ang^3
#
#
#
# Elastic Constant Matrix: (Units=GPa)
#
#
# Indices 1 2 3 4 5 6 
#
# 1 104.0476 21.9285 55.4814 0.0000 0.0000 0.0000
# 2 21.9285 22.0591 12.6753 0.0000 0.0000 0.0000
# 3 55.4814 12.6753 124.2883 0.0000 0.0000 0.0000
# 4 0.0000 0.0000 0.0000 -0.8070 0.0000 0.0000
# 5 0.0000 0.0000 0.0000 0.0000 27.8348 0.0000
# 6 0.0000 0.0000 0.0000 0.0000 0.0000 4.4279
#
#
#
# Elastic Compliance Matrix: (Units=1/GPa)
#
#
# Indices 1 2 3 4 5 6 
#
# 1 0.015030 -0.011776 -0.005508 0.000000 0.000000 0.000000
# 2 -0.011776 0.057381 -0.000595 0.000000 0.000000 0.000000
# 3 -0.005508 -0.000595 0.010565 0.000000 0.000000 0.000000
# 4 0.000000 0.000000 0.000000 -1.239103 0.000000 0.000000
# 5 0.000000 0.000000 0.000000 0.000000 0.035926 0.000000
# 6 0.000000 0.000000 0.000000 0.000000 0.000000 0.225839
#
#
# Mechanical properties :
#
#
# Convention : Reuss Voigt Hill
#
# Bulk Modulus (GPa) = 21.17863 47.84060 34.50962
# Shear Modulus (GPa) = -5.93216 16.97846 5.52315
#
# Velocity S-wave (km/s) = -1.84825 3.12683 1.78340
# Velocity P-wave (km/s) = 2.76424 6.37064 4.91050
#
# Compressibility (1/GPa) = 0.04721740
#
# Stress axis : x y z
#
# Youngs Moduli (GPa) = 66.53338 17.42741 94.64849
#
# Poissons Ratio (x) = 0.20522 0.52136
# Poissons Ratio (y) = 0.78349 0.05633
# Poissons Ratio (z) = 0.36649 0.01037
#
# Static dielectric constant tensor:
#      x y z
#    x 3.300300 0.000000 0.000000 
#    y 0.000000 2.752620 0.000000 
#    z 0.000000 0.000000 3.565080 
# 
# 
# High freq. dielectric constant tensor:
#      x y z
#    x 1.653160 0.000000 0.000000 
#    y 0.000000 1.618940 0.000000 
#    z 0.000000 0.000000 1.679760 
# 
# From -- ./inp_files/30389.got.cif
#   From: 2010.03.12/outbox.cif.g09.slc.cpg/sg51_16_cif.got.tgz:30389.got - 2010.04.16 13:43:02.
