data_PCOD8206245
_publ_section_title
;
Structure prediction by ZEFSAII (Michael W. Deem and Ramdas Pophale) SiO2 
 PCOD8206245
Probable space group: P M M A
;
_chemical_formula_sum "Si O2"
_cell_formula_units_Z 64
_cell_length_a 26.521759
_cell_length_b 9.143913
_cell_length_c 18.173444
_cell_angle_alpha 90.000000
_cell_angle_beta 90.000000
_cell_angle_gamma 90.000000
_cell_volume 4407.290190
_symmetry_space_group_name_H-M "P M M A"
_symmetry_group_IT_number 51
_symmetry_cell_setting 'orthorhombic'
loop_
_space_group_symop_operation_xyz
x,y,z
1/2-x,-y,z
1/2+x,-y,-z
-x,y,-z
-x,-y,-z
1/2+x,y,-z
1/2-x,y,z
x,-y,z
loop_
_atom_site_type_symbol
_atom_site_label
_atom_site_fract_x
_atom_site_fract_y
_atom_site_fract_z
Si Si1 0.948961 0.335256 0.045641
Si Si2 0.604277 0.172194 0.922477
Si Si3 0.191585 0.330518 0.158510
Si Si4 0.599486 0.673270 0.590035
Si Si5 0.548748 0.662200 0.448541
Si Si6 0.504382 0.830452 0.835917
Si Si7 0.992308 0.170746 0.665650
Si Si8 0.695058 0.673555 0.675473
O O1 0.929462 0.500000 0.058744
O O2 0.960357 0.259855 0.123791
O O3 0.906768 0.244799 0.001597
O O4 0.000000 0.333838 0.000000
O O5 0.657296 0.233507 0.894372
O O6 0.560094 0.213115 0.864591
O O7 0.608878 0.000000 0.933747
O O8 0.250000 0.306615 0.137286
O O9 0.176513 0.500000 0.149527
O O10 0.181660 0.276022 0.241899
O O11 0.592835 0.500000 0.601240
O O12 0.594064 0.713303 0.503118
O O13 0.557964 0.749926 0.639934
O O14 0.653688 0.730994 0.617652
O O15 0.500000 0.659793 0.500000
O O16 0.559233 0.500000 0.416841
O O17 0.540867 0.771894 0.380399
O O18 0.499503 0.791925 0.750533
O O19 0.494482 0.000000 0.852102
O O20 0.986207 0.000000 0.651229
O O21 0.750000 0.736273 0.652363
O O22 0.697315 0.500000 0.675027
#
# Coordination Sequence:
#
# PCOD8206245 Si02
#       8
#     8   8   8   8   8   8   8   8
#     4   9  17  28  42  59  77 100 131 162 192 231
#     4  10  18  28  42  57  78 107 133 160 195 234
#     4   9  17  28  41  58  80 104 133 169 199 224
#     4   9  16  26  40  56  76 103 133 164 196 231
#     4   8  15  26  37  52  75 101 129 161 196 231
#     4   9  18  29  39  56  81 105 130 161 197 233
#     4  10  18  26  38  56  78 104 133 162 192 231
#     4   8  14  25  41  59  77 100 132 167 199 228
#
# _framework density 14.521395
#
# number of rings (size 3 to 8) (size 9 to 14) (size 15 to 20)
#    0.000    3.000    0.000    3.375    0.000    5.500 
#    0.000    0.000    0.000    1.125    0.000    0.000 
#    0.000    1.000    0.000    9.250    0.000    2.500 
#
# Total GULP energy -793306.798283 kJ/mol
# GULP energy per Si atom -12395.418723 kJ/mol
# Density = 1.448834 g / cm^3
# Si number density = 14.521395 Si / 1000 Ang^3
#
#
#
# Elastic Constant Matrix: (Units=GPa)
#
#
# Indices 1 2 3 4 5 6 
#
# 1 80.7063 37.2732 54.1667 0.0000 0.0000 0.0000
# 2 37.2732 66.8083 49.8466 0.0000 0.0000 0.0000
# 3 54.1667 49.8466 95.0135 0.0000 0.0000 0.0000
# 4 0.0000 0.0000 0.0000 24.0885 0.0000 0.0000
# 5 0.0000 0.0000 0.0000 0.0000 26.3933 0.0000
# 6 0.0000 0.0000 0.0000 0.0000 0.0000 14.7282
#
#
#
# Elastic Compliance Matrix: (Units=1/GPa)
#
#
# Indices 1 2 3 4 5 6 
#
# 1 0.020878 -0.004548 -0.009517 0.000000 0.000000 0.000000
# 2 -0.004548 0.025586 -0.010831 0.000000 0.000000 0.000000
# 3 -0.009517 -0.010831 0.021632 0.000000 0.000000 0.000000
# 4 0.000000 0.000000 0.000000 0.041514 0.000000 0.000000
# 5 0.000000 0.000000 0.000000 0.000000 0.037888 0.000000
# 6 0.000000 0.000000 0.000000 0.000000 0.000000 0.067897
#
#
# Mechanical properties :
#
#
# Convention : Reuss Voigt Hill
#
# Bulk Modulus (GPa) = 54.62479 58.34457 56.48468
# Shear Modulus (GPa) = 18.43063 19.79145 19.11104
#
# Velocity S-wave (km/s) = 3.56646 3.69577 3.63169
# Velocity P-wave (km/s) = 7.39310 7.64704 7.52114
#
# Compressibility (1/GPa) = 0.01830671
#
# Stress axis : x y z
#
# Youngs Moduli (GPa) = 47.89712 39.08346 46.22716
#
# Poissons Ratio (x) = 0.17774 0.43993
# Poissons Ratio (y) = 0.21782 0.50067
# Poissons Ratio (z) = 0.45582 0.42330
#
# Static dielectric constant tensor:
#      x y z
#    x 2.926680 0.000000 0.000000 
#    y 0.000000 2.798920 0.000000 
#    z 0.000000 0.000000 2.904650 
# 
# 
# High freq. dielectric constant tensor:
#      x y z
#    x 1.524540 0.000000 0.000000 
#    y 0.000000 1.552940 0.000000 
#    z 0.000000 0.000000 1.543230 
# 
# From -- ./inp_files/30974.got.cif
#   From: 2010.03.12/outbox.cif.g09.slc.cpg/sg51_16_cif.got.tgz:30974.got - 2010.04.16 13:43:02.
