data_PCOD8206024
_publ_section_title
;
Structure prediction by ZEFSAII (Michael W. Deem and Ramdas Pophale) SiO2 
 PCOD8206024
Probable space group: P M M A
;
_chemical_formula_sum "Si O2"
_cell_formula_units_Z 40
_cell_length_a 8.719294
_cell_length_b 26.625716
_cell_length_c 9.106525
_cell_angle_alpha 90.000000
_cell_angle_beta 90.000000
_cell_angle_gamma 90.000000
_cell_volume 2114.147584
_symmetry_space_group_name_H-M "P M M A"
_symmetry_group_IT_number 51
_symmetry_cell_setting 'orthorhombic'
loop_
_space_group_symop_operation_xyz
x,y,z
1/2-x,-y,z
1/2+x,-y,-z
-x,y,-z
-x,-y,-z
1/2+x,y,-z
1/2-x,y,z
x,-y,z
loop_
_atom_site_type_symbol
_atom_site_label
_atom_site_fract_x
_atom_site_fract_y
_atom_site_fract_z
Si Si1 0.431865 0.692971 0.839056
Si Si2 0.569060 0.107315 0.162071
Si Si3 0.569068 0.404040 0.340102
Si Si4 0.068255 0.500000 0.839497
Si Si5 0.431808 0.205921 0.163003
Si Si6 0.571606 0.000000 0.158251
O O1 0.250000 0.697570 0.851484
O O2 0.484985 0.646962 0.738177
O O3 0.500558 0.743547 0.763298
O O4 0.500000 0.684247 0.000000
O O5 0.750000 0.117162 0.154839
O O6 0.489535 0.154773 0.245346
O O7 0.529696 0.053016 0.240546
O O8 0.500000 0.104435 0.000000
O O9 0.500000 0.406928 0.500000
O O10 0.750000 0.406153 0.353927
O O11 0.507779 0.450977 0.245921
O O12 0.250000 0.500000 0.852013
O O13 0.000000 0.500000 0.000000
O O14 0.250000 0.208139 0.161758
O O15 0.500000 0.204446 0.000000
O O16 0.750000 0.000000 0.127895
O O17 0.500000 0.000000 0.000000
#
# Coordination Sequence:
#
# PCOD8206024 Si02
#       6
#     8   8   8   4   8   4
#     4  10  19  32  49  71  95 125 163 204 244 290
#     4   9  14  21  31  46  70 102 141 186 231 281
#     4  10  22  37  55  78 106 135 167 202 244 292
#     4  10  21  38  58  84 110 136 169 206 242 286
#     4  10  17  25  38  57  80 111 149 193 240 286
#     4   8  14  20  28  42  64  98 139 180 227 278
#
# _framework density 18.920155000000001
#
# number of rings (size 3 to 8) (size 9 to 14) (size 15 to 20)
#    0.000    2.400    0.000    6.300    0.000    3.200 
#    0.000    0.000    0.000    0.000    0.000    0.000 
#    0.000    0.000    0.000    0.900    0.000   11.600 
#
# Total GULP energy -495530.478517 kJ/mol
# GULP energy per Si atom -12388.261963 kJ/mol
# Density = 1.887709 g / cm^3
# Si number density = 18.920155 Si / 1000 Ang^3
#
#
#
# Elastic Constant Matrix: (Units=GPa)
#
#
# Indices 1 2 3 4 5 6 
#
# 1 84.6108 64.3283 22.4697 0.0000 0.0000 0.0000
# 2 64.3283 248.0183 62.6554 0.0000 0.0000 0.0000
# 3 22.4697 62.6554 69.4103 0.0000 0.0000 0.0000
# 4 0.0000 0.0000 0.0000 2.6407 0.0000 0.0000
# 5 0.0000 0.0000 0.0000 0.0000 18.8426 0.0000
# 6 0.0000 0.0000 0.0000 0.0000 0.0000 25.9993
#
#
#
# Elastic Compliance Matrix: (Units=1/GPa)
#
#
# Indices 1 2 3 4 5 6 
#
# 1 0.014880 -0.003423 -0.001727 0.000000 0.000000 0.000000
# 2 -0.003423 0.006010 -0.004317 0.000000 0.000000 0.000000
# 3 -0.001727 -0.004317 0.018863 0.000000 0.000000 0.000000
# 4 0.000000 0.000000 0.000000 0.378685 0.000000 0.000000
# 5 0.000000 0.000000 0.000000 0.000000 0.053071 0.000000
# 6 0.000000 0.000000 0.000000 0.000000 0.000000 0.038463
#
#
# Mechanical properties :
#
#
# Convention : Reuss Voigt Hill
#
# Bulk Modulus (GPa) = 48.03354 77.88292 62.95823
# Shear Modulus (GPa) = 9.33102 26.33558 17.83330
#
# Velocity S-wave (km/s) = 2.22317 3.73491 3.07344
# Velocity P-wave (km/s) = 5.65974 7.73646 6.77810
#
# Compressibility (1/GPa) = 0.02081879
#
# Stress axis : x y z
#
# Youngs Moduli (GPa) = 67.20430 166.37564 53.01272
#
# Poissons Ratio (x) = 0.56952 0.09155
# Poissons Ratio (y) = 0.23005 0.22888
# Poissons Ratio (z) = 0.11606 0.71831
#
# Static dielectric constant tensor:
#      x y z
#    x 2.904020 0.000000 0.000000 
#    y 0.000000 5.184240 0.000000 
#    z 0.000000 0.000000 2.793050 
# 
# 
# High freq. dielectric constant tensor:
#      x y z
#    x 1.741820 0.000000 0.000000 
#    y 0.000000 1.781020 0.000000 
#    z 0.000000 0.000000 1.654040 
# 
# From -- ./inp_files/5549.got.cif
#   From: 2010.03.12/outbox.cif.g09.slc.cpg/sg51_3_cif.got.tgz:5549.got - 2010.04.16 13:43:02.
