data_PCOD8206848
_publ_section_title
;
Structure prediction by ZEFSAII (Michael W. Deem and Ramdas Pophale) SiO2 
 PCOD8206848
Probable space group: P M M A
;
_chemical_formula_sum "Si O2"
_cell_formula_units_Z 40
_cell_length_a 9.371478
_cell_length_b 10.176831
_cell_length_c 24.154692
_cell_angle_alpha 90.000000
_cell_angle_beta 90.000000
_cell_angle_gamma 90.000000
_cell_volume 2303.680025
_symmetry_space_group_name_H-M "P M M A"
_symmetry_group_IT_number 51
_symmetry_cell_setting 'orthorhombic'
loop_
_space_group_symop_operation_xyz
x,y,z
1/2-x,-y,z
1/2+x,-y,-z
-x,y,-z
-x,-y,-z
1/2+x,y,-z
1/2-x,y,z
x,-y,z
loop_
_atom_site_type_symbol
_atom_site_label
_atom_site_fract_x
_atom_site_fract_y
_atom_site_fract_z
Si Si1 0.081110 0.747376 0.374730
Si Si2 0.420243 0.000000 0.441618
Si Si3 0.582918 0.349617 0.149890
Si Si4 0.919798 0.500000 0.556974
Si Si5 0.583773 0.850109 0.055327
Si Si6 0.414210 0.346836 0.258696
O O1 0.250000 0.742447 0.372779
O O2 0.026939 0.877489 0.405194
O O3 0.024263 0.625554 0.409792
O O4 0.027301 0.736732 0.311194
O O5 0.500000 0.000000 0.500000
O O6 0.250000 0.000000 0.451872
O O7 0.750000 0.334772 0.160373
O O8 0.543015 0.500000 0.133807
O O9 0.530553 0.251165 0.102035
O O10 0.505326 0.305216 0.205752
O O11 0.750000 0.500000 0.547792
O O12 0.000000 0.500000 0.500000
O O13 0.750000 0.830253 0.042918
O O14 0.551574 0.000000 0.074257
O O15 0.500000 0.814177 0.000000
O O16 0.250000 0.314002 0.245690
O O17 0.432806 0.500000 0.273197
#
# Coordination Sequence:
#
# PCOD8206848 Si02
#       6
#     8   4   8   4   8   8
#     4   9  17  31  50  68  91 123 155 190 234 279
#     4  10  20  34  50  68  94 124 153 190 237 284
#     4   9  18  32  49  71  99 128 156 192 238 280
#     4  10  18  30  48  70  92 118 153 192 231 276
#     4   9  18  33  51  70  97 131 162 193 233 277
#     4   9  16  30  51  71  92 122 159 195 232 277
#
# _framework density 17.363523000000001
#
# number of rings (size 3 to 8) (size 9 to 14) (size 15 to 20)
#    0.000    2.800    1.000    0.600    0.000    1.200 
#    1.800    2.000    0.000    0.000    0.000    0.000 
#    0.000    0.000    0.000    0.000    0.000    0.000 
#
# Total GULP energy -495923.528667 kJ/mol
# GULP energy per Si atom -12398.088217 kJ/mol
# Density = 1.732400 g / cm^3
# Si number density = 17.363523 Si / 1000 Ang^3
#
#
#
# Elastic Constant Matrix: (Units=GPa)
#
#
# Indices 1 2 3 4 5 6 
#
# 1 34.7018 32.9743 52.0859 0.0000 0.0000 0.0000
# 2 32.9743 131.0476 100.3329 0.0000 0.0000 0.0000
# 3 52.0859 100.3329 184.3660 0.0000 0.0000 0.0000
# 4 0.0000 0.0000 0.0000 24.8776 0.0000 0.0000
# 5 0.0000 0.0000 0.0000 0.0000 35.1336 0.0000
# 6 0.0000 0.0000 0.0000 0.0000 0.0000 11.9490
#
#
#
# Elastic Compliance Matrix: (Units=1/GPa)
#
#
# Indices 1 2 3 4 5 6 
#
# 1 0.050745 -0.003073 -0.012664 0.000000 0.000000 0.000000
# 2 -0.003073 0.013267 -0.006352 0.000000 0.000000 0.000000
# 3 -0.012664 -0.006352 0.012459 0.000000 0.000000 0.000000
# 4 0.000000 0.000000 0.000000 0.040197 0.000000 0.000000
# 5 0.000000 0.000000 0.000000 0.000000 0.028463 0.000000
# 6 0.000000 0.000000 0.000000 0.000000 0.000000 0.083689
#
#
# Mechanical properties :
#
#
# Convention : Reuss Voigt Hill
#
# Bulk Modulus (GPa) = 30.96623 80.10018 55.53320
# Shear Modulus (GPa) = 17.62047 25.37352 21.49700
#
# Velocity S-wave (km/s) = 3.18905 3.82686 3.52242
# Velocity P-wave (km/s) = 5.60650 8.10912 6.97104
#
# Compressibility (1/GPa) = 0.03229325
#
# Stress axis : x y z
#
# Youngs Moduli (GPa) = 19.70649 75.37391 80.26636
#
# Poissons Ratio (x) = 0.23160 1.01649
# Poissons Ratio (y) = 0.06055 0.50985
# Poissons Ratio (z) = 0.24956 0.47878
#
# Static dielectric constant tensor:
#      x y z
#    x 2.970530 0.000000 0.000000 
#    y 0.000000 3.262200 0.000000 
#    z 0.000000 0.000000 3.327740 
# 
# 
# High freq. dielectric constant tensor:
#      x y z
#    x 1.644360 0.000000 0.000000 
#    y 0.000000 1.670030 0.000000 
#    z 0.000000 0.000000 1.678880 
# 
# From -- ./inp_files/32858.got.cif
#   From: 2010.03.12/outbox.cif.g09.slc.cpg/sg51_17_cif.got.tgz:32858.got - 2010.04.16 13:43:02.
