data_PCOD8206760
_publ_section_title
;
Structure prediction by ZEFSAII (Michael W. Deem and Ramdas Pophale) SiO2 
 PCOD8206760
Probable space group: P M M A
;
_chemical_formula_sum "Si O2"
_cell_formula_units_Z 40
_cell_length_a 9.618155
_cell_length_b 10.074779
_cell_length_c 24.494694
_cell_angle_alpha 90.000000
_cell_angle_beta 90.000000
_cell_angle_gamma 90.000000
_cell_volume 2373.555102
_symmetry_space_group_name_H-M "P M M A"
_symmetry_group_IT_number 51
_symmetry_cell_setting 'orthorhombic'
loop_
_space_group_symop_operation_xyz
x,y,z
1/2-x,-y,z
1/2+x,-y,-z
-x,y,-z
-x,-y,-z
1/2+x,y,-z
1/2-x,y,z
x,-y,z
loop_
_atom_site_type_symbol
_atom_site_label
_atom_site_fract_x
_atom_site_fract_y
_atom_site_fract_z
Si Si1 0.916159 0.651934 0.739951
Si Si2 0.087614 0.500000 0.446437
Si Si3 0.917256 0.000000 0.557014
Si Si4 0.413466 0.252184 0.375533
Si Si5 0.084222 0.148662 0.168095
Si Si6 0.403823 0.157183 0.047321
O O1 0.750000 0.649524 0.739163
O O2 0.971262 0.500000 0.744761
O O3 0.974640 0.722749 0.685056
O O4 0.973473 0.741353 0.789841
O O5 0.250000 0.500000 0.460761
O O6 0.041561 0.625883 0.412271
O O7 0.000000 0.500000 0.500000
O O8 0.969360 0.877483 0.593812
O O9 0.000000 0.000000 0.500000
O O10 0.750000 0.000000 0.546038
O O11 0.250000 0.240365 0.369657
O O12 0.250000 0.145832 0.168747
O O13 0.033909 0.190108 0.107312
O O14 0.029809 0.000000 0.183326
O O15 0.250000 0.219227 0.040851
O O16 0.394465 0.000000 0.040571
O O17 0.500000 0.219914 0.000000
#
# Coordination Sequence:
#
# PCOD8206760 Si02
#       6
#     8   4   4   8   8   8
#     4   9  15  24  38  58  85 112 136 170 215 253
#     4  10  18  30  46  64  86 110 139 174 206 244
#     4  10  20  32  46  66  90 114 139 170 210 254
#     4   9  17  28  42  62  87 112 139 172 210 251
#     4   8  14  22  35  57  83 108 136 172 212 249
#     4   8  13  22  36  57  84 110 137 170 205 243
#
# _framework density 16.852357999999999
#
# number of rings (size 3 to 8) (size 9 to 14) (size 15 to 20)
#    0.000    3.200    1.000    1.800    1.400    0.000 
#    0.000    0.000    0.000    0.600    0.000    2.800 
#    0.000    0.000    0.000    0.000    0.000    0.000 
#
# Total GULP energy -495619.006762 kJ/mol
# GULP energy per Si atom -12390.475169 kJ/mol
# Density = 1.681400 g / cm^3
# Si number density = 16.852358 Si / 1000 Ang^3
#
#
#
# Elastic Constant Matrix: (Units=GPa)
#
#
# Indices 1 2 3 4 5 6 
#
# 1 20.6239 17.0736 33.6358 0.0000 0.0000 0.0000
# 2 17.0736 128.1474 86.1280 0.0000 0.0000 0.0000
# 3 33.6358 86.1280 181.1726 0.0000 0.0000 0.0000
# 4 0.0000 0.0000 0.0000 38.7579 0.0000 0.0000
# 5 0.0000 0.0000 0.0000 0.0000 21.9189 0.0000
# 6 0.0000 0.0000 0.0000 0.0000 0.0000 272.4972
#
#
#
# Elastic Compliance Matrix: (Units=1/GPa)
#
#
# Indices 1 2 3 4 5 6 
#
# 1 0.069610 -0.000865 -0.012512 0.000000 0.000000 0.000000
# 2 -0.000865 0.011478 -0.005296 0.000000 0.000000 0.000000
# 3 -0.012512 -0.005296 0.010360 0.000000 0.000000 0.000000
# 4 0.000000 0.000000 0.000000 0.025801 0.000000 0.000000
# 5 0.000000 0.000000 0.000000 0.000000 0.045623 0.000000
# 6 0.000000 0.000000 0.000000 0.000000 0.000000 0.003670
#
#
# Mechanical properties :
#
#
# Convention : Reuss Voigt Hill
#
# Bulk Modulus (GPa) = 18.48365 67.06874 42.77619
# Shear Modulus (GPa) = 22.53038 79.50859 51.01948
#
# Velocity S-wave (km/s) = 3.66037 6.87619 5.50819
# Velocity P-wave (km/s) = 5.37180 10.14528 8.11736
#
# Compressibility (1/GPa) = 0.05410188
#
# Stress axis : x y z
#
# Youngs Moduli (GPa) = 14.36577 87.12123 96.52209
#
# Poissons Ratio (x) = 0.07534 1.20772
# Poissons Ratio (y) = 0.01242 0.51119
# Poissons Ratio (z) = 0.17975 0.46140
#
# Static dielectric constant tensor:
#      x y z
#    x 2.664500 0.000000 0.000000 
#    y 0.000000 3.157560 0.000000 
#    z 0.000000 0.000000 3.508000 
# 
# 
# High freq. dielectric constant tensor:
#      x y z
#    x 1.576600 0.000000 0.000000 
#    y 0.000000 1.639080 0.000000 
#    z 0.000000 0.000000 1.667860 
# 
# From -- ./inp_files/32863.got.cif
#   From: 2010.03.12/outbox.cif.g09.slc.cpg/sg51_17_cif.got.tgz:32863.got - 2010.04.16 13:43:02.
