data_PCOD8206192
_publ_section_title
;
Structure prediction by ZEFSAII (Michael W. Deem and Ramdas Pophale) SiO2 
 PCOD8206192
Probable space group: P M M A
;
_chemical_formula_sum "Si O2"
_cell_formula_units_Z 56
_cell_length_a 21.377668
_cell_length_b 9.201290
_cell_length_c 16.855431
_cell_angle_alpha 90.000000
_cell_angle_beta 90.000000
_cell_angle_gamma 90.000000
_cell_volume 3315.499058
_symmetry_space_group_name_H-M "P M M A"
_symmetry_group_IT_number 51
_symmetry_cell_setting 'orthorhombic'
loop_
_space_group_symop_operation_xyz
x,y,z
1/2-x,-y,z
1/2+x,-y,-z
-x,y,-z
-x,-y,-z
1/2+x,y,-z
1/2-x,y,z
x,-y,z
loop_
_atom_site_type_symbol
_atom_site_label
_atom_site_fract_x
_atom_site_fract_y
_atom_site_fract_z
Si Si1 0.119700 0.327686 0.196465
Si Si2 0.025688 0.828184 0.620746
Si Si3 0.820914 0.331920 0.638792
Si Si4 0.491681 0.829467 0.795835
Si Si5 0.938007 0.830383 0.041810
Si Si6 0.320543 0.170532 0.056432
Si Si7 0.095865 0.828352 0.471737
O O1 0.117713 0.500000 0.184107
O O2 0.138501 0.284746 0.285553
O O3 0.170551 0.258910 0.137599
O O4 0.052790 0.258029 0.178198
O O5 0.034692 0.772062 0.711021
O O6 0.082088 0.777287 0.562643
O O7 0.960391 0.772247 0.584694
O O8 0.024207 0.000000 0.619352
O O9 0.750000 0.291268 0.657897
O O10 0.829334 0.500000 0.619843
O O11 0.841498 0.245888 0.560030
O O12 0.439809 0.799136 0.863553
O O13 0.508935 0.000000 0.791603
O O14 0.939459 0.000000 0.024022
O O15 0.872378 0.770160 0.006753
O O16 0.000000 0.760922 0.000000
O O17 0.250000 0.200762 0.024461
O O18 0.329645 0.000000 0.073663
O O19 0.103951 0.000000 0.466928
#
# Coordination Sequence:
#
# PCOD8206192 Si02
#       7
#     8   8   8   8   8   8   8
#     4  11  21  32  47  70 101 130 158 195 241 286
#     4   8  15  27  47  72  95 119 148 191 237 276
#     4  10  21  34  45  63  96 132 159 189 234 284
#     4  10  17  30  52  72  98 131 159 190 237 289
#     4   9  16  28  49  74  96 121 158 201 239 277
#     4  10  20  34  51  70  93 125 165 201 235 288
#     4   9  16  29  48  70  93 119 156 193 228 273
#
# _framework density 16.890367999999999
#
# number of rings (size 3 to 8) (size 9 to 14) (size 15 to 20)
#    0.000    2.429    2.857    1.714    0.000    1.714 
#    0.000    3.571    0.000    0.857    0.000    4.000 
#    0.000    0.000    0.000    0.000    0.000    0.000 
#
# Total GULP energy -694071.525910 kJ/mol
# GULP energy per Si atom -12394.134391 kJ/mol
# Density = 1.685192 g / cm^3
# Si number density = 16.890368 Si / 1000 Ang^3
#
#
#
# Elastic Constant Matrix: (Units=GPa)
#
#
# Indices 1 2 3 4 5 6 
#
# 1 94.9817 29.7194 53.3454 0.0000 0.0000 0.0000
# 2 29.7194 34.2146 26.7850 0.0000 0.0000 0.0000
# 3 53.3454 26.7850 117.9213 0.0000 0.0000 0.0000
# 4 0.0000 0.0000 0.0000 12.7489 0.0000 0.0000
# 5 0.0000 0.0000 0.0000 0.0000 27.4183 0.0000
# 6 0.0000 0.0000 0.0000 0.0000 0.0000 14.9734
#
#
#
# Elastic Compliance Matrix: (Units=1/GPa)
#
#
# Indices 1 2 3 4 5 6 
#
# 1 0.016713 -0.010458 -0.005185 0.000000 0.000000 0.000000
# 2 -0.010458 0.042092 -0.004830 0.000000 0.000000 0.000000
# 3 -0.005185 -0.004830 0.011923 0.000000 0.000000 0.000000
# 4 0.000000 0.000000 0.000000 0.078438 0.000000 0.000000
# 5 0.000000 0.000000 0.000000 0.000000 0.036472 0.000000
# 6 0.000000 0.000000 0.000000 0.000000 0.000000 0.066785
#
#
# Mechanical properties :
#
#
# Convention : Reuss Voigt Hill
#
# Bulk Modulus (GPa) = 33.57721 51.86856 42.72289
# Shear Modulus (GPa) = 16.48553 20.17931 18.33242
#
# Velocity S-wave (km/s) = 3.12754 3.46023 3.29808
# Velocity P-wave (km/s) = 5.74149 6.83665 6.31286
#
# Compressibility (1/GPa) = 0.02978210
#
# Stress axis : x y z
#
# Youngs Moduli (GPa) = 59.83488 23.75735 83.87156
#
# Poissons Ratio (x) = 0.24845 0.43488
# Poissons Ratio (y) = 0.62574 0.40511
# Poissons Ratio (z) = 0.31025 0.11475
#
# Static dielectric constant tensor:
#      x y z
#    x 3.118200 0.000000 0.000000 
#    y 0.000000 2.842760 0.000000 
#    z 0.000000 0.000000 3.485580 
# 
# 
# High freq. dielectric constant tensor:
#      x y z
#    x 1.631720 0.000000 0.000000 
#    y 0.000000 1.620020 0.000000 
#    z 0.000000 0.000000 1.654700 
# 
# From -- ./inp_files/30448.got.cif
#   From: 2010.03.12/outbox.cif.g09.slc.cpg/sg51_16_cif.got.tgz:30448.got - 2010.04.16 13:43:02.
