data_PCOD8206875
_publ_section_title
;
Structure prediction by ZEFSAII (Michael W. Deem and Ramdas Pophale) SiO2 
 PCOD8206875
Probable space group: P M M A
;
_chemical_formula_sum "Si O2"
_cell_formula_units_Z 64
_cell_length_a 25.228717
_cell_length_b 9.090642
_cell_length_c 17.050409
_cell_angle_alpha 90.000000
_cell_angle_beta 90.000000
_cell_angle_gamma 90.000000
_cell_volume 3910.430048
_symmetry_space_group_name_H-M "P M M A"
_symmetry_group_IT_number 51
_symmetry_cell_setting 'orthorhombic'
loop_
_space_group_symop_operation_xyz
x,y,z
1/2-x,-y,z
1/2+x,-y,-z
-x,y,-z
-x,-y,-z
1/2+x,y,-z
1/2-x,y,z
x,-y,z
loop_
_atom_site_type_symbol
_atom_site_label
_atom_site_fract_x
_atom_site_fract_y
_atom_site_fract_z
Si Si1 0.562848 0.337461 0.491617
Si Si2 0.895053 0.328615 0.821988
Si Si3 0.311103 0.828167 0.079762
Si Si4 0.054705 0.671361 0.338717
Si Si5 0.096913 0.327292 0.808025
Si Si6 0.443264 0.825891 0.660874
Si Si7 0.810339 0.329744 0.077870
Si Si8 0.998993 0.325372 0.912210
O O1 0.500000 0.341635 0.500000
O O2 0.584415 0.500000 0.469662
O O3 0.583348 0.288726 0.578334
O O4 0.579767 0.224070 0.423938
O O5 0.885682 0.500000 0.838503
O O6 0.843636 0.239968 0.848548
O O7 0.903446 0.296578 0.729885
O O8 0.946121 0.269861 0.869230
O O9 0.250000 0.789211 0.094995
O O10 0.321529 0.000000 0.076179
O O11 0.330163 0.760260 0.997440
O O12 0.037036 0.500000 0.338024
O O13 0.002185 0.766114 0.324404
O O14 0.090533 0.500000 0.790255
O O15 0.095567 0.238231 0.727027
O O16 0.153022 0.290542 0.848275
O O17 0.050118 0.269466 0.864671
O O18 0.443635 0.000000 0.664290
O O19 0.750000 0.289024 0.100528
O O20 0.816304 0.500000 0.055237
O O21 0.000133 0.500000 0.915398
O O22 0.000000 0.259230 0.000000
#
# Coordination Sequence:
#
# PCOD8206875 Si02
#       8
#     8   8   8   8   8   8   8   8
#     4   8  15  28  46  64  88 123 160 191 229 278
#     4  10  18  30  49  70  93 121 160 199 231 276
#     4  10  21  35  49  67  95 128 158 193 241 286
#     4   9  17  31  48  67  92 125 159 193 235 281
#     4  10  18  31  49  67  95 127 155 193 239 282
#     4  11  20  28  42  67  99 128 158 191 226 276
#     4   9  18  33  54  75  90 115 162 209 241 272
#     4   9  16  26  43  66  90 120 153 183 227 281
#
# _framework density 16.366485999999998
#
# number of rings (size 3 to 8) (size 9 to 14) (size 15 to 20)
#    0.000    2.500    1.250    3.000    0.000    6.000 
#    0.000    0.000    0.000    1.500    0.000    0.875 
#    0.000    3.000    0.000    0.000    0.000    0.000 
#
# Total GULP energy -793525.297910 kJ/mol
# GULP energy per Si atom -12398.832780 kJ/mol
# Density = 1.632924 g / cm^3
# Si number density = 16.366486 Si / 1000 Ang^3
#
#
#
# Elastic Constant Matrix: (Units=GPa)
#
#
# Indices 1 2 3 4 5 6 
#
# 1 66.2584 36.5149 53.6782 0.0000 0.0000 0.0000
# 2 36.5149 75.2649 58.4176 0.0000 0.0000 0.0000
# 3 53.6782 58.4176 153.8060 0.0000 0.0000 0.0000
# 4 0.0000 0.0000 0.0000 12.0914 0.0000 0.0000
# 5 0.0000 0.0000 0.0000 0.0000 19.7031 0.0000
# 6 0.0000 0.0000 0.0000 0.0000 0.0000 16.2947
#
#
#
# Elastic Compliance Matrix: (Units=1/GPa)
#
#
# Indices 1 2 3 4 5 6 
#
# 1 0.023461 -0.007128 -0.005480 0.000000 0.000000 0.000000
# 2 -0.007128 0.021006 -0.005491 0.000000 0.000000 0.000000
# 3 -0.005480 -0.005491 0.010500 0.000000 0.000000 0.000000
# 4 0.000000 0.000000 0.000000 0.082704 0.000000 0.000000
# 5 0.000000 0.000000 0.000000 0.000000 0.050753 0.000000
# 6 0.000000 0.000000 0.000000 0.000000 0.000000 0.061370
#
#
# Mechanical properties :
#
#
# Convention : Reuss Voigt Hill
#
# Bulk Modulus (GPa) = 53.28208 65.83898 59.56053
# Shear Modulus (GPa) = 17.10873 19.39907 18.25390
#
# Velocity S-wave (km/s) = 3.23670 3.44654 3.34327
# Velocity P-wave (km/s) = 6.82602 7.49356 7.16757
#
# Compressibility (1/GPa) = 0.01876804
#
# Stress axis : x y z
#
# Youngs Moduli (GPa) = 42.62462 47.60442 95.24018
#
# Poissons Ratio (x) = 0.33934 0.52194
# Poissons Ratio (y) = 0.30384 0.52294
# Poissons Ratio (z) = 0.23360 0.26138
#
# Static dielectric constant tensor:
#      x y z
#    x 2.853840 0.000000 0.000000 
#    y 0.000000 2.907130 0.000000 
#    z 0.000000 0.000000 3.483040 
# 
# 
# High freq. dielectric constant tensor:
#      x y z
#    x 1.591690 0.000000 0.000000 
#    y 0.000000 1.612880 0.000000 
#    z 0.000000 0.000000 1.640760 
# 
# From -- ./inp_files/30872.got.cif
#   From: 2010.03.12/outbox.cif.g09.slc.cpg/sg51_16_cif.got.tgz:30872.got - 2010.04.16 13:43:02.
