data_PCOD8206282
_publ_section_title
;
Structure prediction by ZEFSAII (Michael W. Deem and Ramdas Pophale) SiO2 
 PCOD8206282
Probable space group: P M M A
;
_chemical_formula_sum "Si O2"
_cell_formula_units_Z 64
_cell_length_a 18.302778
_cell_length_b 9.299834
_cell_length_c 26.125559
_cell_angle_alpha 90.000000
_cell_angle_beta 90.000000
_cell_angle_gamma 90.000000
_cell_volume 4446.904474
_symmetry_space_group_name_H-M "P M M A"
_symmetry_group_IT_number 51
_symmetry_cell_setting 'orthorhombic'
loop_
_space_group_symop_operation_xyz
x,y,z
1/2-x,-y,z
1/2+x,-y,-z
-x,y,-z
-x,-y,-z
1/2+x,y,-z
1/2-x,y,z
x,-y,z
loop_
_atom_site_type_symbol
_atom_site_label
_atom_site_fract_x
_atom_site_fract_y
_atom_site_fract_z
Si Si1 0.833551 0.168552 0.699750
Si Si2 0.666357 0.666913 0.799358
Si Si3 0.955950 0.662843 0.447549
Si Si4 0.911266 0.330716 0.903532
Si Si5 0.579701 0.167707 0.599893
Si Si6 0.665755 0.167368 0.497643
Si Si7 0.832852 0.832123 0.993119
Si Si8 0.463699 0.841260 0.944564
O O1 0.750000 0.213288 0.688559
O O2 0.863130 0.246686 0.750413
O O3 0.882029 0.218759 0.651968
O O4 0.840378 0.000000 0.708835
O O5 0.750000 0.708693 0.811827
O O6 0.659093 0.500000 0.786527
O O7 0.617209 0.710346 0.847534
O O8 0.941401 0.500000 0.429455
O O9 0.878586 0.742691 0.455098
O O10 0.000000 0.667680 0.500000
O O11 0.004255 0.744605 0.405144
O O12 0.911601 0.500000 0.913122
O O13 0.857539 0.259525 0.944448
O O14 0.994089 0.271028 0.908403
O O15 0.635780 0.202096 0.554122
O O16 0.559842 0.000000 0.600676
O O17 0.750000 0.214656 0.495397
O O18 0.656014 0.000000 0.484756
O O19 0.750000 0.793306 0.006430
O O20 0.843333 0.000000 0.979128
O O21 0.879858 0.793979 0.044282
O O22 0.467337 0.000000 0.919257
O O23 0.500000 0.844846 0.000000
#
# Coordination Sequence:
#
# PCOD8206282 Si02
#       8
#     8   8   8   8   8   8   8   8
#     4   9  17  28  42  60  79 100 131 169 201 229
#     4   9  18  30  40  53  77 106 133 162 195 229
#     4   9  17  27  38  55  79 105 133 163 193 229
#     4  10  18  27  40  57  78 105 135 164 194 229
#     4   9  16  27  42  58  78 104 133 164 197 233
#     4   9  16  26  41  59  79 105 134 162 195 233
#     4   9  17  28  41  57  78 104 132 161 194 232
#     4   8  15  27  40  55  76 101 129 160 193 231
#
# _framework density 14.392033
#
# number of rings (size 3 to 8) (size 9 to 14) (size 15 to 20)
#    0.000    3.000    0.000    2.250    0.000    7.750 
#    0.000    1.250    0.000    2.250    0.000    0.000 
#    0.000    1.000    0.000    5.500    0.000    3.750 
#
# Total GULP energy -793429.479113 kJ/mol
# GULP energy per Si atom -12397.335611 kJ/mol
# Density = 1.435928 g / cm^3
# Si number density = 14.392033 Si / 1000 Ang^3
#
#
#
# Elastic Constant Matrix: (Units=GPa)
#
#
# Indices 1 2 3 4 5 6 
#
# 1 114.6951 52.3750 56.5729 0.0000 0.0000 0.0000
# 2 52.3750 66.4536 46.1095 0.0000 0.0000 0.0000
# 3 56.5729 46.1095 81.6731 0.0000 0.0000 0.0000
# 4 0.0000 0.0000 0.0000 21.2070 0.0000 0.0000
# 5 0.0000 0.0000 0.0000 0.0000 23.6289 0.0000
# 6 0.0000 0.0000 0.0000 0.0000 0.0000 19.6898
#
#
#
# Elastic Compliance Matrix: (Units=1/GPa)
#
#
# Indices 1 2 3 4 5 6 
#
# 1 0.015343 -0.007757 -0.006248 0.000000 0.000000 0.000000
# 2 -0.007757 0.028661 -0.010808 0.000000 0.000000 0.000000
# 3 -0.006248 -0.010808 0.022674 0.000000 0.000000 0.000000
# 4 0.000000 0.000000 0.000000 0.047154 0.000000 0.000000
# 5 0.000000 0.000000 0.000000 0.000000 0.042321 0.000000
# 6 0.000000 0.000000 0.000000 0.000000 0.000000 0.050788
#
#
# Mechanical properties :
#
#
# Convention : Reuss Voigt Hill
#
# Bulk Modulus (GPa) = 58.64679 63.65962 61.15320
# Shear Modulus (GPa) = 19.06577 20.08943 19.57760
#
# Velocity S-wave (km/s) = 3.64365 3.74019 3.69224
# Velocity P-wave (km/s) = 7.65111 7.93603 7.79487
#
# Compressibility (1/GPa) = 0.01705123
#
# Stress axis : x y z
#
# Youngs Moduli (GPa) = 65.17659 34.89105 44.10408
#
# Poissons Ratio (x) = 0.27065 0.27558
# Poissons Ratio (y) = 0.50557 0.47666
# Poissons Ratio (z) = 0.40725 0.37709
#
# Static dielectric constant tensor:
#      x y z
#    x 3.047650 0.000000 0.000000 
#    y 0.000000 2.846850 0.000000 
#    z 0.000000 0.000000 2.614480 
# 
# 
# High freq. dielectric constant tensor:
#      x y z
#    x 1.542420 0.000000 0.000000 
#    y 0.000000 1.554500 0.000000 
#    z 0.000000 0.000000 1.513700 
# 
# From -- ./inp_files/35931.got.cif
#   From: 2010.03.12/outbox.cif.g09.slc.cpg/sg51_18_cif.got.tgz:35931.got - 2010.04.16 13:43:02.
