data_PCOD8206605
_publ_section_title
;
Structure prediction by ZEFSAII (Michael W. Deem and Ramdas Pophale) SiO2 
 PCOD8206605
Probable space group: P M M A
;
_chemical_formula_sum "Si O2"
_cell_formula_units_Z 56
_cell_length_a 9.090966
_cell_length_b 18.767188
_cell_length_c 18.885812
_cell_angle_alpha 90.000000
_cell_angle_beta 90.000000
_cell_angle_gamma 90.000000
_cell_volume 3222.143664
_symmetry_space_group_name_H-M "P M M A"
_symmetry_group_IT_number 51
_symmetry_cell_setting 'orthorhombic'
loop_
_space_group_symop_operation_xyz
x,y,z
1/2-x,-y,z
1/2+x,-y,-z
-x,y,-z
-x,-y,-z
1/2+x,y,-z
1/2-x,y,z
x,-y,z
loop_
_atom_site_type_symbol
_atom_site_label
_atom_site_fract_x
_atom_site_fract_y
_atom_site_fract_z
Si Si1 0.920668 0.296571 0.928718
Si Si2 0.421649 0.682439 0.429067
Si Si3 0.423657 0.078438 0.288104
Si Si4 0.078899 0.848979 0.429979
Si Si5 0.420992 0.663238 0.709145
Si Si6 0.579604 0.784957 0.789914
Si Si7 0.079941 0.581505 0.848472
O O1 0.750000 0.307469 0.944348
O O2 0.949391 0.233983 0.871745
O O3 0.982976 0.371564 0.901261
O O4 0.000000 0.271908 0.000000
O O5 0.500000 0.654094 0.500000
O O6 0.250000 0.664837 0.433710
O O7 0.454041 0.765853 0.418720
O O8 0.492103 0.641785 0.361963
O O9 0.250000 0.072438 0.294825
O O10 0.485346 0.108907 0.362330
O O11 0.463657 0.132519 0.224012
O O12 0.491598 0.000000 0.272644
O O13 0.250000 0.863221 0.439979
O O14 0.000000 0.878390 0.500000
O O15 0.250000 0.671795 0.691013
O O16 0.479551 0.737655 0.739323
O O17 0.450004 0.601719 0.766849
O O18 0.750000 0.770554 0.769270
O O19 0.250000 0.594733 0.867425
O O20 0.033774 0.500000 0.859733
#
# Coordination Sequence:
#
# PCOD8206605 Si02
#       7
#     8   8   8   8   8   8   8
#     4  10  20  33  53  77 102 129 160 194 234 282
#     4  10  18  29  45  67  95 125 162 209 251 288
#     4   9  16  28  47  68  91 123 163 204 244 284
#     4   9  17  28  42  62  90 123 157 196 240 283
#     4  10  18  29  49  73  95 125 161 198 242 286
#     4   9  17  32  50  70  94 124 161 201 238 281
#     4   9  19  35  53  75 104 133 160 191 230 281
#
# _framework density 17.379735
#
# number of rings (size 3 to 8) (size 9 to 14) (size 15 to 20)
#    0.000    2.571    1.429    1.286    0.000    2.571 
#    0.000    0.000    0.000    2.143    0.000    0.000 
#    0.000    0.000    0.000    0.000    0.000    0.429 
#
# Total GULP energy -694347.518946 kJ/mol
# GULP energy per Si atom -12399.062838 kJ/mol
# Density = 1.734018 g / cm^3
# Si number density = 17.379735 Si / 1000 Ang^3
#
#
#
# Elastic Constant Matrix: (Units=GPa)
#
#
# Indices 1 2 3 4 5 6 
#
# 1 70.3320 20.1912 52.5426 0.0000 0.0000 0.0000
# 2 20.1912 72.3635 42.2874 0.0000 0.0000 0.0000
# 3 52.5426 42.2874 128.1610 0.0000 0.0000 0.0000
# 4 0.0000 0.0000 0.0000 18.1395 0.0000 0.0000
# 5 0.0000 0.0000 0.0000 0.0000 33.4998 0.0000
# 6 0.0000 0.0000 0.0000 0.0000 0.0000 14.2100
#
#
#
# Elastic Compliance Matrix: (Units=1/GPa)
#
#
# Indices 1 2 3 4 5 6 
#
# 1 0.020554 -0.001004 -0.008095 0.000000 0.000000 0.000000
# 2 -0.001004 0.017169 -0.005253 0.000000 0.000000 0.000000
# 3 -0.008095 -0.005253 0.012855 0.000000 0.000000 0.000000
# 4 0.000000 0.000000 0.000000 0.055128 0.000000 0.000000
# 5 0.000000 0.000000 0.000000 0.000000 0.029851 0.000000
# 6 0.000000 0.000000 0.000000 0.000000 0.000000 0.070373
#
#
# Mechanical properties :
#
#
# Convention : Reuss Voigt Hill
#
# Bulk Modulus (GPa) = 45.71975 55.65544 50.68759
# Shear Modulus (GPa) = 20.66735 23.55890 22.11312
#
# Velocity S-wave (km/s) = 3.45217 3.68576 3.57087
# Velocity P-wave (km/s) = 6.50026 7.08560 6.79923
#
# Compressibility (1/GPa) = 0.02187239
#
# Stress axis : x y z
#
# Youngs Moduli (GPa) = 48.65147 58.24355 77.79138
#
# Poissons Ratio (x) = 0.05851 0.62974
# Poissons Ratio (y) = 0.04887 0.40866
# Poissons Ratio (z) = 0.39385 0.30597
#
# Static dielectric constant tensor:
#      x y z
#    x 3.166210 0.000000 0.000000 
#    y 0.000000 3.170130 0.000000 
#    z 0.000000 0.000000 3.333350 
# 
# 
# High freq. dielectric constant tensor:
#      x y z
#    x 1.663630 0.000000 0.000000 
#    y 0.000000 1.642810 0.000000 
#    z 0.000000 0.000000 1.673540 
# 
# From -- ./inp_files/28162.got.cif
#   From: 2010.03.12/outbox.cif.g09.slc.cpg/sg51_15_cif.got.tgz:28162.got - 2010.04.16 13:43:02.
