data_PCOD8206757
_publ_section_title
;
Structure prediction by ZEFSAII (Michael W. Deem and Ramdas Pophale) SiO2 
 PCOD8206757
Probable space group: P M M A
;
_chemical_formula_sum "Si O2"
_cell_formula_units_Z 64
_cell_length_a 28.798017
_cell_length_b 9.028459
_cell_length_c 15.694636
_cell_angle_alpha 90.000000
_cell_angle_beta 90.000000
_cell_angle_gamma 90.000000
_cell_volume 4080.632288
_symmetry_space_group_name_H-M "P M M A"
_symmetry_group_IT_number 51
_symmetry_cell_setting 'orthorhombic'
loop_
_space_group_symop_operation_xyz
x,y,z
1/2-x,-y,z
1/2+x,-y,-z
-x,y,-z
-x,-y,-z
1/2+x,y,-z
1/2-x,y,z
x,-y,z
loop_
_atom_site_type_symbol
_atom_site_label
_atom_site_fract_x
_atom_site_fract_y
_atom_site_fract_z
Si Si1 0.697474 0.676798 0.819043
Si Si2 0.360609 0.324189 0.655510
Si Si3 0.449488 0.824873 0.601471
Si Si4 0.853389 0.826222 0.666826
Si Si5 0.805032 0.661901 0.002766
Si Si6 0.948132 0.174722 0.591162
Si Si7 0.303832 0.172428 0.507323
Si Si8 0.302066 0.322848 0.814878
O O1 0.750000 0.728329 0.798087
O O2 0.694705 0.500000 0.819708
O O3 0.662973 0.741076 0.749824
O O4 0.681810 0.740747 0.912804
O O5 0.361696 0.500000 0.652095
O O6 0.412750 0.261043 0.659801
O O7 0.333212 0.266716 0.573569
O O8 0.335581 0.264716 0.740733
O O9 0.501868 0.780869 0.630934
O O10 0.442675 0.766219 0.505045
O O11 0.441017 0.000000 0.609396
O O12 0.905644 0.767201 0.648421
O O13 0.820275 0.786870 0.587621
O O14 0.852504 0.000000 0.685925
O O15 0.750000 0.642950 0.004422
O O16 0.828576 0.500000 0.001969
O O17 0.819273 0.741809 0.092325
O O18 0.945254 0.000000 0.583423
O O19 0.250000 0.214725 0.515966
O O20 0.312956 0.000000 0.525926
O O21 0.250000 0.266546 0.794017
O O22 0.302285 0.500000 0.819800
#
# Coordination Sequence:
#
# PCOD8206757 Si02
#       8
#     8   8   8   8   8   8   8   8
#     4   9  17  28  43  65  90 114 142 176 214 253
#     4  11  20  28  42  67  93 115 140 178 223 259
#     4   9  16  31  50  63  79 109 148 185 216 256
#     4  10  18  30  46  64  84 111 147 180 212 253
#     4   7  11  23  42  60  80 110 146 178 206 245
#     4   8  15  29  50  65  76 106 151 187 213 250
#     4  10  20  32  44  58  83 122 158 178 199 245
#     4   8  14  25  41  61  86 116 147 175 206 250
#
# _framework density 15.683844000000001
#
# number of rings (size 3 to 8) (size 9 to 14) (size 15 to 20)
#    0.000    3.000    1.250    3.375    0.000    2.000 
#    0.000    1.875    0.000    1.500    0.000    4.375 
#    0.000    7.000    0.000    0.000    0.000    0.000 
#
# Total GULP energy -792933.853518 kJ/mol
# GULP energy per Si atom -12389.591461 kJ/mol
# Density = 1.564815 g / cm^3
# Si number density = 15.683844 Si / 1000 Ang^3
#
#
#
# Elastic Constant Matrix: (Units=GPa)
#
#
# Indices 1 2 3 4 5 6 
#
# 1 106.8087 23.1095 52.3233 0.0000 0.0000 0.0000
# 2 23.1095 26.4375 24.7565 0.0000 0.0000 0.0000
# 3 52.3233 24.7565 108.9902 0.0000 0.0000 0.0000
# 4 0.0000 0.0000 0.0000 -0.2851 0.0000 0.0000
# 5 0.0000 0.0000 0.0000 0.0000 12.5107 0.0000
# 6 0.0000 0.0000 0.0000 0.0000 0.0000 19.5565
#
#
#
# Elastic Compliance Matrix: (Units=1/GPa)
#
#
# Indices 1 2 3 4 5 6 
#
# 1 0.013221 -0.007130 -0.004728 0.000000 0.000000 0.000000
# 2 -0.007130 0.051889 -0.008363 0.000000 0.000000 0.000000
# 3 -0.004728 -0.008363 0.013344 0.000000 0.000000 0.000000
# 4 0.000000 0.000000 0.000000 -3.507921 0.000000 0.000000
# 5 0.000000 0.000000 0.000000 0.000000 0.079932 0.000000
# 6 0.000000 0.000000 0.000000 0.000000 0.000000 0.051134
#
#
# Mechanical properties :
#
#
# Convention : Reuss Voigt Hill
#
# Bulk Modulus (GPa) = 26.30694 49.17946 37.74320
# Shear Modulus (GPa) = -1.54070 15.82624 7.14277
#
# Velocity S-wave (km/s) = -0.99221 3.18005 2.13638
# Velocity P-wave (km/s) = 3.93663 6.70137 5.49570
#
# Compressibility (1/GPa) = 0.03801278
#
# Stress axis : x y z
#
# Youngs Moduli (GPa) = 75.63657 19.27194 74.93748
#
# Poissons Ratio (x) = 0.13740 0.35428
# Poissons Ratio (y) = 0.53927 0.62674
# Poissons Ratio (z) = 0.35758 0.16118
#
# Static dielectric constant tensor:
#      x y z
#    x 3.156060 0.000000 0.000000 
#    y 0.000000 2.636770 0.000000 
#    z 0.000000 0.000000 3.241730 
# 
# 
# High freq. dielectric constant tensor:
#      x y z
#    x 1.589370 0.000000 0.000000 
#    y 0.000000 1.566390 0.000000 
#    z 0.000000 0.000000 1.597480 
# 
# From -- ./inp_files/26623.got.cif
#   From: 2010.03.12/outbox.cif.g09.slc.cpg/sg51_14_cif.got.tgz:26623.got - 2010.04.16 13:43:02.
