data_PCOD8206538
_publ_section_title
;
Structure prediction by ZEFSAII (Michael W. Deem and Ramdas Pophale) SiO2 
 PCOD8206538
Probable space group: P M M A
;
_chemical_formula_sum "Si O2"
_cell_formula_units_Z 56
_cell_length_a 14.312603
_cell_length_b 9.423702
_cell_length_c 24.009492
_cell_angle_alpha 90.000000
_cell_angle_beta 90.000000
_cell_angle_gamma 90.000000
_cell_volume 3238.345192
_symmetry_space_group_name_H-M "P M M A"
_symmetry_group_IT_number 51
_symmetry_cell_setting 'orthorhombic'
loop_
_space_group_symop_operation_xyz
x,y,z
1/2-x,-y,z
1/2+x,-y,-z
-x,y,-z
-x,-y,-z
1/2+x,y,-z
1/2-x,y,z
x,-y,z
loop_
_atom_site_type_symbol
_atom_site_label
_atom_site_fract_x
_atom_site_fract_y
_atom_site_fract_z
Si Si1 0.047199 0.332746 0.058070
Si Si2 0.856173 0.831322 0.260757
Si Si3 0.544661 0.163923 0.372705
Si Si4 0.564344 0.839536 0.146100
Si Si5 0.250000 0.152719 0.922713
Si Si6 0.354384 0.161509 0.421752
Si Si7 0.358306 0.663508 0.530952
Si Si8 0.750000 0.334829 0.972195
O O1 0.031735 0.500000 0.063978
O O2 0.156188 0.287801 0.059443
O O3 0.006740 0.258537 0.112519
O O4 0.000000 0.279392 0.000000
O O5 0.750000 0.769535 0.261433
O O6 0.912506 0.779085 0.315023
O O7 0.916648 0.777314 0.207903
O O8 0.850496 0.000000 0.257698
O O9 0.431444 0.181366 0.372894
O O10 0.584621 0.257180 0.422040
O O11 0.573408 0.000000 0.381952
O O12 0.662507 0.834851 0.116482
O O13 0.524212 0.000000 0.148135
O O14 0.250000 0.000000 0.953937
O O15 0.250000 0.277746 0.965886
O O16 0.250000 0.196004 0.398459
O O17 0.381081 0.265542 0.471908
O O18 0.357907 0.000000 0.444385
O O19 0.250000 0.678793 0.545773
O O20 0.389548 0.500000 0.527984
O O21 0.750000 0.500000 0.981438
#
# Coordination Sequence:
#
# PCOD8206538 Si02
#       8
#     8   8   8   8   4   8   8   4
#     4  10  20  33  51  74 100 130 164 200 243 290
#     4   9  17  31  51  74  99 128 161 197 241 291
#     4  10  19  31  51  74  96 128 166 201 240 286
#     4  10  19  32  51  74 101 131 164 200 240 289
#     4  10  18  28  48  76 102 130 162 199 240 285
#     4   9  18  32  49  70  96 127 165 204 239 282
#     4  10  20  32  47  71 103 132 157 194 247 298
#     4  10  20  34  50  72 102 132 160 197 244 293
#
# _framework density 17.292783
#
# number of rings (size 3 to 8) (size 9 to 14) (size 15 to 20)
#    0.000    2.286    2.143    1.286    0.000    4.571 
#    0.000    0.714    1.571    0.857    0.000    0.000 
#    0.000    0.000    0.000    0.000    0.000    0.000 
#
# Total GULP energy -694182.573143 kJ/mol
# GULP energy per Si atom -12396.117378 kJ/mol
# Density = 1.725342 g / cm^3
# Si number density = 17.292783 Si / 1000 Ang^3
#
#
#
# Elastic Constant Matrix: (Units=GPa)
#
#
# Indices 1 2 3 4 5 6 
#
# 1 121.0690 41.0613 75.1171 0.0000 0.0000 0.0000
# 2 41.0613 41.4493 30.0148 0.0000 0.0000 0.0000
# 3 75.1171 30.0148 97.8787 0.0000 0.0000 0.0000
# 4 0.0000 0.0000 0.0000 -0.3145 0.0000 0.0000
# 5 0.0000 0.0000 0.0000 0.0000 72.2315 0.0000
# 6 0.0000 0.0000 0.0000 0.0000 0.0000 25.1804
#
#
#
# Elastic Compliance Matrix: (Units=1/GPa)
#
#
# Indices 1 2 3 4 5 6 
#
# 1 0.018747 -0.010480 -0.011173 0.000000 0.000000 0.000000
# 2 -0.010480 0.036871 -0.003264 0.000000 0.000000 0.000000
# 3 -0.011173 -0.003264 0.019793 0.000000 0.000000 0.000000
# 4 0.000000 0.000000 0.000000 -3.179524 0.000000 0.000000
# 5 0.000000 0.000000 0.000000 0.000000 0.013844 0.000000
# 6 0.000000 0.000000 0.000000 0.000000 0.000000 0.039713
#
#
# Mechanical properties :
#
#
# Convention : Reuss Voigt Hill
#
# Bulk Modulus (GPa) = 39.09908 61.42037 50.25972
# Shear Modulus (GPa) = -1.67101 27.03308 12.68103
#
# Velocity S-wave (km/s) = -0.98408 3.95809 2.71091
# Velocity P-wave (km/s) = 4.62255 7.51556 6.23906
#
# Compressibility (1/GPa) = 0.02557605
#
# Stress axis : x y z
#
# Youngs Moduli (GPa) = 53.34276 27.12144 50.52403
#
# Poissons Ratio (x) = 0.28424 0.56452
# Poissons Ratio (y) = 0.55904 0.16489
# Poissons Ratio (z) = 0.59602 0.08851
#
# Static dielectric constant tensor:
#      x y z
#    x 3.528090 0.000000 0.000000 
#    y 0.000000 3.162110 0.000000 
#    z 0.000000 0.000000 3.187860 
# 
# 
# High freq. dielectric constant tensor:
#      x y z
#    x 1.677860 0.000000 0.000000 
#    y 0.000000 1.651550 0.000000 
#    z 0.000000 0.000000 1.647720 
# 
# From -- ./inp_files/33593.got.cif
#   From: 2010.03.12/outbox.cif.g09.slc.cpg/sg51_17_cif.got.tgz:33593.got - 2010.04.16 13:43:02.
