data_PCOD8206112
_publ_section_title
;
Structure prediction by ZEFSAII (Michael W. Deem and Ramdas Pophale) SiO2 
 PCOD8206112
Probable space group: P M M A
;
_chemical_formula_sum "Si O2"
_cell_formula_units_Z 64
_cell_length_a 21.932571
_cell_length_b 9.114280
_cell_length_c 19.138975
_cell_angle_alpha 90.000000
_cell_angle_beta 90.000000
_cell_angle_gamma 90.000000
_cell_volume 3825.873317
_symmetry_space_group_name_H-M "P M M A"
_symmetry_group_IT_number 51
_symmetry_cell_setting 'orthorhombic'
loop_
_space_group_symop_operation_xyz
x,y,z
1/2-x,-y,z
1/2+x,-y,-z
-x,y,-z
-x,-y,-z
1/2+x,y,-z
1/2-x,y,z
x,-y,z
loop_
_atom_site_type_symbol
_atom_site_label
_atom_site_fract_x
_atom_site_fract_y
_atom_site_fract_z
Si Si1 0.319328 0.671274 0.966093
Si Si2 0.989487 0.327050 0.674184
Si Si3 0.876514 0.172457 0.160049
Si Si4 0.486414 0.825779 0.179177
Si Si5 0.184923 0.169220 0.703892
Si Si6 0.441630 0.672566 0.047978
Si Si7 0.593757 0.167198 0.408647
Si Si8 0.933406 0.660423 0.533851
O O1 0.250000 0.711249 0.993420
O O2 0.323453 0.500000 0.951484
O O3 0.330825 0.752223 0.893612
O O4 0.375328 0.717169 0.016768
O O5 0.998042 0.500000 0.688067
O O6 0.971950 0.245570 0.745629
O O7 0.936284 0.298900 0.616159
O O8 0.050414 0.263536 0.640220
O O9 0.859344 0.233471 0.236775
O O10 0.946709 0.217975 0.150983
O O11 0.868940 0.000000 0.150789
O O12 0.441516 0.759697 0.121127
O O13 0.478136 0.000000 0.186421
O O14 0.250000 0.250594 0.706326
O O15 0.159524 0.184750 0.625995
O O16 0.193233 0.000000 0.722867
O O17 0.445452 0.500000 0.062944
O O18 0.500000 0.720056 0.000000
O O19 0.603295 0.220748 0.488425
O O20 0.569838 0.000000 0.408533
O O21 0.903151 0.500000 0.525256
O O22 0.000000 0.658164 0.500000
#
# Coordination Sequence:
#
# PCOD8206112 Si02
#       8
#     8   8   8   8   8   8   8   8
#     4  10  21  36  53  74  99 128 168 211 244 288
#     4  10  19  31  47  66  94 127 157 192 241 297
#     4  10  19  32  49  69  97 132 168 204 242 290
#     4  11  21  32  50  76 101 127 165 207 248 294
#     4   9  17  29  43  62  93 131 167 199 235 283
#     4  10  20  35  53  73  99 134 167 198 249 304
#     4  10  17  27  44  67  92 123 162 202 239 276
#     4   8  16  29  43  63  89 121 154 185 230 285
#
# _framework density 16.728206
#
# number of rings (size 3 to 8) (size 9 to 14) (size 15 to 20)
#    0.000    2.250    2.500    2.250    0.000    4.750 
#    0.000    0.000    0.000    2.250    0.000    0.875 
#    0.000    1.000    0.000    0.000    0.000    0.000 
#
# Total GULP energy -792957.055161 kJ/mol
# GULP energy per Si atom -12389.953987 kJ/mol
# Density = 1.669013 g / cm^3
# Si number density = 16.728206 Si / 1000 Ang^3
#
#
#
# Elastic Constant Matrix: (Units=GPa)
#
#
# Indices 1 2 3 4 5 6 
#
# 1 85.7792 28.7066 48.7518 0.0000 0.0000 0.0000
# 2 28.7066 62.4805 50.9776 0.0000 0.0000 0.0000
# 3 48.7518 50.9776 121.5432 0.0000 0.0000 0.0000
# 4 0.0000 0.0000 0.0000 32.1966 0.0000 0.0000
# 5 0.0000 0.0000 0.0000 0.0000 13.9165 0.0000
# 6 0.0000 0.0000 0.0000 0.0000 0.0000 13.7041
#
#
#
# Elastic Compliance Matrix: (Units=1/GPa)
#
#
# Indices 1 2 3 4 5 6 
#
# 1 0.015488 -0.003112 -0.004907 0.000000 0.000000 0.000000
# 2 -0.003112 0.024957 -0.009219 0.000000 0.000000 0.000000
# 3 -0.004907 -0.009219 0.014062 0.000000 0.000000 0.000000
# 4 0.000000 0.000000 0.000000 0.031059 0.000000 0.000000
# 5 0.000000 0.000000 0.000000 0.000000 0.071857 0.000000
# 6 0.000000 0.000000 0.000000 0.000000 0.000000 0.072971
#
#
# Mechanical properties :
#
#
# Convention : Reuss Voigt Hill
#
# Bulk Modulus (GPa) = 49.92369 58.51941 54.22155
# Shear Modulus (GPa) = 18.41294 21.38789 19.90042
#
# Velocity S-wave (km/s) = 3.32130 3.57956 3.45285
# Velocity P-wave (km/s) = 6.67958 7.22100 6.95556
#
# Compressibility (1/GPa) = 0.02003057
#
# Stress axis : x y z
#
# Youngs Moduli (GPa) = 64.56481 40.06947 71.11184
#
# Poissons Ratio (x) = 0.12471 0.34895
# Poissons Ratio (y) = 0.20095 0.65557
# Poissons Ratio (z) = 0.31682 0.36940
#
# Static dielectric constant tensor:
#      x y z
#    x 3.102830 0.000000 0.000000 
#    y 0.000000 3.117900 0.000000 
#    z 0.000000 0.000000 3.307590 
# 
# 
# High freq. dielectric constant tensor:
#      x y z
#    x 1.609020 0.000000 0.000000 
#    y 0.000000 1.641530 0.000000 
#    z 0.000000 0.000000 1.646420 
# 
# From -- ./inp_files/34185.got.cif
#   From: 2010.03.12/outbox.cif.g09.slc.cpg/sg51_18_cif.got.tgz:34185.got - 2010.04.16 13:43:02.
