data_PCOD8206549
_publ_section_title
;
Structure prediction by ZEFSAII (Michael W. Deem and Ramdas Pophale) SiO2 
 PCOD8206549
Probable space group: P M M A
;
_chemical_formula_sum "Si O2"
_cell_formula_units_Z 48
_cell_length_a 16.963268
_cell_length_b 11.457205
_cell_length_c 12.883619
_cell_angle_alpha 90.000000
_cell_angle_beta 90.000000
_cell_angle_gamma 90.000000
_cell_volume 2503.952468
_symmetry_space_group_name_H-M "P M M A"
_symmetry_group_IT_number 51
_symmetry_cell_setting 'orthorhombic'
loop_
_space_group_symop_operation_xyz
x,y,z
1/2-x,-y,z
1/2+x,-y,-z
-x,y,-z
-x,-y,-z
1/2+x,y,-z
1/2-x,y,z
x,-y,z
loop_
_atom_site_type_symbol
_atom_site_label
_atom_site_fract_x
_atom_site_fract_y
_atom_site_fract_z
Si Si1 0.344215 0.739047 0.030110
Si Si2 0.658804 0.134121 0.173277
Si Si3 0.159885 0.125162 0.223159
Si Si4 0.099807 0.749244 0.413001
Si Si5 0.567997 0.861638 0.382716
Si Si6 0.654895 0.500000 0.639018
Si Si7 0.843469 0.500000 0.879941
O O1 0.250000 0.743034 0.031557
O O2 0.380582 0.818114 0.122258
O O3 0.375666 0.609782 0.054892
O O4 0.375056 0.785097 0.919306
O O5 0.750000 0.160749 0.194885
O O6 0.612395 0.165458 0.276841
O O7 0.646652 0.000000 0.140524
O O8 0.250000 0.105694 0.194786
O O9 0.157513 0.205759 0.323786
O O10 0.118331 0.000000 0.244780
O O11 0.120822 0.812111 0.522146
O O12 0.114873 0.610589 0.418835
O O13 0.011467 0.785810 0.381063
O O14 0.551914 0.000000 0.397786
O O15 0.750000 0.500000 0.625754
O O16 0.628593 0.500000 0.760051
O O17 0.750000 0.500000 0.877435
#
# Coordination Sequence:
#
# PCOD8206549 Si02
#       7
#     8   8   8   8   8   4   4
#     4   9  16  29  50  77 109 143 180 225 281 338
#     4   9  18  34  56  81 110 144 185 233 281 334
#     4  10  18  28  50  82 108 134 178 234 285 334
#     4  11  21  37  57  77 112 149 187 230 279 336
#     4  10  22  39  58  81 112 154 193 230 288 348
#     4  11  22  37  59  87 114 147 187 233 286 333
#     4   9  16  30  51  77 109 143 178 219 273 331
#
# _framework density 19.169692000000001
#
# number of rings (size 3 to 8) (size 9 to 14) (size 15 to 20)
#    0.000    2.167    1.667    3.000    0.000    4.667 
#    0.000    4.167    0.000    5.000    0.000    0.000 
#    0.000    0.000    0.000    0.000    0.000    0.000 
#
# Total GULP energy -594926.412742 kJ/mol
# GULP energy per Si atom -12394.300265 kJ/mol
# Density = 1.912606 g / cm^3
# Si number density = 19.169692 Si / 1000 Ang^3
#
#
#
# Elastic Constant Matrix: (Units=GPa)
#
#
# Indices 1 2 3 4 5 6 
#
# 1 35.4240 34.0393 28.2989 0.0000 0.0000 0.0000
# 2 34.0393 156.8945 72.0010 0.0000 0.0000 0.0000
# 3 28.2989 72.0010 149.3433 0.0000 0.0000 0.0000
# 4 0.0000 0.0000 0.0000 34.5519 0.0000 0.0000
# 5 0.0000 0.0000 0.0000 0.0000 5.3553 0.0000
# 6 0.0000 0.0000 0.0000 0.0000 0.0000 24.9483
#
#
#
# Elastic Compliance Matrix: (Units=1/GPa)
#
#
# Indices 1 2 3 4 5 6 
#
# 1 0.037514 -0.006262 -0.004089 0.000000 0.000000 0.000000
# 2 -0.006262 0.009230 -0.003263 0.000000 0.000000 0.000000
# 3 -0.004089 -0.003263 0.009044 0.000000 0.000000 0.000000
# 4 0.000000 0.000000 0.000000 0.028942 0.000000 0.000000
# 5 0.000000 0.000000 0.000000 0.000000 0.186730 0.000000
# 6 0.000000 0.000000 0.000000 0.000000 0.000000 0.040083
#
#
# Mechanical properties :
#
#
# Convention : Reuss Voigt Hill
#
# Bulk Modulus (GPa) = 35.01629 67.81558 51.41593
# Shear Modulus (GPa) = 14.35577 26.79260 20.57418
#
# Velocity S-wave (km/s) = 2.73953 3.74258 3.27963
# Velocity P-wave (km/s) = 5.32098 7.35725 6.42036
#
# Compressibility (1/GPa) = 0.02855814
#
# Stress axis : x y z
#
# Youngs Moduli (GPa) = 26.65694 108.34349 110.56879
#
# Poissons Ratio (x) = 0.67847 0.45215
# Poissons Ratio (y) = 0.16693 0.36082
# Poissons Ratio (z) = 0.10901 0.35355
#
# Static dielectric constant tensor:
#      x y z
#    x 3.077790 0.000000 0.000000 
#    y 0.000000 3.832270 0.000000 
#    z 0.000000 0.000000 3.706950 
# 
# 
# High freq. dielectric constant tensor:
#      x y z
#    x 1.704090 0.000000 0.000000 
#    y 0.000000 1.753320 0.000000 
#    z 0.000000 0.000000 1.754070 
# 
# From -- ./inp_files/18171.got.cif
#   From: 2010.03.12/outbox.cif.g09.slc.cpg/sg51_10_cif.got.tgz:18171.got - 2010.04.16 13:43:02.
