data_PCOD8206482
_publ_section_title
;
Structure prediction by ZEFSAII (Michael W. Deem and Ramdas Pophale) SiO2 
 PCOD8206482
Probable space group: P M M A
;
_chemical_formula_sum "Si O2"
_cell_formula_units_Z 64
_cell_length_a 13.884947
_cell_length_b 9.235469
_cell_length_c 31.766945
_cell_angle_alpha 90.000000
_cell_angle_beta 90.000000
_cell_angle_gamma 90.000000
_cell_volume 4073.602348
_symmetry_space_group_name_H-M "P M M A"
_symmetry_group_IT_number 51
_symmetry_cell_setting 'orthorhombic'
loop_
_space_group_symop_operation_xyz
x,y,z
1/2-x,-y,z
1/2+x,-y,-z
-x,y,-z
-x,-y,-z
1/2+x,y,-z
1/2-x,y,z
x,-y,z
loop_
_atom_site_type_symbol
_atom_site_label
_atom_site_fract_x
_atom_site_fract_y
_atom_site_fract_z
Si Si1 0.541926 0.667957 0.897970
Si Si2 0.143859 0.328588 0.519080
Si Si3 0.864064 0.163199 0.973089
Si Si4 0.142470 0.672052 0.184944
Si Si5 0.043091 0.671429 0.434425
Si Si6 0.858268 0.666612 0.054302
Si Si7 0.362111 0.169670 0.357790
Si Si8 0.364330 0.338835 0.276615
O O1 0.570269 0.500000 0.902403
O O2 0.602458 0.754097 0.931976
O O3 0.570073 0.726453 0.851585
O O4 0.427656 0.691730 0.905526
O O5 0.250000 0.263637 0.529192
O O6 0.147662 0.500000 0.517813
O O7 0.110253 0.276379 0.472980
O O8 0.067044 0.282380 0.554715
O O9 0.750000 0.166667 0.973543
O O10 0.904190 0.000000 0.972550
O O11 0.901183 0.240593 0.015654
O O12 0.250000 0.734272 0.176147
O O13 0.147731 0.500000 0.186079
O O14 0.102500 0.722647 0.230784
O O15 0.052266 0.500000 0.426697
O O16 0.074387 0.755597 0.393238
O O17 0.750000 0.714405 0.067061
O O18 0.859864 0.500000 0.039797
O O19 0.250000 0.207319 0.365152
O O20 0.399135 0.230597 0.313048
O O21 0.381003 0.000000 0.358539
O O22 0.250000 0.348186 0.275588
O O23 0.406571 0.500000 0.285249
#
# Coordination Sequence:
#
# PCOD8206482 Si02
#       8
#     8   8   8   8   8   8   8   8
#     4  10  18  28  45  65  83 107 137 167 201 241
#     4   8  14  25  41  62  87 112 141 178 213 243
#     4  10  20  31  42  59  84 111 137 167 202 238
#     4   8  14  25  42  64  85 102 126 163 203 245
#     4   9  16  26  43  64  83 110 146 177 207 246
#     4   9  18  31  44  59  81 109 140 171 202 236
#     4  10  19  28  39  59  87 114 139 172 211 244
#     4   8  14  26  43  60  79 105 135 165 200 247
#
# _framework density 15.710910999999999
#
# number of rings (size 3 to 8) (size 9 to 14) (size 15 to 20)
#    0.000    3.000    0.000    3.375    0.000    4.500 
#    0.000    1.875    0.000    3.375    0.000    0.875 
#    0.000    5.000    0.000    0.000    0.000    0.000 
#
# Total GULP energy -793224.659458 kJ/mol
# GULP energy per Si atom -12394.135304 kJ/mol
# Density = 1.567515 g / cm^3
# Si number density = 15.710911 Si / 1000 Ang^3
#
#
#
# Elastic Constant Matrix: (Units=GPa)
#
#
# Indices 1 2 3 4 5 6 
#
# 1 74.1344 28.6424 63.2337 0.0000 0.0000 0.0000
# 2 28.6424 52.7483 48.1159 0.0000 0.0000 0.0000
# 3 63.2337 48.1159 149.9366 0.0000 0.0000 0.0000
# 4 0.0000 0.0000 0.0000 -0.4255 0.0000 0.0000
# 5 0.0000 0.0000 0.0000 0.0000 23.7977 0.0000
# 6 0.0000 0.0000 0.0000 0.0000 0.0000 12.8850
#
#
#
# Elastic Compliance Matrix: (Units=1/GPa)
#
#
# Indices 1 2 3 4 5 6 
#
# 1 0.021931 -0.004909 -0.007674 0.000000 0.000000 0.000000
# 2 -0.004909 0.027903 -0.006884 0.000000 0.000000 0.000000
# 3 -0.007674 -0.006884 0.012115 0.000000 0.000000 0.000000
# 4 0.000000 0.000000 0.000000 -2.350068 0.000000 0.000000
# 5 0.000000 0.000000 0.000000 0.000000 0.042021 0.000000
# 6 0.000000 0.000000 0.000000 0.000000 0.000000 0.077609
#
#
# Mechanical properties :
#
#
# Convention : Reuss Voigt Hill
#
# Bulk Modulus (GPa) = 43.44867 61.86701 52.65784
# Shear Modulus (GPa) = -2.35640 16.37327 7.00844
#
# Velocity S-wave (km/s) = -1.22601 3.23175 2.11437
# Velocity P-wave (km/s) = 5.07060 7.30681 6.28890
#
# Compressibility (1/GPa) = 0.02301566
#
# Stress axis : x y z
#
# Youngs Moduli (GPa) = 45.59746 35.83857 82.54219
#
# Poissons Ratio (x) = 0.17592 0.63342
# Poissons Ratio (y) = 0.22382 0.56823
# Poissons Ratio (z) = 0.34991 0.24672
#
# Static dielectric constant tensor:
#      x y z
#    x 3.106920 0.000000 0.000000 
#    y 0.000000 2.849450 0.000000 
#    z 0.000000 0.000000 3.165820 
# 
# 
# High freq. dielectric constant tensor:
#      x y z
#    x 1.582770 0.000000 0.000000 
#    y 0.000000 1.581290 0.000000 
#    z 0.000000 0.000000 1.596910 
# 
# From -- ./inp_files/37816.got.cif
#   From: 2010.03.12/outbox.cif.g09.slc.cpg/sg51_19_cif.got.tgz:37816.got - 2010.04.16 13:43:02.
