data_PCOD8206676
_publ_section_title
;
Structure prediction by ZEFSAII (Michael W. Deem and Ramdas Pophale) SiO2 
 PCOD8206676
Probable space group: P M M A
;
_chemical_formula_sum "Si O2"
_cell_formula_units_Z 56
_cell_length_a 18.849577
_cell_length_b 15.434481
_cell_length_c 10.122673
_cell_angle_alpha 90.000000
_cell_angle_beta 90.000000
_cell_angle_gamma 90.000000
_cell_volume 2945.024058
_symmetry_space_group_name_H-M "P M M A"
_symmetry_group_IT_number 51
_symmetry_cell_setting 'orthorhombic'
loop_
_space_group_symop_operation_xyz
x,y,z
1/2-x,-y,z
1/2+x,-y,-z
-x,y,-z
-x,-y,-z
1/2+x,y,-z
1/2-x,y,z
x,-y,z
loop_
_atom_site_type_symbol
_atom_site_label
_atom_site_fract_x
_atom_site_fract_y
_atom_site_fract_z
Si Si1 0.413395 0.222990 0.639631
Si Si2 0.333252 0.097348 0.836802
Si Si3 0.669842 0.630633 0.984013
Si Si4 0.092566 0.596141 0.752655
Si Si5 0.830504 0.175619 0.895600
Si Si6 0.931847 0.407233 0.758187
Si Si7 0.078106 0.775931 0.344487
O O1 0.369573 0.165099 0.739936
O O2 0.393979 0.325265 0.650360
O O3 0.395630 0.195121 0.489379
O O4 0.495308 0.205427 0.672833
O O5 0.250000 0.114668 0.825671
O O6 0.353731 0.000000 0.793829
O O7 0.355952 0.108985 0.990736
O O8 0.750000 0.599459 0.957484
O O9 0.662513 0.732750 0.966833
O O10 0.617731 0.582626 0.884850
O O11 0.648786 0.604810 0.130924
O O12 0.102163 0.500000 0.687165
O O13 0.012475 0.607028 0.807618
O O14 0.750000 0.156933 0.849255
O O15 0.880070 0.169277 0.766311
O O16 0.926615 0.500000 0.680721
O O17 0.906627 0.327295 0.667812
#
# Coordination Sequence:
#
# PCOD8206676 Si02
#       7
#     8   8   8   8   8   8   8
#     4  10  20  37  55  80 115 146 182 225 270 320
#     4  10  21  39  63  86 108 138 177 221 272 329
#     4  10  18  29  47  72 103 137 177 229 278 316
#     4  10  19  30  48  74 106 145 185 223 266 316
#     4   9  18  35  56  79 105 138 180 225 271 320
#     4   9  18  31  47  70 103 145 189 226 264 315
#     4   9  20  35  55  79 110 150 183 222 272 320
#
# _framework density 19.015124
#
# number of rings (size 3 to 8) (size 9 to 14) (size 15 to 20)
#    0.000    2.429    1.429    0.857    0.000    4.000 
#    0.000    6.429    0.000    1.714    0.000    4.000 
#    0.000    0.000    0.000    0.000    0.000    0.000 
#
# Total GULP energy -694055.247583 kJ/mol
# GULP energy per Si atom -12393.843707 kJ/mol
# Density = 1.897184 g / cm^3
# Si number density = 19.015124 Si / 1000 Ang^3
#
#
#
# Elastic Constant Matrix: (Units=GPa)
#
#
# Indices 1 2 3 4 5 6 
#
# 1 63.6919 37.3933 48.5127 0.0000 0.0000 0.0000
# 2 37.3933 80.5094 46.3838 0.0000 0.0000 0.0000
# 3 48.5127 46.3838 116.6775 0.0000 0.0000 0.0000
# 4 0.0000 0.0000 0.0000 10.6877 0.0000 0.0000
# 5 0.0000 0.0000 0.0000 0.0000 24.4061 0.0000
# 6 0.0000 0.0000 0.0000 0.0000 0.0000 18.2653
#
#
#
# Elastic Compliance Matrix: (Units=1/GPa)
#
#
# Indices 1 2 3 4 5 6 
#
# 1 0.026152 -0.007629 -0.007841 0.000000 0.000000 0.000000
# 2 -0.007629 0.018336 -0.004117 0.000000 0.000000 0.000000
# 3 -0.007841 -0.004117 0.013467 0.000000 0.000000 0.000000
# 4 0.000000 0.000000 0.000000 0.093565 0.000000 0.000000
# 5 0.000000 0.000000 0.000000 0.000000 0.040973 0.000000
# 6 0.000000 0.000000 0.000000 0.000000 0.000000 0.054749
#
#
# Mechanical properties :
#
#
# Convention : Reuss Voigt Hill
#
# Bulk Modulus (GPa) = 53.24433 58.38427 55.81430
# Shear Modulus (GPa) = 17.08366 19.24443 18.16404
#
# Velocity S-wave (km/s) = 3.00063 3.18474 3.09405
# Velocity P-wave (km/s) = 6.32984 6.65539 6.49465
#
# Compressibility (1/GPa) = 0.01878134
#
# Stress axis : x y z
#
# Youngs Moduli (GPa) = 38.23846 54.53607 74.25320
#
# Poissons Ratio (x) = 0.41607 0.58219
# Poissons Ratio (y) = 0.29173 0.30573
# Poissons Ratio (z) = 0.29981 0.22454
#
# Static dielectric constant tensor:
#      x y z
#    x 3.459730 0.000000 0.000000 
#    y 0.000000 3.542230 0.000000 
#    z 0.000000 0.000000 3.323190 
# 
# 
# High freq. dielectric constant tensor:
#      x y z
#    x 1.732750 0.000000 0.000000 
#    y 0.000000 1.734230 0.000000 
#    z 0.000000 0.000000 1.720050 
# 
# From -- ./inp_files/11118.got.cif
#   From: 2010.03.12/outbox.cif.g09.slc.cpg/sg51_6_cif.got.tgz:11118.got - 2010.04.16 13:43:02.
