data_PCOD8206207
_publ_section_title
;
Structure prediction by ZEFSAII (Michael W. Deem and Ramdas Pophale) SiO2 
 PCOD8206207
Probable space group: P M M A
;
_chemical_formula_sum "Si O2"
_cell_formula_units_Z 40
_cell_length_a 14.216770
_cell_length_b 14.271925
_cell_length_c 9.613650
_cell_angle_alpha 90.000000
_cell_angle_beta 90.000000
_cell_angle_gamma 90.000000
_cell_volume 1950.616076
_symmetry_space_group_name_H-M "P M M A"
_symmetry_group_IT_number 51
_symmetry_cell_setting 'orthorhombic'
loop_
_space_group_symop_operation_xyz
x,y,z
1/2-x,-y,z
1/2+x,-y,-z
-x,y,-z
-x,-y,-z
1/2+x,y,-z
1/2-x,y,z
x,-y,z
loop_
_atom_site_type_symbol
_atom_site_label
_atom_site_fract_x
_atom_site_fract_y
_atom_site_fract_z
Si Si1 0.139058 0.107305 0.373490
Si Si2 0.355616 0.394056 0.179170
Si Si3 0.608341 0.604436 0.502428
Si Si4 0.022538 0.783269 0.150732
Si Si5 0.647013 0.218404 0.355874
O O1 0.250000 0.118382 0.356487
O O2 0.094261 0.153164 0.236831
O O3 0.105478 0.157903 0.515343
O O4 0.107015 0.000000 0.382612
O O5 0.250000 0.372715 0.122155
O O6 0.386487 0.500000 0.136126
O O7 0.350222 0.386448 0.344787
O O8 0.431919 0.319637 0.123879
O O9 0.500000 0.634838 0.500000
O O10 0.621660 0.500000 0.442674
O O11 0.663263 0.674789 0.403328
O O12 0.922970 0.781903 0.227561
O O13 0.000000 0.827571 0.000000
O O14 0.750000 0.179491 0.309896
#
# Coordination Sequence:
#
# PCOD8206207 Si02
#       5
#     8   8   8   8   8
#     4  10  22  43  70  93 114 147 195 249 302 356
#     4  10  20  36  59  85 116 158 205 249 295 348
#     4  10  17  30  57  88 117 149 193 252 307 347
#     4  12  25  39  59  88 127 164 197 238 293 356
#     4  11  22  38  60  89 119 153 200 249 295 347
#
# _framework density 20.506340999999999
#
# number of rings (size 3 to 8) (size 9 to 14) (size 15 to 20)
#    0.000    1.400    4.000    1.800    0.000    5.200 
#    0.000    0.000    0.000    2.400    0.000    0.000 
#    0.000    0.000    0.000    0.000    0.000    0.000 
#
# Total GULP energy -495933.908320 kJ/mol
# GULP energy per Si atom -12398.347708 kJ/mol
# Density = 2.045967 g / cm^3
# Si number density = 20.506341 Si / 1000 Ang^3
#
#
#
# Elastic Constant Matrix: (Units=GPa)
#
#
# Indices 1 2 3 4 5 6 
#
# 1 98.9993 35.3732 42.4488 0.0000 0.0000 0.0000
# 2 35.3732 113.7962 42.7233 0.0000 0.0000 0.0000
# 3 42.4488 42.7233 105.6383 0.0000 0.0000 0.0000
# 4 0.0000 0.0000 0.0000 11.0983 0.0000 0.0000
# 5 0.0000 0.0000 0.0000 0.0000 0.7306 0.0000
# 6 0.0000 0.0000 0.0000 0.0000 0.0000 25.1784
#
#
#
# Elastic Compliance Matrix: (Units=1/GPa)
#
#
# Indices 1 2 3 4 5 6 
#
# 1 0.012738 -0.002403 -0.004147 0.000000 0.000000 0.000000
# 2 -0.002403 0.010814 -0.003408 0.000000 0.000000 0.000000
# 3 -0.004147 -0.003408 0.012511 0.000000 0.000000 0.000000
# 4 0.000000 0.000000 0.000000 0.090104 0.000000 0.000000
# 5 0.000000 0.000000 0.000000 0.000000 1.368775 0.000000
# 6 0.000000 0.000000 0.000000 0.000000 0.000000 0.039717
#
#
# Mechanical properties :
#
#
# Convention : Reuss Voigt Hill
#
# Bulk Modulus (GPa) = 61.92824 62.16938 62.04881
# Shear Modulus (GPa) = 3.20522 20.59402 11.89962
#
# Velocity S-wave (km/s) = 1.25157 3.17247 2.41153
# Velocity P-wave (km/s) = 5.68803 6.61834 6.17074
#
# Compressibility (1/GPa) = 0.01614772
#
# Stress axis : x y z
#
# Youngs Moduli (GPa) = 78.50796 92.47276 79.93066
#
# Poissons Ratio (x) = 0.22218 0.33145
# Poissons Ratio (y) = 0.18862 0.27241
# Poissons Ratio (z) = 0.32555 0.31515
#
# Static dielectric constant tensor:
#      x y z
#    x 3.758990 0.000000 0.000000 
#    y 0.000000 3.893900 0.000000 
#    z 0.000000 0.000000 3.326060 
# 
# 
# High freq. dielectric constant tensor:
#      x y z
#    x 1.820110 0.000000 0.000000 
#    y 0.000000 1.800030 0.000000 
#    z 0.000000 0.000000 1.762660 
# 
# From -- ./inp_files/7913.got.cif
#   From: 2010.03.12/outbox.cif.g09.slc.cpg/sg51_4_cif.got.tgz:7913.got - 2010.04.16 13:43:02.
