data_PCOD8206908
_publ_section_title
;
Structure prediction by ZEFSAII (Michael W. Deem and Ramdas Pophale) SiO2 
 PCOD8206908
Probable space group: P M M A
;
_chemical_formula_sum "Si O2"
_cell_formula_units_Z 64
_cell_length_a 9.037116
_cell_length_b 14.199109
_cell_length_c 30.987903
_cell_angle_alpha 90.000000
_cell_angle_beta 90.000000
_cell_angle_gamma 90.000000
_cell_volume 3976.336574
_symmetry_space_group_name_H-M "P M M A"
_symmetry_group_IT_number 51
_symmetry_cell_setting 'orthorhombic'
loop_
_space_group_symop_operation_xyz
x,y,z
1/2-x,-y,z
1/2+x,-y,-z
-x,y,-z
-x,-y,-z
1/2+x,y,-z
1/2-x,y,z
x,-y,z
loop_
_atom_site_type_symbol
_atom_site_label
_atom_site_fract_x
_atom_site_fract_y
_atom_site_fract_z
Si Si1 0.579361 0.891301 0.791821
Si Si2 0.077784 0.110461 0.628378
Si Si3 0.574365 0.602059 0.165910
Si Si4 0.923860 0.108129 0.043229
Si Si5 0.425787 0.795177 0.870238
Si Si6 0.917078 0.887931 0.542103
Si Si7 0.921538 0.606951 0.263973
Si Si8 0.424567 0.217085 0.294033
O O1 0.750000 0.871400 0.802344
O O2 0.485259 0.863110 0.833275
O O3 0.526756 0.831951 0.750582
O O4 0.550334 0.000000 0.781121
O O5 0.250000 0.135352 0.626623
O O6 0.003931 0.147148 0.584284
O O7 0.002269 0.163030 0.667576
O O8 0.050411 0.000000 0.634660
O O9 0.750000 0.599836 0.165584
O O10 0.514829 0.500000 0.148970
O O11 0.515585 0.687920 0.136435
O O12 0.521263 0.617814 0.214869
O O13 0.750000 0.119105 0.037373
O O14 0.983122 0.169212 0.083435
O O15 0.969262 0.000000 0.051543
O O16 0.000000 0.147219 0.000000
O O17 0.250000 0.800231 0.867977
O O18 0.750000 0.848426 0.543185
O O19 0.000000 0.847278 0.500000
O O20 0.915833 0.000000 0.540312
O O21 0.750000 0.635853 0.267635
O O22 0.945338 0.500000 0.279962
O O23 0.019427 0.675226 0.293694
O O24 0.250000 0.213153 0.301170
#
# Coordination Sequence:
#
# PCOD8206908 Si02
#       8
#     8   8   8   8   8   8   8   8
#     4  10  21  33  43  61  92 126 154 182 223 272
#     4  10  20  32  46  65  91 127 169 206 241 283
#     4   8  14  26  46  70  92 113 141 181 227 270
#     4   9  18  31  46  66  89 114 145 182 224 268
#     4  10  18  30  50  71  89 111 149 192 223 261
#     4   9  16  27  44  65  90 121 159 203 247 288
#     4   9  17  31  50  69  90 118 154 194 233 276
#     4  11  21  32  46  65  94 128 159 192 233 283
#
# _framework density 16.095217000000002
#
# number of rings (size 3 to 8) (size 9 to 14) (size 15 to 20)
#    0.000    2.500    1.250    2.625    0.000    4.750 
#    0.000    1.250    0.000    0.750    0.000    0.000 
#    0.000    0.500    0.000    1.875    0.000    2.875 
#
# Total GULP energy -793533.178591 kJ/mol
# GULP energy per Si atom -12398.955915 kJ/mol
# Density = 1.605858 g / cm^3
# Si number density = 16.095217 Si / 1000 Ang^3
#
#
#
# Elastic Constant Matrix: (Units=GPa)
#
#
# Indices 1 2 3 4 5 6 
#
# 1 66.9621 38.8162 55.8569 0.0000 0.0000 0.0000
# 2 38.8162 73.2619 45.5255 0.0000 0.0000 0.0000
# 3 55.8569 45.5255 123.3601 0.0000 0.0000 0.0000
# 4 0.0000 0.0000 0.0000 5.3088 0.0000 0.0000
# 5 0.0000 0.0000 0.0000 0.0000 28.1739 0.0000
# 6 0.0000 0.0000 0.0000 0.0000 0.0000 18.0305
#
#
#
# Elastic Compliance Matrix: (Units=1/GPa)
#
#
# Indices 1 2 3 4 5 6 
#
# 1 0.027931 -0.009005 -0.009324 0.000000 0.000000 0.000000
# 2 -0.009005 0.020614 -0.003530 0.000000 0.000000 0.000000
# 3 -0.009324 -0.003530 0.013631 0.000000 0.000000 0.000000
# 4 0.000000 0.000000 0.000000 0.188365 0.000000 0.000000
# 5 0.000000 0.000000 0.000000 0.000000 0.035494 0.000000
# 6 0.000000 0.000000 0.000000 0.000000 0.000000 0.055462
#
#
# Mechanical properties :
#
#
# Convention : Reuss Voigt Hill
#
# Bulk Modulus (GPa) = 54.17534 60.44236 57.30885
# Shear Modulus (GPa) = 12.77569 18.52836 15.65202
#
# Velocity S-wave (km/s) = 2.82043 3.39657 3.12182
# Velocity P-wave (km/s) = 6.65874 7.28126 6.97695
#
# Compressibility (1/GPa) = 0.01845858
#
# Stress axis : x y z
#
# Youngs Moduli (GPa) = 35.80201 48.50977 73.36171
#
# Poissons Ratio (x) = 0.43682 0.68403
# Poissons Ratio (y) = 0.32239 0.25899
# Poissons Ratio (z) = 0.33382 0.17126
#
# Static dielectric constant tensor:
#      x y z
#    x 2.975610 0.000000 0.000000 
#    y 0.000000 3.128980 0.000000 
#    z 0.000000 0.000000 3.059460 
# 
# 
# High freq. dielectric constant tensor:
#      x y z
#    x 1.613720 0.000000 0.000000 
#    y 0.000000 1.600290 0.000000 
#    z 0.000000 0.000000 1.608160 
# 
# From -- ./inp_files/37568.got.cif
#   From: 2010.03.12/outbox.cif.g09.slc.cpg/sg51_19_cif.got.tgz:37568.got - 2010.04.16 13:43:02.
