data_PCOD8206722
_publ_section_title
;
Structure prediction by ZEFSAII (Michael W. Deem and Ramdas Pophale) SiO2 
 PCOD8206722
Probable space group: P M M A
;
_chemical_formula_sum "Si O2"
_cell_formula_units_Z 64
_cell_length_a 9.039137
_cell_length_b 15.437589
_cell_length_c 24.774582
_cell_angle_alpha 90.000000
_cell_angle_beta 90.000000
_cell_angle_gamma 90.000000
_cell_volume 3457.106661
_symmetry_space_group_name_H-M "P M M A"
_symmetry_group_IT_number 51
_symmetry_cell_setting 'orthorhombic'
loop_
_space_group_symop_operation_xyz
x,y,z
1/2-x,-y,z
1/2+x,-y,-z
-x,y,-z
-x,-y,-z
1/2+x,y,-z
1/2-x,y,z
x,-y,z
loop_
_atom_site_type_symbol
_atom_site_label
_atom_site_fract_x
_atom_site_fract_y
_atom_site_fract_z
Si Si1 0.926060 0.733927 0.555974
Si Si2 0.423734 0.401100 0.943229
Si Si3 0.581803 0.298711 0.739722
Si Si4 0.421521 0.131968 0.715638
Si Si5 0.077223 0.096305 0.836490
Si Si6 0.422020 0.406217 0.359222
Si Si7 0.577440 0.270869 0.861724
Si Si8 0.080982 0.906335 0.389454
O O1 0.750000 0.731679 0.549548
O O2 0.987041 0.666543 0.600793
O O3 0.984043 0.829589 0.573412
O O4 0.000000 0.707756 0.500000
O O5 0.250000 0.384227 0.949092
O O6 0.455544 0.500000 0.924339
O O7 0.490379 0.333401 0.901396
O O8 0.500000 0.382834 0.000000
O O9 0.750000 0.264700 0.731967
O O10 0.468151 0.231504 0.714402
O O11 0.554564 0.384654 0.704351
O O12 0.549914 0.312885 0.802863
O O13 0.250000 0.122592 0.704642
O O14 0.465530 0.091962 0.773429
O O15 0.502119 0.082450 0.667866
O O16 0.250000 0.118896 0.843681
O O17 0.983584 0.172046 0.865649
O O18 0.041886 0.000000 0.860721
O O19 0.250000 0.412533 0.372067
O O20 0.497048 0.500000 0.369988
O O21 0.750000 0.268820 0.876977
O O22 0.250000 0.883115 0.376904
O O23 0.065232 0.000000 0.419109
#
# Coordination Sequence:
#
# PCOD8206722 Si02
#       8
#     8   8   8   8   8   8   8   8
#     4  10  21  37  54  72  96 126 165 211 259 314
#     4  10  21  38  60  84 113 150 191 235 280 326
#     4   9  17  32  52  76 108 143 177 209 254 313
#     4  10  18  29  49  76 106 137 172 213 259 307
#     4   9  18  32  49  73 110 152 188 223 267 319
#     4   9  17  32  55  77  98 129 168 209 255 310
#     4  10  20  32  53  84 115 147 186 230 273 323
#     4  10  20  34  52  72  96 129 165 204 254 314
#
# _framework density 18.512589999999999
#
# number of rings (size 3 to 8) (size 9 to 14) (size 15 to 20)
#    0.000    2.375    1.250    1.500    0.000    4.250 
#    0.000    1.250    0.000    1.500    0.000    0.000 
#    0.000    0.000    0.000    0.000    0.000    0.000 
#
# Total GULP energy -793233.850152 kJ/mol
# GULP energy per Si atom -12394.278909 kJ/mol
# Density = 1.847045 g / cm^3
# Si number density = 18.512590 Si / 1000 Ang^3
#
#
#
# Elastic Constant Matrix: (Units=GPa)
#
#
# Indices 1 2 3 4 5 6 
#
# 1 58.0620 43.6439 37.7075 0.0000 0.0000 0.0000
# 2 43.6439 149.3723 67.9761 0.0000 0.0000 0.0000
# 3 37.7075 67.9761 94.0988 0.0000 0.0000 0.0000
# 4 0.0000 0.0000 0.0000 12.7049 0.0000 0.0000
# 5 0.0000 0.0000 0.0000 0.0000 28.9184 0.0000
# 6 0.0000 0.0000 0.0000 0.0000 0.0000 19.8442
#
#
#
# Elastic Compliance Matrix: (Units=1/GPa)
#
#
# Indices 1 2 3 4 5 6 
#
# 1 0.024834 -0.004063 -0.007016 0.000000 0.000000 0.000000
# 2 -0.004063 0.010638 -0.006057 0.000000 0.000000 0.000000
# 3 -0.007016 -0.006057 0.017814 0.000000 0.000000 0.000000
# 4 0.000000 0.000000 0.000000 0.078710 0.000000 0.000000
# 5 0.000000 0.000000 0.000000 0.000000 0.034580 0.000000
# 6 0.000000 0.000000 0.000000 0.000000 0.000000 0.050393
#
#
# Mechanical properties :
#
#
# Convention : Reuss Voigt Hill
#
# Bulk Modulus (GPa) = 52.59360 66.68755 59.64058
# Shear Modulus (GPa) = 19.41155 22.44053 20.92604
#
# Velocity S-wave (km/s) = 3.24166 3.48541 3.36574
# Velocity P-wave (km/s) = 6.51786 7.23177 6.88407
#
# Compressibility (1/GPa) = 0.01901372
#
# Stress axis : x y z
#
# Youngs Moduli (GPa) = 40.26785 94.00182 56.13533
#
# Poissons Ratio (x) = 0.38192 0.39387
# Poissons Ratio (y) = 0.16361 0.34000
# Poissons Ratio (z) = 0.28254 0.56934
#
# Static dielectric constant tensor:
#      x y z
#    x 3.294200 0.000000 0.000000 
#    y 0.000000 3.642100 0.000000 
#    z 0.000000 0.000000 3.246110 
# 
# 
# High freq. dielectric constant tensor:
#      x y z
#    x 1.704290 0.000000 0.000000 
#    y 0.000000 1.725740 0.000000 
#    z 0.000000 0.000000 1.697410 
# 
# From -- ./inp_files/34903.got.cif
#   From: 2010.03.12/outbox.cif.g09.slc.cpg/sg51_18_cif.got.tgz:34903.got - 2010.04.16 13:43:02.
