data_PCOD8206464
_publ_section_title
;
Structure prediction by ZEFSAII (Michael W. Deem and Ramdas Pophale) SiO2 
 PCOD8206464
Probable space group: P M M A
;
_chemical_formula_sum "Si O2"
_cell_formula_units_Z 48
_cell_length_a 23.946417
_cell_length_b 8.756800
_cell_length_c 13.897510
_cell_angle_alpha 90.000000
_cell_angle_beta 90.000000
_cell_angle_gamma 90.000000
_cell_volume 2914.224245
_symmetry_space_group_name_H-M "P M M A"
_symmetry_group_IT_number 51
_symmetry_cell_setting 'orthorhombic'
loop_
_space_group_symop_operation_xyz
x,y,z
1/2-x,-y,z
1/2+x,-y,-z
-x,y,-z
-x,-y,-z
1/2+x,y,-z
1/2-x,y,z
x,-y,z
loop_
_atom_site_type_symbol
_atom_site_label
_atom_site_fract_x
_atom_site_fract_y
_atom_site_fract_z
Si Si1 0.688543 0.181303 0.147203
Si Si2 0.686590 0.178229 0.362418
Si Si3 0.918837 0.181978 0.034836
Si Si4 0.975559 0.317867 0.862147
Si Si5 0.520723 0.681055 0.646388
Si Si6 0.586106 0.680546 0.464989
O O1 0.750000 0.241039 0.114447
O O2 0.674941 0.242207 0.254676
O O3 0.641712 0.237321 0.072300
O O4 0.689719 0.000000 0.151727
O O5 0.750000 0.215477 0.392626
O O6 0.646652 0.256541 0.439604
O O7 0.674689 0.000000 0.365251
O O8 0.964821 0.256744 0.103404
O O9 0.925459 0.000000 0.036766
O O10 0.926403 0.244701 0.926658
O O11 0.974260 0.500000 0.871499
O O12 0.965917 0.259295 0.753350
O O13 0.518324 0.500000 0.646676
O O14 0.568726 0.736536 0.572312
O O15 0.460293 0.741848 0.610735
O O16 0.588523 0.500000 0.461961
#
# Coordination Sequence:
#
# PCOD8206464 Si02
#       6
#     8   8   8   8   8   8
#     4   8  15  28  45  63  85 114 142 170 210 255
#     4   9  17  29  44  64  90 115 138 169 212 256
#     4  10  18  28  44  66  88 110 143 181 210 244
#     4  10  18  29  44  62  88 118 142 167 212 262
#     4   8  16  29  45  64  86 113 141 174 213 252
#     4   9  16  29  47  65  85 110 144 178 208 247
#
# _framework density 16.470935999999998
#
# number of rings (size 3 to 8) (size 9 to 14) (size 15 to 20)
#    0.000    3.000    0.000    5.000    0.000    0.333 
#    0.000    5.000    0.000    5.000    0.000    4.667 
#    0.000    0.000    0.000    0.000    0.000    0.000 
#
# Total GULP energy -594901.098777 kJ/mol
# GULP energy per Si atom -12393.772891 kJ/mol
# Density = 1.643345 g / cm^3
# Si number density = 16.470936 Si / 1000 Ang^3
#
#
#
# Elastic Constant Matrix: (Units=GPa)
#
#
# Indices 1 2 3 4 5 6 
#
# 1 117.6206 22.3122 73.3800 0.0000 0.0000 0.0000
# 2 22.3122 28.7590 21.4608 0.0000 0.0000 0.0000
# 3 73.3800 21.4608 140.5829 0.0000 0.0000 0.0000
# 4 0.0000 0.0000 0.0000 19.2326 0.0000 0.0000
# 5 0.0000 0.0000 0.0000 0.0000 28.9885 0.0000
# 6 0.0000 0.0000 0.0000 0.0000 0.0000 20.9848
#
#
#
# Elastic Compliance Matrix: (Units=1/GPa)
#
#
# Indices 1 2 3 4 5 6 
#
# 1 0.013427 -0.005854 -0.006115 0.000000 0.000000 0.000000
# 2 -0.005854 0.041794 -0.003324 0.000000 0.000000 0.000000
# 3 -0.006115 -0.003324 0.010813 0.000000 0.000000 0.000000
# 4 0.000000 0.000000 0.000000 0.051995 0.000000 0.000000
# 5 0.000000 0.000000 0.000000 0.000000 0.034496 0.000000
# 6 0.000000 0.000000 0.000000 0.000000 0.000000 0.047653
#
#
# Mechanical properties :
#
#
# Convention : Reuss Voigt Hill
#
# Bulk Modulus (GPa) = 28.21110 57.91872 43.06491
# Shear Modulus (GPa) = 20.61156 25.16183 22.88670
#
# Velocity S-wave (km/s) = 3.54134 3.91276 3.73167
# Velocity P-wave (km/s) = 5.82120 7.46012 6.69103
#
# Compressibility (1/GPa) = 0.03544705
#
# Stress axis : x y z
#
# Youngs Moduli (GPa) = 74.47455 23.92667 92.48483
#
# Poissons Ratio (x) = 0.14007 0.56555
# Poissons Ratio (y) = 0.43599 0.30746
# Poissons Ratio (z) = 0.45541 0.07954
#
# Static dielectric constant tensor:
#      x y z
#    x 3.242910 0.000000 0.000000 
#    y 0.000000 2.828730 0.000000 
#    z 0.000000 0.000000 3.412430 
# 
# 
# High freq. dielectric constant tensor:
#      x y z
#    x 1.625840 0.000000 0.000000 
#    y 0.000000 1.612070 0.000000 
#    z 0.000000 0.000000 1.629550 
# 
# From -- ./inp_files/26038.got.cif
#   From: 2010.03.12/outbox.cif.g09.slc.cpg/sg51_14_cif.got.tgz:26038.got - 2010.04.16 13:43:02.
