data_PCOD8206450
_publ_section_title
;
Structure prediction by ZEFSAII (Michael W. Deem and Ramdas Pophale) SiO2 
 PCOD8206450
Probable space group: P M M A
;
_chemical_formula_sum "Si O2"
_cell_formula_units_Z 52
_cell_length_a 8.997121
_cell_length_b 26.390872
_cell_length_c 13.654998
_cell_angle_alpha 90.000000
_cell_angle_beta 90.000000
_cell_angle_gamma 90.000000
_cell_volume 3242.268242
_symmetry_space_group_name_H-M "P M M A"
_symmetry_group_IT_number 51
_symmetry_cell_setting 'orthorhombic'
loop_
_space_group_symop_operation_xyz
x,y,z
1/2-x,-y,z
1/2+x,-y,-z
-x,y,-z
-x,-y,-z
1/2+x,y,-z
1/2-x,y,z
x,-y,z
loop_
_atom_site_type_symbol
_atom_site_label
_atom_site_fract_x
_atom_site_fract_y
_atom_site_fract_z
Si Si1 0.421083 0.000000 0.398540
Si Si2 0.575079 0.346610 0.784143
Si Si3 0.419637 0.197834 0.709108
Si Si4 0.924845 0.300937 0.396986
Si Si5 0.075981 0.890272 0.394706
Si Si6 0.075236 0.258839 0.899770
Si Si7 0.422481 0.556423 0.098925
O O1 0.500000 0.000000 0.500000
O O2 0.461298 0.053808 0.346992
O O3 0.250000 0.000000 0.424075
O O4 0.750000 0.334775 0.777172
O O5 0.498134 0.339430 0.679556
O O6 0.502472 0.310386 0.865347
O O7 0.541804 0.404497 0.814161
O O8 0.250000 0.181050 0.696087
O O9 0.458116 0.243595 0.635747
O O10 0.521861 0.150287 0.684135
O O11 0.451926 0.214776 0.820178
O O12 0.750000 0.311618 0.401982
O O13 0.000000 0.311481 0.500000
O O14 0.250000 0.882800 0.411319
O O15 0.000000 0.882196 0.500000
O O16 0.250000 0.269230 0.913748
O O17 0.000000 0.240216 0.000000
O O18 0.250000 0.556250 0.074896
O O19 0.476929 0.500000 0.130155
O O20 0.500000 0.574933 0.000000
#
# Coordination Sequence:
#
# PCOD8206450 Si02
#       7
#     4   8   8   8   8   8   8
#     4   8  16  28  40  60  87 116 149 182 219 260
#     4  10  19  31  49  70  93 122 153 185 223 268
#     4   9  19  32  45  65  91 118 148 182 221 265
#     4  10  20  33  48  67  93 122 153 189 226 267
#     4  10  18  28  44  64  90 121 151 184 220 261
#     4  10  20  33  48  67  93 121 150 186 225 269
#     4   9  18  31  47  69  95 121 149 183 224 268
#
# _framework density 16.038153999999999
#
# number of rings (size 3 to 8) (size 9 to 14) (size 15 to 20)
#    0.000    2.462    0.000    3.692    0.000    8.000 
#    0.000    0.000    0.000    0.462    0.000    0.538 
#    0.000    0.000    0.000    0.000    0.000    0.000 
#
# Total GULP energy -644605.163701 kJ/mol
# GULP energy per Si atom -12396.253148 kJ/mol
# Density = 1.600165 g / cm^3
# Si number density = 16.038154 Si / 1000 Ang^3
#
#
#
# Elastic Constant Matrix: (Units=GPa)
#
#
# Indices 1 2 3 4 5 6 
#
# 1 88.9686 59.9867 53.4880 0.0000 0.0000 0.0000
# 2 59.9867 113.7910 59.1794 0.0000 0.0000 0.0000
# 3 53.4880 59.1794 109.1784 0.0000 0.0000 0.0000
# 4 0.0000 0.0000 0.0000 -0.4536 0.0000 0.0000
# 5 0.0000 0.0000 0.0000 0.0000 30.3669 0.0000
# 6 0.0000 0.0000 0.0000 0.0000 0.0000 23.4058
#
#
#
# Elastic Compliance Matrix: (Units=1/GPa)
#
#
# Indices 1 2 3 4 5 6 
#
# 1 0.019605 -0.007436 -0.005574 0.000000 0.000000 0.000000
# 2 -0.007436 0.015058 -0.004519 0.000000 0.000000 0.000000
# 3 -0.005574 -0.004519 0.014340 0.000000 0.000000 0.000000
# 4 0.000000 0.000000 0.000000 -2.204803 0.000000 0.000000
# 5 0.000000 0.000000 0.000000 0.000000 0.032931 0.000000
# 6 0.000000 0.000000 0.000000 0.000000 0.000000 0.042724
#
#
# Mechanical properties :
#
#
# Convention : Reuss Voigt Hill
#
# Bulk Modulus (GPa) = 71.71412 73.02735 72.37073
# Shear Modulus (GPa) = -2.45045 19.94944 8.74949
#
# Velocity S-wave (km/s) = -1.23742 3.53069 2.33822
# Velocity P-wave (km/s) = 6.53989 7.89008 7.24650
#
# Compressibility (1/GPa) = 0.01394426
#
# Stress axis : x y z
#
# Youngs Moduli (GPa) = 51.00814 66.40800 69.73642
#
# Poissons Ratio (x) = 0.49382 0.38871
# Poissons Ratio (y) = 0.37930 0.31516
# Poissons Ratio (z) = 0.28432 0.30012
#
# Static dielectric constant tensor:
#      x y z
#    x 3.158660 0.000000 0.000000 
#    y 0.000000 3.398090 0.000000 
#    z 0.000000 0.000000 2.812110 
# 
# 
# High freq. dielectric constant tensor:
#      x y z
#    x 1.632340 0.000000 0.000000 
#    y 0.000000 1.612280 0.000000 
#    z 0.000000 0.000000 1.593590 
# 
# From -- ./inp_files/22071.got.cif
#   From: 2010.03.12/outbox.cif.g09.slc.cpg/sg51_12_cif.got.tgz:22071.got - 2010.04.16 13:43:02.
