data_PCOD8206563
_publ_section_title
;
Structure prediction by ZEFSAII (Michael W. Deem and Ramdas Pophale) SiO2 
 PCOD8206563
Probable space group: P M M A
;
_chemical_formula_sum "Si O2"
_cell_formula_units_Z 48
_cell_length_a 27.270677
_cell_length_b 9.021602
_cell_length_c 13.023195
_cell_angle_alpha 90.000000
_cell_angle_beta 90.000000
_cell_angle_gamma 90.000000
_cell_volume 3204.034079
_symmetry_space_group_name_H-M "P M M A"
_symmetry_group_IT_number 51
_symmetry_cell_setting 'orthorhombic'
loop_
_space_group_symop_operation_xyz
x,y,z
1/2-x,-y,z
1/2+x,-y,-z
-x,y,-z
-x,-y,-z
1/2+x,y,-z
1/2-x,y,z
x,-y,z
loop_
_atom_site_type_symbol
_atom_site_label
_atom_site_fract_x
_atom_site_fract_y
_atom_site_fract_z
Si Si1 0.606806 0.324746 0.603584
Si Si2 0.304887 0.168753 0.470229
Si Si3 0.558199 0.666901 0.992742
Si Si4 0.893129 0.168575 0.404006
Si Si5 0.061892 0.828926 0.805221
Si Si6 0.553274 0.828549 0.789486
O O1 0.605516 0.500000 0.606373
O O2 0.663477 0.266728 0.610688
O O3 0.582793 0.265194 0.496476
O O4 0.576048 0.262035 0.696944
O O5 0.250000 0.233348 0.482700
O O6 0.333670 0.174243 0.580342
O O7 0.303153 0.000000 0.429612
O O8 0.578147 0.500000 0.980243
O O9 0.580317 0.736974 0.096488
O O10 0.500000 0.669115 0.000000
O O11 0.575016 0.764171 0.895601
O O12 0.908127 0.232408 0.293202
O O13 0.912859 0.000000 0.413722
O O14 0.004744 0.805299 0.783934
O O15 0.073881 0.000000 0.826953
O O16 0.567999 0.000000 0.781324
#
# Coordination Sequence:
#
# PCOD8206563 Si02
#       6
#     8   8   8   8   8   8
#     4  10  19  29  42  64  91 115 143 178 220 261
#     4   8  15  30  49  65  84 111 142 177 214 257
#     4   9  17  28  42  61  85 113 147 185 221 254
#     4   8  16  30  44  63  88 113 146 179 213 258
#     4   9  17  29  45  62  85 118 152 184 214 251
#     4  10  18  29  44  61  85 119 154 183 213 253
#
# _framework density 14.981113000000001
#
# number of rings (size 3 to 8) (size 9 to 14) (size 15 to 20)
#    1.000    2.000    0.000    2.000    0.000    4.333 
#    0.000    3.333    0.000    0.000    0.000    1.167 
#    0.000    6.667    0.000    0.000    0.000    0.000 
#
# Total GULP energy -594711.702308 kJ/mol
# GULP energy per Si atom -12389.827131 kJ/mol
# Density = 1.494702 g / cm^3
# Si number density = 14.981113 Si / 1000 Ang^3
#
#
#
# Elastic Constant Matrix: (Units=GPa)
#
#
# Indices 1 2 3 4 5 6 
#
# 1 19.8021 15.4674 6.0883 0.0000 0.0000 0.0000
# 2 15.4674 93.4952 38.7613 0.0000 0.0000 0.0000
# 3 6.0883 38.7613 77.5238 0.0000 0.0000 0.0000
# 4 0.0000 0.0000 0.0000 19.2090 0.0000 0.0000
# 5 0.0000 0.0000 0.0000 0.0000 0.6173 0.0000
# 6 0.0000 0.0000 0.0000 0.0000 0.0000 14.0372
#
#
#
# Elastic Compliance Matrix: (Units=1/GPa)
#
#
# Indices 1 2 3 4 5 6 
#
# 1 0.058000 -0.009722 0.000306 0.000000 0.000000 0.000000
# 2 -0.009722 0.015122 -0.006797 0.000000 0.000000 0.000000
# 3 0.000306 -0.006797 0.016274 0.000000 0.000000 0.000000
# 4 0.000000 0.000000 0.000000 0.052059 0.000000 0.000000
# 5 0.000000 0.000000 0.000000 0.000000 1.620045 0.000000
# 6 0.000000 0.000000 0.000000 0.000000 0.000000 0.071239
#
#
# Mechanical properties :
#
#
# Convention : Reuss Voigt Hill
#
# Bulk Modulus (GPa) = 17.55350 34.60611 26.07980
# Shear Modulus (GPa) = 2.65371 15.47296 9.06334
#
# Velocity S-wave (km/s) = 1.33237 3.21726 2.46231
# Velocity P-wave (km/s) = 3.75626 6.07873 5.05274
#
# Compressibility (1/GPa) = 0.05696871
#
# Stress axis : x y z
#
# Youngs Moduli (GPa) = 17.24150 66.12793 61.44802
#
# Poissons Ratio (x) = 0.64290 -0.01880
# Poissons Ratio (y) = 0.16762 0.41769
# Poissons Ratio (z) = -0.00528 0.44950
#
# Static dielectric constant tensor:
#      x y z
#    x 2.623220 0.000000 0.000000 
#    y 0.000000 2.954700 0.000000 
#    z 0.000000 0.000000 2.929970 
# 
# 
# High freq. dielectric constant tensor:
#      x y z
#    x 1.528540 0.000000 0.000000 
#    y 0.000000 1.580280 0.000000 
#    z 0.000000 0.000000 1.569090 
# 
# From -- ./inp_files/19268.got.cif
#   From: 2010.03.12/outbox.cif.g09.slc.cpg/sg51_10_cif.got.tgz:19268.got - 2010.04.16 13:43:02.
