data_PCOD8206824
_publ_section_title
;
Structure prediction by ZEFSAII (Michael W. Deem and Ramdas Pophale) SiO2 
 PCOD8206824
Probable space group: P M M A
;
_chemical_formula_sum "Si O2"
_cell_formula_units_Z 56
_cell_length_a 8.949031
_cell_length_b 15.469386
_cell_length_c 30.003336
_cell_angle_alpha 90.000000
_cell_angle_beta 90.000000
_cell_angle_gamma 90.000000
_cell_volume 4153.542268
_symmetry_space_group_name_H-M "P M M A"
_symmetry_group_IT_number 51
_symmetry_cell_setting 'orthorhombic'
loop_
_space_group_symop_operation_xyz
x,y,z
1/2-x,-y,z
1/2+x,-y,-z
-x,y,-z
-x,-y,-z
1/2+x,y,-z
1/2-x,y,z
x,-y,z
loop_
_atom_site_type_symbol
_atom_site_label
_atom_site_fract_x
_atom_site_fract_y
_atom_site_fract_z
Si Si1 0.423774 0.661540 0.105244
Si Si2 0.418446 0.603125 0.631993
Si Si3 0.426165 0.170735 0.047695
Si Si4 0.425905 0.599399 0.809216
Si Si5 0.581861 0.397168 0.719587
Si Si6 0.925849 0.500000 0.952512
Si Si7 0.429340 0.000000 0.951076
Si Si8 0.581625 0.396935 0.543969
O O1 0.250000 0.650063 0.116505
O O2 0.457784 0.750912 0.080827
O O3 0.514680 0.659282 0.151096
O O4 0.480614 0.584367 0.073806
O O5 0.250000 0.638186 0.632208
O O6 0.421044 0.500000 0.632191
O O7 0.501475 0.640094 0.675612
O O8 0.499334 0.638939 0.587848
O O9 0.250000 0.154312 0.040699
O O10 0.505227 0.087428 0.071077
O O11 0.500000 0.191908 0.000000
O O12 0.250000 0.608171 0.805326
O O13 0.474531 0.500000 0.817851
O O14 0.495746 0.635025 0.763430
O O15 0.750000 0.361179 0.720905
O O16 0.580245 0.500000 0.717728
O O17 0.750000 0.500000 0.959503
O O18 0.000000 0.500000 0.000000
O O19 0.250000 0.000000 0.951058
O O20 0.500000 0.000000 0.000000
O O21 0.500000 0.360857 0.500000
O O22 0.750000 0.361728 0.544100
O O23 0.579258 0.500000 0.543894
#
# Coordination Sequence:
#
# PCOD8206824 Si02
#       8
#     8   8   8   8   8   4   4   8
#     4  10  20  32  45  59  79 104 127 152 182 217
#     4   9  15  22  31  43  58  74  97 130 165 204
#     4  10  19  31  47  66  84 103 125 151 181 216
#     4  10  19  29  41  56  72  93 121 152 182 213
#     4   9  16  25  37  49  62  82 107 138 174 211
#     4  10  20  32  44  58  78 102 128 152 177 210
#     4  10  18  30  48  66  84 104 122 148 180 214
#     4   9  15  21  28  38  53  73  96 122 158 204
#
# _framework density 13.482468000000001
#
# number of rings (size 3 to 8) (size 9 to 14) (size 15 to 20)
#    0.000    2.429    0.714    4.071    0.000    7.429 
#    0.000    0.000    0.000    0.000    0.000    0.000 
#    0.000    0.000    0.000    0.000    0.000    0.000 
#
# Total GULP energy -694324.957481 kJ/mol
# GULP energy per Si atom -12398.659955 kJ/mol
# Density = 1.345178 g / cm^3
# Si number density = 13.482468 Si / 1000 Ang^3
#
#
#
# Elastic Constant Matrix: (Units=GPa)
#
#
# Indices 1 2 3 4 5 6 
#
# 1 108.1978 29.7250 63.1385 0.0000 0.0000 0.0000
# 2 29.7250 50.8652 29.0234 0.0000 0.0000 0.0000
# 3 63.1385 29.0234 124.2331 0.0000 0.0000 0.0000
# 4 0.0000 0.0000 0.0000 3.6477 0.0000 0.0000
# 5 0.0000 0.0000 0.0000 0.0000 29.9853 0.0000
# 6 0.0000 0.0000 0.0000 0.0000 0.0000 11.5775
#
#
#
# Elastic Compliance Matrix: (Units=1/GPa)
#
#
# Indices 1 2 3 4 5 6 
#
# 1 0.014080 -0.004783 -0.006038 0.000000 0.000000 0.000000
# 2 -0.004783 0.024308 -0.003248 0.000000 0.000000 0.000000
# 3 -0.006038 -0.003248 0.011877 0.000000 0.000000 0.000000
# 4 0.000000 0.000000 0.000000 0.274146 0.000000 0.000000
# 5 0.000000 0.000000 0.000000 0.000000 0.033350 0.000000
# 6 0.000000 0.000000 0.000000 0.000000 0.000000 0.086375
#
#
# Mechanical properties :
#
#
# Convention : Reuss Voigt Hill
#
# Bulk Modulus (GPa) = 45.19450 58.56331 51.87891
# Shear Modulus (GPa) = 10.42428 19.80270 15.11349
#
# Velocity S-wave (km/s) = 2.78362 3.83662 3.35173
# Velocity P-wave (km/s) = 6.62760 7.94714 7.31718
#
# Compressibility (1/GPa) = 0.02212658
#
# Stress axis : x y z
#
# Youngs Moduli (GPa) = 71.02266 41.13843 84.19526
#
# Poissons Ratio (x) = 0.19675 0.50841
# Poissons Ratio (y) = 0.33968 0.27348
# Poissons Ratio (z) = 0.42887 0.13363
#
# Static dielectric constant tensor:
#      x y z
#    x 2.852610 0.000000 0.000000 
#    y 0.000000 2.431780 0.000000 
#    z 0.000000 0.000000 2.738120 
# 
# 
# High freq. dielectric constant tensor:
#      x y z
#    x 1.533610 0.000000 0.000000 
#    y 0.000000 1.442320 0.000000 
#    z 0.000000 0.000000 1.513430 
# 
# From -- ./inp_files/37514.got.cif
#   From: 2010.03.12/outbox.cif.g09.slc.cpg/sg51_19_cif.got.tgz:37514.got - 2010.04.16 13:43:02.
