data_PCOD8206884
_publ_section_title
;
Structure prediction by ZEFSAII (Michael W. Deem and Ramdas Pophale) SiO2 
 PCOD8206884
Probable space group: P M M A
;
_chemical_formula_sum "Si O2"
_cell_formula_units_Z 48
_cell_length_a 25.992980
_cell_length_b 8.874677
_cell_length_c 11.856284
_cell_angle_alpha 90.000000
_cell_angle_beta 90.000000
_cell_angle_gamma 90.000000
_cell_volume 2734.999315
_symmetry_space_group_name_H-M "P M M A"
_symmetry_group_IT_number 51
_symmetry_cell_setting 'orthorhombic'
loop_
_space_group_symop_operation_xyz
x,y,z
1/2-x,-y,z
1/2+x,-y,-z
-x,y,-z
-x,-y,-z
1/2+x,y,-z
1/2-x,y,z
x,-y,z
loop_
_atom_site_type_symbol
_atom_site_label
_atom_site_fract_x
_atom_site_fract_y
_atom_site_fract_z
Si Si1 0.877142 0.177125 0.989416
Si Si2 0.036332 0.832227 0.852753
Si Si3 0.309898 0.324575 0.834933
Si Si4 0.942540 0.678312 0.532740
Si Si5 0.616227 0.170076 0.338970
Si Si6 0.430655 0.822593 0.230390
O O1 0.928206 0.244895 0.051655
O O2 0.828170 0.260250 0.043422
O O3 0.871858 0.000000 0.017890
O O4 0.882382 0.205034 0.854800
O O5 0.064855 0.830067 0.733981
O O6 0.981106 0.754913 0.833202
O O7 0.024975 0.000000 0.895529
O O8 0.250000 0.290865 0.823942
O O9 0.322783 0.500000 0.830676
O O10 0.337234 0.245690 0.729167
O O11 0.942429 0.500000 0.529625
O O12 0.898013 0.737842 0.450462
O O13 0.923603 0.733394 0.654640
O O14 0.000000 0.738401 0.500000
O O15 0.632557 0.000000 0.371136
O O16 0.437264 0.000000 0.257193
#
# Coordination Sequence:
#
# PCOD8206884 Si02
#       6
#     8   8   8   8   8   8
#     4   9  18  31  50  77 103 133 173 217 258 300
#     4   8  14  26  46  71 100 132 167 207 249 295
#     4  10  21  37  57  79 105 135 165 209 271 325
#     4  11  22  33  47  72 110 148 180 214 256 310
#     4  10  19  33  55  78 101 135 179 222 258 299
#     4  10  18  30  49  72 104 142 180 213 249 301
#
# _framework density 17.550279
#
# number of rings (size 3 to 8) (size 9 to 14) (size 15 to 20)
#    0.000    2.333    1.667    3.000    0.000    4.667 
#    0.000    0.000    0.000    4.000    0.000    4.667 
#    0.000    0.000    0.000    0.000    0.000    0.000 
#
# Total GULP energy -594879.105619 kJ/mol
# GULP energy per Si atom -12393.314700 kJ/mol
# Density = 1.751033 g / cm^3
# Si number density = 17.550279 Si / 1000 Ang^3
#
#
#
# Elastic Constant Matrix: (Units=GPa)
#
#
# Indices 1 2 3 4 5 6 
#
# 1 81.6671 45.7673 46.0840 0.0000 0.0000 0.0000
# 2 45.7673 80.4379 47.4705 0.0000 0.0000 0.0000
# 3 46.0840 47.4705 113.6147 0.0000 0.0000 0.0000
# 4 0.0000 0.0000 0.0000 22.4362 0.0000 0.0000
# 5 0.0000 0.0000 0.0000 0.0000 13.3090 0.0000
# 6 0.0000 0.0000 0.0000 0.0000 0.0000 22.3774
#
#
#
# Elastic Compliance Matrix: (Units=1/GPa)
#
#
# Indices 1 2 3 4 5 6 
#
# 1 0.019464 -0.008515 -0.004337 0.000000 0.000000 0.000000
# 2 -0.008515 0.020226 -0.004997 0.000000 0.000000 0.000000
# 3 -0.004337 -0.004997 0.012649 0.000000 0.000000 0.000000
# 4 0.000000 0.000000 0.000000 0.044571 0.000000 0.000000
# 5 0.000000 0.000000 0.000000 0.000000 0.075137 0.000000
# 6 0.000000 0.000000 0.000000 0.000000 0.000000 0.044688
#
#
# Mechanical properties :
#
#
# Convention : Reuss Voigt Hill
#
# Bulk Modulus (GPa) = 60.09496 61.59594 60.84545
# Shear Modulus (GPa) = 19.38137 20.71772 20.04954
#
# Velocity S-wave (km/s) = 3.32676 3.43954 3.38362
# Velocity P-wave (km/s) = 7.00517 7.13771 7.07175
#
# Compressibility (1/GPa) = 0.01664033
#
# Stress axis : x y z
#
# Youngs Moduli (GPa) = 51.37615 49.44192 79.05937
#
# Poissons Ratio (x) = 0.42100 0.34290
# Poissons Ratio (y) = 0.43747 0.39505
# Poissons Ratio (z) = 0.22283 0.24705
#
# Static dielectric constant tensor:
#      x y z
#    x 3.059710 0.000000 0.000000 
#    y 0.000000 3.134680 0.000000 
#    z 0.000000 0.000000 3.294870 
# 
# 
# High freq. dielectric constant tensor:
#      x y z
#    x 1.648190 0.000000 0.000000 
#    y 0.000000 1.663240 0.000000 
#    z 0.000000 0.000000 1.681280 
# 
# From -- ./inp_files/19016.got.cif
#   From: 2010.03.12/outbox.cif.g09.slc.cpg/sg51_10_cif.got.tgz:19016.got - 2010.04.16 13:43:02.
