data_PCOD8206617
_publ_section_title
;
Structure prediction by ZEFSAII (Michael W. Deem and Ramdas Pophale) SiO2 
 PCOD8206617
Probable space group: P M M A
;
_chemical_formula_sum "Si O2"
_cell_formula_units_Z 64
_cell_length_a 9.239204
_cell_length_b 21.749284
_cell_length_c 18.342916
_cell_angle_alpha 90.000000
_cell_angle_beta 90.000000
_cell_angle_gamma 90.000000
_cell_volume 3685.936914
_symmetry_space_group_name_H-M "P M M A"
_symmetry_group_IT_number 51
_symmetry_cell_setting 'orthorhombic'
loop_
_space_group_symop_operation_xyz
x,y,z
1/2-x,-y,z
1/2+x,-y,-z
-x,y,-z
-x,-y,-z
1/2+x,y,-z
1/2-x,y,z
x,-y,z
loop_
_atom_site_type_symbol
_atom_site_label
_atom_site_fract_x
_atom_site_fract_y
_atom_site_fract_z
Si Si1 0.583777 0.430774 0.865746
Si Si2 0.580792 0.069318 0.573075
Si Si3 0.415119 0.740294 0.201764
Si Si4 0.915229 0.178912 0.673230
Si Si5 0.908040 0.752865 0.435288
Si Si6 0.410839 0.391425 0.568072
Si Si7 0.423061 0.683911 0.926134
Si Si8 0.586398 0.380898 0.711149
O O1 0.750000 0.413273 0.885284
O O2 0.547534 0.500000 0.890909
O O3 0.476094 0.384919 0.907267
O O4 0.561448 0.426605 0.778912
O O5 0.500000 0.091936 0.500000
O O6 0.750000 0.072694 0.556544
O O7 0.538707 0.111546 0.643422
O O8 0.532804 0.000000 0.593363
O O9 0.250000 0.731733 0.173310
O O10 0.434085 0.808102 0.239653
O O11 0.526163 0.732739 0.135193
O O12 0.449157 0.688129 0.262157
O O13 0.750000 0.191981 0.650705
O O14 0.014777 0.231368 0.639500
O O15 0.750000 0.783221 0.437187
O O16 0.897841 0.680667 0.445123
O O17 0.000000 0.783642 0.500000
O O18 0.500000 0.420447 0.500000
O O19 0.250000 0.420725 0.569487
O O20 0.485594 0.404088 0.645585
O O21 0.250000 0.684991 0.933178
O O22 0.500000 0.705603 0.000000
O O23 0.750000 0.384226 0.681732
#
# Coordination Sequence:
#
# PCOD8206617 Si02
#       8
#     8   8   8   8   8   8   8   8
#     4   9  19  36  56  77 100 128 161 194 231 277
#     4   9  18  31  45  63  91 131 177 218 254 290
#     4   9  18  32  49  70  96 125 157 192 238 291
#     4  10  18  29  46  65  90 124 161 204 247 288
#     4  10  19  27  37  57  86 117 152 192 237 284
#     4  10  19  28  40  59  85 116 149 189 235 283
#     4  11  22  36  55  77 104 133 159 188 228 278
#     4   9  16  29  48  67  91 120 149 190 238 286
#
# _framework density 17.363292999999999
#
# number of rings (size 3 to 8) (size 9 to 14) (size 15 to 20)
#    0.000    2.375    1.250    3.000    0.000    5.500 
#    0.000    0.000    0.000    0.375    0.000    0.000 
#    0.000    0.500    0.000    0.875    0.000    1.250 
#
# Total GULP energy -793153.857134 kJ/mol
# GULP energy per Si atom -12393.029018 kJ/mol
# Density = 1.732377 g / cm^3
# Si number density = 17.363293 Si / 1000 Ang^3
#
#
#
# Elastic Constant Matrix: (Units=GPa)
#
#
# Indices 1 2 3 4 5 6 
#
# 1 105.9499 22.2818 53.2799 0.0000 0.0000 0.0000
# 2 22.2818 61.5010 28.7647 0.0000 0.0000 0.0000
# 3 53.2799 28.7647 90.9792 0.0000 0.0000 0.0000
# 4 0.0000 0.0000 0.0000 16.1043 0.0000 0.0000
# 5 0.0000 0.0000 0.0000 0.0000 31.3733 0.0000
# 6 0.0000 0.0000 0.0000 0.0000 0.0000 4.9422
#
#
#
# Elastic Compliance Matrix: (Units=1/GPa)
#
#
# Indices 1 2 3 4 5 6 
#
# 1 0.013480 -0.001398 -0.007452 0.000000 0.000000 0.000000
# 2 -0.001398 0.019227 -0.005260 0.000000 0.000000 0.000000
# 3 -0.007452 -0.005260 0.017019 0.000000 0.000000 0.000000
# 4 0.000000 0.000000 0.000000 0.062095 0.000000 0.000000
# 5 0.000000 0.000000 0.000000 0.000000 0.031874 0.000000
# 6 0.000000 0.000000 0.000000 0.000000 0.000000 0.202337
#
#
# Mechanical properties :
#
#
# Convention : Reuss Voigt Hill
#
# Bulk Modulus (GPa) = 46.50184 51.89808 49.19996
# Shear Modulus (GPa) = 13.10887 20.75755 16.93321
#
# Velocity S-wave (km/s) = 2.75066 3.46133 3.12626
# Velocity P-wave (km/s) = 6.07684 6.77708 6.43649
#
# Compressibility (1/GPa) = 0.02150453
#
# Stress axis : x y z
#
# Youngs Moduli (GPa) = 74.18383 52.01114 58.75888
#
# Poissons Ratio (x) = 0.07273 0.43788
# Poissons Ratio (y) = 0.10374 0.30907
# Poissons Ratio (z) = 0.55283 0.27357
#
# Static dielectric constant tensor:
#      x y z
#    x 3.363600 0.000000 0.000000 
#    y 0.000000 3.066900 0.000000 
#    z 0.000000 0.000000 3.161780 
# 
# 
# High freq. dielectric constant tensor:
#      x y z
#    x 1.675740 0.000000 0.000000 
#    y 0.000000 1.633100 0.000000 
#    z 0.000000 0.000000 1.655280 
# 
# From -- ./inp_files/28635.got.cif
#   From: 2010.03.12/outbox.cif.g09.slc.cpg/sg51_15_cif.got.tgz:28635.got - 2010.04.16 13:43:02.
