data_PCOD8206115
_publ_section_title
;
Structure prediction by ZEFSAII (Michael W. Deem and Ramdas Pophale) SiO2 
 PCOD8206115
Probable space group: P M M A
;
_chemical_formula_sum "Si O2"
_cell_formula_units_Z 56
_cell_length_a 20.451205
_cell_length_b 9.094009
_cell_length_c 17.773632
_cell_angle_alpha 90.000000
_cell_angle_beta 90.000000
_cell_angle_gamma 90.000000
_cell_volume 3305.601262
_symmetry_space_group_name_H-M "P M M A"
_symmetry_group_IT_number 51
_symmetry_cell_setting 'orthorhombic'
loop_
_space_group_symop_operation_xyz
x,y,z
1/2-x,-y,z
1/2+x,-y,-z
-x,y,-z
-x,-y,-z
1/2+x,y,-z
1/2-x,y,z
x,-y,z
loop_
_atom_site_type_symbol
_atom_site_label
_atom_site_fract_x
_atom_site_fract_y
_atom_site_fract_z
Si Si1 0.566528 0.827569 0.966405
Si Si2 0.077194 0.835152 0.486583
Si Si3 0.405954 0.337268 0.627740
Si Si4 0.895104 0.325831 0.207021
Si Si5 0.467120 0.826783 0.197691
Si Si6 0.175640 0.828520 0.921214
Si Si7 0.440335 0.334821 0.343081
O O1 0.573770 0.792206 0.877952
O O2 0.562562 0.000000 0.979539
O O3 0.500000 0.755736 0.000000
O O4 0.629647 0.767942 0.011391
O O5 0.113835 0.771380 0.560227
O O6 0.096562 0.741690 0.412973
O O7 0.000000 0.830320 0.500000
O O8 0.102188 0.000000 0.474078
O O9 0.383125 0.500000 0.603762
O O10 0.373233 0.290165 0.706878
O O11 0.483163 0.336414 0.640973
O O12 0.905960 0.500000 0.196987
O O13 0.838267 0.265345 0.153680
O O14 0.961716 0.242778 0.186512
O O15 0.427154 0.755636 0.266688
O O16 0.475340 0.000000 0.212258
O O17 0.250000 0.800999 0.946184
O O18 0.162788 0.000000 0.903800
O O19 0.413149 0.500000 0.333866
#
# Coordination Sequence:
#
# PCOD8206115 Si02
#       7
#     8   8   8   8   8   8   8
#     4   9  16  29  48  69  91 117 151 194 240 280
#     4   9  15  22  34  54  79 111 150 184 218 263
#     4   8  15  25  36  52  78 114 147 178 218 264
#     4  10  19  30  44  64  91 119 151 188 231 277
#     4  10  17  27  45  64  87 117 154 193 230 276
#     4  10  20  34  51  69  90 120 157 194 234 281
#     4   9  16  25  36  54  85 117 147 183 227 272
#
# _framework density 16.940940999999999
#
# number of rings (size 3 to 8) (size 9 to 14) (size 15 to 20)
#    0.000    2.714    1.429    2.571    0.000    6.000 
#    0.000    2.143    0.000    0.000    0.000    0.000 
#    0.000    1.143    0.000    6.000    0.000    4.714 
#
# Total GULP energy -694153.673532 kJ/mol
# GULP energy per Si atom -12395.601313 kJ/mol
# Density = 1.690238 g / cm^3
# Si number density = 16.940941 Si / 1000 Ang^3
#
#
#
# Elastic Constant Matrix: (Units=GPa)
#
#
# Indices 1 2 3 4 5 6 
#
# 1 48.6616 25.7046 47.5405 0.0000 0.0000 0.0000
# 2 25.7046 104.3136 67.7997 0.0000 0.0000 0.0000
# 3 47.5405 67.7997 150.7343 0.0000 0.0000 0.0000
# 4 0.0000 0.0000 0.0000 24.6843 0.0000 0.0000
# 5 0.0000 0.0000 0.0000 0.0000 12.4322 0.0000
# 6 0.0000 0.0000 0.0000 0.0000 0.0000 8.2720
#
#
#
# Elastic Compliance Matrix: (Units=1/GPa)
#
#
# Indices 1 2 3 4 5 6 
#
# 1 0.029927 -0.001752 -0.008651 0.000000 0.000000 0.000000
# 2 -0.001752 0.013649 -0.005587 0.000000 0.000000 0.000000
# 3 -0.008651 -0.005587 0.011876 0.000000 0.000000 0.000000
# 4 0.000000 0.000000 0.000000 0.040512 0.000000 0.000000
# 5 0.000000 0.000000 0.000000 0.000000 0.080437 0.000000
# 6 0.000000 0.000000 0.000000 0.000000 0.000000 0.120890
#
#
# Mechanical properties :
#
#
# Convention : Reuss Voigt Hill
#
# Bulk Modulus (GPa) = 42.60246 65.08880 53.84563
# Shear Modulus (GPa) = 14.83267 19.92201 17.37734
#
# Velocity S-wave (km/s) = 2.96218 3.43296 3.20622
# Velocity P-wave (km/s) = 6.07467 7.36329 6.74980
#
# Compressibility (1/GPa) = 0.02347282
#
# Stress axis : x y z
#
# Youngs Moduli (GPa) = 33.41474 73.26301 84.20655
#
# Poissons Ratio (x) = 0.12835 0.72845
# Poissons Ratio (y) = 0.05854 0.47046
# Poissons Ratio (z) = 0.28906 0.40932
#
# Static dielectric constant tensor:
#      x y z
#    x 2.616370 0.000000 0.000000 
#    y 0.000000 3.211600 0.000000 
#    z 0.000000 0.000000 3.489340 
# 
# 
# High freq. dielectric constant tensor:
#      x y z
#    x 1.575340 0.000000 0.000000 
#    y 0.000000 1.652460 0.000000 
#    z 0.000000 0.000000 1.670970 
# 
# From -- ./inp_files/30413.got.cif
#   From: 2010.03.12/outbox.cif.g09.slc.cpg/sg51_16_cif.got.tgz:30413.got - 2010.04.16 13:43:02.
