data_PCOD8206175
_publ_section_title
;
Structure prediction by ZEFSAII (Michael W. Deem and Ramdas Pophale) SiO2 
 PCOD8206175
Probable space group: P M M A
;
_chemical_formula_sum "Si O2"
_cell_formula_units_Z 64
_cell_length_a 16.713248
_cell_length_b 24.058835
_cell_length_c 8.041986
_cell_angle_alpha 90.000000
_cell_angle_beta 90.000000
_cell_angle_gamma 90.000000
_cell_volume 3233.692832
_symmetry_space_group_name_H-M "P M M A"
_symmetry_group_IT_number 51
_symmetry_cell_setting 'orthorhombic'
loop_
_space_group_symop_operation_xyz
x,y,z
1/2-x,-y,z
1/2+x,-y,-z
-x,y,-z
-x,-y,-z
1/2+x,y,-z
1/2-x,y,z
x,-y,z
loop_
_atom_site_type_symbol
_atom_site_label
_atom_site_fract_x
_atom_site_fract_y
_atom_site_fract_z
Si Si1 0.573272 0.153025 0.887191
Si Si2 0.981203 0.937335 0.308241
Si Si3 0.155521 0.630187 0.161745
Si Si4 0.654503 0.436952 0.522420
Si Si5 0.342134 0.252894 0.669176
Si Si6 0.342041 0.136336 0.795655
Si Si7 0.341931 0.250944 0.283977
Si Si8 0.845604 0.368430 0.206275
O O1 0.547555 0.098182 0.788256
O O2 0.599768 0.200765 0.761260
O O3 0.500000 0.174615 0.000000
O O4 0.648006 0.137090 0.004978
O O5 0.892049 0.913856 0.282584
O O6 0.000000 0.935605 0.500000
O O7 0.984445 0.000000 0.238767
O O8 0.250000 0.624073 0.172849
O O9 0.119029 0.592961 0.311533
O O10 0.131632 0.694542 0.182990
O O11 0.125892 0.610803 0.977374
O O12 0.750000 0.434078 0.523720
O O13 0.623506 0.500000 0.523651
O O14 0.621553 0.408278 0.353055
O O15 0.250000 0.248102 0.719644
O O16 0.380011 0.194163 0.724340
O O17 0.353994 0.264686 0.475998
O O18 0.379470 0.305846 0.765337
O O19 0.250000 0.127499 0.745376
O O20 0.250000 0.234817 0.245384
O O21 0.750000 0.367137 0.215358
#
# Coordination Sequence:
#
# PCOD8206175 Si02
#       8
#     8   8   8   8   8   8   8   8
#     4  10  21  34  52  78 107 137 171 215 269 329
#     4  10  22  41  60  77 106 149 186 219 271 332
#     4   9  16  25  40  62  89 126 169 215 265 314
#     4   9  16  25  35  53  87 129 171 209 251 313
#     4   9  16  27  46  72 100 128 164 213 265 313
#     4  10  20  34  55  83 109 138 181 229 274 325
#     4  10  17  29  50  73 100 134 173 217 267 319
#     4   9  15  24  37  56  86 124 164 206 259 314
#
# _framework density 19.791613999999999
#
# number of rings (size 3 to 8) (size 9 to 14) (size 15 to 20)
#    0.000    2.500    1.250    1.875    0.000    5.000 
#    0.000    3.125    0.000    2.625    0.000    0.000 
#    0.000    0.500    0.000   11.375    0.000   19.000 
#
# Total GULP energy -793324.732106 kJ/mol
# GULP energy per Si atom -12395.698939 kJ/mol
# Density = 1.974657 g / cm^3
# Si number density = 19.791614 Si / 1000 Ang^3
#
#
#
# Elastic Constant Matrix: (Units=GPa)
#
#
# Indices 1 2 3 4 5 6 
#
# 1 30.8273 30.0351 20.0908 0.0000 0.0000 0.0000
# 2 30.0351 149.3399 79.8734 0.0000 0.0000 0.0000
# 3 20.0908 79.8734 129.0679 0.0000 0.0000 0.0000
# 4 0.0000 0.0000 0.0000 26.3895 0.0000 0.0000
# 5 0.0000 0.0000 0.0000 0.0000 16.4286 0.0000
# 6 0.0000 0.0000 0.0000 0.0000 0.0000 31.7964
#
#
#
# Elastic Compliance Matrix: (Units=1/GPa)
#
#
# Indices 1 2 3 4 5 6 
#
# 1 0.040652 -0.007162 -0.001896 0.000000 0.000000 0.000000
# 2 -0.007162 0.011271 -0.005860 0.000000 0.000000 0.000000
# 3 -0.001896 -0.005860 0.011669 0.000000 0.000000 0.000000
# 4 0.000000 0.000000 0.000000 0.037894 0.000000 0.000000
# 5 0.000000 0.000000 0.000000 0.000000 0.060870 0.000000
# 6 0.000000 0.000000 0.000000 0.000000 0.000000 0.031450
#
#
# Mechanical properties :
#
#
# Convention : Reuss Voigt Hill
#
# Bulk Modulus (GPa) = 29.62363 63.24820 46.43592
# Shear Modulus (GPa) = 21.28621 26.87195 24.07908
#
# Velocity S-wave (km/s) = 3.28307 3.68876 3.49181
# Velocity P-wave (km/s) = 5.41956 7.08301 6.30637
#
# Compressibility (1/GPa) = 0.03375683
#
# Stress axis : x y z
#
# Youngs Moduli (GPa) = 24.59887 88.72525 85.69408
#
# Poissons Ratio (x) = 0.63545 0.16245
# Poissons Ratio (y) = 0.17618 0.50217
# Poissons Ratio (z) = 0.04663 0.51993
#
# Static dielectric constant tensor:
#      x y z
#    x 3.123570 0.000000 0.000000 
#    y 0.000000 3.715230 0.000000 
#    z 0.000000 0.000000 3.849850 
# 
# 
# High freq. dielectric constant tensor:
#      x y z
#    x 1.717480 0.000000 0.000000 
#    y 0.000000 1.768530 0.000000 
#    z 0.000000 0.000000 1.788870 
# 
# From -- ./inp_files/10016.got.cif
#   From: 2010.03.12/outbox.cif.g09.slc.cpg/sg51_6_cif.got.tgz:10016.got - 2010.04.16 13:43:02.
