data_PCOD8206907
_publ_section_title
;
Structure prediction by ZEFSAII (Michael W. Deem and Ramdas Pophale) SiO2 
 PCOD8206907
Probable space group: P M M A
;
_chemical_formula_sum "Si O2"
_cell_formula_units_Z 56
_cell_length_a 8.864283
_cell_length_b 15.331346
_cell_length_c 30.003070
_cell_angle_alpha 90.000000
_cell_angle_beta 90.000000
_cell_angle_gamma 90.000000
_cell_volume 4077.458909
_symmetry_space_group_name_H-M "P M M A"
_symmetry_group_IT_number 51
_symmetry_cell_setting 'orthorhombic'
loop_
_space_group_symop_operation_xyz
x,y,z
1/2-x,-y,z
1/2+x,-y,-z
-x,y,-z
-x,-y,-z
1/2+x,y,-z
1/2-x,y,z
x,-y,z
loop_
_atom_site_type_symbol
_atom_site_label
_atom_site_fract_x
_atom_site_fract_y
_atom_site_fract_z
Si Si1 0.424539 0.653706 0.101385
Si Si2 0.419936 0.604054 0.632914
Si Si3 0.425764 0.172406 0.047525
Si Si4 0.425210 0.602560 0.811208
Si Si5 0.580695 0.396337 0.721103
Si Si6 0.072045 0.500000 0.951897
Si Si7 0.429938 0.000000 0.950953
Si Si8 0.580158 0.396008 0.544274
O O1 0.250000 0.625821 0.099111
O O2 0.451134 0.748562 0.081119
O O3 0.480062 0.655395 0.152239
O O4 0.523651 0.585711 0.074177
O O5 0.250000 0.639278 0.634728
O O6 0.422892 0.500000 0.633043
O O7 0.508016 0.641251 0.675830
O O8 0.496518 0.640376 0.588019
O O9 0.250000 0.152648 0.039475
O O10 0.505923 0.088739 0.071122
O O11 0.500000 0.195508 0.000000
O O12 0.250000 0.625227 0.815879
O O13 0.455003 0.500000 0.818006
O O14 0.481793 0.634652 0.763023
O O15 0.750000 0.359618 0.725784
O O16 0.582369 0.500000 0.718841
O O17 0.250000 0.500000 0.956986
O O18 0.000000 0.500000 0.000000
O O19 0.250000 0.000000 0.950639
O O20 0.500000 0.000000 0.000000
O O21 0.500000 0.359352 0.500000
O O22 0.750000 0.360717 0.544880
O O23 0.576694 0.500000 0.544170
#
# Coordination Sequence:
#
# PCOD8206907 Si02
#       8
#     8   8   8   8   8   4   4   8
#     4  11  22  34  48  64  83 107 133 160 190 225
#     4   9  15  22  31  43  58  75  99 132 168 209
#     4  10  20  33  49  68  87 107 129 156 186 222
#     4  10  19  30  43  58  75  98 125 155 189 222
#     4   9  16  25  37  50  64  84 110 143 178 214
#     4  12  24  36  48  62  82 108 134 162 189 220
#     4  10  18  30  50  70  88 108 126 152 184 220
#     4   9  15  21  28  38  53  73  96 123 160 207
#
# _framework density 13.734045
#
# number of rings (size 3 to 8) (size 9 to 14) (size 15 to 20)
#    0.000    2.143    0.714    5.143    0.000    9.143 
#    0.000    0.000    0.000    0.000    0.000    0.000 
#    0.000    0.000    0.000    0.000    0.000    0.000 
#
# Total GULP energy -694362.544615 kJ/mol
# GULP energy per Si atom -12399.331154 kJ/mol
# Density = 1.370279 g / cm^3
# Si number density = 13.734045 Si / 1000 Ang^3
#
#
#
# Elastic Constant Matrix: (Units=GPa)
#
#
# Indices 1 2 3 4 5 6 
#
# 1 123.3147 32.2822 51.2919 0.0000 0.0000 0.0000
# 2 32.2822 42.6674 24.6344 0.0000 0.0000 0.0000
# 3 51.2919 24.6344 110.8367 0.0000 0.0000 0.0000
# 4 0.0000 0.0000 0.0000 -6.9665 0.0000 0.0000
# 5 0.0000 0.0000 0.0000 0.0000 29.2851 0.0000
# 6 0.0000 0.0000 0.0000 0.0000 0.0000 11.0340
#
#
#
# Elastic Compliance Matrix: (Units=1/GPa)
#
#
# Indices 1 2 3 4 5 6 
#
# 1 0.011383 -0.006391 -0.003847 0.000000 0.000000 0.000000
# 2 -0.006391 0.030476 -0.003816 0.000000 0.000000 0.000000
# 3 -0.003847 -0.003816 0.011651 0.000000 0.000000 0.000000
# 4 0.000000 0.000000 0.000000 -0.143544 0.000000 0.000000
# 5 0.000000 0.000000 0.000000 0.000000 0.034147 0.000000
# 6 0.000000 0.000000 0.000000 0.000000 0.000000 0.090629
#
#
# Mechanical properties :
#
#
# Convention : Reuss Voigt Hill
#
# Bulk Modulus (GPa) = 39.36845 54.80397 47.08621
# Shear Modulus (GPa) = 70.11078 17.91121 44.01100
#
# Velocity S-wave (km/s) = 7.15260 3.61521 5.66699
# Velocity P-wave (km/s) = 9.84581 7.57738 8.78512
#
# Compressibility (1/GPa) = 0.02540105
#
# Stress axis : x y z
#
# Youngs Moduli (GPa) = 87.85374 32.81312 85.83161
#
# Poissons Ratio (x) = 0.20971 0.33020
# Poissons Ratio (y) = 0.56146 0.32753
# Poissons Ratio (z) = 0.33798 0.12521
#
# Static dielectric constant tensor:
#      x y z
#    x 2.960480 0.000000 0.000000 
#    y 0.000000 2.410560 0.000000 
#    z 0.000000 0.000000 3.253570 
# 
# 
# High freq. dielectric constant tensor:
#      x y z
#    x 1.549590 0.000000 0.000000 
#    y 0.000000 1.449340 0.000000 
#    z 0.000000 0.000000 1.524440 
# 
# From -- ./inp_files/37513.got.cif
#   From: 2010.03.12/outbox.cif.g09.slc.cpg/sg51_19_cif.got.tgz:37513.got - 2010.04.16 13:43:02.
