data_PCOD8206910
_publ_section_title
;
Structure prediction by ZEFSAII (Michael W. Deem and Ramdas Pophale) SiO2 
 PCOD8206910
Probable space group: P M M A
;
_chemical_formula_sum "Si O2"
_cell_formula_units_Z 44
_cell_length_a 10.266093
_cell_length_b 13.021586
_cell_length_c 20.587651
_cell_angle_alpha 90.000000
_cell_angle_beta 90.000000
_cell_angle_gamma 90.000000
_cell_volume 2752.173921
_symmetry_space_group_name_H-M "P M M A"
_symmetry_group_IT_number 51
_symmetry_cell_setting 'orthorhombic'
loop_
_space_group_symop_operation_xyz
x,y,z
1/2-x,-y,z
1/2+x,-y,-z
-x,y,-z
-x,-y,-z
1/2+x,y,-z
1/2-x,y,z
x,-y,z
loop_
_atom_site_type_symbol
_atom_site_label
_atom_site_fract_x
_atom_site_fract_y
_atom_site_fract_z
Si Si1 0.598452 0.113701 0.199494
Si Si2 0.596990 0.826149 0.340382
Si Si3 0.012508 0.315206 0.850700
Si Si4 0.750000 0.619949 0.061728
Si Si5 0.596199 0.614374 0.288715
Si Si6 0.250000 0.621020 0.082871
Si Si7 0.907494 0.000000 0.438188
O O1 0.750000 0.144322 0.195583
O O2 0.550677 0.120809 0.273843
O O3 0.517672 0.192098 0.155796
O O4 0.572752 0.000000 0.172575
O O5 0.750000 0.829722 0.345002
O O6 0.550837 0.705071 0.339157
O O7 0.547213 0.896365 0.399803
O O8 0.873349 0.342387 0.877466
O O9 0.120800 0.348815 0.901220
O O10 0.031054 0.369771 0.781260
O O11 0.750000 0.500000 0.053531
O O12 0.750000 0.669507 0.989560
O O13 0.750000 0.623256 0.277688
O O14 0.558753 0.500000 0.315247
O O15 0.250000 0.500000 0.078513
O O16 0.000000 0.000000 0.500000
O O17 0.750000 0.000000 0.452873
#
# Coordination Sequence:
#
# PCOD8206910 Si02
#       7
#     8   8   8   4   8   4   4
#     4   9  15  28  53  77  95 118 158 207 247 282
#     4   8  14  25  44  71  97 122 155 195 234 275
#     4  11  19  32  49  72  94 124 161 201 246 298
#     4  11  20  34  51  67  89 123 166 209 242 286
#     4   9  15  25  47  74  95 115 153 209 249 277
#     4  11  24  34  45  65  99 133 158 193 246 306
#     4  10  18  30  50  72 100 130 157 191 224 270
#
# _framework density 15.987360000000001
#
# number of rings (size 3 to 8) (size 9 to 14) (size 15 to 20)
#    0.000    2.364    2.727    3.273    0.000    1.455 
#    0.000    0.455    8.000    3.818    0.000    0.000 
#    0.000    0.000    0.000    0.000    0.000    0.000 
#
# Total GULP energy -545144.605457 kJ/mol
# GULP energy per Si atom -12389.650124 kJ/mol
# Density = 1.595097 g / cm^3
# Si number density = 15.987360 Si / 1000 Ang^3
#
#
#
# Elastic Constant Matrix: (Units=GPa)
#
#
# Indices 1 2 3 4 5 6 
#
# 1 75.8231 33.9878 39.9417 0.0000 0.0000 0.0000
# 2 33.9878 138.3529 54.6607 0.0000 0.0000 0.0000
# 3 39.9417 54.6607 88.4010 0.0000 0.0000 0.0000
# 4 0.0000 0.0000 0.0000 26.1132 0.0000 0.0000
# 5 0.0000 0.0000 0.0000 0.0000 21.0581 0.0000
# 6 0.0000 0.0000 0.0000 0.0000 0.0000 18.5851
#
#
#
# Elastic Compliance Matrix: (Units=1/GPa)
#
#
# Indices 1 2 3 4 5 6 
#
# 1 0.017559 -0.001560 -0.006969 0.000000 0.000000 0.000000
# 2 -0.001560 0.009703 -0.005295 0.000000 0.000000 0.000000
# 3 -0.006969 -0.005295 0.017735 0.000000 0.000000 0.000000
# 4 0.000000 0.000000 0.000000 0.038295 0.000000 0.000000
# 5 0.000000 0.000000 0.000000 0.000000 0.047488 0.000000
# 6 0.000000 0.000000 0.000000 0.000000 0.000000 0.053806
#
#
# Mechanical properties :
#
#
# Convention : Reuss Voigt Hill
#
# Bulk Modulus (GPa) = 57.63992 62.19526 59.91759
# Shear Modulus (GPa) = 22.93409 24.75040 23.84225
#
# Velocity S-wave (km/s) = 3.79161 3.93889 3.86595
# Velocity P-wave (km/s) = 7.43640 7.72487 7.58201
#
# Compressibility (1/GPa) = 0.01734909
#
# Stress axis : x y z
#
# Youngs Moduli (GPa) = 56.95093 103.06064 56.38693
#
# Poissons Ratio (x) = 0.16080 0.39295
# Poissons Ratio (y) = 0.08886 0.29855
# Poissons Ratio (z) = 0.39688 0.54567
#
# Static dielectric constant tensor:
#      x y z
#    x 2.892490 0.000000 0.000000 
#    y 0.000000 3.432190 0.000000 
#    z 0.000000 0.000000 3.022330 
# 
# 
# High freq. dielectric constant tensor:
#      x y z
#    x 1.577740 0.000000 0.000000 
#    y 0.000000 1.630880 0.000000 
#    z 0.000000 0.000000 1.589720 
# 
# From -- ./inp_files/27439.got.cif
#   From: 2010.03.12/outbox.cif.g09.slc.cpg/sg51_14_cif.got.tgz:27439.got - 2010.04.16 13:43:02.
