data_PCOD8206441
_publ_section_title
;
Structure prediction by ZEFSAII (Michael W. Deem and Ramdas Pophale) SiO2 
 PCOD8206441
Probable space group: P M M A
;
_chemical_formula_sum "Si O2"
_cell_formula_units_Z 56
_cell_length_a 20.714055
_cell_length_b 9.353183
_cell_length_c 17.847113
_cell_angle_alpha 90.000000
_cell_angle_beta 90.000000
_cell_angle_gamma 90.000000
_cell_volume 3457.741561
_symmetry_space_group_name_H-M "P M M A"
_symmetry_group_IT_number 51
_symmetry_cell_setting 'orthorhombic'
loop_
_space_group_symop_operation_xyz
x,y,z
1/2-x,-y,z
1/2+x,-y,-z
-x,y,-z
-x,-y,-z
1/2+x,y,-z
1/2-x,y,z
x,-y,z
loop_
_atom_site_type_symbol
_atom_site_label
_atom_site_fract_x
_atom_site_fract_y
_atom_site_fract_z
Si Si1 0.173995 0.664910 0.337791
Si Si2 0.894452 0.836684 0.793296
Si Si3 0.458382 0.168504 0.605898
Si Si4 0.596236 0.830938 0.547951
Si Si5 0.086741 0.338491 0.068338
Si Si6 0.434932 0.659728 0.905282
Si Si7 0.953272 0.838463 0.231151
O O1 0.250000 0.677312 0.329489
O O2 0.151448 0.500000 0.337872
O O3 0.141770 0.746906 0.269244
O O4 0.153837 0.740669 0.415587
O O5 0.877546 0.767997 0.874330
O O6 0.970151 0.829239 0.778094
O O7 0.869828 0.000000 0.792300
O O8 0.406778 0.205901 0.540987
O O9 0.529616 0.224431 0.584937
O O10 0.435924 0.228794 0.686960
O O11 0.465962 0.000000 0.613138
O O12 0.607379 0.000000 0.561032
O O13 0.113284 0.500000 0.078940
O O14 0.011212 0.337298 0.084707
O O15 0.098393 0.285607 0.982569
O O16 0.411050 0.500000 0.888512
O O17 0.415137 0.754963 0.834006
O O18 0.928725 0.000000 0.225140
#
# Coordination Sequence:
#
# PCOD8206441 Si02
#       7
#     8   8   8   8   8   8   8
#     4  11  23  35  45  60  86 116 146 184 226 262
#     4  10  18  28  44  62  80 108 147 182 214 255
#     4   8  14  26  45  66  88 112 139 177 223 265
#     4   9  16  30  49  64  82 111 146 180 217 265
#     4   8  14  25  38  53  80 113 142 172 205 243
#     4   8  14  23  35  54  81 115 145 167 199 242
#     4   9  15  24  39  61  87 112 140 174 212 254
#
# _framework density 16.195542
#
# number of rings (size 3 to 8) (size 9 to 14) (size 15 to 20)
#    0.000    3.000    1.429    2.571    0.000    2.286 
#    0.000    5.000    0.000    0.000    0.000    0.000 
#    0.000    1.143    0.000    7.429    0.000    5.714 
#
# Total GULP energy -693930.810933 kJ/mol
# GULP energy per Si atom -12391.621624 kJ/mol
# Density = 1.615868 g / cm^3
# Si number density = 16.195542 Si / 1000 Ang^3
#
#
#
# Elastic Constant Matrix: (Units=GPa)
#
#
# Indices 1 2 3 4 5 6 
#
# 1 15.3714 18.1744 11.6980 0.0000 0.0000 0.0000
# 2 18.1744 88.9750 64.4011 0.0000 0.0000 0.0000
# 3 11.6980 64.4011 160.5227 0.0000 0.0000 0.0000
# 4 0.0000 0.0000 0.0000 23.4760 0.0000 0.0000
# 5 0.0000 0.0000 0.0000 0.0000 7.3201 0.0000
# 6 0.0000 0.0000 0.0000 0.0000 0.0000 14.2837
#
#
#
# Elastic Compliance Matrix: (Units=1/GPa)
#
#
# Indices 1 2 3 4 5 6 
#
# 1 0.085908 -0.018343 0.001099 0.000000 0.000000 0.000000
# 2 -0.018343 0.019755 -0.006589 0.000000 0.000000 0.000000
# 3 0.001099 -0.006589 0.008793 0.000000 0.000000 0.000000
# 4 0.000000 0.000000 0.000000 0.042597 0.000000 0.000000
# 5 0.000000 0.000000 0.000000 0.000000 0.136610 0.000000
# 6 0.000000 0.000000 0.000000 0.000000 0.000000 0.070010
#
#
# Mechanical properties :
#
#
# Convention : Reuss Voigt Hill
#
# Bulk Modulus (GPa) = 14.97246 50.37955 32.67601
# Shear Modulus (GPa) = 11.53130 20.38900 15.96015
#
# Velocity S-wave (km/s) = 2.67124 3.55198 3.14262
# Velocity P-wave (km/s) = 4.33346 6.92797 5.77822
#
# Compressibility (1/GPa) = 0.06678928
#
# Stress axis : x y z
#
# Youngs Moduli (GPa) = 11.64038 50.61978 113.72640
#
# Poissons Ratio (x) = 0.92853 -0.12496
# Poissons Ratio (y) = 0.21352 0.74934
# Poissons Ratio (z) = -0.01279 0.33353
#
# Static dielectric constant tensor:
#      x y z
#    x 2.502350 0.000000 0.000000 
#    y 0.000000 3.117850 0.000000 
#    z 0.000000 0.000000 3.659990 
# 
# 
# High freq. dielectric constant tensor:
#      x y z
#    x 1.547470 0.000000 0.000000 
#    y 0.000000 1.613540 0.000000 
#    z 0.000000 0.000000 1.644180 
# 
# From -- ./inp_files/33713.got.cif
#   From: 2010.03.12/outbox.cif.g09.slc.cpg/sg51_17_cif.got.tgz:33713.got - 2010.04.16 13:43:02.
