data_PCOD8206827
_publ_section_title
;
Structure prediction by ZEFSAII (Michael W. Deem and Ramdas Pophale) SiO2 
 PCOD8206827
Probable space group: P M M A
;
_chemical_formula_sum "Si O2"
_cell_formula_units_Z 48
_cell_length_a 20.849896
_cell_length_b 9.107159
_cell_length_c 15.218641
_cell_angle_alpha 90.000000
_cell_angle_beta 90.000000
_cell_angle_gamma 90.000000
_cell_volume 2889.766049
_symmetry_space_group_name_H-M "P M M A"
_symmetry_group_IT_number 51
_symmetry_cell_setting 'orthorhombic'
loop_
_space_group_symop_operation_xyz
x,y,z
1/2-x,-y,z
1/2+x,-y,-z
-x,y,-z
-x,-y,-z
1/2+x,y,-z
1/2-x,y,z
x,-y,z
loop_
_atom_site_type_symbol
_atom_site_label
_atom_site_fract_x
_atom_site_fract_y
_atom_site_fract_z
Si Si1 0.905882 0.826209 0.560154
Si Si2 0.674523 0.330695 0.697677
Si Si3 0.450342 0.831437 0.813784
Si Si4 0.924935 0.665551 0.019122
Si Si5 0.099769 0.830826 0.149835
Si Si6 0.456285 0.826868 0.621729
O O1 0.848097 0.740296 0.605879
O O2 0.906767 0.785219 0.456052
O O3 0.972431 0.767162 0.601729
O O4 0.896696 0.000000 0.574430
O O5 0.750000 0.311635 0.703756
O O6 0.653643 0.500000 0.700644
O O7 0.643625 0.247625 0.779239
O O8 0.412080 0.736626 0.885530
O O9 0.526380 0.813268 0.822333
O O10 0.431115 0.771203 0.716621
O O11 0.430133 0.000000 0.827558
O O12 0.898543 0.500000 0.019337
O O13 0.887624 0.756925 0.944856
O O14 0.000000 0.670336 0.000000
O O15 0.119970 0.000000 0.143575
O O16 0.464356 0.000000 0.626047
#
# Coordination Sequence:
#
# PCOD8206827 Si02
#       6
#     8   8   8   8   8   8
#     4   9  16  30  49  68  90 121 158 194 233 281
#     4  11  23  35  46  64  94 128 159 196 239 279
#     4   9  15  26  44  68  94 122 152 184 227 277
#     4   9  17  27  40  63  95 125 149 180 223 272
#     4  10  18  30  48  66  87 120 159 195 228 273
#     4   8  14  26  47  71  95 120 150 192 240 280
#
# _framework density 16.610340000000001
#
# number of rings (size 3 to 8) (size 9 to 14) (size 15 to 20)
#    0.000    2.667    1.667    2.500    0.000    4.000 
#    0.000    2.500    0.000    0.000    0.000    1.167 
#    0.000    6.667    0.000    0.000    0.000    0.000 
#
# Total GULP energy -595006.123330 kJ/mol
# GULP energy per Si atom -12395.960903 kJ/mol
# Density = 1.657253 g / cm^3
# Si number density = 16.610340 Si / 1000 Ang^3
#
#
#
# Elastic Constant Matrix: (Units=GPa)
#
#
# Indices 1 2 3 4 5 6 
#
# 1 30.4712 33.7537 29.5178 0.0000 0.0000 0.0000
# 2 33.7537 109.1520 71.7752 0.0000 0.0000 0.0000
# 3 29.5178 71.7752 172.1841 0.0000 0.0000 0.0000
# 4 0.0000 0.0000 0.0000 12.5411 0.0000 0.0000
# 5 0.0000 0.0000 0.0000 0.0000 13.7765 0.0000
# 6 0.0000 0.0000 0.0000 0.0000 0.0000 18.4816
#
#
#
# Elastic Compliance Matrix: (Units=1/GPa)
#
#
# Indices 1 2 3 4 5 6 
#
# 1 0.051009 -0.013809 -0.002988 0.000000 0.000000 0.000000
# 2 -0.013809 0.016359 -0.004452 0.000000 0.000000 0.000000
# 3 -0.002988 -0.004452 0.008176 0.000000 0.000000 0.000000
# 4 0.000000 0.000000 0.000000 0.079738 0.000000 0.000000
# 5 0.000000 0.000000 0.000000 0.000000 0.072587 0.000000
# 6 0.000000 0.000000 0.000000 0.000000 0.000000 0.054108
#
#
# Mechanical properties :
#
#
# Convention : Reuss Voigt Hill
#
# Bulk Modulus (GPa) = 30.26109 64.65562 47.45835
# Shear Modulus (GPa) = 14.90353 20.74388 17.82370
#
# Velocity S-wave (km/s) = 2.99865 3.53775 3.27930
# Velocity P-wave (km/s) = 5.49973 7.46304 6.55530
#
# Compressibility (1/GPa) = 0.03304574
#
# Stress axis : x y z
#
# Youngs Moduli (GPa) = 19.60438 61.12740 122.31046
#
# Poissons Ratio (x) = 0.84409 0.36551
# Poissons Ratio (y) = 0.27071 0.54454
# Poissons Ratio (z) = 0.05859 0.27215
#
# Static dielectric constant tensor:
#      x y z
#    x 2.621520 0.000000 0.000000 
#    y 0.000000 3.112350 0.000000 
#    z 0.000000 0.000000 3.654100 
# 
# 
# High freq. dielectric constant tensor:
#      x y z
#    x 1.575090 0.000000 0.000000 
#    y 0.000000 1.632880 0.000000 
#    z 0.000000 0.000000 1.660200 
# 
# From -- ./inp_files/25493.got.cif
#   From: 2010.03.12/outbox.cif.g09.slc.cpg/sg51_13_cif.got.tgz:25493.got - 2010.04.16 13:43:02.
