data_PCOD8206109
_publ_section_title
;
Structure prediction by ZEFSAII (Michael W. Deem and Ramdas Pophale) SiO2 
 PCOD8206109
Probable space group: P M M A
;
_chemical_formula_sum "Si O2"
_cell_formula_units_Z 56
_cell_length_a 20.903426
_cell_length_b 11.885679
_cell_length_c 13.816246
_cell_angle_alpha 90.000000
_cell_angle_beta 90.000000
_cell_angle_gamma 90.000000
_cell_volume 3432.665819
_symmetry_space_group_name_H-M "P M M A"
_symmetry_group_IT_number 51
_symmetry_cell_setting 'orthorhombic'
loop_
_space_group_symop_operation_xyz
x,y,z
1/2-x,-y,z
1/2+x,-y,-z
-x,y,-z
-x,-y,-z
1/2+x,y,-z
1/2-x,y,z
x,-y,z
loop_
_atom_site_type_symbol
_atom_site_label
_atom_site_fract_x
_atom_site_fract_y
_atom_site_fract_z
Si Si1 0.570460 0.374115 0.955817
Si Si2 0.175908 0.377188 0.716437
Si Si3 0.455223 0.000000 0.147302
Si Si4 0.972187 0.238549 0.783723
Si Si5 0.111898 0.763717 0.873334
Si Si6 0.095581 0.000000 0.941815
Si Si7 0.821141 0.633214 0.496549
Si Si8 0.452263 0.631964 0.411034
O O1 0.596307 0.500000 0.941890
O O2 0.573343 0.313602 0.851901
O O3 0.500000 0.373122 0.000000
O O4 0.616835 0.309392 0.029185
O O5 0.250000 0.400357 0.718142
O O6 0.141768 0.500000 0.734967
O O7 0.160773 0.285079 0.796350
O O8 0.157871 0.327273 0.611041
O O9 0.446386 0.890020 0.215040
O O10 0.523704 0.000000 0.096749
O O11 0.404169 0.000000 0.059097
O O12 0.974512 0.290071 0.676982
O O13 0.042458 0.242109 0.826930
O O14 0.131865 0.890598 0.900856
O O15 0.750000 0.681252 0.526597
O O16 0.816295 0.500000 0.494075
O O17 0.878893 0.669977 0.566879
O O18 0.500000 0.656210 0.500000
O O19 0.455552 0.500000 0.382855
#
# Coordination Sequence:
#
# PCOD8206109 Si02
#       8
#     8   8   4   8   8   4   8   8
#     4   9  16  24  38  63  91 116 141 173 220 279
#     4   9  17  29  46  68  92 119 150 184 227 277
#     4   9  16  30  45  62  89 122 157 188 218 268
#     4  10  18  28  44  66  92 120 151 187 230 274
#     4  10  17  27  44  65  91 120 150 184 224 271
#     4   9  16  28  45  64  87 122 159 184 216 267
#     4   8  15  29  47  65  89 124 158 182 218 282
#     4  10  19  29  44  70  99 120 146 194 246 280
#
# _framework density 16.313852000000001
#
# number of rings (size 3 to 8) (size 9 to 14) (size 15 to 20)
#    0.000    2.714    1.429    2.571    0.000    2.857 
#    0.000    0.714    0.000    1.714    0.000    3.500 
#    0.000    0.000    0.000    0.000    0.000    0.000 
#
# Total GULP energy -693965.997114 kJ/mol
# GULP energy per Si atom -12392.249948 kJ/mol
# Density = 1.627672 g / cm^3
# Si number density = 16.313852 Si / 1000 Ang^3
#
#
#
# Elastic Constant Matrix: (Units=GPa)
#
#
# Indices 1 2 3 4 5 6 
#
# 1 26.0857 12.7964 16.4305 0.0000 0.0000 0.0000
# 2 12.7964 120.3685 57.3127 0.0000 0.0000 0.0000
# 3 16.4305 57.3127 92.6086 0.0000 0.0000 0.0000
# 4 0.0000 0.0000 0.0000 21.9724 0.0000 0.0000
# 5 0.0000 0.0000 0.0000 0.0000 21.1276 0.0000
# 6 0.0000 0.0000 0.0000 0.0000 0.0000 11.6331
#
#
#
# Elastic Compliance Matrix: (Units=1/GPa)
#
#
# Indices 1 2 3 4 5 6 
#
# 1 0.043310 -0.001341 -0.006854 0.000000 0.000000 0.000000
# 2 -0.001341 0.011820 -0.007077 0.000000 0.000000 0.000000
# 3 -0.006854 -0.007077 0.016394 0.000000 0.000000 0.000000
# 4 0.000000 0.000000 0.000000 0.045512 0.000000 0.000000
# 5 0.000000 0.000000 0.000000 0.000000 0.047332 0.000000
# 6 0.000000 0.000000 0.000000 0.000000 0.000000 0.085962
#
#
# Mechanical properties :
#
#
# Convention : Reuss Voigt Hill
#
# Bulk Modulus (GPa) = 24.40219 45.79354 35.09786
# Shear Modulus (GPa) = 16.97596 21.11482 19.04539
#
# Velocity S-wave (km/s) = 3.22931 3.60152 3.42048
# Velocity P-wave (km/s) = 5.37541 6.73987 6.09594
#
# Compressibility (1/GPa) = 0.04097993
#
# Stress axis : x y z
#
# Youngs Moduli (GPa) = 23.08925 84.60132 60.99744
#
# Poissons Ratio (x) = 0.11342 0.41810
# Poissons Ratio (y) = 0.03096 0.43170
# Poissons Ratio (z) = 0.15826 0.59875
#
# Static dielectric constant tensor:
#      x y z
#    x 2.918100 0.000000 0.000000 
#    y 0.000000 3.488620 0.000000 
#    z 0.000000 0.000000 3.422770 
# 
# 
# High freq. dielectric constant tensor:
#      x y z
#    x 1.588970 0.000000 0.000000 
#    y 0.000000 1.615390 0.000000 
#    z 0.000000 0.000000 1.623830 
# 
# From -- ./inp_files/18814.got.cif
#   From: 2010.03.12/outbox.cif.g09.slc.cpg/sg51_10_cif.got.tgz:18814.got - 2010.04.16 13:43:02.
