data_PCOD8206274
_publ_section_title
;
Structure prediction by ZEFSAII (Michael W. Deem and Ramdas Pophale) SiO2 
 PCOD8206274
Probable space group: P M M A
;
_chemical_formula_sum "Si O2"
_cell_formula_units_Z 64
_cell_length_a 26.809255
_cell_length_b 9.396392
_cell_length_c 16.717312
_cell_angle_alpha 90.000000
_cell_angle_beta 90.000000
_cell_angle_gamma 90.000000
_cell_volume 4211.262566
_symmetry_space_group_name_H-M "P M M A"
_symmetry_group_IT_number 51
_symmetry_cell_setting 'orthorhombic'
loop_
_space_group_symop_operation_xyz
x,y,z
1/2-x,-y,z
1/2+x,-y,-z
-x,y,-z
-x,-y,-z
1/2+x,y,-z
1/2-x,y,z
x,-y,z
loop_
_atom_site_type_symbol
_atom_site_label
_atom_site_fract_x
_atom_site_fract_y
_atom_site_fract_z
Si Si1 0.693357 0.832334 0.917829
Si Si2 0.620732 0.664884 0.023185
Si Si3 0.057541 0.338852 0.523078
Si Si4 0.576575 0.162139 0.623397
Si Si5 0.940748 0.662779 0.170617
Si Si6 0.452895 0.660766 0.112794
Si Si7 0.464013 0.833607 0.673111
Si Si8 0.116770 0.163434 0.213561
O O1 0.750000 0.778853 0.911508
O O2 0.666435 0.787559 0.834170
O O3 0.690560 0.000000 0.932063
O O4 0.667554 0.757747 0.993918
O O5 0.634870 0.500000 0.012783
O O6 0.607610 0.698323 0.115883
O O7 0.571904 0.705580 0.971069
O O8 0.076846 0.500000 0.535729
O O9 0.088056 0.266203 0.450506
O O10 0.066001 0.247198 0.602899
O O11 0.000000 0.337281 0.500000
O O12 0.522889 0.193585 0.663542
O O13 0.619625 0.188184 0.690487
O O14 0.577654 0.000000 0.591743
O O15 0.938447 0.500000 0.202663
O O16 0.943781 0.770580 0.243944
O O17 0.987774 0.680886 0.110896
O O18 0.438244 0.500000 0.133525
O O19 0.431638 0.754344 0.184265
O O20 0.450877 0.000000 0.669728
O O21 0.106051 0.000000 0.194936
#
# Coordination Sequence:
#
# PCOD8206274 Si02
#       8
#     8   8   8   8   8   8   8   8
#     4   9  18  32  48  64  84 110 140 177 218 256
#     4   9  18  30  43  61  82 109 142 175 213 256
#     4   9  17  27  39  55  77 108 144 176 205 239
#     4   9  16  26  39  56  80 109 141 175 207 244
#     4  10  18  27  40  58  84 113 143 177 211 248
#     4   9  16  26  40  57  81 111 142 174 208 246
#     4  10  18  27  39  56  81 113 146 176 208 244
#     4   9  16  27  42  61  84 110 141 175 212 253
#
# _framework density 15.197343
#
# number of rings (size 3 to 8) (size 9 to 14) (size 15 to 20)
#    0.000    2.750    1.250    1.125    0.000    4.750 
#    0.000    0.000    0.000    3.750    0.000    0.000 
#    0.000    1.000    0.000    5.250    0.000    2.625 
#
# Total GULP energy -793249.169798 kJ/mol
# GULP energy per Si atom -12394.518278 kJ/mol
# Density = 1.516275 g / cm^3
# Si number density = 15.197343 Si / 1000 Ang^3
#
#
#
# Elastic Constant Matrix: (Units=GPa)
#
#
# Indices 1 2 3 4 5 6 
#
# 1 56.3419 29.1121 34.4750 0.0000 0.0000 0.0000
# 2 29.1121 75.0439 53.5472 0.0000 0.0000 0.0000
# 3 34.4750 53.5472 96.5258 0.0000 0.0000 0.0000
# 4 0.0000 0.0000 0.0000 29.6359 0.0000 0.0000
# 5 0.0000 0.0000 0.0000 0.0000 12.7544 0.0000
# 6 0.0000 0.0000 0.0000 0.0000 0.0000 15.0400
#
#
#
# Elastic Compliance Matrix: (Units=1/GPa)
#
#
# Indices 1 2 3 4 5 6 
#
# 1 0.023907 -0.005266 -0.005617 0.000000 0.000000 0.000000
# 2 -0.005266 0.023216 -0.010998 0.000000 0.000000 0.000000
# 3 -0.005617 -0.010998 0.018467 0.000000 0.000000 0.000000
# 4 0.000000 0.000000 0.000000 0.033743 0.000000 0.000000
# 5 0.000000 0.000000 0.000000 0.000000 0.078405 0.000000
# 6 0.000000 0.000000 0.000000 0.000000 0.000000 0.066489
#
#
# Mechanical properties :
#
#
# Convention : Reuss Voigt Hill
#
# Bulk Modulus (GPa) = 45.81412 51.35335 48.58373
# Shear Modulus (GPa) = 16.93386 18.87120 17.90253
#
# Velocity S-wave (km/s) = 3.34168 3.52766 3.43593
# Velocity P-wave (km/s) = 6.71571 7.10330 6.91222
#
# Compressibility (1/GPa) = 0.02182733
#
# Stress axis : x y z
#
# Youngs Moduli (GPa) = 41.82882 43.07336 54.14965
#
# Poissons Ratio (x) = 0.22683 0.30417
# Poissons Ratio (y) = 0.22028 0.59555
# Poissons Ratio (z) = 0.23496 0.47373
#
# Static dielectric constant tensor:
#      x y z
#    x 2.594990 0.000000 0.000000 
#    y 0.000000 2.985940 0.000000 
#    z 0.000000 0.000000 2.992320 
# 
# 
# High freq. dielectric constant tensor:
#      x y z
#    x 1.522920 0.000000 0.000000 
#    y 0.000000 1.589040 0.000000 
#    z 0.000000 0.000000 1.582380 
# 
# From -- ./inp_files/26568.got.cif
#   From: 2010.03.12/outbox.cif.g09.slc.cpg/sg51_14_cif.got.tgz:26568.got - 2010.04.16 13:43:02.
