data_PCOD8206590
_publ_section_title
;
Structure prediction by ZEFSAII (Michael W. Deem and Ramdas Pophale) SiO2 
 PCOD8206590
Probable space group: P M M A
;
_chemical_formula_sum "Si O2"
_cell_formula_units_Z 64
_cell_length_a 8.951935
_cell_length_b 23.503711
_cell_length_c 18.928141
_cell_angle_alpha 90.000000
_cell_angle_beta 90.000000
_cell_angle_gamma 90.000000
_cell_volume 3982.550771
_symmetry_space_group_name_H-M "P M M A"
_symmetry_group_IT_number 51
_symmetry_cell_setting 'orthorhombic'
loop_
_space_group_symop_operation_xyz
x,y,z
1/2-x,-y,z
1/2+x,-y,-z
-x,y,-z
-x,-y,-z
1/2+x,y,-z
1/2-x,y,z
x,-y,z
loop_
_atom_site_type_symbol
_atom_site_label
_atom_site_fract_x
_atom_site_fract_y
_atom_site_fract_z
Si Si1 0.925107 0.662777 0.350049
Si Si2 0.575620 0.565697 0.573677
Si Si3 0.576445 0.765285 0.571499
Si Si4 0.577539 0.171416 0.710654
Si Si5 0.426627 0.062659 0.211010
Si Si6 0.425006 0.877600 0.070689
Si Si7 0.924919 0.745684 0.928473
Si Si8 0.076253 0.271913 0.788943
O O1 0.750000 0.660831 0.366198
O O2 0.957168 0.679219 0.268794
O O3 0.999557 0.601624 0.363702
O O4 0.999347 0.707630 0.402977
O O5 0.500000 0.583018 0.500000
O O6 0.750000 0.579736 0.568631
O O7 0.546131 0.500000 0.591602
O O8 0.500000 0.786932 0.500000
O O9 0.750000 0.752634 0.558767
O O10 0.552138 0.815629 0.628253
O O11 0.750000 0.181928 0.732736
O O12 0.530017 0.106096 0.725820
O O13 0.478167 0.211748 0.759048
O O14 0.250000 0.057872 0.205438
O O15 0.488788 0.087006 0.136924
O O16 0.495698 0.000000 0.226067
O O17 0.250000 0.885527 0.062466
O O18 0.466756 0.811728 0.081903
O O19 0.500000 0.901960 0.000000
O O20 0.750000 0.734695 0.933352
O O21 0.990425 0.711981 0.860976
O O22 0.000000 0.722023 0.000000
O O23 0.250000 0.266931 0.805954
#
# Coordination Sequence:
#
# PCOD8206590 Si02
#       8
#     8   8   8   8   8   8   8   8
#     4  10  20  32  47  69  97 125 157 193 229 268
#     4  10  20  33  49  69  96 132 169 199 228 264
#     4  10  19  30  47  67  90 115 145 184 229 277
#     4   9  17  31  47  64  84 112 145 180 225 276
#     4   9  16  28  46  64  82 107 144 186 222 264
#     4   9  17  28  42  61  84 111 142 177 215 258
#     4  10  18  29  45  65  91 121 153 187 225 274
#     4  10  19  30  46  68  92 120 151 188 231 272
#
# _framework density 16.070103
#
# number of rings (size 3 to 8) (size 9 to 14) (size 15 to 20)
#    0.000    2.375    1.250    2.250    0.000    3.500 
#    0.000    0.000    0.000    1.500    0.000    0.000 
#    0.000    0.500    0.000    1.625    0.000    2.750 
#
# Total GULP energy -793592.997122 kJ/mol
# GULP energy per Si atom -12399.890580 kJ/mol
# Density = 1.603353 g / cm^3
# Si number density = 16.070103 Si / 1000 Ang^3
#
#
#
# Elastic Constant Matrix: (Units=GPa)
#
#
# Indices 1 2 3 4 5 6 
#
# 1 81.7821 38.8729 58.8250 0.0000 0.0000 0.0000
# 2 38.8729 81.4953 54.6413 0.0000 0.0000 0.0000
# 3 58.8250 54.6413 125.6505 0.0000 0.0000 0.0000
# 4 0.0000 0.0000 0.0000 22.5119 0.0000 0.0000
# 5 0.0000 0.0000 0.0000 0.0000 29.5793 0.0000
# 6 0.0000 0.0000 0.0000 0.0000 0.0000 14.4649
#
#
#
# Elastic Compliance Matrix: (Units=1/GPa)
#
#
# Indices 1 2 3 4 5 6 
#
# 1 0.019538 -0.004498 -0.007191 0.000000 0.000000 0.000000
# 2 -0.004498 0.018357 -0.005877 0.000000 0.000000 0.000000
# 3 -0.007191 -0.005877 0.013881 0.000000 0.000000 0.000000
# 4 0.000000 0.000000 0.000000 0.044421 0.000000 0.000000
# 5 0.000000 0.000000 0.000000 0.000000 0.033807 0.000000
# 6 0.000000 0.000000 0.000000 0.000000 0.000000 0.069133
#
#
# Mechanical properties :
#
#
# Convention : Reuss Voigt Hill
#
# Bulk Modulus (GPa) = 60.08315 65.95626 63.01971
# Shear Modulus (GPa) = 20.84933 22.41714 21.63323
#
# Velocity S-wave (km/s) = 3.60585 3.73897 3.67301
# Velocity P-wave (km/s) = 7.40308 7.73122 7.56893
#
# Compressibility (1/GPa) = 0.01664360
#
# Stress axis : x y z
#
# Youngs Moduli (GPa) = 51.18223 54.47652 72.04242
#
# Poissons Ratio (x) = 0.24505 0.51805
# Poissons Ratio (y) = 0.23023 0.42338
# Poissons Ratio (z) = 0.36805 0.32015
#
# Static dielectric constant tensor:
#      x y z
#    x 3.043020 0.000000 0.000000 
#    y 0.000000 2.935490 0.000000 
#    z 0.000000 0.000000 3.159880 
# 
# 
# High freq. dielectric constant tensor:
#      x y z
#    x 1.620120 0.000000 0.000000 
#    y 0.000000 1.583580 0.000000 
#    z 0.000000 0.000000 1.617300 
# 
# From -- ./inp_files/28625.got.cif
#   From: 2010.03.12/outbox.cif.g09.slc.cpg/sg51_15_cif.got.tgz:28625.got - 2010.04.16 13:43:02.
