data_PCOD8206799
_publ_section_title
;
Structure prediction by ZEFSAII (Michael W. Deem and Ramdas Pophale) SiO2 
 PCOD8206799
Probable space group: P M M A
;
_chemical_formula_sum "Si O2"
_cell_formula_units_Z 44
_cell_length_a 9.530757
_cell_length_b 17.961000
_cell_length_c 14.312763
_cell_angle_alpha 90.000000
_cell_angle_beta 90.000000
_cell_angle_gamma 90.000000
_cell_volume 2450.086344
_symmetry_space_group_name_H-M "P M M A"
_symmetry_group_IT_number 51
_symmetry_cell_setting 'orthorhombic'
loop_
_space_group_symop_operation_xyz
x,y,z
1/2-x,-y,z
1/2+x,-y,-z
-x,y,-z
-x,-y,-z
1/2+x,y,-z
1/2-x,y,z
x,-y,z
loop_
_atom_site_type_symbol
_atom_site_label
_atom_site_fract_x
_atom_site_fract_y
_atom_site_fract_z
Si Si1 0.583124 0.417637 0.212483
Si Si2 0.417433 0.000000 0.904755
Si Si3 0.405143 0.411807 0.582103
Si Si4 0.416219 0.720844 0.905893
Si Si5 0.411920 0.912652 0.588658
Si Si6 0.915261 0.860884 0.214624
O O1 0.750000 0.419813 0.219003
O O2 0.525944 0.500000 0.184905
O O3 0.528747 0.393709 0.315733
O O4 0.533964 0.358748 0.134887
O O5 0.471263 0.927728 0.849217
O O6 0.250000 0.000000 0.921893
O O7 0.500000 0.000000 0.000000
O O8 0.500000 0.376647 0.500000
O O9 0.250000 0.376483 0.572623
O O10 0.395000 0.500000 0.570500
O O11 0.250000 0.723107 0.926337
O O12 0.460524 0.782479 0.829920
O O13 0.500000 0.736769 0.000000
O O14 0.500000 0.885087 0.500000
O O15 0.250000 0.893965 0.568952
O O16 0.471484 0.868593 0.679309
O O17 0.432911 0.000000 0.607767
O O18 0.750000 0.868968 0.220071
#
# Coordination Sequence:
#
# PCOD8206799 Si02
#       6
#     8   4   8   8   8   8
#     4   8  15  29  48  68  91 122 158 192 231 285
#     4  10  18  30  47  68  92 120 155 192 227 268
#     4   8  13  23  41  64  88 114 144 178 218 266
#     4  10  20  34  51  69  91 122 158 196 239 283
#     4   9  16  29  49  71  95 125 158 190 225 271
#     4   9  17  31  50  69  93 126 157 185 227 283
#
# _framework density 17.958549999999999
#
# number of rings (size 3 to 8) (size 9 to 14) (size 15 to 20)
#    0.000    3.091    0.909    1.636    0.000    0.364 
#    0.000    3.636    0.000    1.091    0.000    0.000 
#    0.000    0.000    0.000    0.000    0.000    0.000 
#
# Total GULP energy -545355.990888 kJ/mol
# GULP energy per Si atom -12394.454338 kJ/mol
# Density = 1.791768 g / cm^3
# Si number density = 17.958550 Si / 1000 Ang^3
#
#
#
# Elastic Constant Matrix: (Units=GPa)
#
#
# Indices 1 2 3 4 5 6 
#
# 1 42.0096 23.9813 49.0890 0.0000 0.0000 0.0000
# 2 23.9813 93.1670 64.3026 0.0000 0.0000 0.0000
# 3 49.0890 64.3026 168.3265 0.0000 0.0000 0.0000
# 4 0.0000 0.0000 0.0000 28.1484 0.0000 0.0000
# 5 0.0000 0.0000 0.0000 0.0000 32.3687 0.0000
# 6 0.0000 0.0000 0.0000 0.0000 0.0000 9.0922
#
#
#
# Elastic Compliance Matrix: (Units=1/GPa)
#
#
# Indices 1 2 3 4 5 6 
#
# 1 0.036636 -0.002792 -0.009618 0.000000 0.000000 0.000000
# 2 -0.002792 0.014790 -0.004835 0.000000 0.000000 0.000000
# 3 -0.009618 -0.004835 0.010593 0.000000 0.000000 0.000000
# 4 0.000000 0.000000 0.000000 0.035526 0.000000 0.000000
# 5 0.000000 0.000000 0.000000 0.000000 0.030894 0.000000
# 6 0.000000 0.000000 0.000000 0.000000 0.000000 0.109984
#
#
# Mechanical properties :
#
#
# Convention : Reuss Voigt Hill
#
# Bulk Modulus (GPa) = 36.32658 64.24987 50.28823
# Shear Modulus (GPa) = 17.72489 24.99722 21.36106
#
# Velocity S-wave (km/s) = 3.14505 3.73492 3.45260
# Velocity P-wave (km/s) = 5.78449 7.37929 6.63002
#
# Compressibility (1/GPa) = 0.02752805
#
# Stress axis : x y z
#
# Youngs Moduli (GPa) = 27.29527 67.61549 94.40387
#
# Poissons Ratio (x) = 0.18880 0.90793
# Poissons Ratio (y) = 0.07622 0.45648
# Poissons Ratio (z) = 0.26251 0.32695
#
# Static dielectric constant tensor:
#      x y z
#    x 2.983350 0.000000 0.000000 
#    y 0.000000 3.380970 0.000000 
#    z 0.000000 0.000000 3.521630 
# 
# 
# High freq. dielectric constant tensor:
#      x y z
#    x 1.648670 0.000000 0.000000 
#    y 0.000000 1.679300 0.000000 
#    z 0.000000 0.000000 1.707580 
# 
# From -- ./inp_files/20893.got.cif
#   From: 2010.03.12/outbox.cif.g09.slc.cpg/sg51_11_cif.got.tgz:20893.got - 2010.04.16 13:43:02.
