data_PCOD8206885
_publ_section_title
;
Structure prediction by ZEFSAII (Michael W. Deem and Ramdas Pophale) SiO2 
 PCOD8206885
Probable space group: P M M A
;
_chemical_formula_sum "Si O2"
_cell_formula_units_Z 40
_cell_length_a 14.935992
_cell_length_b 9.007511
_cell_length_c 15.330892
_cell_angle_alpha 90.000000
_cell_angle_beta 90.000000
_cell_angle_gamma 90.000000
_cell_volume 2062.558607
_symmetry_space_group_name_H-M "P M M A"
_symmetry_group_IT_number 51
_symmetry_cell_setting 'orthorhombic'
loop_
_space_group_symop_operation_xyz
x,y,z
1/2-x,-y,z
1/2+x,-y,-z
-x,y,-z
-x,-y,-z
1/2+x,y,-z
1/2-x,y,z
x,-y,z
loop_
_atom_site_type_symbol
_atom_site_label
_atom_site_fract_x
_atom_site_fract_y
_atom_site_fract_z
Si Si1 0.750000 0.174163 0.200959
Si Si2 0.750000 0.175519 0.651981
Si Si3 0.078113 0.325859 0.265280
Si Si4 0.750000 0.670492 0.470530
Si Si5 0.566969 0.327428 0.929563
Si Si6 0.250000 0.669810 0.979486
Si Si7 0.114914 0.329475 0.678625
O O1 0.750000 0.220430 0.101044
O O2 0.839763 0.233538 0.246022
O O3 0.750000 0.000000 0.208488
O O4 0.838445 0.237901 0.697119
O O5 0.750000 0.219541 0.551060
O O6 0.750000 0.000000 0.660425
O O7 0.102920 0.500000 0.263288
O O8 0.055426 0.264436 0.168264
O O9 0.991055 0.295240 0.325742
O O10 0.750000 0.500000 0.503147
O O11 0.660666 0.704511 0.414378
O O12 0.543181 0.500000 0.925323
O O13 0.500000 0.250961 0.000000
O O14 0.666959 0.295571 0.959117
O O15 0.250000 0.500000 0.945617
O O16 0.131747 0.500000 0.704537
#
# Coordination Sequence:
#
# PCOD8206885 Si02
#       7
#     4   4   8   4   8   4   8
#     4  11  21  32  51  81 117 153 185 224 279 338
#     4  12  26  40  55  80 118 157 188 223 272 333
#     4  10  20  38  63  86 109 143 188 236 282 327
#     4   9  19  38  61  87 113 139 179 228 281 338
#     4   9  17  30  53  83 108 135 180 235 281 320
#     4  10  18  30  49  72 104 145 188 231 272 321
#     4   9  19  37  63  88 109 138 182 237 287 331
#
# _framework density 19.393387000000001
#
# number of rings (size 3 to 8) (size 9 to 14) (size 15 to 20)
#    0.000    2.200    0.000    4.200    0.000    8.000 
#    0.000    6.000    0.000    2.400    0.000    0.000 
#    0.000    0.000    0.000    0.000    0.000    0.000 
#
# Total GULP energy -495997.995768 kJ/mol
# GULP energy per Si atom -12399.949894 kJ/mol
# Density = 1.934925 g / cm^3
# Si number density = 19.393387 Si / 1000 Ang^3
#
#
#
# Elastic Constant Matrix: (Units=GPa)
#
#
# Indices 1 2 3 4 5 6 
#
# 1 163.8623 53.0833 73.2242 0.0000 0.0000 0.0000
# 2 53.0833 83.5611 46.9229 0.0000 0.0000 0.0000
# 3 73.2242 46.9229 133.8298 0.0000 0.0000 0.0000
# 4 0.0000 0.0000 0.0000 7.7020 0.0000 0.0000
# 5 0.0000 0.0000 0.0000 0.0000 22.0426 0.0000
# 6 0.0000 0.0000 0.0000 0.0000 0.0000 18.8888
#
#
#
# Elastic Compliance Matrix: (Units=1/GPa)
#
#
# Indices 1 2 3 4 5 6 
#
# 1 0.008881 -0.003627 -0.003587 0.000000 0.000000 0.000000
# 2 -0.003627 0.016383 -0.003759 0.000000 0.000000 0.000000
# 3 -0.003587 -0.003759 0.010753 0.000000 0.000000 0.000000
# 4 0.000000 0.000000 0.000000 0.129836 0.000000 0.000000
# 5 0.000000 0.000000 0.000000 0.000000 0.045367 0.000000
# 6 0.000000 0.000000 0.000000 0.000000 0.000000 0.052941
#
#
# Mechanical properties :
#
#
# Convention : Reuss Voigt Hill
#
# Bulk Modulus (GPa) = 71.08034 80.85711 75.96872
# Shear Modulus (GPa) = 17.19405 23.59486 20.39446
#
# Velocity S-wave (km/s) = 2.98080 3.49183 3.24639
# Velocity P-wave (km/s) = 6.96981 7.61845 7.30134
#
# Compressibility (1/GPa) = 0.01406859
#
# Stress axis : x y z
#
# Youngs Moduli (GPa) = 112.60306 61.04053 92.99693
#
# Poissons Ratio (x) = 0.22141 0.33361
# Poissons Ratio (y) = 0.40843 0.34961
# Poissons Ratio (z) = 0.40394 0.22947
#
# Static dielectric constant tensor:
#      x y z
#    x 3.747120 0.000000 0.000000 
#    y 0.000000 3.183740 0.000000 
#    z 0.000000 0.000000 3.628870 
# 
# 
# High freq. dielectric constant tensor:
#      x y z
#    x 1.769570 0.000000 0.000000 
#    y 0.000000 1.713980 0.000000 
#    z 0.000000 0.000000 1.760010 
# 
# From -- ./inp_files/23855.got.cif
#   From: 2010.03.12/outbox.cif.g09.slc.cpg/sg51_12_cif.got.tgz:23855.got - 2010.04.16 13:43:02.
