data_PCOD8206442
_publ_section_title
;
Structure prediction by ZEFSAII (Michael W. Deem and Ramdas Pophale) SiO2 
 PCOD8206442
Probable space group: P M M A
;
_chemical_formula_sum "Si O2"
_cell_formula_units_Z 40
_cell_length_a 9.279907
_cell_length_b 10.401014
_cell_length_c 24.814096
_cell_angle_alpha 90.000000
_cell_angle_beta 90.000000
_cell_angle_gamma 90.000000
_cell_volume 2395.067529
_symmetry_space_group_name_H-M "P M M A"
_symmetry_group_IT_number 51
_symmetry_cell_setting 'orthorhombic'
loop_
_space_group_symop_operation_xyz
x,y,z
1/2-x,-y,z
1/2+x,-y,-z
-x,y,-z
-x,-y,-z
1/2+x,y,-z
1/2-x,y,z
x,-y,z
loop_
_atom_site_type_symbol
_atom_site_label
_atom_site_fract_x
_atom_site_fract_y
_atom_site_fract_z
Si Si1 0.420581 0.750221 0.879957
Si Si2 0.411209 0.846637 0.652487
Si Si3 0.077395 0.500000 0.942696
Si Si4 0.078267 0.143964 0.770162
Si Si5 0.420655 0.000000 0.944144
Si Si6 0.087713 0.153372 0.448635
O O1 0.250000 0.744726 0.879233
O O2 0.479053 0.622646 0.908925
O O3 0.477638 0.762565 0.818114
O O4 0.473445 0.874702 0.912246
O O5 0.250000 0.793408 0.642000
O O6 0.470295 0.802281 0.711422
O O7 0.515089 0.792485 0.605932
O O8 0.407223 0.000000 0.651571
O O9 0.250000 0.500000 0.950946
O O10 0.000000 0.500000 0.000000
O O11 0.250000 0.136121 0.770707
O O12 0.016991 0.000000 0.779953
O O13 0.250000 0.000000 0.953092
O O14 0.500000 0.000000 0.000000
O O15 0.250000 0.206327 0.451906
O O16 0.000000 0.205841 0.500000
O O17 0.086399 0.000000 0.448359
#
# Coordination Sequence:
#
# PCOD8206442 Si02
#       6
#     8   8   4   8   4   8
#     4   9  16  27  43  63  83 106 136 171 207 246
#     4   8  13  20  32  49  66  87 120 162 201 235
#     4  10  20  32  46  64  86 110 137 170 209 252
#     4   8  12  21  38  58  76  96 129 169 204 241
#     4  10  18  28  44  62  82 106 135 168 203 244
#     4   9  15  21  29  42  65  98 133 165 195 231
#
# _framework density 16.700990999999998
#
# number of rings (size 3 to 8) (size 9 to 14) (size 15 to 20)
#    0.000    3.200    1.000    2.400    0.000    2.400 
#    0.000    0.000    0.000    2.400    0.000    0.000 
#    0.000    0.000    0.000    0.900    0.000    6.800 
#
# Total GULP energy -495655.607169 kJ/mol
# GULP energy per Si atom -12391.390179 kJ/mol
# Density = 1.666298 g / cm^3
# Si number density = 16.700991 Si / 1000 Ang^3
#
#
#
# Elastic Constant Matrix: (Units=GPa)
#
#
# Indices 1 2 3 4 5 6 
#
# 1 57.7699 17.0488 57.0849 0.0000 0.0000 0.0000
# 2 17.0488 72.1993 52.8752 0.0000 0.0000 0.0000
# 3 57.0849 52.8752 198.2857 0.0000 0.0000 0.0000
# 4 0.0000 0.0000 0.0000 14.0861 0.0000 0.0000
# 5 0.0000 0.0000 0.0000 0.0000 26.6476 0.0000
# 6 0.0000 0.0000 0.0000 0.0000 0.0000 4.3230
#
#
#
# Elastic Compliance Matrix: (Units=1/GPa)
#
#
# Indices 1 2 3 4 5 6 
#
# 1 0.024226 -0.000762 -0.006771 0.000000 0.000000 0.000000
# 2 -0.000762 0.017236 -0.004377 0.000000 0.000000 0.000000
# 3 -0.006771 -0.004377 0.008160 0.000000 0.000000 0.000000
# 4 0.000000 0.000000 0.000000 0.070992 0.000000 0.000000
# 5 0.000000 0.000000 0.000000 0.000000 0.037527 0.000000
# 6 0.000000 0.000000 0.000000 0.000000 0.000000 0.231322
#
#
# Mechanical properties :
#
#
# Convention : Reuss Voigt Hill
#
# Bulk Modulus (GPa) = 38.75697 64.69697 51.72697
# Shear Modulus (GPa) = 11.85166 22.42774 17.13970
#
# Velocity S-wave (km/s) = 2.66679 3.66853 3.20702
# Velocity P-wave (km/s) = 5.72181 7.53437 6.68976
#
# Compressibility (1/GPa) = 0.02580181
#
# Stress axis : x y z
#
# Youngs Moduli (GPa) = 41.27822 58.01886 122.55223
#
# Poissons Ratio (x) = 0.04419 0.82984
# Poissons Ratio (y) = 0.03144 0.53639
# Poissons Ratio (z) = 0.27951 0.25394
#
# Static dielectric constant tensor:
#      x y z
#    x 2.936410 0.000000 0.000000 
#    y 0.000000 3.318960 0.000000 
#    z 0.000000 0.000000 3.640330 
# 
# 
# High freq. dielectric constant tensor:
#      x y z
#    x 1.602720 0.000000 0.000000 
#    y 0.000000 1.579960 0.000000 
#    z 0.000000 0.000000 1.669170 
# 
# From -- ./inp_files/36089.got.cif
#   From: 2010.03.12/outbox.cif.g09.slc.cpg/sg51_19_cif.got.tgz:36089.got - 2010.04.16 13:43:02.
