data_PCOD8206378
_publ_section_title
;
Structure prediction by ZEFSAII (Michael W. Deem and Ramdas Pophale) SiO2 
 PCOD8206378
Probable space group: P M M A
;
_chemical_formula_sum "Si O2"
_cell_formula_units_Z 56
_cell_length_a 26.553485
_cell_length_b 9.035057
_cell_length_c 14.515924
_cell_angle_alpha 90.000000
_cell_angle_beta 90.000000
_cell_angle_gamma 90.000000
_cell_volume 3482.547995
_symmetry_space_group_name_H-M "P M M A"
_symmetry_group_IT_number 51
_symmetry_cell_setting 'orthorhombic'
loop_
_space_group_symop_operation_xyz
x,y,z
1/2-x,-y,z
1/2+x,-y,-z
-x,y,-z
-x,-y,-z
1/2+x,y,-z
1/2-x,y,z
x,-y,z
loop_
_atom_site_type_symbol
_atom_site_label
_atom_site_fract_x
_atom_site_fract_y
_atom_site_fract_z
Si Si1 0.372595 0.832623 0.738851
Si Si2 0.891443 0.670614 0.990046
Si Si3 0.542338 0.674225 0.608367
Si Si4 0.806200 0.324847 0.123265
Si Si5 0.557980 0.668939 0.811905
Si Si6 0.961419 0.831804 0.120086
Si Si7 0.437409 0.824242 0.571780
O O1 0.328673 0.729050 0.778947
O O2 0.423090 0.811841 0.796585
O O3 0.388339 0.789853 0.634474
O O4 0.352516 0.000000 0.743860
O O5 0.894737 0.500000 0.017164
O O6 0.893125 0.693752 0.878729
O O7 0.840402 0.734641 0.037389
O O8 0.941321 0.746449 0.030640
O O9 0.539011 0.500000 0.585955
O O10 0.570901 0.703850 0.705380
O O11 0.486289 0.741789 0.612706
O O12 0.574137 0.758950 0.529613
O O13 0.750000 0.260299 0.110115
O O14 0.804445 0.500000 0.125703
O O15 0.539059 0.500000 0.820301
O O16 0.514463 0.773834 0.846692
O O17 0.967885 0.000000 0.089981
O O18 0.448156 0.000000 0.568166
#
# Coordination Sequence:
#
# PCOD8206378 Si02
#       7
#     8   8   8   8   8   8   8
#     4   9  18  30  45  65  89 118 148 178 222 271
#     4   9  18  31  44  60  86 117 146 179 220 266
#     4  10  19  28  41  62  87 119 157 187 215 252
#     4   9  18  32  50  70  88 109 142 184 227 269
#     4  10  19  29  41  59  87 122 153 180 215 260
#     4  10  18  28  41  61  88 117 150 185 214 251
#     4  10  18  30  44  61  87 119 151 183 221 258
#
# _framework density 16.080181
#
# number of rings (size 3 to 8) (size 9 to 14) (size 15 to 20)
#    0.000    2.429    1.429    2.571    0.000    4.857 
#    0.000    0.000    0.000    0.000    0.000    1.000 
#    0.000    3.429    0.000    0.000    0.000    0.000 
#
# Total GULP energy -694032.556276 kJ/mol
# GULP energy per Si atom -12393.438505 kJ/mol
# Density = 1.604358 g / cm^3
# Si number density = 16.080181 Si / 1000 Ang^3
#
#
#
# Elastic Constant Matrix: (Units=GPa)
#
#
# Indices 1 2 3 4 5 6 
#
# 1 67.7546 25.0996 46.7540 0.0000 0.0000 0.0000
# 2 25.0996 53.6439 33.4927 0.0000 0.0000 0.0000
# 3 46.7540 33.4927 128.3279 0.0000 0.0000 0.0000
# 4 0.0000 0.0000 0.0000 18.9512 0.0000 0.0000
# 5 0.0000 0.0000 0.0000 0.0000 13.4493 0.0000
# 6 0.0000 0.0000 0.0000 0.0000 0.0000 13.2809
#
#
#
# Elastic Compliance Matrix: (Units=1/GPa)
#
#
# Indices 1 2 3 4 5 6 
#
# 1 0.021269 -0.006109 -0.006155 0.000000 0.000000 0.000000
# 2 -0.006109 0.024025 -0.004045 0.000000 0.000000 0.000000
# 3 -0.006155 -0.004045 0.011090 0.000000 0.000000 0.000000
# 4 0.000000 0.000000 0.000000 0.052767 0.000000 0.000000
# 5 0.000000 0.000000 0.000000 0.000000 0.074353 0.000000
# 6 0.000000 0.000000 0.000000 0.000000 0.000000 0.075296
#
#
# Mechanical properties :
#
#
# Convention : Reuss Voigt Hill
#
# Bulk Modulus (GPa) = 42.07316 51.15766 46.61541
# Shear Modulus (GPa) = 16.70337 18.76163 17.73250
#
# Velocity S-wave (km/s) = 3.22647 3.41949 3.32438
# Velocity P-wave (km/s) = 6.33258 6.89011 6.61722
#
# Compressibility (1/GPa) = 0.02376812
#
# Stress axis : x y z
#
# Youngs Moduli (GPa) = 47.01623 41.62313 90.16728
#
# Poissons Ratio (x) = 0.25428 0.55495
# Poissons Ratio (y) = 0.28723 0.36470
# Poissons Ratio (z) = 0.28937 0.16835
#
# Static dielectric constant tensor:
#      x y z
#    x 2.839840 0.000000 0.000000 
#    y 0.000000 3.113180 0.000000 
#    z 0.000000 0.000000 3.450440 
# 
# 
# High freq. dielectric constant tensor:
#      x y z
#    x 1.566840 0.000000 0.000000 
#    y 0.000000 1.625140 0.000000 
#    z 0.000000 0.000000 1.625260 
# 
# From -- ./inp_files/26467.got.cif
#   From: 2010.03.12/outbox.cif.g09.slc.cpg/sg51_14_cif.got.tgz:26467.got - 2010.04.16 13:43:02.
