data_PCOD8206116
_publ_section_title
;
Structure prediction by ZEFSAII (Michael W. Deem and Ramdas Pophale) SiO2 
 PCOD8206116
Probable space group: P M M A
;
_chemical_formula_sum "Si O2"
_cell_formula_units_Z 64
_cell_length_a 28.529921
_cell_length_b 9.068182
_cell_length_c 15.783445
_cell_angle_alpha 90.000000
_cell_angle_beta 90.000000
_cell_angle_gamma 90.000000
_cell_volume 4083.406335
_symmetry_space_group_name_H-M "P M M A"
_symmetry_group_IT_number 51
_symmetry_cell_setting 'orthorhombic'
loop_
_space_group_symop_operation_xyz
x,y,z
1/2-x,-y,z
1/2+x,-y,-z
-x,y,-z
-x,-y,-z
1/2+x,y,-z
1/2-x,y,z
x,-y,z
loop_
_atom_site_type_symbol
_atom_site_label
_atom_site_fract_x
_atom_site_fract_y
_atom_site_fract_z
Si Si1 0.804083 0.172365 0.988023
Si Si2 0.303158 0.176115 0.830624
Si Si3 0.140577 0.325909 0.343585
Si Si4 0.352413 0.824499 0.663482
Si Si5 0.448382 0.174568 0.399580
Si Si6 0.194304 0.828998 0.195138
Si Si7 0.051637 0.174286 0.591295
Si Si8 0.304230 0.329403 0.510029
O O1 0.750000 0.211596 0.994177
O O2 0.823411 0.232451 0.897765
O O3 0.812005 0.000000 0.982766
O O4 0.824967 0.231896 0.078176
O O5 0.250000 0.234066 0.817136
O O6 0.335489 0.236435 0.754560
O O7 0.302506 0.000000 0.830659
O O8 0.136729 0.500000 0.338730
O O9 0.088700 0.256580 0.339944
O O10 0.169626 0.271054 0.263865
O O11 0.166643 0.273633 0.428953
O O12 0.405748 0.767296 0.649452
O O13 0.318327 0.764280 0.591437
O O14 0.349759 0.000000 0.659667
O O15 0.501098 0.222904 0.371349
O O16 0.440945 0.231696 0.495688
O O17 0.441004 0.000000 0.391128
O O18 0.250000 0.810284 0.202412
O O19 0.180488 0.000000 0.208436
O O20 0.051962 0.000000 0.586084
O O21 0.250000 0.301507 0.489638
O O22 0.314528 0.500000 0.529063
#
# Coordination Sequence:
#
# PCOD8206116 Si02
#       8
#     8   8   8   8   8   8   8   8
#     4   7  11  22  39  60  86 111 135 168 211 253
#     4   8  13  21  37  64  93 113 132 168 213 249
#     4  11  21  31  43  62  87 115 145 182 222 253
#     4  10  17  27  45  68  87 109 145 180 208 247
#     4   9  16  30  47  61  82 113 145 180 220 261
#     4   9  17  29  46  65  84 112 148 177 205 253
#     4   8  15  27  45  65  85 109 140 182 224 252
#     4  10  21  33  40  52  84 124 148 165 202 251
#
# _framework density 15.673188
#
# number of rings (size 3 to 8) (size 9 to 14) (size 15 to 20)
#    0.000    3.000    1.250    3.375    0.000    2.000 
#    0.000    1.875    0.000    0.750    0.000    2.625 
#    0.000    7.000    0.000    0.000    0.000    0.000 
#
# Total GULP energy -792866.877763 kJ/mol
# GULP energy per Si atom -12388.544965 kJ/mol
# Density = 1.563752 g / cm^3
# Si number density = 15.673188 Si / 1000 Ang^3
#
#
#
# Elastic Constant Matrix: (Units=GPa)
#
#
# Indices 1 2 3 4 5 6 
#
# 1 81.8036 22.6905 43.2164 0.0000 0.0000 0.0000
# 2 22.6905 27.4985 26.5331 0.0000 0.0000 0.0000
# 3 43.2164 26.5331 121.0446 0.0000 0.0000 0.0000
# 4 0.0000 0.0000 0.0000 9.2681 0.0000 0.0000
# 5 0.0000 0.0000 0.0000 0.0000 10.9835 0.0000
# 6 0.0000 0.0000 0.0000 0.0000 0.0000 11.7255
#
#
#
# Elastic Compliance Matrix: (Units=1/GPa)
#
#
# Indices 1 2 3 4 5 6 
#
# 1 0.017148 -0.010453 -0.003831 0.000000 0.000000 0.000000
# 2 -0.010453 0.052493 -0.007774 0.000000 0.000000 0.000000
# 3 -0.003831 -0.007774 0.011333 0.000000 0.000000 0.000000
# 4 0.000000 0.000000 0.000000 0.107897 0.000000 0.000000
# 5 0.000000 0.000000 0.000000 0.000000 0.091045 0.000000
# 6 0.000000 0.000000 0.000000 0.000000 0.000000 0.085284
#
#
# Mechanical properties :
#
#
# Convention : Reuss Voigt Hill
#
# Bulk Modulus (GPa) = 27.13203 46.13630 36.63416
# Shear Modulus (GPa) = 11.85952 15.58921 13.72436
#
# Velocity S-wave (km/s) = 2.75376 3.15722 2.96236
# Velocity P-wave (km/s) = 5.24019 6.54149 5.92666
#
# Compressibility (1/GPa) = 0.03685681
#
# Stress axis : x y z
#
# Youngs Moduli (GPa) = 58.31683 19.05033 88.23558
#
# Poissons Ratio (x) = 0.19914 0.33802
# Poissons Ratio (y) = 0.60959 0.68597
# Poissons Ratio (z) = 0.22341 0.14810
#
# Static dielectric constant tensor:
#      x y z
#    x 3.106160 0.000000 0.000000 
#    y 0.000000 2.628980 0.000000 
#    z 0.000000 0.000000 3.290660 
# 
# 
# High freq. dielectric constant tensor:
#      x y z
#    x 1.584860 0.000000 0.000000 
#    y 0.000000 1.566020 0.000000 
#    z 0.000000 0.000000 1.599370 
# 
# From -- ./inp_files/30991.got.cif
#   From: 2010.03.12/outbox.cif.g09.slc.cpg/sg51_16_cif.got.tgz:30991.got - 2010.04.16 13:43:02.
