data_PCOD8206725
_publ_section_title
;
Structure prediction by ZEFSAII (Michael W. Deem and Ramdas Pophale) SiO2 
 PCOD8206725
Probable space group: P M M A
;
_chemical_formula_sum "Si O2"
_cell_formula_units_Z 64
_cell_length_a 17.972629
_cell_length_b 15.345989
_cell_length_c 12.103237
_cell_angle_alpha 90.000000
_cell_angle_beta 90.000000
_cell_angle_gamma 90.000000
_cell_volume 3338.166770
_symmetry_space_group_name_H-M "P M M A"
_symmetry_group_IT_number 51
_symmetry_cell_setting 'orthorhombic'
loop_
_space_group_symop_operation_xyz
x,y,z
1/2-x,-y,z
1/2+x,-y,-z
-x,y,-z
-x,-y,-z
1/2+x,y,-z
1/2-x,y,z
x,-y,z
loop_
_atom_site_type_symbol
_atom_site_label
_atom_site_fract_x
_atom_site_fract_y
_atom_site_fract_z
Si Si1 0.577546 0.402073 0.560480
Si Si2 0.954243 0.875097 0.157549
Si Si3 0.664021 0.282855 0.401956
Si Si4 0.591635 0.688188 0.171740
Si Si5 0.392478 0.093986 0.082018
Si Si6 0.945559 0.400998 0.814545
Si Si7 0.833720 0.280369 0.945780
Si Si8 0.665499 0.093910 0.338899
O O1 0.500000 0.395049 0.500000
O O2 0.610418 0.500000 0.547907
O O3 0.632140 0.331152 0.508484
O O4 0.565192 0.377354 0.686944
O O5 0.960810 0.772164 0.172633
O O6 0.895172 0.914342 0.242839
O O7 0.039612 0.906434 0.171458
O O8 0.926952 0.903482 0.038711
O O9 0.750000 0.302877 0.401285
O O10 0.632318 0.323149 0.288714
O O11 0.647349 0.178546 0.413888
O O12 0.532781 0.610152 0.151952
O O13 0.652553 0.701594 0.075785
O O14 0.340096 0.178900 0.091864
O O15 0.350175 0.000000 0.097368
O O16 0.923297 0.500000 0.840482
O O17 0.892007 0.338772 0.881854
O O18 0.750000 0.310081 0.918445
O O19 0.750000 0.106091 0.290502
O O20 0.661785 0.000000 0.403421
#
# Coordination Sequence:
#
# PCOD8206725 Si02
#       8
#     8   8   8   8   8   8   8   8
#     4  10  21  39  62  86 109 140 185 237 290 347
#     4   9  16  28  47  77 111 147 188 232 276 326
#     4  10  20  34  58  91 120 148 186 238 294 336
#     4  10  19  36  59  86 117 151 186 232 286 341
#     4  10  18  29  49  76 108 150 194 234 275 323
#     4  11  23  41  65  84 107 150 196 234 283 350
#     4  11  24  39  55  83 121 156 193 235 281 339
#     4   9  17  29  48  78 116 153 187 227 279 339
#
# _framework density 19.172198000000002
#
# number of rings (size 3 to 8) (size 9 to 14) (size 15 to 20)
#    0.000    2.000    2.500    2.250    0.000    5.250 
#    0.000    1.250    0.000    3.375    0.000    1.750 
#    0.000    0.000    0.000    0.000    0.000    0.000 
#
# Total GULP energy -792931.280599 kJ/mol
# GULP energy per Si atom -12389.551259 kJ/mol
# Density = 1.912856 g / cm^3
# Si number density = 19.172198 Si / 1000 Ang^3
#
#
#
# Elastic Constant Matrix: (Units=GPa)
#
#
# Indices 1 2 3 4 5 6 
#
# 1 86.0593 33.7668 18.7013 0.0000 0.0000 0.0000
# 2 33.7668 103.4647 28.0012 0.0000 0.0000 0.0000
# 3 18.7013 28.0012 38.7046 0.0000 0.0000 0.0000
# 4 0.0000 0.0000 0.0000 -41.5710 0.0000 0.0000
# 5 0.0000 0.0000 0.0000 0.0000 21.1884 0.0000
# 6 0.0000 0.0000 0.0000 0.0000 0.0000 23.2553
#
#
#
# Elastic Compliance Matrix: (Units=1/GPa)
#
#
# Indices 1 2 3 4 5 6 
#
# 1 0.013869 -0.003373 -0.004261 0.000000 0.000000 0.000000
# 2 -0.003373 0.012839 -0.007658 0.000000 0.000000 0.000000
# 3 -0.004261 -0.007658 0.033436 0.000000 0.000000 0.000000
# 4 0.000000 0.000000 0.000000 -0.024055 0.000000 0.000000
# 5 0.000000 0.000000 0.000000 0.000000 0.047196 0.000000
# 6 0.000000 0.000000 0.000000 0.000000 0.000000 0.043001
#
#
# Mechanical properties :
#
#
# Convention : Reuss Voigt Hill
#
# Bulk Modulus (GPa) = 33.83075 43.24078 38.53577
# Shear Modulus (GPa) = 29.98974 10.42516 20.20745
#
# Velocity S-wave (km/s) = 3.95933 2.33441 3.25005
# Velocity P-wave (km/s) = 6.21174 5.46523 5.85041
#
# Compressibility (1/GPa) = 0.02955890
#
# Stress axis : x y z
#
# Youngs Moduli (GPa) = 72.10118 77.88989 29.90781
#
# Poissons Ratio (x) = 0.26274 0.12744
# Poissons Ratio (y) = 0.24321 0.22904
# Poissons Ratio (z) = 0.30723 0.59651
#
# Static dielectric constant tensor:
#      x y z
#    x 7.604620 0.000000 0.000000 
#    y 0.000000 3.936610 0.000000 
#    z 0.000000 0.000000 4.218510 
# 
# 
# High freq. dielectric constant tensor:
#      x y z
#    x 1.738250 0.000000 0.000000 
#    y 0.000000 1.762070 0.000000 
#    z 0.000000 0.000000 1.709630 
# 
# From -- ./inp_files/17623.got.cif
#   From: 2010.03.12/outbox.cif.g09.slc.cpg/sg51_9_cif.got.tgz:17623.got - 2010.04.16 13:43:02.
