data_PCOD8206199
_publ_section_title
;
Structure prediction by ZEFSAII (Michael W. Deem and Ramdas Pophale) SiO2 
 PCOD8206199
Probable space group: P M M A
;
_chemical_formula_sum "Si O2"
_cell_formula_units_Z 64
_cell_length_a 14.767902
_cell_length_b 14.097858
_cell_length_c 18.608382
_cell_angle_alpha 90.000000
_cell_angle_beta 90.000000
_cell_angle_gamma 90.000000
_cell_volume 3874.186705
_symmetry_space_group_name_H-M "P M M A"
_symmetry_group_IT_number 51
_symmetry_cell_setting 'orthorhombic'
loop_
_space_group_symop_operation_xyz
x,y,z
1/2-x,-y,z
1/2+x,-y,-z
-x,y,-z
-x,-y,-z
1/2+x,y,-z
1/2-x,y,z
x,-y,z
loop_
_atom_site_type_symbol
_atom_site_label
_atom_site_fract_x
_atom_site_fract_y
_atom_site_fract_z
Si Si1 0.351886 0.112214 0.942610
Si Si2 0.521801 0.112593 0.182843
Si Si3 0.965572 0.215164 0.329019
Si Si4 0.648540 0.392990 0.345894
Si Si5 0.349709 0.112763 0.101632
Si Si6 0.397073 0.606689 0.492577
Si Si7 0.649304 0.779877 0.594260
Si Si8 0.855272 0.890749 0.451299
O O1 0.250000 0.143572 0.924773
O O2 0.415368 0.154593 0.880575
O O3 0.362063 0.000000 0.941701
O O4 0.379161 0.149851 0.022185
O O5 0.552976 0.155883 0.257701
O O6 0.420099 0.145665 0.162443
O O7 0.530043 0.000000 0.189690
O O8 0.926686 0.320918 0.315128
O O9 0.912425 0.169481 0.395086
O O10 0.073330 0.214324 0.344021
O O11 0.750000 0.368612 0.317666
O O12 0.620853 0.500000 0.322575
O O13 0.652812 0.386401 0.431810
O O14 0.250000 0.152014 0.121926
O O15 0.347111 0.000000 0.097699
O O16 0.500000 0.643028 0.500000
O O17 0.394915 0.500000 0.461589
O O18 0.346322 0.673578 0.436614
O O19 0.750000 0.803512 0.625469
O O20 0.623912 0.853802 0.531287
O O21 0.750000 0.877346 0.432187
O O22 0.884867 0.000000 0.447216
#
# Coordination Sequence:
#
# PCOD8206199 Si02
#       8
#     8   8   8   8   8   8   8   8
#     4   8  14  26  45  68  92 119 151 186 224 266
#     4  10  20  30  43  66  97 129 157 185 222 267
#     4  12  22  33  47  68  94 123 154 192 234 280
#     4  10  20  34  52  71  90 113 144 188 245 299
#     4   8  14  27  47  67  90 123 159 191 222 259
#     4  10  17  30  53  75  90 106 137 192 253 297
#     4  11  22  35  48  64  87 119 160 201 235 273
#     4  10  21  36  51  64  82 116 161 202 237 272
#
# _framework density 16.519596
#
# number of rings (size 3 to 8) (size 9 to 14) (size 15 to 20)
#    0.000    2.125    2.500    2.625    0.000    5.250 
#    0.000    1.250    0.000    0.000    0.000    0.000 
#    0.000    2.000    0.000    2.750    0.000    0.250 
#
# Total GULP energy -793358.826240 kJ/mol
# GULP energy per Si atom -12396.231660 kJ/mol
# Density = 1.648200 g / cm^3
# Si number density = 16.519596 Si / 1000 Ang^3
#
#
#
# Elastic Constant Matrix: (Units=GPa)
#
#
# Indices 1 2 3 4 5 6 
#
# 1 88.1053 26.7939 27.5943 0.0000 0.0000 0.0000
# 2 26.7939 64.0340 15.3182 0.0000 0.0000 0.0000
# 3 27.5943 15.3182 42.4127 0.0000 0.0000 0.0000
# 4 0.0000 0.0000 0.0000 5.5329 0.0000 0.0000
# 5 0.0000 0.0000 0.0000 0.0000 14.1998 0.0000
# 6 0.0000 0.0000 0.0000 0.0000 0.0000 17.4543
#
#
#
# Elastic Compliance Matrix: (Units=1/GPa)
#
#
# Indices 1 2 3 4 5 6 
#
# 1 0.015311 -0.004404 -0.008371 0.000000 0.000000 0.000000
# 2 -0.004404 0.018360 -0.003766 0.000000 0.000000 0.000000
# 3 -0.008371 -0.003766 0.030384 0.000000 0.000000 0.000000
# 4 0.000000 0.000000 0.000000 0.180737 0.000000 0.000000
# 5 0.000000 0.000000 0.000000 0.000000 0.070423 0.000000
# 6 0.000000 0.000000 0.000000 0.000000 0.000000 0.057292
#
#
# Mechanical properties :
#
#
# Convention : Reuss Voigt Hill
#
# Bulk Modulus (GPa) = 32.28530 37.10718 34.69624
# Shear Modulus (GPa) = 12.02167 15.76045 13.89106
#
# Velocity S-wave (km/s) = 2.70056 3.09211 2.90295
# Velocity P-wave (km/s) = 5.41388 5.93797 5.68197
#
# Compressibility (1/GPa) = 0.03097384
#
# Stress axis : x y z
#
# Youngs Moduli (GPa) = 65.31168 54.46502 32.91181
#
# Poissons Ratio (x) = 0.23987 0.27551
# Poissons Ratio (y) = 0.28764 0.12394
# Poissons Ratio (z) = 0.54673 0.20510
#
# Static dielectric constant tensor:
#      x y z
#    x 3.549240 0.000000 0.000000 
#    y 0.000000 2.950360 0.000000 
#    z 0.000000 0.000000 2.917570 
# 
# 
# High freq. dielectric constant tensor:
#      x y z
#    x 1.655660 0.000000 0.000000 
#    y 0.000000 1.599900 0.000000 
#    z 0.000000 0.000000 1.601440 
# 
# From -- ./inp_files/29963.got.cif
#   From: 2010.03.12/outbox.cif.g09.slc.cpg/sg51_15_cif.got.tgz:29963.got - 2010.04.16 13:43:02.
