data_PCOD8206159
_publ_section_title
;
Structure prediction by ZEFSAII (Michael W. Deem and Ramdas Pophale) SiO2 
 PCOD8206159
Probable space group: P M M A
;
_chemical_formula_sum "Si O2"
_cell_formula_units_Z 64
_cell_length_a 29.889216
_cell_length_b 8.577907
_cell_length_c 14.818857
_cell_angle_alpha 90.000000
_cell_angle_beta 90.000000
_cell_angle_gamma 90.000000
_cell_volume 3799.361032
_symmetry_space_group_name_H-M "P M M A"
_symmetry_group_IT_number 51
_symmetry_cell_setting 'orthorhombic'
loop_
_space_group_symop_operation_xyz
x,y,z
1/2-x,-y,z
1/2+x,-y,-z
-x,y,-z
-x,-y,-z
1/2+x,y,-z
1/2-x,y,z
x,-y,z
loop_
_atom_site_type_symbol
_atom_site_label
_atom_site_fract_x
_atom_site_fract_y
_atom_site_fract_z
Si Si1 0.937868 0.318949 0.956049
Si Si2 0.798914 0.183757 0.707125
Si Si3 0.394581 0.183555 0.547438
Si Si4 0.446411 0.181195 0.366090
Si Si5 0.025899 0.181415 0.875384
Si Si6 0.701291 0.185030 0.505622
Si Si7 0.614778 0.183348 0.802895
Si Si8 0.537594 0.680922 0.315834
O O1 0.936422 0.500000 0.979049
O O2 0.895581 0.270961 0.895888
O O3 0.981979 0.279943 0.898645
O O4 0.936420 0.224309 0.050427
O O5 0.750000 0.223870 0.747758
O O6 0.803164 0.254229 0.606630
O O7 0.837245 0.251422 0.771806
O O8 0.806548 0.000000 0.699819
O O9 0.415047 0.226812 0.449920
O O10 0.342271 0.238090 0.551146
O O11 0.419526 0.280034 0.623914
O O12 0.399585 0.000000 0.566270
O O13 0.421445 0.224381 0.273682
O O14 0.492717 0.275434 0.370563
O O15 0.458817 0.000000 0.369310
O O16 0.042648 0.221862 0.775946
O O17 0.013741 0.000000 0.880660
O O18 0.750000 0.238851 0.464575
O O19 0.700669 0.000000 0.512212
O O20 0.615675 0.000000 0.821482
O O21 0.537214 0.500000 0.291960
#
# Coordination Sequence:
#
# PCOD8206159 Si02
#       8
#     8   8   8   8   8   8   8   8
#     4  11  21  33  50  74 100 126 156 196 241 290
#     4   8  13  23  43  72 101 127 161 206 246 280
#     4  10  19  32  49  71  97 132 170 204 243 291
#     4  10  19  31  47  68  97 134 173 205 235 283
#     4  11  21  36  54  71  92 123 161 203 243 288
#     4   8  13  24  45  72  97 121 157 206 250 283
#     4  10  17  28  48  73 100 134 169 200 239 288
#     4  12  24  35  47  67  97 133 169 209 247 287
#
# _framework density 16.844937999999999
#
# number of rings (size 3 to 8) (size 9 to 14) (size 15 to 20)
#    0.000    2.000    2.500    5.250    0.000    2.000 
#    0.000    0.000    0.000    0.750    0.000    2.625 
#    0.000    7.000    0.000    0.000    0.000    0.000 
#
# Total GULP energy -793394.492497 kJ/mol
# GULP energy per Si atom -12396.788945 kJ/mol
# Density = 1.680660 g / cm^3
# Si number density = 16.844938 Si / 1000 Ang^3
#
#
#
# Elastic Constant Matrix: (Units=GPa)
#
#
# Indices 1 2 3 4 5 6 
#
# 1 121.2079 20.3605 32.9333 0.0000 0.0000 0.0000
# 2 20.3605 46.6055 16.0836 0.0000 0.0000 0.0000
# 3 32.9333 16.0836 63.8726 0.0000 0.0000 0.0000
# 4 0.0000 0.0000 0.0000 14.9099 0.0000 0.0000
# 5 0.0000 0.0000 0.0000 0.0000 23.2232 0.0000
# 6 0.0000 0.0000 0.0000 0.0000 0.0000 2.4686
#
#
#
# Elastic Compliance Matrix: (Units=1/GPa)
#
#
# Indices 1 2 3 4 5 6 
#
# 1 0.009920 -0.002813 -0.004407 0.000000 0.000000 0.000000
# 2 -0.002813 0.024296 -0.004668 0.000000 0.000000 0.000000
# 3 -0.004407 -0.004668 0.019104 0.000000 0.000000 0.000000
# 4 0.000000 0.000000 0.000000 0.067070 0.000000 0.000000
# 5 0.000000 0.000000 0.000000 0.000000 0.043060 0.000000
# 6 0.000000 0.000000 0.000000 0.000000 0.000000 0.405084
#
#
# Mechanical properties :
#
#
# Convention : Reuss Voigt Hill
#
# Bulk Modulus (GPa) = 33.84587 41.16008 37.50298
# Shear Modulus (GPa) = 8.30348 18.94093 13.62220
#
# Velocity S-wave (km/s) = 2.22263 3.35689 2.84682
# Velocity P-wave (km/s) = 5.16943 6.28591 5.75481
#
# Compressibility (1/GPa) = 0.02954570
#
# Stress axis : x y z
#
# Youngs Moduli (GPa) = 100.80514 41.15836 52.34627
#
# Poissons Ratio (x) = 0.11578 0.23067
# Poissons Ratio (y) = 0.28357 0.24433
# Poissons Ratio (z) = 0.44420 0.19211
#
# Static dielectric constant tensor:
#      x y z
#    x 3.361080 0.000000 0.000000 
#    y 0.000000 2.914140 0.000000 
#    z 0.000000 0.000000 3.158120 
# 
# 
# High freq. dielectric constant tensor:
#      x y z
#    x 1.640110 0.000000 0.000000 
#    y 0.000000 1.628450 0.000000 
#    z 0.000000 0.000000 1.630380 
# 
# From -- ./inp_files/26704.got.cif
#   From: 2010.03.12/outbox.cif.g09.slc.cpg/sg51_14_cif.got.tgz:26704.got - 2010.04.16 13:43:02.
