data_PCOD8206110
_publ_section_title
;
Structure prediction by ZEFSAII (Michael W. Deem and Ramdas Pophale) SiO2 
 PCOD8206110
Probable space group: P M M A
;
_chemical_formula_sum "Si O2"
_cell_formula_units_Z 64
_cell_length_a 30.746437
_cell_length_b 9.357707
_cell_length_c 14.242898
_cell_angle_alpha 90.000000
_cell_angle_beta 90.000000
_cell_angle_gamma 90.000000
_cell_volume 4097.911759
_symmetry_space_group_name_H-M "P M M A"
_symmetry_group_IT_number 51
_symmetry_cell_setting 'orthorhombic'
loop_
_space_group_symop_operation_xyz
x,y,z
1/2-x,-y,z
1/2+x,-y,-z
-x,y,-z
-x,-y,-z
1/2+x,y,-z
1/2-x,y,z
x,-y,z
loop_
_atom_site_type_symbol
_atom_site_label
_atom_site_fract_x
_atom_site_fract_y
_atom_site_fract_z
Si Si1 0.934897 0.340073 0.246171
Si Si2 0.613595 0.669317 0.429160
Si Si3 0.455117 0.163281 0.044063
Si Si4 0.797621 0.670324 0.356392
Si Si5 0.518064 0.836115 0.750378
Si Si6 0.040672 0.668544 0.433292
Si Si7 0.616570 0.659747 0.058060
Si Si8 0.797883 0.669816 0.144563
O O1 0.953730 0.500000 0.266232
O O2 0.911604 0.276288 0.337495
O O3 0.901003 0.346459 0.163069
O O4 0.972495 0.231105 0.219193
O O5 0.614565 0.500000 0.426740
O O6 0.663540 0.727795 0.424865
O O7 0.586185 0.720064 0.519677
O O8 0.452601 0.176086 0.156608
O O9 0.451742 0.000000 0.010323
O O10 0.500000 0.228184 0.000000
O O11 0.412626 0.244151 0.008505
O O12 0.750000 0.722507 0.393177
O O13 0.798522 0.500000 0.354351
O O14 0.805268 0.728242 0.250516
O O15 0.539035 0.749820 0.664954
O O16 0.511798 0.000000 0.719918
O O17 0.040322 0.500000 0.413922
O O18 0.000000 0.710108 0.500000
O O19 0.617439 0.500000 0.014717
O O20 0.665399 0.725110 0.070945
O O21 0.750000 0.717748 0.108651
O O22 0.801493 0.500000 0.148316
#
# Coordination Sequence:
#
# PCOD8206110 Si02
#       8
#     8   8   8   8   8   8   8   8
#     4  10  17  27  44  66  93 119 149 183 216 256
#     4   9  15  25  40  61  91 123 147 170 212 261
#     4  10  21  35  46  60  88 122 152 187 234 272
#     4   8  12  19  35  61  92 121 144 169 206 258
#     4  11  22  34  46  61  86 119 154 190 223 261
#     4  10  19  31  47  65  88 119 148 182 224 260
#     4  10  18  27  46  72  92 119 156 187 214 261
#     4   8  13  22  38  65  99 123 140 174 222 263
#
# _framework density 15.617711
#
# number of rings (size 3 to 8) (size 9 to 14) (size 15 to 20)
#    0.000    2.500    3.750    1.125    0.000    1.500 
#    0.000    0.000    0.000    0.375    0.000    0.875 
#    0.000    7.000    0.000    0.000    0.000    0.000 
#
# Total GULP energy -793017.334928 kJ/mol
# GULP energy per Si atom -12390.895858 kJ/mol
# Density = 1.558216 g / cm^3
# Si number density = 15.617711 Si / 1000 Ang^3
#
#
#
# Elastic Constant Matrix: (Units=GPa)
#
#
# Indices 1 2 3 4 5 6 
#
# 1 139.9818 33.5297 43.1967 0.0000 0.0000 0.0000
# 2 33.5297 40.0381 28.1692 0.0000 0.0000 0.0000
# 3 43.1967 28.1692 67.0914 0.0000 0.0000 0.0000
# 4 0.0000 0.0000 0.0000 17.8480 0.0000 0.0000
# 5 0.0000 0.0000 0.0000 0.0000 24.9499 0.0000
# 6 0.0000 0.0000 0.0000 0.0000 0.0000 1.8753
#
#
#
# Elastic Compliance Matrix: (Units=1/GPa)
#
#
# Indices 1 2 3 4 5 6 
#
# 1 0.009637 -0.005258 -0.003997 0.000000 0.000000 0.000000
# 2 -0.005258 0.038316 -0.012702 0.000000 0.000000 0.000000
# 3 -0.003997 -0.012702 0.022812 0.000000 0.000000 0.000000
# 4 0.000000 0.000000 0.000000 0.056029 0.000000 0.000000
# 5 0.000000 0.000000 0.000000 0.000000 0.040080 0.000000
# 6 0.000000 0.000000 0.000000 0.000000 0.000000 0.533261
#
#
# Mechanical properties :
#
#
# Convention : Reuss Voigt Hill
#
# Bulk Modulus (GPa) = 37.24361 50.76696 44.00529
# Shear Modulus (GPa) = 6.64012 18.41567 12.52789
#
# Velocity S-wave (km/s) = 2.06419 3.43761 2.83531
# Velocity P-wave (km/s) = 5.43875 6.95218 6.24150
#
# Compressibility (1/GPa) = 0.02685024
#
# Stress axis : x y z
#
# Youngs Moduli (GPa) = 103.77061 26.09854 43.83737
#
# Poissons Ratio (x) = 0.13723 0.17521
# Poissons Ratio (y) = 0.54564 0.55683
# Poissons Ratio (z) = 0.41476 0.33151
#
# Static dielectric constant tensor:
#      x y z
#    x 3.331310 0.000000 0.000000 
#    y 0.000000 2.674690 0.000000 
#    z 0.000000 0.000000 2.842650 
# 
# 
# High freq. dielectric constant tensor:
#      x y z
#    x 1.600580 0.000000 0.000000 
#    y 0.000000 1.561250 0.000000 
#    z 0.000000 0.000000 1.574900 
# 
# From -- ./inp_files/26683.got.cif
#   From: 2010.03.12/outbox.cif.g09.slc.cpg/sg51_14_cif.got.tgz:26683.got - 2010.04.16 13:43:02.
