data_PCOD8206774
_publ_section_title
;
Structure prediction by ZEFSAII (Michael W. Deem and Ramdas Pophale) SiO2 
 PCOD8206774
Probable space group: P M M A
;
_chemical_formula_sum "Si O2"
_cell_formula_units_Z 52
_cell_length_a 8.705397
_cell_length_b 26.374331
_cell_length_c 13.521465
_cell_angle_alpha 90.000000
_cell_angle_beta 90.000000
_cell_angle_gamma 90.000000
_cell_volume 3104.515140
_symmetry_space_group_name_H-M "P M M A"
_symmetry_group_IT_number 51
_symmetry_cell_setting 'orthorhombic'
loop_
_space_group_symop_operation_xyz
x,y,z
1/2-x,-y,z
1/2+x,-y,-z
-x,y,-z
-x,-y,-z
1/2+x,y,-z
1/2-x,y,z
x,-y,z
loop_
_atom_site_type_symbol
_atom_site_label
_atom_site_fract_x
_atom_site_fract_y
_atom_site_fract_z
Si Si1 0.571391 0.851158 0.703180
Si Si2 0.931674 0.602512 0.891331
Si Si3 0.929797 0.756768 0.398022
Si Si4 0.070349 0.207004 0.100863
Si Si5 0.570164 0.698564 0.201679
Si Si6 0.069261 0.942611 0.604460
Si Si7 0.067027 0.500000 0.890594
O O1 0.750000 0.854886 0.680612
O O2 0.501118 0.811233 0.626522
O O3 0.537228 0.834534 0.815250
O O4 0.495081 0.906036 0.689496
O O5 0.750000 0.597197 0.900617
O O6 0.975769 0.647677 0.817883
O O7 0.002203 0.551455 0.841271
O O8 0.000000 0.612944 0.000000
O O9 0.750000 0.764246 0.409500
O O10 0.969713 0.716306 0.312742
O O11 0.000000 0.735805 0.500000
O O12 0.250000 0.218576 0.090512
O O13 0.983000 0.259060 0.124287
O O14 0.000000 0.184685 0.000000
O O15 0.750000 0.688472 0.186807
O O16 0.250000 0.937317 0.598054
O O17 0.000000 0.925485 0.500000
O O18 0.019057 0.000000 0.630516
O O19 0.250000 0.500000 0.889467
O O20 0.000000 0.500000 0.000000
#
# Coordination Sequence:
#
# PCOD8206774 Si02
#       7
#     8   8   8   8   8   8   4
#     4  10  20  33  50  71  96 125 157 191 231 278
#     4  11  20  31  47  68  96 128 160 196 235 278
#     4  10  20  33  50  70  96 126 157 193 233 278
#     4  10  20  33  49  70  95 125 158 194 233 275
#     4  10  20  33  48  69  95 126 160 194 233 277
#     4  10  20  33  50  72  97 124 154 190 233 279
#     4  10  18  30  46  66  93 124 159 196 234 280
#
# _framework density 16.749798999999999
#
# number of rings (size 3 to 8) (size 9 to 14) (size 15 to 20)
#    0.000    1.846    0.000    6.231    0.000    4.615 
#    0.000    0.000    0.000    0.462    0.000    0.538 
#    0.000    0.000    0.000    0.000    0.000    0.000 
#
# Total GULP energy -644950.350887 kJ/mol
# GULP energy per Si atom -12402.891363 kJ/mol
# Density = 1.671168 g / cm^3
# Si number density = 16.749799 Si / 1000 Ang^3
#
#
#
# Elastic Constant Matrix: (Units=GPa)
#
#
# Indices 1 2 3 4 5 6 
#
# 1 111.6407 53.7750 42.4163 0.0000 0.0000 0.0000
# 2 53.7750 121.5468 48.0235 0.0000 0.0000 0.0000
# 3 42.4163 48.0235 90.6396 0.0000 0.0000 0.0000
# 4 0.0000 0.0000 0.0000 20.5527 0.0000 0.0000
# 5 0.0000 0.0000 0.0000 0.0000 28.1793 0.0000
# 6 0.0000 0.0000 0.0000 0.0000 0.0000 32.2034
#
#
#
# Elastic Compliance Matrix: (Units=1/GPa)
#
#
# Indices 1 2 3 4 5 6 
#
# 1 0.012255 -0.003992 -0.003620 0.000000 0.000000 0.000000
# 2 -0.003992 0.011706 -0.004334 0.000000 0.000000 0.000000
# 3 -0.003620 -0.004334 0.015023 0.000000 0.000000 0.000000
# 4 0.000000 0.000000 0.000000 0.048656 0.000000 0.000000
# 5 0.000000 0.000000 0.000000 0.000000 0.035487 0.000000
# 6 0.000000 0.000000 0.000000 0.000000 0.000000 0.031053
#
#
# Mechanical properties :
#
#
# Convention : Reuss Voigt Hill
#
# Bulk Modulus (GPa) = 66.25866 68.02853 67.14360
# Shear Modulus (GPa) = 27.30714 28.16122 27.73418
#
# Velocity S-wave (km/s) = 4.04207 4.10480 4.07356
# Velocity P-wave (km/s) = 7.83762 7.94786 7.89293
#
# Compressibility (1/GPa) = 0.01509237
#
# Stress axis : x y z
#
# Youngs Moduli (GPa) = 81.59603 85.42838 66.56396
#
# Poissons Ratio (x) = 0.34101 0.24098
# Poissons Ratio (y) = 0.32571 0.28849
# Poissons Ratio (z) = 0.29540 0.37025
#
# Static dielectric constant tensor:
#      x y z
#    x 3.288590 0.000000 0.000000 
#    y 0.000000 3.382410 0.000000 
#    z 0.000000 0.000000 3.015980 
# 
# 
# High freq. dielectric constant tensor:
#      x y z
#    x 1.669080 0.000000 0.000000 
#    y 0.000000 1.641300 0.000000 
#    z 0.000000 0.000000 1.620700 
# 
# From -- ./inp_files/14598.got.cif
#   From: 2010.03.12/outbox.cif.g09.slc.cpg/sg51_8_cif.got.tgz:14598.got - 2010.04.16 13:43:02.
