data_PCOD8206591
_publ_section_title
;
Structure prediction by ZEFSAII (Michael W. Deem and Ramdas Pophale) SiO2 
 PCOD8206591
Probable space group: P M M A
;
_chemical_formula_sum "Si O2"
_cell_formula_units_Z 64
_cell_length_a 25.288097
_cell_length_b 9.298088
_cell_length_c 16.909677
_cell_angle_alpha 90.000000
_cell_angle_beta 90.000000
_cell_angle_gamma 90.000000
_cell_volume 3975.988438
_symmetry_space_group_name_H-M "P M M A"
_symmetry_group_IT_number 51
_symmetry_cell_setting 'orthorhombic'
loop_
_space_group_symop_operation_xyz
x,y,z
1/2-x,-y,z
1/2+x,-y,-z
-x,y,-z
-x,-y,-z
1/2+x,y,-z
1/2-x,y,z
x,-y,z
loop_
_atom_site_type_symbol
_atom_site_label
_atom_site_fract_x
_atom_site_fract_y
_atom_site_fract_z
Si Si1 0.690583 0.832838 0.426008
Si Si2 0.438994 0.165414 0.850465
Si Si3 0.096917 0.332956 0.305236
Si Si4 0.562889 0.337293 0.998744
Si Si5 0.503273 0.668322 0.410333
Si Si6 0.405752 0.166770 0.679359
Si Si7 0.562385 0.831904 0.845253
Si Si8 0.810068 0.333678 0.580980
O O1 0.750000 0.784271 0.402662
O O2 0.652412 0.794694 0.352990
O O3 0.670658 0.751853 0.504065
O O4 0.688533 0.000000 0.446392
O O5 0.406300 0.205964 0.772090
O O6 0.500369 0.197264 0.832968
O O7 0.431372 0.000000 0.875563
O O8 0.416270 0.263693 0.920860
O O9 0.093072 0.500000 0.280398
O O10 0.093429 0.234698 0.228226
O O11 0.152928 0.295316 0.345109
O O12 0.051147 0.292575 0.366989
O O13 0.584593 0.500000 0.993674
O O14 0.583534 0.246345 0.924159
O O15 0.500000 0.334792 0.000000
O O16 0.500000 0.725087 0.500000
O O17 0.514991 0.500000 0.408496
O O18 0.551284 0.744033 0.367354
O O19 0.419929 0.000000 0.667641
O O20 0.575272 0.000000 0.851998
O O21 0.750000 0.292683 0.604130
O O22 0.815710 0.500000 0.558818
#
# Coordination Sequence:
#
# PCOD8206591 Si02
#       8
#     8   8   8   8   8   8   8   8
#     4   9  18  32  49  68  90 118 155 198 237 269
#     4   9  17  29  43  63  91 121 152 185 223 270
#     4  10  19  30  45  66  93 121 152 190 230 272
#     4   9  17  28  44  65  90 120 152 184 224 269
#     4  10  20  31  43  62  91 124 154 185 225 272
#     4  10  19  31  46  66  92 122 154 188 226 272
#     4  10  18  29  45  65  92 123 153 185 224 271
#     4   9  18  33  51  68  88 118 157 198 237 274
#
# _framework density 16.096626000000001
#
# number of rings (size 3 to 8) (size 9 to 14) (size 15 to 20)
#    0.000    2.500    1.250    1.500    0.000    4.750 
#    0.000    0.000    0.000    0.000    0.000    0.875 
#    0.000    3.000    0.000    0.000    0.000    0.000 
#
# Total GULP energy -793680.026247 kJ/mol
# GULP energy per Si atom -12401.250410 kJ/mol
# Density = 1.605999 g / cm^3
# Si number density = 16.096626 Si / 1000 Ang^3
#
#
#
# Elastic Constant Matrix: (Units=GPa)
#
#
# Indices 1 2 3 4 5 6 
#
# 1 64.7222 36.6161 52.7651 0.0000 0.0000 0.0000
# 2 36.6161 72.9113 67.4925 0.0000 0.0000 0.0000
# 3 52.7651 67.4925 144.8772 0.0000 0.0000 0.0000
# 4 0.0000 0.0000 0.0000 32.1666 0.0000 0.0000
# 5 0.0000 0.0000 0.0000 0.0000 18.7329 0.0000
# 6 0.0000 0.0000 0.0000 0.0000 0.0000 16.3307
#
#
#
# Elastic Compliance Matrix: (Units=1/GPa)
#
#
# Indices 1 2 3 4 5 6 
#
# 1 0.023803 -0.006908 -0.005451 0.000000 0.000000 0.000000
# 2 -0.006908 0.026119 -0.009652 0.000000 0.000000 0.000000
# 3 -0.005451 -0.009652 0.013384 0.000000 0.000000 0.000000
# 4 0.000000 0.000000 0.000000 0.031088 0.000000 0.000000
# 5 0.000000 0.000000 0.000000 0.000000 0.053382 0.000000
# 6 0.000000 0.000000 0.000000 0.000000 0.000000 0.061235
#
#
# Mechanical properties :
#
#
# Convention : Reuss Voigt Hill
#
# Bulk Modulus (GPa) = 51.85568 66.25088 59.05328
# Shear Modulus (GPa) = 19.27078 21.82182 20.54630
#
# Velocity S-wave (km/s) = 3.46380 3.68595 3.57660
# Velocity P-wave (km/s) = 6.94856 7.70471 7.33638
#
# Compressibility (1/GPa) = 0.01928429
#
# Stress axis : x y z
#
# Youngs Moduli (GPa) = 42.01216 38.28632 74.71550
#
# Poissons Ratio (x) = 0.26448 0.40727
# Poissons Ratio (y) = 0.29021 0.72115
# Poissons Ratio (z) = 0.22901 0.36954
#
# Static dielectric constant tensor:
#      x y z
#    x 2.917350 0.000000 0.000000 
#    y 0.000000 3.103140 0.000000 
#    z 0.000000 0.000000 3.140120 
# 
# 
# High freq. dielectric constant tensor:
#      x y z
#    x 1.583500 0.000000 0.000000 
#    y 0.000000 1.623740 0.000000 
#    z 0.000000 0.000000 1.622790 
# 
# From -- ./inp_files/30904.got.cif
#   From: 2010.03.12/outbox.cif.g09.slc.cpg/sg51_16_cif.got.tgz:30904.got - 2010.04.16 13:43:02.
