data_PCOD8206792
_publ_section_title
;
Structure prediction by ZEFSAII (Michael W. Deem and Ramdas Pophale) SiO2 
 PCOD8206792
Probable space group: P M M A
;
_chemical_formula_sum "Si O2"
_cell_formula_units_Z 48
_cell_length_a 31.124022
_cell_length_b 8.709107
_cell_length_c 9.808574
_cell_angle_alpha 90.000000
_cell_angle_beta 90.000000
_cell_angle_gamma 90.000000
_cell_volume 2658.735980
_symmetry_space_group_name_H-M "P M M A"
_symmetry_group_IT_number 51
_symmetry_cell_setting 'orthorhombic'
loop_
_space_group_symop_operation_xyz
x,y,z
1/2-x,-y,z
1/2+x,-y,-z
-x,y,-z
-x,-y,-z
1/2+x,y,-z
1/2-x,y,z
x,-y,z
loop_
_atom_site_type_symbol
_atom_site_label
_atom_site_fract_x
_atom_site_fract_y
_atom_site_fract_z
Si Si1 0.861250 0.181771 0.427482
Si Si2 0.606856 0.182590 0.709052
Si Si3 0.202027 0.816422 0.796122
Si Si4 0.130314 0.818301 0.997877
Si Si5 0.564536 0.819459 0.227827
Si Si6 0.015359 0.320094 0.350976
O O1 0.863576 0.243060 0.583108
O O2 0.819333 0.242976 0.346062
O O3 0.904471 0.233895 0.350737
O O4 0.859411 0.000000 0.425411
O O5 0.626612 0.250188 0.849511
O O6 0.558398 0.234661 0.690339
O O7 0.606901 0.000000 0.713446
O O8 0.250000 0.747964 0.808168
O O9 0.203147 0.000000 0.797522
O O10 0.173133 0.754817 0.922460
O O11 0.134137 0.000000 0.002667
O O12 0.087480 0.773770 0.914052
O O13 0.520504 0.725693 0.239920
O O14 0.554589 0.000000 0.234546
O O15 0.023884 0.500000 0.347774
O O16 0.000000 0.264340 0.500000
#
# Coordination Sequence:
#
# PCOD8206792 Si02
#       6
#     8   8   8   8   8   8
#     4   8  14  24  42  64  85 116 155 184 211 261
#     4  10  18  30  47  66  91 122 157 191 223 263
#     4   8  13  24  42  65  95 124 145 176 228 276
#     4   8  16  28  44  67  92 121 155 188 222 269
#     4   9  16  30  48  64  86 121 161 188 218 264
#     4  11  22  32  44  66  93 118 154 198 236 269
#
# _framework density 18.053692000000002
#
# number of rings (size 3 to 8) (size 9 to 14) (size 15 to 20)
#    0.000    3.000    1.667    2.500    0.000    1.333 
#    0.000    5.000    0.000    5.000    0.000    0.000 
#    0.000   25.333    0.000    0.000    0.000    0.000 
#
# Total GULP energy -594841.854941 kJ/mol
# GULP energy per Si atom -12392.538645 kJ/mol
# Density = 1.801260 g / cm^3
# Si number density = 18.053692 Si / 1000 Ang^3
#
#
#
# Elastic Constant Matrix: (Units=GPa)
#
#
# Indices 1 2 3 4 5 6 
#
# 1 128.1930 1.8082 78.2024 0.0000 0.0000 0.0000
# 2 1.8082 5.7162 11.1673 0.0000 0.0000 0.0000
# 3 78.2024 11.1673 175.0049 0.0000 0.0000 0.0000
# 4 0.0000 0.0000 0.0000 9.3041 0.0000 0.0000
# 5 0.0000 0.0000 0.0000 0.0000 22.2137 0.0000
# 6 0.0000 0.0000 0.0000 0.0000 0.0000 -0.9622
#
#
#
# Elastic Compliance Matrix: (Units=1/GPa)
#
#
# Indices 1 2 3 4 5 6 
#
# 1 0.010962 0.006971 -0.005343 0.000000 0.000000 0.000000
# 2 0.006971 0.204291 -0.016151 0.000000 0.000000 0.000000
# 3 -0.005343 -0.016151 0.009132 0.000000 0.000000 0.000000
# 4 0.000000 0.000000 0.000000 0.107480 0.000000 0.000000
# 5 0.000000 0.000000 0.000000 0.000000 0.045017 0.000000
# 6 0.000000 0.000000 0.000000 0.000000 0.000000 -1.039328
#
#
# Mechanical properties :
#
#
# Convention : Reuss Voigt Hill
#
# Bulk Modulus (GPa) = 5.11931 54.58557 29.85244
# Shear Modulus (GPa) = -8.79839 20.62685 5.91423
#
# Velocity S-wave (km/s) = -2.20999 3.38380 1.81191
# Velocity P-wave (km/s) = 1.91580 6.75037 4.57697
#
# Compressibility (1/GPa) = 0.19533875
#
# Stress axis : x y z
#
# Youngs Moduli (GPa) = 91.22402 4.89498 109.49929
#
# Poissons Ratio (x) = -0.03412 0.58509
# Poissons Ratio (y) = -0.63595 1.76856
# Poissons Ratio (z) = 0.48744 0.07906
#
# Static dielectric constant tensor:
#      x y z
#    x 3.432880 0.000000 0.000000 
#    y 0.000000 2.745770 0.000000 
#    z 0.000000 0.000000 3.935100 
# 
# 
# High freq. dielectric constant tensor:
#      x y z
#    x 1.689450 0.000000 0.000000 
#    y 0.000000 1.641370 0.000000 
#    z 0.000000 0.000000 1.705380 
# 
# From -- ./inp_files/13025.got.cif
#   From: 2010.03.12/outbox.cif.g09.slc.cpg/sg51_7_cif.got.tgz:13025.got - 2010.04.16 13:43:02.
