data_PCOD8206214
_publ_section_title
;
Structure prediction by ZEFSAII (Michael W. Deem and Ramdas Pophale) SiO2 
 PCOD8206214
Probable space group: P M M A
;
_chemical_formula_sum "Si O2"
_cell_formula_units_Z 64
_cell_length_a 21.615344
_cell_length_b 18.516030
_cell_length_c 9.016959
_cell_angle_alpha 90.000000
_cell_angle_beta 90.000000
_cell_angle_gamma 90.000000
_cell_volume 3608.860728
_symmetry_space_group_name_H-M "P M M A"
_symmetry_group_IT_number 51
_symmetry_cell_setting 'orthorhombic'
loop_
_space_group_symop_operation_xyz
x,y,z
1/2-x,-y,z
1/2+x,-y,-z
-x,y,-z
-x,-y,-z
1/2+x,y,-z
1/2-x,y,z
x,-y,z
loop_
_atom_site_type_symbol
_atom_site_label
_atom_site_fract_x
_atom_site_fract_y
_atom_site_fract_z
Si Si1 0.385743 0.163063 0.229802
Si Si2 0.572909 0.920115 0.509165
Si Si3 0.319003 0.724758 0.404553
Si Si4 0.886790 0.218170 0.330559
Si Si5 0.492258 0.272902 0.176565
Si Si6 0.819754 0.795367 0.035499
Si Si7 0.820351 0.641829 0.882444
Si Si8 0.551585 0.578448 0.872851
O O1 0.404650 0.091363 0.319816
O O2 0.328353 0.201606 0.311691
O O3 0.444466 0.215495 0.238282
O O4 0.364218 0.149940 0.059359
O O5 0.500000 0.915419 0.500000
O O6 0.599965 0.859456 0.401920
O O7 0.595597 0.000000 0.460225
O O8 0.250000 0.724701 0.467959
O O9 0.363895 0.724265 0.546806
O O10 0.328638 0.656872 0.294059
O O11 0.943819 0.257416 0.255207
O O12 0.835234 0.202070 0.208061
O O13 0.467130 0.352275 0.226525
O O14 0.500000 0.266819 0.000000
O O15 0.750000 0.821558 0.014597
O O16 0.830273 0.714743 0.974882
O O17 0.750000 0.611244 0.912083
O O18 0.876750 0.588838 0.930853
O O19 0.549406 0.500000 0.790673
O O20 0.500000 0.576382 0.000000
#
# Coordination Sequence:
#
# PCOD8206214 Si02
#       8
#     8   8   8   8   8   8   8   8
#     4  10  17  32  54  74 101 135 163 218 254 305
#     4  10  21  35  51  77 105 133 168 211 266 322
#     4   9  18  31  49  75 102 131 173 218 256 298
#     4  11  20  31  54  78 106 137 168 221 261 313
#     4  11  18  31  52  80 105 132 171 214 265 313
#     4  10  18  31  54  79 102 132 177 219 253 299
#     4   9  17  33  52  75 104 139 181 228 264 308
#     4  10  19  31  49  77 114 144 171 219 272 319
#
# _framework density 17.734127999999998
#
# number of rings (size 3 to 8) (size 9 to 14) (size 15 to 20)
#    0.000    2.000    5.000    2.250    0.000    0.250 
#    0.000    0.625    0.000   18.000    0.000    0.000 
#    0.000    4.000    0.000    0.000    0.000    0.000 
#
# Total GULP energy -792842.086941 kJ/mol
# GULP energy per Si atom -12388.157608 kJ/mol
# Density = 1.769376 g / cm^3
# Si number density = 17.734128 Si / 1000 Ang^3
#
#
#
# Elastic Constant Matrix: (Units=GPa)
#
#
# Indices 1 2 3 4 5 6 
#
# 1 111.6617 35.1621 30.8830 0.0000 0.0000 0.0000
# 2 35.1621 73.5184 20.8255 0.0000 0.0000 0.0000
# 3 30.8830 20.8255 84.4068 0.0000 0.0000 0.0000
# 4 0.0000 0.0000 0.0000 5.2523 0.0000 0.0000
# 5 0.0000 0.0000 0.0000 0.0000 32.3874 0.0000
# 6 0.0000 0.0000 0.0000 0.0000 0.0000 1.8957
#
#
#
# Elastic Compliance Matrix: (Units=1/GPa)
#
#
# Indices 1 2 3 4 5 6 
#
# 1 0.011202 -0.004512 -0.002985 0.000000 0.000000 0.000000
# 2 -0.004512 0.016442 -0.002406 0.000000 0.000000 0.000000
# 3 -0.002985 -0.002406 0.013533 0.000000 0.000000 0.000000
# 4 0.000000 0.000000 0.000000 0.190393 0.000000 0.000000
# 5 0.000000 0.000000 0.000000 0.000000 0.030876 0.000000
# 6 0.000000 0.000000 0.000000 0.000000 0.000000 0.527503
#
#
# Mechanical properties :
#
#
# Convention : Reuss Voigt Hill
#
# Bulk Modulus (GPa) = 46.79328 49.25865 48.02596
# Shear Modulus (GPa) = 6.12086 20.08817 13.10452
#
# Velocity S-wave (km/s) = 1.85983 3.36927 2.72130
# Velocity P-wave (km/s) = 5.57272 6.55534 6.08390
#
# Compressibility (1/GPa) = 0.02137059
#
# Stress axis : x y z
#
# Youngs Moduli (GPa) = 89.26855 60.82169 73.89205
#
# Poissons Ratio (x) = 0.27443 0.22060
# Poissons Ratio (y) = 0.40278 0.17776
# Poissons Ratio (z) = 0.26651 0.14632
#
# Static dielectric constant tensor:
#      x y z
#    x 3.573630 0.000000 0.000000 
#    y 0.000000 3.294530 0.000000 
#    z 0.000000 0.000000 3.409720 
# 
# 
# High freq. dielectric constant tensor:
#      x y z
#    x 1.707810 0.000000 0.000000 
#    y 0.000000 1.645830 0.000000 
#    z 0.000000 0.000000 1.670700 
# 
# From -- ./inp_files/11956.got.cif
#   From: 2010.03.12/outbox.cif.g09.slc.cpg/sg51_6_cif.got.tgz:11956.got - 2010.04.16 13:43:02.
