data_PCOD8206277
_publ_section_title
;
Structure prediction by ZEFSAII (Michael W. Deem and Ramdas Pophale) SiO2 
 PCOD8206277
Probable space group: P M M A
;
_chemical_formula_sum "Si O2"
_cell_formula_units_Z 64
_cell_length_a 9.382295
_cell_length_b 21.855353
_cell_length_c 20.961438
_cell_angle_alpha 90.000000
_cell_angle_beta 90.000000
_cell_angle_gamma 90.000000
_cell_volume 4298.213485
_symmetry_space_group_name_H-M "P M M A"
_symmetry_group_IT_number 51
_symmetry_cell_setting 'orthorhombic'
loop_
_space_group_symop_operation_xyz
x,y,z
1/2-x,-y,z
1/2+x,-y,-z
-x,y,-z
-x,-y,-z
1/2+x,y,-z
1/2-x,y,z
x,-y,z
loop_
_atom_site_type_symbol
_atom_site_label
_atom_site_fract_x
_atom_site_fract_y
_atom_site_fract_z
Si Si1 0.412421 0.842461 0.322947
Si Si2 0.082493 0.930426 0.435701
Si Si3 0.590933 0.931187 0.795069
Si Si4 0.083567 0.429228 0.063629
Si Si5 0.408244 0.333478 0.165740
Si Si6 0.092405 0.237913 0.054577
Si Si7 0.090280 0.153026 0.870412
Si Si8 0.088634 0.248018 0.754685
O O1 0.250000 0.819646 0.331809
O O2 0.467934 0.879064 0.385019
O O3 0.423560 0.891131 0.267278
O O4 0.508451 0.783020 0.305905
O O5 0.250000 0.924537 0.448269
O O6 0.000000 0.914817 0.500000
O O7 0.046459 0.000000 0.412604
O O8 0.750000 0.924460 0.823759
O O9 0.477437 0.910629 0.847765
O O10 0.556737 0.000000 0.774783
O O11 0.250000 0.414952 0.051403
O O12 0.055014 0.500000 0.078637
O O13 0.030434 0.391902 0.126278
O O14 0.000000 0.408753 0.000000
O O15 0.250000 0.348109 0.193430
O O16 0.394013 0.278800 0.116302
O O17 0.510673 0.311450 0.223481
O O18 0.250000 0.221675 0.028836
O O19 0.005176 0.176568 0.071140
O O20 0.000000 0.272382 0.000000
O O21 0.250000 0.141049 0.894381
O O22 0.088381 0.201595 0.813235
O O23 0.250000 0.264233 0.734104
#
# Coordination Sequence:
#
# PCOD8206277 Si02
#       8
#     8   8   8   8   8   8   8   8
#     4   9  16  27  42  58  78 103 130 160 195 234
#     4   9  17  28  41  58  81 110 142 172 201 235
#     4   9  16  26  41  58  73  91 116 146 181 222
#     4   9  17  28  41  58  81 109 140 171 201 235
#     4   9  17  28  41  57  78 103 129 158 194 234
#     4  10  18  27  40  56  72  91 116 146 182 223
#     4   9  17  28  39  53  73  92 112 142 181 224
#     4   9  17  27  40  58  77  97 124 161 200 234
#
# _framework density 14.889906999999999
#
# number of rings (size 3 to 8) (size 9 to 14) (size 15 to 20)
#    0.000    2.875    0.000    1.875    0.000    6.250 
#    0.000    0.000    0.000    2.625    0.000    0.000 
#    0.000    0.000    0.000    0.000    0.000    0.625 
#
# Total GULP energy -793139.946429 kJ/mol
# GULP energy per Si atom -12392.811663 kJ/mol
# Density = 1.485602 g / cm^3
# Si number density = 14.889907 Si / 1000 Ang^3
#
#
#
# Elastic Constant Matrix: (Units=GPa)
#
#
# Indices 1 2 3 4 5 6 
#
# 1 92.2598 35.6069 34.8106 0.0000 0.0000 0.0000
# 2 35.6069 64.8952 31.9423 0.0000 0.0000 0.0000
# 3 34.8106 31.9423 49.0665 0.0000 0.0000 0.0000
# 4 0.0000 0.0000 0.0000 25.8555 0.0000 0.0000
# 5 0.0000 0.0000 0.0000 0.0000 21.5518 0.0000
# 6 0.0000 0.0000 0.0000 0.0000 0.0000 16.1255
#
#
#
# Elastic Compliance Matrix: (Units=1/GPa)
#
#
# Indices 1 2 3 4 5 6 
#
# 1 0.015683 -0.004604 -0.008130 0.000000 0.000000 0.000000
# 2 -0.004604 0.024027 -0.012375 0.000000 0.000000 0.000000
# 3 -0.008130 -0.012375 0.034204 0.000000 0.000000 0.000000
# 4 0.000000 0.000000 0.000000 0.038677 0.000000 0.000000
# 5 0.000000 0.000000 0.000000 0.000000 0.046400 0.000000
# 6 0.000000 0.000000 0.000000 0.000000 0.000000 0.062013
#
#
# Mechanical properties :
#
#
# Convention : Reuss Voigt Hill
#
# Bulk Modulus (GPa) = 42.19896 45.66013 43.92955
# Shear Modulus (GPa) = 17.91345 19.63068 18.77206
#
# Velocity S-wave (km/s) = 3.47228 3.63490 3.55452
# Velocity P-wave (km/s) = 6.66917 6.95330 6.81272
#
# Compressibility (1/GPa) = 0.02369727
#
# Stress axis : x y z
#
# Youngs Moduli (GPa) = 63.76322 41.62042 29.23595
#
# Poissons Ratio (x) = 0.19160 0.23768
# Poissons Ratio (y) = 0.29354 0.36180
# Poissons Ratio (z) = 0.51837 0.51507
#
# Static dielectric constant tensor:
#      x y z
#    x 3.140140 0.000000 0.000000 
#    y 0.000000 2.785700 0.000000 
#    z 0.000000 0.000000 2.675080 
# 
# 
# High freq. dielectric constant tensor:
#      x y z
#    x 1.580310 0.000000 0.000000 
#    y 0.000000 1.541820 0.000000 
#    z 0.000000 0.000000 1.529830 
# 
# From -- ./inp_files/32649.got.cif
#   From: 2010.03.12/outbox.cif.g09.slc.cpg/sg51_17_cif.got.tgz:32649.got - 2010.04.16 13:43:02.
