data_PCOD8206027
_publ_section_title
;
Structure prediction by ZEFSAII (Michael W. Deem and Ramdas Pophale) SiO2 
 PCOD8206027
Probable space group: P M M A
;
_chemical_formula_sum "Si O2"
_cell_formula_units_Z 64
_cell_length_a 9.202764
_cell_length_b 18.293964
_cell_length_c 26.658986
_cell_angle_alpha 90.000000
_cell_angle_beta 90.000000
_cell_angle_gamma 90.000000
_cell_volume 4488.174476
_symmetry_space_group_name_H-M "P M M A"
_symmetry_group_IT_number 51
_symmetry_cell_setting 'orthorhombic'
loop_
_space_group_symop_operation_xyz
x,y,z
1/2-x,-y,z
1/2+x,-y,-z
-x,y,-z
-x,-y,-z
1/2+x,y,-z
1/2-x,y,z
x,-y,z
loop_
_atom_site_type_symbol
_atom_site_label
_atom_site_fract_x
_atom_site_fract_y
_atom_site_fract_z
Si Si1 0.419499 0.832249 0.549131
Si Si2 0.422931 0.330874 0.748232
Si Si3 0.919325 0.915752 0.350136
Si Si4 0.589533 0.712540 0.598334
Si Si5 0.086474 0.796578 0.297290
Si Si6 0.918859 0.416217 0.662702
Si Si7 0.922756 0.418772 0.155592
Si Si8 0.089364 0.413033 0.953725
O O1 0.500000 0.862980 0.500000
O O2 0.250000 0.829273 0.538239
O O3 0.459418 0.886086 0.594643
O O4 0.474425 0.749830 0.561115
O O5 0.250000 0.323482 0.742843
O O6 0.495769 0.251092 0.742756
O O7 0.479050 0.388213 0.707150
O O8 0.472106 0.361435 0.802315
O O9 0.750000 0.903264 0.339505
O O10 0.008382 0.874167 0.306805
O O11 0.964017 0.000000 0.347919
O O12 0.750000 0.718376 0.573786
O O13 0.588339 0.752693 0.651368
O O14 0.548471 0.628455 0.611038
O O15 0.250000 0.810067 0.277349
O O16 0.750000 0.404744 0.678198
O O17 0.955778 0.500000 0.651495
O O18 0.750000 0.423504 0.152739
O O19 0.983684 0.500000 0.168574
O O20 0.980234 0.392622 0.100696
O O21 0.250000 0.379544 0.958093
O O22 0.095370 0.500000 0.957965
O O23 0.000000 0.378870 0.000000
#
# Coordination Sequence:
#
# PCOD8206027 Si02
#       8
#     8   8   8   8   8   8   8   8
#     4  10  19  30  45  63  82 103 125 151 183 218
#     4  10  17  25  39  57  77 103 134 164 195 233
#     4   9  18  32  48  66  86 105 127 154 180 211
#     4   8  15  28  43  57  75 100 127 152 182 224
#     4   9  17  29  43  59  80 105 130 155 187 226
#     4   9  17  28  41  58  80 102 123 155 200 240
#     4   8  14  23  34  50  73 100 131 169 209 243
#     4   8  13  22  34  46  63  90 126 167 207 244
#
# _framework density 14.259695000000001
#
# number of rings (size 3 to 8) (size 9 to 14) (size 15 to 20)
#    0.000    3.125    0.000    3.000    0.000    4.750 
#    0.000    1.250    0.000    3.375    0.000    0.000 
#    0.000    0.000    0.000    0.000    0.000    0.625 
#
# Total GULP energy -793203.730295 kJ/mol
# GULP energy per Si atom -12393.808286 kJ/mol
# Density = 1.422724 g / cm^3
# Si number density = 14.259695 Si / 1000 Ang^3
#
#
#
# Elastic Constant Matrix: (Units=GPa)
#
#
# Indices 1 2 3 4 5 6 
#
# 1 68.2156 39.8194 36.2969 0.0000 0.0000 0.0000
# 2 39.8194 94.7209 43.5945 0.0000 0.0000 0.0000
# 3 36.2969 43.5945 67.1049 0.0000 0.0000 0.0000
# 4 0.0000 0.0000 0.0000 12.4376 0.0000 0.0000
# 5 0.0000 0.0000 0.0000 0.0000 19.4019 0.0000
# 6 0.0000 0.0000 0.0000 0.0000 0.0000 18.0626
#
#
#
# Elastic Compliance Matrix: (Units=1/GPa)
#
#
# Indices 1 2 3 4 5 6 
#
# 1 0.022416 -0.005482 -0.008563 0.000000 0.000000 0.000000
# 2 -0.005482 0.016401 -0.007690 0.000000 0.000000 0.000000
# 3 -0.008563 -0.007690 0.024529 0.000000 0.000000 0.000000
# 4 0.000000 0.000000 0.000000 0.080402 0.000000 0.000000
# 5 0.000000 0.000000 0.000000 0.000000 0.051541 0.000000
# 6 0.000000 0.000000 0.000000 0.000000 0.000000 0.055363
#
#
# Mechanical properties :
#
#
# Convention : Reuss Voigt Hill
#
# Bulk Modulus (GPa) = 50.31108 52.16256 51.23682
# Shear Modulus (GPa) = 16.62523 17.33579 16.98051
#
# Velocity S-wave (km/s) = 3.41822 3.49050 3.45455
# Velocity P-wave (km/s) = 7.13705 7.27356 7.20563
#
# Compressibility (1/GPa) = 0.01987634
#
# Stress axis : x y z
#
# Youngs Moduli (GPa) = 44.61105 60.97178 40.76745
#
# Poissons Ratio (x) = 0.33426 0.34910
# Poissons Ratio (y) = 0.24457 0.31348
# Poissons Ratio (z) = 0.38202 0.46885
#
# Static dielectric constant tensor:
#      x y z
#    x 2.850130 0.000000 0.000000 
#    y 0.000000 2.755530 0.000000 
#    z 0.000000 0.000000 2.796850 
# 
# 
# High freq. dielectric constant tensor:
#      x y z
#    x 1.545460 0.000000 0.000000 
#    y 0.000000 1.516840 0.000000 
#    z 0.000000 0.000000 1.518700 
# 
# From -- ./inp_files/36430.got.cif
#   From: 2010.03.12/outbox.cif.g09.slc.cpg/sg51_19_cif.got.tgz:36430.got - 2010.04.16 13:43:02.
