data_PCOD8206682
_publ_section_title
;
Structure prediction by ZEFSAII (Michael W. Deem and Ramdas Pophale) SiO2 
 PCOD8206682
Probable space group: P M M A
;
_chemical_formula_sum "Si O2"
_cell_formula_units_Z 64
_cell_length_a 19.188204
_cell_length_b 13.478880
_cell_length_c 14.330883
_cell_angle_alpha 90.000000
_cell_angle_beta 90.000000
_cell_angle_gamma 90.000000
_cell_volume 3706.475078
_symmetry_space_group_name_H-M "P M M A"
_symmetry_group_IT_number 51
_symmetry_cell_setting 'orthorhombic'
loop_
_space_group_symop_operation_xyz
x,y,z
1/2-x,-y,z
1/2+x,-y,-z
-x,y,-z
-x,-y,-z
1/2+x,y,-z
1/2-x,y,z
x,-y,z
loop_
_atom_site_type_symbol
_atom_site_label
_atom_site_fract_x
_atom_site_fract_y
_atom_site_fract_z
Si Si1 0.325673 0.614167 0.594540
Si Si2 0.330147 0.284472 0.411965
Si Si3 0.586396 0.382827 0.750287
Si Si4 0.832261 0.890239 0.246490
Si Si5 0.830635 0.295214 0.125834
Si Si6 0.667258 0.890231 0.456322
Si Si7 0.430336 0.613379 0.740594
Si Si8 0.671359 0.387210 0.932976
O O1 0.250000 0.664727 0.618489
O O2 0.321452 0.500000 0.621281
O O3 0.339399 0.625463 0.484914
O O4 0.387002 0.664486 0.655514
O O5 0.250000 0.270483 0.380993
O O6 0.374555 0.312400 0.322428
O O7 0.360043 0.186834 0.465411
O O8 0.594025 0.500000 0.725579
O O9 0.507312 0.341480 0.752370
O O10 0.617965 0.361106 0.851477
O O11 0.750000 0.896813 0.245662
O O12 0.856151 0.811120 0.167340
O O13 0.857400 0.860008 0.351340
O O14 0.862366 0.000000 0.221171
O O15 0.750000 0.317076 0.153189
O O16 0.882427 0.377098 0.168163
O O17 0.840144 0.306079 0.014724
O O18 0.750000 0.889429 0.458968
O O19 0.638915 0.000000 0.481318
O O20 0.443806 0.500000 0.717110
O O21 0.750000 0.378009 0.893912
O O22 0.658922 0.500000 0.969748
#
# Coordination Sequence:
#
# PCOD8206682 Si02
#       8
#     8   8   8   8   8   8   8   8
#     4   9  17  28  43  66  93 117 146 187 231 275
#     4  10  18  29  48  68  88 121 161 195 228 269
#     4  10  21  34  46  63  91 129 168 199 228 267
#     4   8  14  26  46  73 101 122 143 181 234 287
#     4  10  18  29  49  73  94 118 150 189 236 285
#     4   8  14  25  43  69  96 118 145 185 232 279
#     4  10  20  31  44  66  96 126 153 187 234 284
#     4   9  18  32  49  69  92 118 153 197 235 269
#
# _framework density 17.26708
#
# number of rings (size 3 to 8) (size 9 to 14) (size 15 to 20)
#    0.000    2.750    0.000    3.000    0.000    5.500 
#    0.000    3.750    0.000    1.500    0.000    7.000 
#    0.000    0.000    0.000    0.000    0.000    0.000 
#
# Total GULP energy -792869.777164 kJ/mol
# GULP energy per Si atom -12388.590268 kJ/mol
# Density = 1.722778 g / cm^3
# Si number density = 17.267080 Si / 1000 Ang^3
#
#
#
# Elastic Constant Matrix: (Units=GPa)
#
#
# Indices 1 2 3 4 5 6 
#
# 1 93.6917 28.4456 55.9607 0.0000 0.0000 0.0000
# 2 28.4456 75.8623 50.1444 0.0000 0.0000 0.0000
# 3 55.9607 50.1444 110.0742 0.0000 0.0000 0.0000
# 4 0.0000 0.0000 0.0000 29.8239 0.0000 0.0000
# 5 0.0000 0.0000 0.0000 0.0000 -0.0484 0.0000
# 6 0.0000 0.0000 0.0000 0.0000 0.0000 10.6430
#
#
#
# Elastic Compliance Matrix: (Units=1/GPa)
#
#
# Indices 1 2 3 4 5 6 
#
# 1 0.015366 -0.000856 -0.007422 0.000000 0.000000 0.000000
# 2 -0.000856 0.018909 -0.008179 0.000000 0.000000 0.000000
# 3 -0.007422 -0.008179 0.016584 0.000000 0.000000 0.000000
# 4 0.000000 0.000000 0.000000 0.033530 0.000000 0.000000
# 5 0.000000 0.000000 0.000000 0.000000-20.654251 0.000000
# 6 0.000000 0.000000 0.000000 0.000000 0.000000 0.093958
#
#
# Mechanical properties :
#
#
# Convention : Reuss Voigt Hill
#
# Bulk Modulus (GPa) = 55.72442 60.96996 58.34719
# Shear Modulus (GPa) = -0.24465 17.75553 8.75544
#
# Velocity S-wave (km/s) = -0.37682 3.21017 2.25424
# Velocity P-wave (km/s) = 5.67034 7.00906 6.37494
#
# Compressibility (1/GPa) = 0.01794545
#
# Stress axis : x y z
#
# Youngs Moduli (GPa) = 65.07734 52.88534 60.29881
#
# Poissons Ratio (x) = 0.04526 0.44755
# Poissons Ratio (y) = 0.05569 0.49318
# Poissons Ratio (z) = 0.48302 0.43254
#
# Static dielectric constant tensor:
#      x y z
#    x 3.153120 0.000000 0.000000 
#    y 0.000000 3.422120 0.000000 
#    z 0.000000 0.000000 3.086160 
# 
# 
# High freq. dielectric constant tensor:
#      x y z
#    x 1.639170 0.000000 0.000000 
#    y 0.000000 1.651090 0.000000 
#    z 0.000000 0.000000 1.655120 
# 
# From -- ./inp_files/25352.got.cif
#   From: 2010.03.12/outbox.cif.g09.slc.cpg/sg51_13_cif.got.tgz:25352.got - 2010.04.16 13:43:02.
