data_PCOD8206470
_publ_section_title
;
Structure prediction by ZEFSAII (Michael W. Deem and Ramdas Pophale) SiO2 
 PCOD8206470
Probable space group: P M M A
;
_chemical_formula_sum "Si O2"
_cell_formula_units_Z 64
_cell_length_a 18.819333
_cell_length_b 9.459766
_cell_length_c 19.641223
_cell_angle_alpha 90.000000
_cell_angle_beta 90.000000
_cell_angle_gamma 90.000000
_cell_volume 3496.657920
_symmetry_space_group_name_H-M "P M M A"
_symmetry_group_IT_number 51
_symmetry_cell_setting 'orthorhombic'
loop_
_space_group_symop_operation_xyz
x,y,z
1/2-x,-y,z
1/2+x,-y,-z
-x,y,-z
-x,-y,-z
1/2+x,y,-z
1/2-x,y,z
x,-y,z
loop_
_atom_site_type_symbol
_atom_site_label
_atom_site_fract_x
_atom_site_fract_y
_atom_site_fract_z
Si Si1 0.951581 0.337229 0.630799
Si Si2 0.626074 0.660116 0.173292
Si Si3 0.463093 0.340183 0.215710
Si Si4 0.832170 0.338591 0.528408
Si Si5 0.401274 0.159060 0.947729
Si Si6 0.828182 0.157396 0.292136
Si Si7 0.064588 0.158171 0.094208
Si Si8 0.079513 0.832460 0.580152
O O1 0.978824 0.500000 0.629685
O O2 0.950781 0.278957 0.708284
O O3 0.872071 0.325476 0.600970
O O4 0.002772 0.243088 0.582394
O O5 0.651681 0.500000 0.166479
O O6 0.545155 0.671479 0.196895
O O7 0.641342 0.734233 0.100760
O O8 0.673216 0.735992 0.229584
O O9 0.435418 0.500000 0.212458
O O10 0.417613 0.253903 0.159830
O O11 0.750000 0.294905 0.538447
O O12 0.838127 0.500000 0.501193
O O13 0.869787 0.232331 0.476789
O O14 0.482222 0.161080 0.923993
O O15 0.371059 0.000000 0.940331
O O16 0.393693 0.210297 0.026339
O O17 0.750000 0.160319 0.326023
O O18 0.885068 0.203296 0.347780
O O19 0.846474 0.000000 0.265171
O O20 0.088442 0.000000 0.112948
O O21 0.070586 0.000000 0.567293
#
# Coordination Sequence:
#
# PCOD8206470 Si02
#       8
#     8   8   8   8   8   8   8   8
#     4  10  20  36  55  77 107 138 171 212 257 312
#     4  10  18  28  44  67  94 126 165 208 254 298
#     4   9  17  28  44  68  99 129 159 203 255 297
#     4  10  22  39  58  78 102 137 175 210 254 308
#     4   8  14  25  40  60  90 128 163 199 244 294
#     4  10  21  35  49  67  95 133 171 207 253 309
#     4   8  14  24  40  63  92 126 163 200 242 293
#     4  11  22  36  56  80 105 133 169 214 261 310
#
# _framework density 18.303191999999999
#
# number of rings (size 3 to 8) (size 9 to 14) (size 15 to 20)
#    0.000    2.500    1.250    2.250    0.000    5.000 
#    0.000    2.500    0.000    0.000    0.000    0.875 
#    0.000    3.000    0.000    0.000    0.000    0.000 
#
# Total GULP energy -793363.401022 kJ/mol
# GULP energy per Si atom -12396.303141 kJ/mol
# Density = 1.826153 g / cm^3
# Si number density = 18.303192 Si / 1000 Ang^3
#
#
#
# Elastic Constant Matrix: (Units=GPa)
#
#
# Indices 1 2 3 4 5 6 
#
# 1 62.3508 29.0334 35.6022 0.0000 0.0000 0.0000
# 2 29.0334 91.6803 59.7198 0.0000 0.0000 0.0000
# 3 35.6022 59.7198 106.9249 0.0000 0.0000 0.0000
# 4 0.0000 0.0000 0.0000 35.9849 0.0000 0.0000
# 5 0.0000 0.0000 0.0000 0.0000 13.4577 0.0000
# 6 0.0000 0.0000 0.0000 0.0000 0.0000 13.8727
#
#
#
# Elastic Compliance Matrix: (Units=1/GPa)
#
#
# Indices 1 2 3 4 5 6 
#
# 1 0.020383 -0.003197 -0.005001 0.000000 0.000000 0.000000
# 2 -0.003197 0.017647 -0.008791 0.000000 0.000000 0.000000
# 3 -0.005001 -0.008791 0.015928 0.000000 0.000000 0.000000
# 4 0.000000 0.000000 0.000000 0.027789 0.000000 0.000000
# 5 0.000000 0.000000 0.000000 0.000000 0.074307 0.000000
# 6 0.000000 0.000000 0.000000 0.000000 0.000000 0.072084
#
#
# Mechanical properties :
#
#
# Convention : Reuss Voigt Hill
#
# Bulk Modulus (GPa) = 50.05584 56.62966 53.34275
# Shear Modulus (GPa) = 18.60289 21.76978 20.18633
#
# Velocity S-wave (km/s) = 3.19152 3.45251 3.32458
# Velocity P-wave (km/s) = 6.40223 6.84836 6.62905
#
# Compressibility (1/GPa) = 0.01997769
#
# Stress axis : x y z
#
# Youngs Moduli (GPa) = 49.06145 56.66800 62.78362
#
# Poissons Ratio (x) = 0.18118 0.31398
# Poissons Ratio (y) = 0.15686 0.55196
# Poissons Ratio (z) = 0.24536 0.49819
#
# Static dielectric constant tensor:
#      x y z
#    x 2.999110 0.000000 0.000000 
#    y 0.000000 3.490340 0.000000 
#    z 0.000000 0.000000 3.561850 
# 
# 
# High freq. dielectric constant tensor:
#      x y z
#    x 1.664980 0.000000 0.000000 
#    y 0.000000 1.710170 0.000000 
#    z 0.000000 0.000000 1.714920 
# 
# From -- ./inp_files/34153.got.cif
#   From: 2010.03.12/outbox.cif.g09.slc.cpg/sg51_18_cif.got.tgz:34153.got - 2010.04.16 13:43:02.
