data_PCOD8206928
_publ_section_title
;
Structure prediction by ZEFSAII (Michael W. Deem and Ramdas Pophale) SiO2 
 PCOD8206928
Probable space group: P M M A
;
_chemical_formula_sum "Si O2"
_cell_formula_units_Z 40
_cell_length_a 25.826622
_cell_length_b 8.821817
_cell_length_c 9.706013
_cell_angle_alpha 90.000000
_cell_angle_beta 90.000000
_cell_angle_gamma 90.000000
_cell_volume 2211.395999
_symmetry_space_group_name_H-M "P M M A"
_symmetry_group_IT_number 51
_symmetry_cell_setting 'orthorhombic'
loop_
_space_group_symop_operation_xyz
x,y,z
1/2-x,-y,z
1/2+x,-y,-z
-x,y,-z
-x,-y,-z
1/2+x,y,-z
1/2-x,y,z
x,-y,z
loop_
_atom_site_type_symbol
_atom_site_label
_atom_site_fract_x
_atom_site_fract_y
_atom_site_fract_z
Si Si1 0.609000 0.822208 0.457001
Si Si2 0.914140 0.179591 0.756871
Si Si3 0.033410 0.178910 0.776543
Si Si4 0.113870 0.320997 0.969522
Si Si5 0.309032 0.178364 0.761477
O O1 0.606509 0.754312 0.610779
O O2 0.561307 0.763452 0.363327
O O3 0.662959 0.779020 0.382663
O O4 0.602459 0.000000 0.473673
O O5 0.881089 0.262051 0.874385
O O6 0.974028 0.226211 0.770410
O O7 0.906637 0.000000 0.770507
O O8 0.040946 0.000000 0.795629
O O9 0.060455 0.257477 0.906739
O O10 0.112821 0.500000 0.966485
O O11 0.163981 0.263457 0.887462
O O12 0.250000 0.232537 0.750422
O O13 0.313769 0.000000 0.789559
#
# Coordination Sequence:
#
# PCOD8206928 Si02
#       5
#     8   8   8   8   8
#     4   8  15  29  51  78 101 122 158 207 253 293
#     4  10  18  30  50  75 105 136 164 201 246 290
#     4   9  17  31  51  73  99 135 174 205 237 284
#     4  11  22  33  47  71 104 137 168 203 242 288
#     4   9  18  36  60  78  92 118 161 209 252 298
#
# _framework density 18.088121000000001
#
# number of rings (size 3 to 8) (size 9 to 14) (size 15 to 20)
#    0.000    2.600    0.000    4.200    0.000    6.000 
#    0.000    5.000    0.000    9.600    0.000    0.000 
#    0.000    0.000    0.000    0.000    0.000    0.000 
#
# Total GULP energy -495949.650401 kJ/mol
# GULP energy per Si atom -12398.741260 kJ/mol
# Density = 1.804695 g / cm^3
# Si number density = 18.088121 Si / 1000 Ang^3
#
#
#
# Elastic Constant Matrix: (Units=GPa)
#
#
# Indices 1 2 3 4 5 6 
#
# 1 107.2027 37.5463 54.9472 0.0000 0.0000 0.0000
# 2 37.5463 51.0707 39.7473 0.0000 0.0000 0.0000
# 3 54.9472 39.7473 160.6661 0.0000 0.0000 0.0000
# 4 0.0000 0.0000 0.0000 0.3226 0.0000 0.0000
# 5 0.0000 0.0000 0.0000 0.0000 10.8606 0.0000
# 6 0.0000 0.0000 0.0000 0.0000 0.0000 10.1741
#
#
#
# Elastic Compliance Matrix: (Units=1/GPa)
#
#
# Indices 1 2 3 4 5 6 
#
# 1 0.013423 -0.007797 -0.002662 0.000000 0.000000 0.000000
# 2 -0.007797 0.028779 -0.004453 0.000000 0.000000 0.000000
# 3 -0.002662 -0.004453 0.008236 0.000000 0.000000 0.000000
# 4 0.000000 0.000000 0.000000 3.099797 0.000000 0.000000
# 5 0.000000 0.000000 0.000000 0.000000 0.092076 0.000000
# 6 0.000000 0.000000 0.000000 0.000000 0.000000 0.098289
#
#
# Mechanical properties :
#
#
# Convention : Reuss Voigt Hill
#
# Bulk Modulus (GPa) = 48.50990 64.82456 56.66723
# Shear Modulus (GPa) = 1.48048 16.71804 9.09926
#
# Velocity S-wave (km/s) = 0.90568 3.04345 2.24531
# Velocity P-wave (km/s) = 5.28872 6.94738 6.17401
#
# Compressibility (1/GPa) = 0.02061435
#
# Stress axis : x y z
#
# Youngs Moduli (GPa) = 74.49782 34.74809 121.41740
#
# Poissons Ratio (x) = 0.27093 0.32319
# Poissons Ratio (y) = 0.58085 0.54068
# Poissons Ratio (z) = 0.19830 0.15473
#
# Static dielectric constant tensor:
#      x y z
#    x 3.302420 0.000000 0.000000 
#    y 0.000000 2.976480 0.000000 
#    z 0.000000 0.000000 3.626370 
# 
# 
# High freq. dielectric constant tensor:
#      x y z
#    x 1.686110 0.000000 0.000000 
#    y 0.000000 1.667020 0.000000 
#    z 0.000000 0.000000 1.711760 
# 
# From -- ./inp_files/12086.got.cif
#   From: 2010.03.12/outbox.cif.g09.slc.cpg/sg51_7_cif.got.tgz:12086.got - 2010.04.16 13:43:02.
