data_PCOD8206224
_publ_section_title
;
Structure prediction by ZEFSAII (Michael W. Deem and Ramdas Pophale) SiO2 
 PCOD8206224
Probable space group: P M M A
;
_chemical_formula_sum "Si O2"
_cell_formula_units_Z 48
_cell_length_a 15.092361
_cell_length_b 16.704916
_cell_length_c 9.549552
_cell_angle_alpha 90.000000
_cell_angle_beta 90.000000
_cell_angle_gamma 90.000000
_cell_volume 2407.600799
_symmetry_space_group_name_H-M "P M M A"
_symmetry_group_IT_number 51
_symmetry_cell_setting 'orthorhombic'
loop_
_space_group_symop_operation_xyz
x,y,z
1/2-x,-y,z
1/2+x,-y,-z
-x,y,-z
-x,-y,-z
1/2+x,y,-z
1/2-x,y,z
x,-y,z
loop_
_atom_site_type_symbol
_atom_site_label
_atom_site_fract_x
_atom_site_fract_y
_atom_site_fract_z
Si Si1 0.894625 0.674069 0.764889
Si Si2 0.250000 0.597611 0.671323
Si Si3 0.646227 0.217352 0.001097
Si Si4 0.591108 0.710768 0.276137
Si Si5 0.250000 0.412890 0.362538
Si Si6 0.355892 0.089753 0.223762
Si Si7 0.151629 0.201144 0.458091
O O1 0.839255 0.594240 0.731232
O O2 0.841331 0.736219 0.668162
O O3 0.997284 0.665361 0.726335
O O4 0.879254 0.699600 0.924692
O O5 0.250000 0.500000 0.694953
O O6 0.336606 0.639826 0.738565
O O7 0.250000 0.633179 0.512271
O O8 0.750000 0.208821 0.027380
O O9 0.598438 0.224100 0.151237
O O10 0.609242 0.143108 0.907915
O O11 0.591966 0.765050 0.416165
O O12 0.250000 0.500000 0.425887
O O13 0.250000 0.092346 0.223231
O O14 0.388442 0.122988 0.376646
O O15 0.392609 0.000000 0.204377
O O16 0.250000 0.183405 0.517864
#
# Coordination Sequence:
#
# PCOD8206224 Si02
#       7
#     8   4   8   8   4   8   8
#     4  11  20  36  58  84 111 148 196 242 273 341
#     4  11  24  39  57  85 122 152 183 234 301 341
#     4  10  19  35  59  81 114 153 194 237 287 335
#     4  12  21  35  58  86 116 151 196 239 284 341
#     4  11  22  39  61  87 114 148 191 238 295 347
#     4   8  16  31  56  87 116 152 196 236 284 344
#     4  10  17  33  57  79 112 150 192 234 282 330
#
# _framework density 19.936859999999999
#
# number of rings (size 3 to 8) (size 9 to 14) (size 15 to 20)
#    0.000    1.667    5.000    2.000    0.000    0.667 
#    0.000    4.167    0.000   22.000    0.000    0.000 
#    0.000    0.000    0.000    0.167    0.000    0.000 
#
# Total GULP energy -594675.379459 kJ/mol
# GULP energy per Si atom -12389.070405 kJ/mol
# Density = 1.989148 g / cm^3
# Si number density = 19.936860 Si / 1000 Ang^3
#
#
#
# Elastic Constant Matrix: (Units=GPa)
#
#
# Indices 1 2 3 4 5 6 
#
# 1 114.9679 25.0910 25.8612 0.0000 0.0000 0.0000
# 2 25.0910 86.7663 38.3867 0.0000 0.0000 0.0000
# 3 25.8612 38.3867 103.3651 0.0000 0.0000 0.0000
# 4 0.0000 0.0000 0.0000 22.6630 0.0000 0.0000
# 5 0.0000 0.0000 0.0000 0.0000 22.2494 0.0000
# 6 0.0000 0.0000 0.0000 0.0000 0.0000 4.9836
#
#
#
# Elastic Compliance Matrix: (Units=1/GPa)
#
#
# Indices 1 2 3 4 5 6 
#
# 1 0.009507 -0.002030 -0.001624 0.000000 0.000000 0.000000
# 2 -0.002030 0.014225 -0.004775 0.000000 0.000000 0.000000
# 3 -0.001624 -0.004775 0.011854 0.000000 0.000000 0.000000
# 4 0.000000 0.000000 0.000000 0.044125 0.000000 0.000000
# 5 0.000000 0.000000 0.000000 0.000000 0.044945 0.000000
# 6 0.000000 0.000000 0.000000 0.000000 0.000000 0.200659
#
#
# Mechanical properties :
#
#
# Convention : Reuss Voigt Hill
#
# Bulk Modulus (GPa) = 53.40072 53.75302 53.57687
# Shear Modulus (GPa) = 14.35068 24.36320 19.35694
#
# Velocity S-wave (km/s) = 2.68583 3.49953 3.11933
# Velocity P-wave (km/s) = 6.03832 6.58400 6.31706
#
# Compressibility (1/GPa) = 0.01872634
#
# Stress axis : x y z
#
# Youngs Moduli (GPa) = 105.18983 70.30000 84.35946
#
# Poissons Ratio (x) = 0.14274 0.13704
# Poissons Ratio (y) = 0.21358 0.40279
# Poissons Ratio (z) = 0.17088 0.33566
#
# Static dielectric constant tensor:
#      x y z
#    x 3.377260 0.000000 0.000000 
#    y 0.000000 3.658070 0.000000 
#    z 0.000000 0.000000 3.703700 
# 
# 
# High freq. dielectric constant tensor:
#      x y z
#    x 1.767350 0.000000 0.000000 
#    y 0.000000 1.747720 0.000000 
#    z 0.000000 0.000000 1.779820 
# 
# From -- ./inp_files/8361.got.cif
#   From: 2010.03.12/outbox.cif.g09.slc.cpg/sg51_5_cif.got.tgz:8361.got - 2010.04.16 13:43:02.
