data_PCOD8206734
_publ_section_title
;
Structure prediction by ZEFSAII (Michael W. Deem and Ramdas Pophale) SiO2 
 PCOD8206734
Probable space group: P M M A
;
_chemical_formula_sum "Si O2"
_cell_formula_units_Z 56
_cell_length_a 19.101518
_cell_length_b 9.104574
_cell_length_c 17.375767
_cell_angle_alpha 90.000000
_cell_angle_beta 90.000000
_cell_angle_gamma 90.000000
_cell_volume 3021.840214
_symmetry_space_group_name_H-M "P M M A"
_symmetry_group_IT_number 51
_symmetry_cell_setting 'orthorhombic'
loop_
_space_group_symop_operation_xyz
x,y,z
1/2-x,-y,z
1/2+x,-y,-z
-x,y,-z
-x,-y,-z
1/2+x,y,-z
1/2-x,y,z
x,-y,z
loop_
_atom_site_type_symbol
_atom_site_label
_atom_site_fract_x
_atom_site_fract_y
_atom_site_fract_z
Si Si1 0.613360 0.169889 0.617843
Si Si2 0.457091 0.828986 0.674181
Si Si3 0.437767 0.327805 0.834687
Si Si4 0.171504 0.334577 0.247513
Si Si5 0.414260 0.326659 0.105012
Si Si6 0.420601 0.333876 0.527866
Si Si7 0.170837 0.326013 0.960476
O O1 0.537928 0.199423 0.655453
O O2 0.669485 0.235129 0.676696
O O3 0.624518 0.250273 0.536468
O O4 0.627711 0.000000 0.603619
O O5 0.438367 0.763722 0.756763
O O6 0.410910 0.748112 0.609218
O O7 0.438247 0.000000 0.673088
O O8 0.440818 0.500000 0.813900
O O9 0.503626 0.286110 0.889910
O O10 0.367304 0.285250 0.880478
O O11 0.250000 0.336209 0.215077
O O12 0.146552 0.500000 0.268417
O O13 0.122796 0.264449 0.181612
O O14 0.403595 0.500000 0.101867
O O15 0.375850 0.258287 0.030160
O O16 0.500000 0.329384 0.500000
O O17 0.393390 0.500000 0.536766
O O18 0.250000 0.260935 0.960907
O O19 0.174069 0.500000 0.969287
#
# Coordination Sequence:
#
# PCOD8206734 Si02
#       7
#     8   8   8   8   8   8   8
#     4  10  19  31  47  69 101 136 169 206 252 304
#     4  10  19  31  48  73 103 133 166 207 256 304
#     4  10  18  29  50  76 101 131 170 214 259 306
#     4  10  19  30  47  71 100 136 174 213 257 306
#     4   9  16  28  47  72 102 131 166 211 259 306
#     4   9  17  29  49  74 100 129 163 205 251 297
#     4   9  17  29  47  74 104 131 165 213 264 308
#
# _framework density 18.531753999999999
#
# number of rings (size 3 to 8) (size 9 to 14) (size 15 to 20)
#    0.000    2.429    1.429    2.143    0.000    6.571 
#    0.000    0.000    0.000    3.857    0.000    2.000 
#    0.000    0.000    0.000    0.000    0.000    0.000 
#
# Total GULP energy -694300.242705 kJ/mol
# GULP energy per Si atom -12398.218620 kJ/mol
# Density = 1.848958 g / cm^3
# Si number density = 18.531754 Si / 1000 Ang^3
#
#
#
# Elastic Constant Matrix: (Units=GPa)
#
#
# Indices 1 2 3 4 5 6 
#
# 1 74.5448 23.6730 45.9394 0.0000 0.0000 0.0000
# 2 23.6730 78.0402 55.3518 0.0000 0.0000 0.0000
# 3 45.9394 55.3518 137.5188 0.0000 0.0000 0.0000
# 4 0.0000 0.0000 0.0000 10.1679 0.0000 0.0000
# 5 0.0000 0.0000 0.0000 0.0000 21.5168 0.0000
# 6 0.0000 0.0000 0.0000 0.0000 0.0000 11.6524
#
#
#
# Elastic Compliance Matrix: (Units=1/GPa)
#
#
# Indices 1 2 3 4 5 6 
#
# 1 0.017031 -0.001583 -0.005052 0.000000 0.000000 0.000000
# 2 -0.001583 0.018081 -0.006749 0.000000 0.000000 0.000000
# 3 -0.005052 -0.006749 0.011676 0.000000 0.000000 0.000000
# 4 0.000000 0.000000 0.000000 0.098349 0.000000 0.000000
# 5 0.000000 0.000000 0.000000 0.000000 0.046475 0.000000
# 6 0.000000 0.000000 0.000000 0.000000 0.000000 0.085819
#
#
# Mechanical properties :
#
#
# Convention : Reuss Voigt Hill
#
# Bulk Modulus (GPa) = 49.95035 60.00355 54.97695
# Shear Modulus (GPa) = 16.08379 19.67674 17.88027
#
# Velocity S-wave (km/s) = 2.94922 3.26204 3.10957
# Velocity P-wave (km/s) = 6.21366 6.82912 6.52865
#
# Compressibility (1/GPa) = 0.02001988
#
# Stress axis : x y z
#
# Youngs Moduli (GPa) = 58.71671 55.30732 85.64648
#
# Poissons Ratio (x) = 0.08754 0.43271
# Poissons Ratio (y) = 0.09294 0.57801
# Poissons Ratio (z) = 0.29665 0.37326
#
# Static dielectric constant tensor:
#      x y z
#    x 3.232870 0.000000 0.000000 
#    y 0.000000 3.113010 0.000000 
#    z 0.000000 0.000000 3.488520 
# 
# 
# High freq. dielectric constant tensor:
#      x y z
#    x 1.690090 0.000000 0.000000 
#    y 0.000000 1.686600 0.000000 
#    z 0.000000 0.000000 1.728890 
# 
# From -- ./inp_files/25632.got.cif
#   From: 2010.03.12/outbox.cif.g09.slc.cpg/sg51_13_cif.got.tgz:25632.got - 2010.04.16 13:43:02.
