data_PCOD8206197
_publ_section_title
;
Structure prediction by ZEFSAII (Michael W. Deem and Ramdas Pophale) SiO2 
 PCOD8206197
Probable space group: P M M A
;
_chemical_formula_sum "Si O2"
_cell_formula_units_Z 48
_cell_length_a 15.119026
_cell_length_b 18.120922
_cell_length_c 8.304597
_cell_angle_alpha 90.000000
_cell_angle_beta 90.000000
_cell_angle_gamma 90.000000
_cell_volume 2275.216177
_symmetry_space_group_name_H-M "P M M A"
_symmetry_group_IT_number 51
_symmetry_cell_setting 'orthorhombic'
loop_
_space_group_symop_operation_xyz
x,y,z
1/2-x,-y,z
1/2+x,-y,-z
-x,y,-z
-x,-y,-z
1/2+x,y,-z
1/2-x,y,z
x,-y,z
loop_
_atom_site_type_symbol
_atom_site_label
_atom_site_fract_x
_atom_site_fract_y
_atom_site_fract_z
Si Si1 0.846602 0.688989 0.865977
Si Si2 0.978289 0.308669 0.329781
Si Si3 0.896669 0.915366 0.669100
Si Si4 0.088994 0.857048 0.661483
Si Si5 0.106223 0.836370 0.004848
Si Si6 0.149487 0.415603 0.858090
O O1 0.750000 0.691353 0.779636
O O2 0.852469 0.754667 0.997340
O O3 0.925795 0.702877 0.746097
O O4 0.856610 0.611178 0.957292
O O5 0.933190 0.229351 0.346672
O O6 0.916602 0.366993 0.244426
O O7 0.000000 0.344447 0.500000
O O8 0.857286 0.878851 0.502392
O O9 0.859482 0.878655 0.834669
O O10 0.001823 0.907424 0.664049
O O11 0.867587 0.000000 0.673736
O O12 0.138286 0.872819 0.833615
O O13 0.000000 0.831033 0.000000
O O14 0.250000 0.406710 0.793695
O O15 0.118396 0.500000 0.851147
#
# Coordination Sequence:
#
# PCOD8206197 Si02
#       6
#     8   8   8   8   8   8
#     4  11  21  37  61  89 119 162 213 260 310 372
#     4  12  21  37  63  89 128 164 205 256 313 372
#     4  10  19  30  50  88 123 152 203 269 318 370
#     4  10  17  30  52  80 120 154 198 256 303 375
#     4  10  17  32  55  79 113 156 205 256 310 373
#     4  10  23  42  65  94 126 160 203 254 310 373
#
# _framework density 21.096896999999998
#
# number of rings (size 3 to 8) (size 9 to 14) (size 15 to 20)
#    0.000    1.500    6.667    1.500    0.000    6.000 
#    0.000    0.000    0.000    2.500    0.000    0.000 
#    0.000    0.667    0.000    0.000    0.000    0.000 
#
# Total GULP energy -594663.968772 kJ/mol
# GULP energy per Si atom -12388.832683 kJ/mol
# Density = 2.104888 g / cm^3
# Si number density = 21.096897 Si / 1000 Ang^3
#
#
#
# Elastic Constant Matrix: (Units=GPa)
#
#
# Indices 1 2 3 4 5 6 
#
# 1 46.3098 34.5628 24.5323 0.0000 0.0000 0.0000
# 2 34.5628 137.4233 50.5468 0.0000 0.0000 0.0000
# 3 24.5323 50.5468 180.9703 0.0000 0.0000 0.0000
# 4 0.0000 0.0000 0.0000 16.9871 0.0000 0.0000
# 5 0.0000 0.0000 0.0000 0.0000 16.0307 0.0000
# 6 0.0000 0.0000 0.0000 0.0000 0.0000 -2.4234
#
#
#
# Elastic Compliance Matrix: (Units=1/GPa)
#
#
# Indices 1 2 3 4 5 6 
#
# 1 0.027206 -0.006114 -0.001980 0.000000 0.000000 0.000000
# 2 -0.006114 0.009484 -0.001820 0.000000 0.000000 0.000000
# 3 -0.001980 -0.001820 0.006303 0.000000 0.000000 0.000000
# 4 0.000000 0.000000 0.000000 0.058868 0.000000 0.000000
# 5 0.000000 0.000000 0.000000 0.000000 0.062380 0.000000
# 6 0.000000 0.000000 0.000000 0.000000 0.000000 -0.412650
#
#
# Mechanical properties :
#
#
# Convention : Reuss Voigt Hill
#
# Bulk Modulus (GPa) = 43.17145 64.88747 54.02946
# Shear Modulus (GPa) = -22.63898 23.12297 0.24200
#
# Velocity S-wave (km/s) = -3.27937 3.31424 0.33905
# Velocity P-wave (km/s) = 2.48371 6.74309 5.08124
#
# Compressibility (1/GPa) = 0.02316346
#
# Stress axis : x y z
#
# Youngs Moduli (GPa) = 36.75675 105.44079 158.66454
#
# Poissons Ratio (x) = 0.64467 0.31420
# Poissons Ratio (y) = 0.22473 0.28879
# Poissons Ratio (z) = 0.07279 0.19192
#
# Static dielectric constant tensor:
#      x y z
#    x 3.454950 0.000000 0.000000 
#    y 0.000000 3.739830 0.000000 
#    z 0.000000 0.000000 4.504220 
# 
# 
# High freq. dielectric constant tensor:
#      x y z
#    x 1.794320 0.000000 0.000000 
#    y 0.000000 1.818390 0.000000 
#    z 0.000000 0.000000 1.836420 
# 
# From -- ./inp_files/8267.got.cif
#   From: 2010.03.12/outbox.cif.g09.slc.cpg/sg51_5_cif.got.tgz:8267.got - 2010.04.16 13:43:02.
