data_PCOD8206811
_publ_section_title
;
Structure prediction by ZEFSAII (Michael W. Deem and Ramdas Pophale) SiO2 
 PCOD8206811
Probable space group: P M M A
;
_chemical_formula_sum "Si O2"
_cell_formula_units_Z 48
_cell_length_a 14.242580
_cell_length_b 13.253208
_cell_length_c 13.947278
_cell_angle_alpha 90.000000
_cell_angle_beta 90.000000
_cell_angle_gamma 90.000000
_cell_volume 2632.686455
_symmetry_space_group_name_H-M "P M M A"
_symmetry_group_IT_number 51
_symmetry_cell_setting 'orthorhombic'
loop_
_space_group_symop_operation_xyz
x,y,z
1/2-x,-y,z
1/2+x,-y,-z
-x,y,-z
-x,-y,-z
1/2+x,y,-z
1/2-x,y,z
x,-y,z
loop_
_atom_site_type_symbol
_atom_site_label
_atom_site_fract_x
_atom_site_fract_y
_atom_site_fract_z
Si Si1 0.148502 0.617543 0.658321
Si Si2 0.960249 0.295712 0.729164
Si Si3 0.140348 0.190022 0.983788
Si Si4 0.602087 0.610570 0.543383
Si Si5 0.516727 0.115233 0.851371
Si Si6 0.642807 0.386652 0.904957
O O1 0.250000 0.635784 0.708574
O O2 0.119521 0.500000 0.660841
O O3 0.162318 0.651337 0.546460
O O4 0.069620 0.680036 0.712851
O O5 0.897402 0.313996 0.634178
O O6 0.923880 0.365463 0.815143
O O7 0.952268 0.178087 0.757533
O O8 0.250000 0.164921 0.967990
O O9 0.123162 0.308203 0.008627
O O10 0.099575 0.121950 0.070160
O O11 0.081262 0.162703 0.889365
O O12 0.500000 0.599318 0.500000
O O13 0.637472 0.500000 0.578636
O O14 0.501341 0.000000 0.821142
O O15 0.750000 0.373832 0.870008
O O16 0.623669 0.500000 0.943340
#
# Coordination Sequence:
#
# PCOD8206811 Si02
#       6
#     8   8   8   8   8   8
#     4   9  17  29  47  72 100 128 156 185 222 276
#     4  10  18  30  47  69  97 126 154 193 238 277
#     4   9  18  34  53  70  92 124 158 194 237 281
#     4   8  14  26  44  64  88 119 149 176 214 268
#     4  10  21  34  49  71  92 117 162 208 242 278
#     4   9  17  29  46  70  99 127 155 188 229 281
#
# _framework density 18.232327000000002
#
# number of rings (size 3 to 8) (size 9 to 14) (size 15 to 20)
#    0.000    2.833    0.000    3.500    0.000    2.667 
#    0.000   10.000    0.000    6.500    0.000    0.000 
#    0.000    0.000    0.000    0.000    0.000    0.000 
#
# Total GULP energy -594829.720805 kJ/mol
# GULP energy per Si atom -12392.285850 kJ/mol
# Density = 1.819083 g / cm^3
# Si number density = 18.232327 Si / 1000 Ang^3
#
#
#
# Elastic Constant Matrix: (Units=GPa)
#
#
# Indices 1 2 3 4 5 6 
#
# 1 73.5336 23.2063 8.5172 0.0000 0.0000 0.0000
# 2 23.2063 122.5014 43.1869 0.0000 0.0000 0.0000
# 3 8.5172 43.1869 57.4996 0.0000 0.0000 0.0000
# 4 0.0000 0.0000 0.0000 18.2776 0.0000 0.0000
# 5 0.0000 0.0000 0.0000 0.0000 15.6908 0.0000
# 6 0.0000 0.0000 0.0000 0.0000 0.0000 19.1438
#
#
#
# Elastic Compliance Matrix: (Units=1/GPa)
#
#
# Indices 1 2 3 4 5 6 
#
# 1 0.014464 -0.002700 -0.000115 0.000000 0.000000 0.000000
# 2 -0.002700 0.011607 -0.008318 0.000000 0.000000 0.000000
# 3 -0.000115 -0.008318 0.023656 0.000000 0.000000 0.000000
# 4 0.000000 0.000000 0.000000 0.054712 0.000000 0.000000
# 5 0.000000 0.000000 0.000000 0.000000 0.063732 0.000000
# 6 0.000000 0.000000 0.000000 0.000000 0.000000 0.052236
#
#
# Mechanical properties :
#
#
# Convention : Reuss Voigt Hill
#
# Bulk Modulus (GPa) = 36.41337 44.81726 40.61531
# Shear Modulus (GPa) = 19.85496 22.53071 21.19283
#
# Velocity S-wave (km/s) = 3.30358 3.51915 3.41306
# Velocity P-wave (km/s) = 5.87935 6.41460 6.15280
#
# Compressibility (1/GPa) = 0.02746244
#
# Stress axis : x y z
#
# Youngs Moduli (GPa) = 69.13483 86.15509 42.27282
#
# Poissons Ratio (x) = 0.23258 0.00486
# Poissons Ratio (y) = 0.18663 0.35162
# Poissons Ratio (z) = 0.00795 0.71663
#
# Static dielectric constant tensor:
#      x y z
#    x 1.461110 0.000000 0.000000 
#    y 0.000000 3.192890 0.000000 
#    z 0.000000 0.000000 3.389180 
# 
# 
# High freq. dielectric constant tensor:
#      x y z
#    x 1.716060 0.000000 0.000000 
#    y 0.000000 1.675860 0.000000 
#    z 0.000000 0.000000 1.683300 
# 
# From -- ./inp_files/24038.got.cif
#   From: 2010.03.12/outbox.cif.g09.slc.cpg/sg51_13_cif.got.tgz:24038.got - 2010.04.16 13:43:02.
