data_PCOD8206216
_publ_section_title
;
Structure prediction by ZEFSAII (Michael W. Deem and Ramdas Pophale) SiO2 
 PCOD8206216
Probable space group: P M M A
;
_chemical_formula_sum "Si O2"
_cell_formula_units_Z 52
_cell_length_a 18.253942
_cell_length_b 12.391149
_cell_length_c 12.872050
_cell_angle_alpha 90.000000
_cell_angle_beta 90.000000
_cell_angle_gamma 90.000000
_cell_volume 2911.494430
_symmetry_space_group_name_H-M "P M M A"
_symmetry_group_IT_number 51
_symmetry_cell_setting 'orthorhombic'
loop_
_space_group_symop_operation_xyz
x,y,z
1/2-x,-y,z
1/2+x,-y,-z
-x,y,-z
-x,-y,-z
1/2+x,y,-z
1/2-x,y,z
x,-y,z
loop_
_atom_site_type_symbol
_atom_site_label
_atom_site_fract_x
_atom_site_fract_y
_atom_site_fract_z
Si Si1 0.053760 0.000000 0.095552
Si Si2 0.097452 0.625806 0.400635
Si Si3 0.470938 0.000000 0.326733
Si Si4 0.168008 0.000000 0.454560
Si Si5 0.976246 0.773128 0.319483
Si Si6 0.331316 0.623746 0.179222
Si Si7 0.050958 0.231398 0.097830
Si Si8 0.833832 0.775051 0.430356
O O1 0.011489 0.000000 0.204623
O O2 0.094683 0.115595 0.090160
O O3 0.000000 0.000000 0.000000
O O4 0.085672 0.500000 0.427670
O O5 0.142933 0.642166 0.295920
O O6 0.146646 0.683125 0.486758
O O7 0.018146 0.682317 0.387631
O O8 0.384615 0.000000 0.354232
O O9 0.505440 0.889913 0.371212
O O10 0.154503 0.105671 0.523761
O O11 0.250000 0.000000 0.408856
O O12 0.888674 0.757892 0.332398
O O13 0.999246 0.763882 0.199447
O O14 0.250000 0.672305 0.167678
O O15 0.332142 0.500000 0.147714
O O16 0.385526 0.680984 0.098858
O O17 0.000000 0.254703 0.000000
O O18 0.750000 0.759234 0.392873
#
# Coordination Sequence:
#
# PCOD8206216 Si02
#       8
#     4   8   4   4   8   8   8   8
#     4   8  16  31  49  72 102 130 163 203 251 302
#     4  10  20  34  52  73 100 135 172 207 247 302
#     4  10  17  32  54  75  97 137 171 211 256 291
#     4  10  21  33  48  77 109 135 168 212 258 303
#     4  10  20  33  53  76  98 133 174 211 249 300
#     4   9  18  33  52  75 101 129 165 210 261 308
#     4   9  18  34  54  76 100 130 169 211 255 301
#     4  11  22  34  48  71 105 138 167 204 250 300
#
# _framework density 17.860243000000001
#
# number of rings (size 3 to 8) (size 9 to 14) (size 15 to 20)
#    0.000    2.308    1.538    1.385    0.000    3.077 
#    0.000    1.154    0.000    0.000    0.000    7.538 
#    0.000    0.000    0.000    0.000    0.000    0.000 
#
# Total GULP energy -644318.593264 kJ/mol
# GULP energy per Si atom -12390.742178 kJ/mol
# Density = 1.781959 g / cm^3
# Si number density = 17.860243 Si / 1000 Ang^3
#
#
#
# Elastic Constant Matrix: (Units=GPa)
#
#
# Indices 1 2 3 4 5 6 
#
# 1 151.7128 56.2355 48.2662 0.0000 0.0000 0.0000
# 2 56.2355 116.3434 33.6075 0.0000 0.0000 0.0000
# 3 48.2662 33.6075 58.1042 0.0000 0.0000 0.0000
# 4 0.0000 0.0000 0.0000 11.0495 0.0000 0.0000
# 5 0.0000 0.0000 0.0000 0.0000 17.8352 0.0000
# 6 0.0000 0.0000 0.0000 0.0000 0.0000 24.0984
#
#
#
# Elastic Compliance Matrix: (Units=1/GPa)
#
#
# Indices 1 2 3 4 5 6 
#
# 1 0.009676 -0.002828 -0.006403 0.000000 0.000000 0.000000
# 2 -0.002828 0.011146 -0.004098 0.000000 0.000000 0.000000
# 3 -0.006403 -0.004098 0.024899 0.000000 0.000000 0.000000
# 4 0.000000 0.000000 0.000000 0.090502 0.000000 0.000000
# 5 0.000000 0.000000 0.000000 0.000000 0.056069 0.000000
# 6 0.000000 0.000000 0.000000 0.000000 0.000000 0.041497
#
#
# Mechanical properties :
#
#
# Convention : Reuss Voigt Hill
#
# Bulk Modulus (GPa) = 52.45136 66.93098 59.69117
# Shear Modulus (GPa) = 18.74067 23.13337 20.93702
#
# Velocity S-wave (km/s) = 3.24280 3.60285 3.42756
# Velocity P-wave (km/s) = 6.59184 7.40700 7.01128
#
# Compressibility (1/GPa) = 0.01906528
#
# Stress axis : x y z
#
# Youngs Moduli (GPa) = 103.34336 89.72033 40.16209
#
# Poissons Ratio (x) = 0.25371 0.25714
# Poissons Ratio (y) = 0.29223 0.16457
# Poissons Ratio (z) = 0.66166 0.36765
#
# Static dielectric constant tensor:
#      x y z
#    x 3.333660 0.000000 0.000000 
#    y 0.000000 3.741010 0.000000 
#    z 0.000000 0.000000 3.095830 
# 
# 
# High freq. dielectric constant tensor:
#      x y z
#    x 1.676890 0.000000 0.000000 
#    y 0.000000 1.710130 0.000000 
#    z 0.000000 0.000000 1.668110 
# 
# From -- ./inp_files/25134.got.cif
#   From: 2010.03.12/outbox.cif.g09.slc.cpg/sg51_13_cif.got.tgz:25134.got - 2010.04.16 13:43:02.
