data_PCOD8206856
_publ_section_title
;
Structure prediction by ZEFSAII (Michael W. Deem and Ramdas Pophale) SiO2 
 PCOD8206856
Probable space group: P M M A
;
_chemical_formula_sum "Si O2"
_cell_formula_units_Z 64
_cell_length_a 28.440002
_cell_length_b 8.953165
_cell_length_c 15.517209
_cell_angle_alpha 90.000000
_cell_angle_beta 90.000000
_cell_angle_gamma 90.000000
_cell_volume 3951.116367
_symmetry_space_group_name_H-M "P M M A"
_symmetry_group_IT_number 51
_symmetry_cell_setting 'orthorhombic'
loop_
_space_group_symop_operation_xyz
x,y,z
1/2-x,-y,z
1/2+x,-y,-z
-x,y,-z
-x,-y,-z
1/2+x,y,-z
1/2-x,y,z
x,-y,z
loop_
_atom_site_type_symbol
_atom_site_label
_atom_site_fract_x
_atom_site_fract_y
_atom_site_fract_z
Si Si1 0.554165 0.323651 0.674728
Si Si2 0.052732 0.177526 0.006558
Si Si3 0.197399 0.674638 0.901349
Si Si4 0.055726 0.835468 0.495536
Si Si5 0.890849 0.176817 0.825971
Si Si6 0.696358 0.673373 0.900848
Si Si7 0.108642 0.176608 0.841537
Si Si8 0.453701 0.176661 0.682908
O O1 0.552978 0.500000 0.682858
O O2 0.571381 0.279782 0.578262
O O3 0.591785 0.256559 0.740096
O O4 0.502986 0.259233 0.695986
O O5 0.076717 0.232357 0.094724
O O6 0.051606 0.000000 0.003252
O O7 0.081923 0.240251 0.925536
O O8 0.000000 0.242424 0.000000
O O9 0.250000 0.717934 0.871829
O O10 0.189007 0.500000 0.891527
O O11 0.161345 0.760240 0.839509
O O12 0.189798 0.723334 0.000228
O O13 0.071235 0.782553 0.591459
O O14 0.000000 0.846162 0.500000
O O15 0.076503 0.000000 0.474132
O O16 0.837179 0.225437 0.842117
O O17 0.893548 0.000000 0.813983
O O18 0.750000 0.701714 0.871586
O O19 0.683145 0.500000 0.889528
O O20 0.081378 0.232255 0.756939
O O21 0.111299 0.000000 0.843664
O O22 0.464072 0.000000 0.688666
#
# Coordination Sequence:
#
# PCOD8206856 Si02
#       8
#     8   8   8   8   8   8   8   8
#     4  11  21  31  46  69  97 128 161 197 235 280
#     4   9  17  28  42  62  91 125 157 188 224 265
#     4   9  18  32  48  66  93 127 157 192 239 282
#     4   8  15  30  49  68  91 122 157 195 239 282
#     4  11  20  31  48  69  94 126 161 199 236 276
#     4   9  18  33  50  67  92 124 156 196 242 283
#     4  10  18  30  48  71  94 122 160 198 233 273
#     4   9  18  32  50  70  96 127 158 195 240 283
#
# _framework density 16.197953999999999
#
# number of rings (size 3 to 8) (size 9 to 14) (size 15 to 20)
#    0.000    2.500    1.250    3.750    0.000    5.250 
#    0.000    1.250    0.000    1.875    0.000    0.875 
#    0.000    5.000    0.000    0.000    0.000    0.000 
#
# Total GULP energy -793494.038008 kJ/mol
# GULP energy per Si atom -12398.344344 kJ/mol
# Density = 1.616109 g / cm^3
# Si number density = 16.197954 Si / 1000 Ang^3
#
#
#
# Elastic Constant Matrix: (Units=GPa)
#
#
# Indices 1 2 3 4 5 6 
#
# 1 91.3061 32.6735 45.2500 0.0000 0.0000 0.0000
# 2 32.6735 56.9370 36.5269 0.0000 0.0000 0.0000
# 3 45.2500 36.5269 106.4336 0.0000 0.0000 0.0000
# 4 0.0000 0.0000 0.0000 18.4618 0.0000 0.0000
# 5 0.0000 0.0000 0.0000 0.0000 14.8933 0.0000
# 6 0.0000 0.0000 0.0000 0.0000 0.0000 25.6518
#
#
#
# Elastic Compliance Matrix: (Units=1/GPa)
#
#
# Indices 1 2 3 4 5 6 
#
# 1 0.015279 -0.005900 -0.004471 0.000000 0.000000 0.000000
# 2 -0.005900 0.024800 -0.006003 0.000000 0.000000 0.000000
# 3 -0.004471 -0.006003 0.013357 0.000000 0.000000 0.000000
# 4 0.000000 0.000000 0.000000 0.054166 0.000000 0.000000
# 5 0.000000 0.000000 0.000000 0.000000 0.067144 0.000000
# 6 0.000000 0.000000 0.000000 0.000000 0.000000 0.038984
#
#
# Mechanical properties :
#
#
# Convention : Reuss Voigt Hill
#
# Bulk Modulus (GPa) = 48.33663 53.73084 51.03373
# Shear Modulus (GPa) = 19.73378 21.14981 20.44179
#
# Velocity S-wave (km/s) = 3.49419 3.61738 3.55632
# Velocity P-wave (km/s) = 6.79596 7.11974 6.95973
#
# Compressibility (1/GPa) = 0.02068825
#
# Stress axis : x y z
#
# Youngs Moduli (GPa) = 65.44847 40.32290 74.86949
#
# Poissons Ratio (x) = 0.23789 0.33476
# Poissons Ratio (y) = 0.38612 0.44943
# Poissons Ratio (z) = 0.29264 0.24205
#
# Static dielectric constant tensor:
#      x y z
#    x 2.953090 0.000000 0.000000 
#    y 0.000000 2.882340 0.000000 
#    z 0.000000 0.000000 3.315660 
# 
# 
# High freq. dielectric constant tensor:
#      x y z
#    x 1.602880 0.000000 0.000000 
#    y 0.000000 1.610970 0.000000 
#    z 0.000000 0.000000 1.616180 
# 
# From -- ./inp_files/26707.got.cif
#   From: 2010.03.12/outbox.cif.g09.slc.cpg/sg51_14_cif.got.tgz:26707.got - 2010.04.16 13:43:02.
