data_PCOD8206500
_publ_section_title
;
Structure prediction by ZEFSAII (Michael W. Deem and Ramdas Pophale) SiO2 
 PCOD8206500
Probable space group: P M M A
;
_chemical_formula_sum "Si O2"
_cell_formula_units_Z 40
_cell_length_a 8.929676
_cell_length_b 12.779364
_cell_length_c 20.181509
_cell_angle_alpha 90.000000
_cell_angle_beta 90.000000
_cell_angle_gamma 90.000000
_cell_volume 2303.024605
_symmetry_space_group_name_H-M "P M M A"
_symmetry_group_IT_number 51
_symmetry_cell_setting 'orthorhombic'
loop_
_space_group_symop_operation_xyz
x,y,z
1/2-x,-y,z
1/2+x,-y,-z
-x,y,-z
-x,-y,-z
1/2+x,y,-z
1/2-x,y,z
x,-y,z
loop_
_atom_site_type_symbol
_atom_site_label
_atom_site_fract_x
_atom_site_fract_y
_atom_site_fract_z
Si Si1 0.072191 0.788843 0.827356
Si Si2 0.926637 0.619431 0.431466
Si Si3 0.579310 0.000000 0.310029
Si Si4 0.574412 0.000000 0.826220
Si Si5 0.073823 0.381555 0.932175
Si Si6 0.922379 0.226439 0.322206
O O1 0.250000 0.803778 0.827676
O O2 0.019598 0.692086 0.872379
O O3 0.012262 0.766436 0.752493
O O4 0.998317 0.894650 0.856875
O O5 0.750000 0.635192 0.438668
O O6 0.968470 0.500000 0.414433
O O7 0.997376 0.691602 0.373026
O O8 0.000000 0.655253 0.500000
O O9 0.459710 0.000000 0.251602
O O10 0.555969 0.107567 0.351148
O O11 0.750000 0.000000 0.280415
O O12 0.750000 0.000000 0.840346
O O13 0.250000 0.374507 0.941610
O O14 0.022870 0.500000 0.915497
O O15 0.000000 0.341973 0.000000
O O16 0.750000 0.257988 0.318003
#
# Coordination Sequence:
#
# PCOD8206500 Si02
#       6
#     8   8   4   4   8   8
#     4   9  17  31  50  70  93 122 155 189 227 271
#     4   9  17  29  44  62  86 116 147 180 220 264
#     4   8  14  28  47  64  86 116 147 180 224 272
#     4  10  18  28  45  70  97 122 151 188 231 274
#     4   9  18  32  50  71  95 123 153 187 229 276
#     4   8  14  26  46  67  84 109 147 185 216 254
#
# _framework density 17.368462000000001
#
# number of rings (size 3 to 8) (size 9 to 14) (size 15 to 20)
#    0.000    3.200    0.000    2.100    0.000    1.600 
#    0.000    9.000    0.000    0.000    0.000    5.600 
#    0.000    0.000    0.000    0.000    0.000    0.000 
#
# Total GULP energy -495657.884924 kJ/mol
# GULP energy per Si atom -12391.447123 kJ/mol
# Density = 1.732893 g / cm^3
# Si number density = 17.368462 Si / 1000 Ang^3
#
#
#
# Elastic Constant Matrix: (Units=GPa)
#
#
# Indices 1 2 3 4 5 6 
#
# 1 29.8303 27.9915 21.6734 0.0000 0.0000 0.0000
# 2 27.9915 144.3154 91.3190 0.0000 0.0000 0.0000
# 3 21.6734 91.3190 109.2757 0.0000 0.0000 0.0000
# 4 0.0000 0.0000 0.0000 18.8116 0.0000 0.0000
# 5 0.0000 0.0000 0.0000 0.0000 21.2467 0.0000
# 6 0.0000 0.0000 0.0000 0.0000 0.0000 17.0286
#
#
#
# Elastic Compliance Matrix: (Units=1/GPa)
#
#
# Indices 1 2 3 4 5 6 
#
# 1 0.041500 -0.006029 -0.003193 0.000000 0.000000 0.000000
# 2 -0.006029 0.015581 -0.011825 0.000000 0.000000 0.000000
# 3 -0.003193 -0.011825 0.019666 0.000000 0.000000 0.000000
# 4 0.000000 0.000000 0.000000 0.053159 0.000000 0.000000
# 5 0.000000 0.000000 0.000000 0.000000 0.047066 0.000000
# 6 0.000000 0.000000 0.000000 0.000000 0.000000 0.058725
#
#
# Mechanical properties :
#
#
# Convention : Reuss Voigt Hill
#
# Bulk Modulus (GPa) = 28.85673 62.82104 45.83888
# Shear Modulus (GPa) = 17.28055 20.91319 19.09687
#
# Velocity S-wave (km/s) = 3.15769 3.47376 3.31949
# Velocity P-wave (km/s) = 5.47222 7.23447 6.41415
#
# Compressibility (1/GPa) = 0.03465397
#
# Stress axis : x y z
#
# Youngs Moduli (GPa) = 24.09635 64.17932 50.84832
#
# Poissons Ratio (x) = 0.38695 0.16233
# Poissons Ratio (y) = 0.14528 0.60129
# Poissons Ratio (z) = 0.07693 0.75893
#
# Static dielectric constant tensor:
#      x y z
#    x 2.913510 0.000000 0.000000 
#    y 0.000000 3.631170 0.000000 
#    z 0.000000 0.000000 3.197710 
# 
# 
# High freq. dielectric constant tensor:
#      x y z
#    x 1.639390 0.000000 0.000000 
#    y 0.000000 1.686010 0.000000 
#    z 0.000000 0.000000 1.643880 
# 
# From -- ./inp_files/31452.got.cif
#   From: 2010.03.12/outbox.cif.g09.slc.cpg/sg51_16_cif.got.tgz:31452.got - 2010.04.16 13:43:02.
