data_PCOD8206798
_publ_section_title
;
Structure prediction by ZEFSAII (Michael W. Deem and Ramdas Pophale) SiO2 
 PCOD8206798
Probable space group: P M M A
;
_chemical_formula_sum "Si O2"
_cell_formula_units_Z 48
_cell_length_a 26.543794
_cell_length_b 8.734344
_cell_length_c 11.988835
_cell_angle_alpha 90.000000
_cell_angle_beta 90.000000
_cell_angle_gamma 90.000000
_cell_volume 2779.523011
_symmetry_space_group_name_H-M "P M M A"
_symmetry_group_IT_number 51
_symmetry_cell_setting 'orthorhombic'
loop_
_space_group_symop_operation_xyz
x,y,z
1/2-x,-y,z
1/2+x,-y,-z
-x,y,-z
-x,-y,-z
1/2+x,y,-z
1/2-x,y,z
x,-y,z
loop_
_atom_site_type_symbol
_atom_site_label
_atom_site_fract_x
_atom_site_fract_y
_atom_site_fract_z
Si Si1 0.377540 0.327002 0.510647
Si Si2 0.056280 0.318073 0.965810
Si Si3 0.114497 0.821445 0.162270
Si Si4 0.542234 0.673272 0.669861
Si Si5 0.068260 0.681461 0.716464
Si Si6 0.692468 0.317591 0.680615
O O1 0.359467 0.500000 0.529118
O O2 0.431822 0.321572 0.450340
O O3 0.387610 0.251246 0.633526
O O4 0.335035 0.249263 0.431324
O O5 0.058278 0.500000 0.970895
O O6 0.070408 0.255297 0.842314
O O7 0.099677 0.249851 0.043643
O O8 0.000000 0.261701 0.000000
O O9 0.069387 0.789011 0.246894
O O10 0.166168 0.747306 0.208425
O O11 0.123331 0.000000 0.147674
O O12 0.545797 0.500000 0.720063
O O13 0.484881 0.726982 0.660959
O O14 0.074126 0.500000 0.717759
O O15 0.750000 0.263359 0.678477
O O16 0.686792 0.500000 0.683601
#
# Coordination Sequence:
#
# PCOD8206798 Si02
#       6
#     8   8   8   8   8   8
#     4   8  14  24  44  73  96 115 149 197 244 286
#     4  10  18  30  47  67  96 136 176 203 230 277
#     4  11  21  31  46  70  99 129 163 202 243 284
#     4   9  15  27  45  66  94 127 162 195 230 278
#     4   9  15  24  43  69  96 128 162 196 234 277
#     4   9  18  34  56  76  93 116 151 199 250 296
#
# _framework density 17.269148999999999
#
# number of rings (size 3 to 8) (size 9 to 14) (size 15 to 20)
#    0.000    2.667    1.667    3.000    0.000    2.667 
#    0.000    0.000    0.000   13.000    0.000    4.667 
#    0.000    0.000    0.000    0.000    0.000    0.000 
#
# Total GULP energy -594674.892131 kJ/mol
# GULP energy per Si atom -12389.060253 kJ/mol
# Density = 1.722984 g / cm^3
# Si number density = 17.269149 Si / 1000 Ang^3
#
#
#
# Elastic Constant Matrix: (Units=GPa)
#
#
# Indices 1 2 3 4 5 6 
#
# 1 117.0225 18.9714 73.6536 0.0000 0.0000 0.0000
# 2 18.9714 27.5112 23.4399 0.0000 0.0000 0.0000
# 3 73.6536 23.4399 129.4723 0.0000 0.0000 0.0000
# 4 0.0000 0.0000 0.0000 5.5139 0.0000 0.0000
# 5 0.0000 0.0000 0.0000 0.0000 17.9800 0.0000
# 6 0.0000 0.0000 0.0000 0.0000 0.0000 8.6774
#
#
#
# Elastic Compliance Matrix: (Units=1/GPa)
#
#
# Indices 1 2 3 4 5 6 
#
# 1 0.013558 -0.003285 -0.007118 0.000000 0.000000 0.000000
# 2 -0.003285 0.043774 -0.006056 0.000000 0.000000 0.000000
# 3 -0.007118 -0.006056 0.012869 0.000000 0.000000 0.000000
# 4 0.000000 0.000000 0.000000 0.181361 0.000000 0.000000
# 5 0.000000 0.000000 0.000000 0.000000 0.055617 0.000000
# 6 0.000000 0.000000 0.000000 0.000000 0.000000 0.115242
#
#
# Mechanical properties :
#
#
# Convention : Reuss Voigt Hill
#
# Bulk Modulus (GPa) = 26.82184 56.23731 41.52957
# Shear Modulus (GPa) = 10.68905 16.96366 13.82636
#
# Velocity S-wave (km/s) = 2.49061 3.13758 2.83263
# Velocity P-wave (km/s) = 4.88223 6.76475 5.89907
#
# Compressibility (1/GPa) = 0.03728305
#
# Stress axis : x y z
#
# Youngs Moduli (GPa) = 73.75719 22.84465 77.70344
#
# Poissons Ratio (x) = 0.07504 0.55310
# Poissons Ratio (y) = 0.24227 0.47060
# Poissons Ratio (z) = 0.52501 0.13835
#
# Static dielectric constant tensor:
#      x y z
#    x 3.138020 0.000000 0.000000 
#    y 0.000000 2.769830 0.000000 
#    z 0.000000 0.000000 3.531440 
# 
# 
# High freq. dielectric constant tensor:
#      x y z
#    x 1.639790 0.000000 0.000000 
#    y 0.000000 1.619960 0.000000 
#    z 0.000000 0.000000 1.673120 
# 
# From -- ./inp_files/18963.got.cif
#   From: 2010.03.12/outbox.cif.g09.slc.cpg/sg51_10_cif.got.tgz:18963.got - 2010.04.16 13:43:02.
