data_PCOD8206723
_publ_section_title
;
Structure prediction by ZEFSAII (Michael W. Deem and Ramdas Pophale) SiO2 
 PCOD8206723
Probable space group: P M M A
;
_chemical_formula_sum "Si O2"
_cell_formula_units_Z 56
_cell_length_a 9.223655
_cell_length_b 15.565530
_cell_length_c 20.229071
_cell_angle_alpha 90.000000
_cell_angle_beta 90.000000
_cell_angle_gamma 90.000000
_cell_volume 2904.309543
_symmetry_space_group_name_H-M "P M M A"
_symmetry_group_IT_number 51
_symmetry_cell_setting 'orthorhombic'
loop_
_space_group_symop_operation_xyz
x,y,z
1/2-x,-y,z
1/2+x,-y,-z
-x,y,-z
-x,-y,-z
1/2+x,y,-z
1/2-x,y,z
x,-y,z
loop_
_atom_site_type_symbol
_atom_site_label
_atom_site_fract_x
_atom_site_fract_y
_atom_site_fract_z
Si Si1 0.083549 0.907615 0.388200
Si Si2 0.417893 0.308741 0.292055
Si Si3 0.923545 0.739824 0.932764
Si Si4 0.583775 0.141236 0.265328
Si Si5 0.584535 0.096222 0.117409
Si Si6 0.919402 0.593557 0.833102
Si Si7 0.082175 0.725766 0.437293
O O1 0.250000 0.891840 0.368400
O O2 0.032688 0.826039 0.431349
O O3 0.993103 0.915055 0.321119
O O4 0.064393 0.000000 0.425560
O O5 0.250000 0.280775 0.288749
O O6 0.511323 0.233945 0.260023
O O7 0.448488 0.390492 0.245317
O O8 0.459482 0.324410 0.369287
O O9 0.750000 0.740714 0.939733
O O10 0.980409 0.670819 0.878335
O O11 0.975509 0.835734 0.914868
O O12 0.000000 0.710201 0.000000
O O13 0.750000 0.152897 0.285558
O O14 0.565943 0.093570 0.196103
O O15 0.750000 0.121557 0.098770
O O16 0.548333 0.000000 0.091240
O O17 0.750000 0.589103 0.846785
O O18 0.988830 0.500000 0.850526
O O19 0.250000 0.716668 0.453179
O O20 0.000000 0.684703 0.500000
#
# Coordination Sequence:
#
# PCOD8206723 Si02
#       7
#     8   8   8   8   8   8   8
#     4   9  18  31  45  64  95 135 180 228 273 321
#     4   9  17  33  55  78 106 139 178 221 266 319
#     4  11  23  39  60  84 114 149 184 224 273 325
#     4  10  18  29  49  76 106 137 175 224 277 322
#     4  10  21  36  54  78 111 149 189 231 273 320
#     4   9  18  35  62  91 113 138 179 225 269 326
#     4   9  18  30  46  69  99 137 179 221 267 320
#
# _framework density 19.281692
#
# number of rings (size 3 to 8) (size 9 to 14) (size 15 to 20)
#    0.000    2.429    1.429    2.143    0.000    4.857 
#    0.000    0.000    0.000    3.857    0.000    0.000 
#    0.000    0.000    0.000    0.000    0.000    0.286 
#
# Total GULP energy -693947.357471 kJ/mol
# GULP energy per Si atom -12391.917098 kJ/mol
# Density = 1.923781 g / cm^3
# Si number density = 19.281692 Si / 1000 Ang^3
#
#
#
# Elastic Constant Matrix: (Units=GPa)
#
#
# Indices 1 2 3 4 5 6 
#
# 1 61.8722 26.6229 39.0574 0.0000 0.0000 0.0000
# 2 26.6229 100.2958 46.4237 0.0000 0.0000 0.0000
# 3 39.0574 46.4237 118.3451 0.0000 0.0000 0.0000
# 4 0.0000 0.0000 0.0000 10.6389 0.0000 0.0000
# 5 0.0000 0.0000 0.0000 0.0000 31.7203 0.0000
# 6 0.0000 0.0000 0.0000 0.0000 0.0000 12.9313
#
#
#
# Elastic Compliance Matrix: (Units=1/GPa)
#
#
# Indices 1 2 3 4 5 6 
#
# 1 0.021085 -0.002903 -0.005820 0.000000 0.000000 0.000000
# 2 -0.002903 0.012582 -0.003978 0.000000 0.000000 0.000000
# 3 -0.005820 -0.003978 0.011931 0.000000 0.000000 0.000000
# 4 0.000000 0.000000 0.000000 0.093995 0.000000 0.000000
# 5 0.000000 0.000000 0.000000 0.000000 0.031526 0.000000
# 6 0.000000 0.000000 0.000000 0.000000 0.000000 0.077332
#
#
# Mechanical properties :
#
#
# Convention : Reuss Voigt Hill
#
# Bulk Modulus (GPa) = 49.51172 56.08014 52.79593
# Shear Modulus (GPa) = 17.81995 22.28536 20.05265
#
# Velocity S-wave (km/s) = 3.04335 3.40336 3.22838
# Velocity P-wave (km/s) = 6.17115 6.67770 6.42941
#
# Compressibility (1/GPa) = 0.02019724
#
# Stress axis : x y z
#
# Youngs Moduli (GPa) = 47.42600 79.47730 83.81568
#
# Poissons Ratio (x) = 0.23073 0.48781
# Poissons Ratio (y) = 0.13768 0.33338
# Poissons Ratio (z) = 0.27602 0.31613
#
# Static dielectric constant tensor:
#      x y z
#    x 3.359990 0.000000 0.000000 
#    y 0.000000 3.599380 0.000000 
#    z 0.000000 0.000000 3.511220 
# 
# 
# High freq. dielectric constant tensor:
#      x y z
#    x 1.732750 0.000000 0.000000 
#    y 0.000000 1.732300 0.000000 
#    z 0.000000 0.000000 1.748110 
# 
# From -- ./inp_files/31912.got.cif
#   From: 2010.03.12/outbox.cif.g09.slc.cpg/sg51_16_cif.got.tgz:31912.got - 2010.04.16 13:43:02.
