data_PCOD8206161
_publ_section_title
;
Structure prediction by ZEFSAII (Michael W. Deem and Ramdas Pophale) SiO2 
 PCOD8206161
Probable space group: P M M A
;
_chemical_formula_sum "Si O2"
_cell_formula_units_Z 56
_cell_length_a 21.754358
_cell_length_b 8.583813
_cell_length_c 17.063053
_cell_angle_alpha 90.000000
_cell_angle_beta 90.000000
_cell_angle_gamma 90.000000
_cell_volume 3186.275021
_symmetry_space_group_name_H-M "P M M A"
_symmetry_group_IT_number 51
_symmetry_cell_setting 'orthorhombic'
loop_
_space_group_symop_operation_xyz
x,y,z
1/2-x,-y,z
1/2+x,-y,-z
-x,y,-z
-x,-y,-z
1/2+x,y,-z
1/2-x,y,z
x,-y,z
loop_
_atom_site_type_symbol
_atom_site_label
_atom_site_fract_x
_atom_site_fract_y
_atom_site_fract_z
Si Si1 0.087599 0.815383 0.972797
Si Si2 0.061021 0.683434 0.454143
Si Si3 0.972039 0.815349 0.875794
Si Si4 0.483247 0.814676 0.298661
Si Si5 0.182617 0.186081 0.853541
Si Si6 0.819857 0.184677 0.462115
Si Si7 0.377946 0.184272 0.697458
O O1 0.151224 0.758921 0.934791
O O2 0.034102 0.750374 0.915875
O O3 0.081363 0.000000 0.972205
O O4 0.082138 0.760913 0.063922
O O5 0.061984 0.500000 0.462751
O O6 0.059002 0.733648 0.363462
O O7 0.126558 0.746316 0.483893
O O8 0.000000 0.750012 0.500000
O O9 0.962817 0.751230 0.787571
O O10 0.976075 0.000000 0.867802
O O11 0.552695 0.757880 0.315604
O O12 0.476389 0.000000 0.305561
O O13 0.250000 0.258540 0.854262
O O14 0.147335 0.255514 0.778398
O O15 0.184113 0.000000 0.848600
O O16 0.750000 0.241430 0.483881
O O17 0.834361 0.239196 0.373398
O O18 0.823328 0.000000 0.469382
O O19 0.378139 0.000000 0.704326
#
# Coordination Sequence:
#
# PCOD8206161 Si02
#       7
#     8   8   8   8   8   8   8
#     4   8  12  19  31  53  85 116 148 184 225 277
#     4  11  23  36  50  71  99 131 165 203 247 294
#     4   8  13  21  36  58  84 113 149 192 231 272
#     4  10  17  28  49  71  93 124 161 202 245 286
#     4   9  14  19  30  53  90 128 151 175 225 290
#     4  10  20  34  53  75  98 126 161 203 249 298
#     4   9  15  24  40  66  96 122 152 190 236 289
#
# _framework density 17.575379999999999
#
# number of rings (size 3 to 8) (size 9 to 14) (size 15 to 20)
#    0.000    2.714    2.857    1.714    0.000    2.571 
#    0.000    0.000    0.000    0.857    0.000    6.000 
#    0.000    0.000    0.000    0.286    0.000    0.000 
#
# Total GULP energy -693734.321373 kJ/mol
# GULP energy per Si atom -12388.112882 kJ/mol
# Density = 1.753538 g / cm^3
# Si number density = 17.575380 Si / 1000 Ang^3
#
#
#
# Elastic Constant Matrix: (Units=GPa)
#
#
# Indices 1 2 3 4 5 6 
#
# 1 129.8686 17.3428 76.7577 0.0000 0.0000 0.0000
# 2 17.3428 13.3176 16.6372 0.0000 0.0000 0.0000
# 3 76.7577 16.6372 148.3631 0.0000 0.0000 0.0000
# 4 0.0000 0.0000 0.0000 3.3518 0.0000 0.0000
# 5 0.0000 0.0000 0.0000 0.0000 29.9153 0.0000
# 6 0.0000 0.0000 0.0000 0.0000 0.0000 8.1803
#
#
#
# Elastic Compliance Matrix: (Units=1/GPa)
#
#
# Indices 1 2 3 4 5 6 
#
# 1 0.011977 -0.009136 -0.005172 0.000000 0.000000 0.000000
# 2 -0.009136 0.094290 -0.005847 0.000000 0.000000 0.000000
# 3 -0.005172 -0.005847 0.010072 0.000000 0.000000 0.000000
# 4 0.000000 0.000000 0.000000 0.298347 0.000000 0.000000
# 5 0.000000 0.000000 0.000000 0.000000 0.033428 0.000000
# 6 0.000000 0.000000 0.000000 0.000000 0.000000 0.122244
#
#
# Mechanical properties :
#
#
# Convention : Reuss Voigt Hill
#
# Bulk Modulus (GPa) = 13.15282 57.00274 35.07778
# Shear Modulus (GPa) = 7.86150 20.34360 14.10255
#
# Velocity S-wave (km/s) = 2.11725 3.40590 2.83575
# Velocity P-wave (km/s) = 3.67109 6.92608 5.54290
#
# Compressibility (1/GPa) = 0.07602930
#
# Stress axis : x y z
#
# Youngs Moduli (GPa) = 83.49383 10.60555 99.28832
#
# Poissons Ratio (x) = 0.09689 0.51351
# Poissons Ratio (y) = 0.76278 0.58054
# Poissons Ratio (z) = 0.43183 0.06201
#
# Static dielectric constant tensor:
#      x y z
#    x 3.378280 0.000000 0.000000 
#    y 0.000000 2.657370 0.000000 
#    z 0.000000 0.000000 3.570370 
# 
# 
# High freq. dielectric constant tensor:
#      x y z
#    x 1.663870 0.000000 0.000000 
#    y 0.000000 1.617820 0.000000 
#    z 0.000000 0.000000 1.687850 
# 
# From -- ./inp_files/30392.got.cif
#   From: 2010.03.12/outbox.cif.g09.slc.cpg/sg51_16_cif.got.tgz:30392.got - 2010.04.16 13:43:02.
