data_PCOD8206459
_publ_section_title
;
Structure prediction by ZEFSAII (Michael W. Deem and Ramdas Pophale) SiO2 
 PCOD8206459
Probable space group: P M M A
;
_chemical_formula_sum "Si O2"
_cell_formula_units_Z 56
_cell_length_a 19.240112
_cell_length_b 9.455254
_cell_length_c 17.478634
_cell_angle_alpha 90.000000
_cell_angle_beta 90.000000
_cell_angle_gamma 90.000000
_cell_volume 3179.715648
_symmetry_space_group_name_H-M "P M M A"
_symmetry_group_IT_number 51
_symmetry_cell_setting 'orthorhombic'
loop_
_space_group_symop_operation_xyz
x,y,z
1/2-x,-y,z
1/2+x,-y,-z
-x,y,-z
-x,-y,-z
1/2+x,y,-z
1/2-x,y,z
x,-y,z
loop_
_atom_site_type_symbol
_atom_site_label
_atom_site_fract_x
_atom_site_fract_y
_atom_site_fract_z
Si Si1 0.411866 0.167286 0.885147
Si Si2 0.905006 0.660752 0.380802
Si Si3 0.828244 0.659811 0.232269
Si Si4 0.918325 0.844262 0.517006
Si Si5 0.464798 0.166203 0.324119
Si Si6 0.064109 0.166999 0.155113
Si Si7 0.328753 0.168661 0.033445
O O1 0.379232 0.233823 0.809756
O O2 0.492717 0.213907 0.887086
O O3 0.405033 0.000000 0.877641
O O4 0.370920 0.223655 0.959440
O O5 0.928474 0.500000 0.397156
O O6 0.840045 0.667381 0.323503
O O7 0.881600 0.731238 0.461423
O O8 0.966958 0.743857 0.340022
O O9 0.750000 0.707169 0.214909
O O10 0.841999 0.500000 0.203304
O O11 0.908947 0.807094 0.607321
O O12 0.000000 0.842600 0.500000
O O13 0.887439 0.000000 0.499902
O O14 0.432532 0.218216 0.243385
O O15 0.485327 0.000000 0.321000
O O16 0.130119 0.227592 0.108014
O O17 0.068563 0.000000 0.152930
O O18 0.250000 0.229282 0.033218
O O19 0.326864 0.000000 0.033237
#
# Coordination Sequence:
#
# PCOD8206459 Si02
#       7
#     8   8   8   8   8   8   8
#     4  10  18  30  50  73  94 119 159 203 237 277
#     4  10  18  28  44  65  90 119 155 193 230 274
#     4  10  21  34  46  64  95 131 160 192 241 294
#     4   8  15  26  42  63  90 119 147 183 228 274
#     4   9  16  28  45  67  92 121 152 186 231 278
#     4   9  16  27  46  69  96 127 156 191 238 282
#     4   9  17  28  44  71 101 124 153 195 239 282
#
# _framework density 17.611637999999999
#
# number of rings (size 3 to 8) (size 9 to 14) (size 15 to 20)
#    0.000    2.714    1.429    2.143    0.000    5.714 
#    0.000    0.000    0.000    3.429    0.000    2.000 
#    0.000    0.000    0.000    0.000    0.000    0.000 
#
# Total GULP energy -694006.374598 kJ/mol
# GULP energy per Si atom -12392.970975 kJ/mol
# Density = 1.757155 g / cm^3
# Si number density = 17.611638 Si / 1000 Ang^3
#
#
#
# Elastic Constant Matrix: (Units=GPa)
#
#
# Indices 1 2 3 4 5 6 
#
# 1 80.4536 18.5737 54.0414 0.0000 0.0000 0.0000
# 2 18.5737 45.1140 32.3153 0.0000 0.0000 0.0000
# 3 54.0414 32.3153 142.8915 0.0000 0.0000 0.0000
# 4 0.0000 0.0000 0.0000 13.9342 0.0000 0.0000
# 5 0.0000 0.0000 0.0000 0.0000 15.2396 0.0000
# 6 0.0000 0.0000 0.0000 0.0000 0.0000 10.9283
#
#
#
# Elastic Compliance Matrix: (Units=1/GPa)
#
#
# Indices 1 2 3 4 5 6 
#
# 1 0.016964 -0.002850 -0.005771 0.000000 0.000000 0.000000
# 2 -0.002850 0.026930 -0.005012 0.000000 0.000000 0.000000
# 3 -0.005771 -0.005012 0.010315 0.000000 0.000000 0.000000
# 4 0.000000 0.000000 0.000000 0.071766 0.000000 0.000000
# 5 0.000000 0.000000 0.000000 0.000000 0.065619 0.000000
# 6 0.000000 0.000000 0.000000 0.000000 0.000000 0.091506
#
#
# Mechanical properties :
#
#
# Convention : Reuss Voigt Hill
#
# Bulk Modulus (GPa) = 37.11823 53.14666 45.13245
# Shear Modulus (GPa) = 15.65695 18.92231 17.28963
#
# Velocity S-wave (km/s) = 2.98486 3.28139 3.13663
# Velocity P-wave (km/s) = 5.74464 6.67827 6.22897
#
# Compressibility (1/GPa) = 0.02694094
#
# Stress axis : x y z
#
# Youngs Moduli (GPa) = 58.94799 37.13350 96.95068
#
# Poissons Ratio (x) = 0.10584 0.55952
# Poissons Ratio (y) = 0.16802 0.48594
# Poissons Ratio (z) = 0.34020 0.18612
#
# Static dielectric constant tensor:
#      x y z
#    x 3.128350 0.000000 0.000000 
#    y 0.000000 3.016270 0.000000 
#    z 0.000000 0.000000 3.775430 
# 
# 
# High freq. dielectric constant tensor:
#      x y z
#    x 1.645110 0.000000 0.000000 
#    y 0.000000 1.647720 0.000000 
#    z 0.000000 0.000000 1.696840 
# 
# From -- ./inp_files/30482.got.cif
#   From: 2010.03.12/outbox.cif.g09.slc.cpg/sg51_16_cif.got.tgz:30482.got - 2010.04.16 13:43:02.
