data_PCOD8206921
_publ_section_title
;
Structure prediction by ZEFSAII (Michael W. Deem and Ramdas Pophale) SiO2 
 PCOD8206921
Probable space group: P M M A
;
_chemical_formula_sum "Si O2"
_cell_formula_units_Z 64
_cell_length_a 8.870316
_cell_length_b 14.967018
_cell_length_c 24.930744
_cell_angle_alpha 90.000000
_cell_angle_beta 90.000000
_cell_angle_gamma 90.000000
_cell_volume 3309.859903
_symmetry_space_group_name_H-M "P M M A"
_symmetry_group_IT_number 51
_symmetry_cell_setting 'orthorhombic'
loop_
_space_group_symop_operation_xyz
x,y,z
1/2-x,-y,z
1/2+x,-y,-z
-x,y,-z
-x,-y,-z
1/2+x,y,-z
1/2-x,y,z
x,-y,z
loop_
_atom_site_type_symbol
_atom_site_label
_atom_site_fract_x
_atom_site_fract_y
_atom_site_fract_z
Si Si1 0.922181 0.099623 0.736433
Si Si2 0.425880 0.785060 0.648398
Si Si3 0.422883 0.598280 0.693997
Si Si4 0.926801 0.829762 0.168518
Si Si5 0.426336 0.774361 0.946794
Si Si6 0.578909 0.401503 0.915296
Si Si7 0.577528 0.346490 0.798073
Si Si8 0.427607 0.101539 0.443722
O O1 0.750000 0.132908 0.734219
O O2 0.026176 0.166754 0.703202
O O3 0.981629 0.095939 0.798053
O O4 0.934277 0.000000 0.712323
O O5 0.250000 0.801126 0.638261
O O6 0.465201 0.679138 0.653253
O O7 0.517649 0.827595 0.599811
O O8 0.250000 0.611289 0.712193
O O9 0.444898 0.500000 0.666461
O O10 0.527753 0.597824 0.746381
O O11 0.750000 0.848957 0.171966
O O12 0.981358 0.827631 0.106301
O O13 0.965814 0.736932 0.197138
O O14 0.250000 0.782094 0.952766
O O15 0.469165 0.670028 0.942382
O O16 0.500000 0.817327 0.000000
O O17 0.750000 0.374693 0.930362
O O18 0.538254 0.500000 0.937454
O O19 0.560576 0.406135 0.851076
O O20 0.750000 0.313842 0.790956
O O21 0.500000 0.128602 0.500000
O O22 0.250000 0.109638 0.449116
O O23 0.474362 0.000000 0.427641
#
# Coordination Sequence:
#
# PCOD8206921 Si02
#       8
#     8   8   8   8   8   8   8   8
#     4  11  23  37  56  85 118 150 182 222 277 337
#     4  11  22  36  57  85 120 159 196 236 282 331
#     4  10  21  35  51  75 111 154 197 239 282 330
#     4  10  20  35  54  77 105 138 176 219 271 332
#     4  10  21  35  52  72  94 126 171 218 270 330
#     4   9  18  31  46  67  96 129 168 216 270 327
#     4  10  18  30  50  74 102 138 181 227 274 327
#     4  10  21  38  61  89 121 156 195 239 287 341
#
# _framework density 19.336165999999999
#
# number of rings (size 3 to 8) (size 9 to 14) (size 15 to 20)
#    0.000    1.875    1.250    3.000    0.000    7.000 
#    0.000    0.000    0.000    0.750    0.000    0.000 
#    0.000    0.000    0.000    0.000    0.000    0.000 
#
# Total GULP energy -793440.696893 kJ/mol
# GULP energy per Si atom -12397.510889 kJ/mol
# Density = 1.929216 g / cm^3
# Si number density = 19.336166 Si / 1000 Ang^3
#
#
#
# Elastic Constant Matrix: (Units=GPa)
#
#
# Indices 1 2 3 4 5 6 
#
# 1 61.6857 20.7564 33.6652 0.0000 0.0000 0.0000
# 2 20.7564 84.1697 39.1792 0.0000 0.0000 0.0000
# 3 33.6652 39.1792 110.2638 0.0000 0.0000 0.0000
# 4 0.0000 0.0000 0.0000 16.4638 0.0000 0.0000
# 5 0.0000 0.0000 0.0000 0.0000 34.8585 0.0000
# 6 0.0000 0.0000 0.0000 0.0000 0.0000 22.8491
#
#
#
# Elastic Compliance Matrix: (Units=1/GPa)
#
#
# Indices 1 2 3 4 5 6 
#
# 1 0.019878 -0.002489 -0.005185 0.000000 0.000000 0.000000
# 2 -0.002489 0.014547 -0.004409 0.000000 0.000000 0.000000
# 3 -0.005185 -0.004409 0.012219 0.000000 0.000000 0.000000
# 4 0.000000 0.000000 0.000000 0.060739 0.000000 0.000000
# 5 0.000000 0.000000 0.000000 0.000000 0.028687 0.000000
# 6 0.000000 0.000000 0.000000 0.000000 0.000000 0.043765
#
#
# Mechanical properties :
#
#
# Convention : Reuss Voigt Hill
#
# Bulk Modulus (GPa) = 44.48614 49.25786 46.87200
# Shear Modulus (GPa) = 23.64137 25.66885 24.65511
#
# Velocity S-wave (km/s) = 3.50043 3.64745 3.57470
# Velocity P-wave (km/s) = 6.27647 6.57786 6.42893
#
# Compressibility (1/GPa) = 0.02247891
#
# Stress axis : x y z
#
# Youngs Moduli (GPa) = 50.30626 68.74400 81.84116
#
# Poissons Ratio (x) = 0.17107 0.42434
# Poissons Ratio (y) = 0.12519 0.36084
# Poissons Ratio (z) = 0.26083 0.30309
#
# Static dielectric constant tensor:
#      x y z
#    x 3.523170 0.000000 0.000000 
#    y 0.000000 3.477520 0.000000 
#    z 0.000000 0.000000 3.577650 
# 
# 
# High freq. dielectric constant tensor:
#      x y z
#    x 1.759230 0.000000 0.000000 
#    y 0.000000 1.736500 0.000000 
#    z 0.000000 0.000000 1.737620 
# 
# From -- ./inp_files/34846.got.cif
#   From: 2010.03.12/outbox.cif.g09.slc.cpg/sg51_18_cif.got.tgz:34846.got - 2010.04.16 13:43:02.
