data_PCOD8206766
_publ_section_title
;
Structure prediction by ZEFSAII (Michael W. Deem and Ramdas Pophale) SiO2 
 PCOD8206766
Probable space group: P M M A
;
_chemical_formula_sum "Si O2"
_cell_formula_units_Z 64
_cell_length_a 29.430555
_cell_length_b 8.898711
_cell_length_c 15.077080
_cell_angle_alpha 90.000000
_cell_angle_beta 90.000000
_cell_angle_gamma 90.000000
_cell_volume 3948.596843
_symmetry_space_group_name_H-M "P M M A"
_symmetry_group_IT_number 51
_symmetry_cell_setting 'orthorhombic'
loop_
_space_group_symop_operation_xyz
x,y,z
1/2-x,-y,z
1/2+x,-y,-z
-x,y,-z
-x,-y,-z
1/2+x,y,-z
1/2-x,y,z
x,-y,z
loop_
_atom_site_type_symbol
_atom_site_label
_atom_site_fract_x
_atom_site_fract_y
_atom_site_fract_z
Si Si1 0.880398 0.322713 0.298098
Si Si2 0.530501 0.822388 0.626463
Si Si3 0.111506 0.177592 0.037470
Si Si4 0.198289 0.171395 0.793258
Si Si5 0.460617 0.178216 0.177991
Si Si6 0.937898 0.176653 0.144335
Si Si7 0.933615 0.822395 0.443790
Si Si8 0.801188 0.676260 0.018267
O O1 0.879288 0.500000 0.294596
O O2 0.830431 0.258502 0.279972
O O3 0.915857 0.261901 0.226369
O O4 0.893220 0.266930 0.396496
O O5 0.545396 0.755967 0.722012
O O6 0.480285 0.766177 0.601427
O O7 0.565654 0.777205 0.548300
O O8 0.527968 0.000000 0.632819
O O9 0.079718 0.241515 0.116338
O O10 0.118206 0.000000 0.044340
O O11 0.087555 0.223301 0.945446
O O12 0.160882 0.255855 0.047602
O O13 0.250000 0.180240 0.761698
O O14 0.190815 0.247591 0.887532
O O15 0.181372 0.000000 0.801990
O O16 0.509388 0.225577 0.137623
O O17 0.457194 0.000000 0.178745
O O18 0.933839 0.000000 0.162939
O O19 0.926598 0.000000 0.431780
O O20 0.750000 0.711428 0.983104
O O21 0.808707 0.500000 0.029046
#
# Coordination Sequence:
#
# PCOD8206766 Si02
#       8
#     8   8   8   8   8   8   8   8
#     4  12  22  30  45  70 100 130 157 190 236 286
#     4   8  14  26  48  72  91 118 160 205 239 268
#     4  10  19  29  47  72  95 126 163 197 235 277
#     4  10  20  34  52  71  91 119 157 198 237 281
#     4   9  16  28  47  71  96 124 164 206 238 271
#     4  10  18  30  46  65  95 132 167 196 222 272
#     4   9  16  29  49  69  90 122 162 198 234 279
#     4  10  20  33  48  67  94 125 155 192 238 283
#
# _framework density 16.208289000000001
#
# number of rings (size 3 to 8) (size 9 to 14) (size 15 to 20)
#    0.000    2.250    2.500    3.000    0.000    3.000 
#    0.000    1.875    0.000    1.500    0.000    0.875 
#    0.000    3.000    0.000    0.000    0.000    0.000 
#
# Total GULP energy -793400.737152 kJ/mol
# GULP energy per Si atom -12396.886518 kJ/mol
# Density = 1.617140 g / cm^3
# Si number density = 16.208289 Si / 1000 Ang^3
#
#
#
# Elastic Constant Matrix: (Units=GPa)
#
#
# Indices 1 2 3 4 5 6 
#
# 1 112.2032 40.9648 54.8145 0.0000 0.0000 0.0000
# 2 40.9648 56.8827 28.0599 0.0000 0.0000 0.0000
# 3 54.8145 28.0599 87.0935 0.0000 0.0000 0.0000
# 4 0.0000 0.0000 0.0000 4.8770 0.0000 0.0000
# 5 0.0000 0.0000 0.0000 0.0000 25.3679 0.0000
# 6 0.0000 0.0000 0.0000 0.0000 0.0000 14.5896
#
#
#
# Elastic Compliance Matrix: (Units=1/GPa)
#
#
# Indices 1 2 3 4 5 6 
#
# 1 0.015071 -0.007341 -0.007120 0.000000 0.000000 0.000000
# 2 -0.007341 0.024478 -0.003266 0.000000 0.000000 0.000000
# 3 -0.007120 -0.003266 0.017015 0.000000 0.000000 0.000000
# 4 0.000000 0.000000 0.000000 0.205044 0.000000 0.000000
# 5 0.000000 0.000000 0.000000 0.000000 0.039420 0.000000
# 6 0.000000 0.000000 0.000000 0.000000 0.000000 0.068542
#
#
# Mechanical properties :
#
#
# Convention : Reuss Voigt Hill
#
# Bulk Modulus (GPa) = 47.37146 55.98419 51.67783
# Shear Modulus (GPa) = 12.13409 17.78956 14.96182
#
# Velocity S-wave (km/s) = 2.73909 3.31654 3.04155
# Velocity P-wave (km/s) = 6.26846 7.02007 6.65488
#
# Compressibility (1/GPa) = 0.02110976
#
# Stress axis : x y z
#
# Youngs Moduli (GPa) = 66.35230 40.85289 58.77039
#
# Poissons Ratio (x) = 0.29991 0.41845
# Poissons Ratio (y) = 0.48711 0.19194
# Poissons Ratio (z) = 0.47244 0.13342
#
# Static dielectric constant tensor:
#      x y z
#    x 3.189880 0.000000 0.000000 
#    y 0.000000 2.842720 0.000000 
#    z 0.000000 0.000000 3.243930 
# 
# 
# High freq. dielectric constant tensor:
#      x y z
#    x 1.615690 0.000000 0.000000 
#    y 0.000000 1.602300 0.000000 
#    z 0.000000 0.000000 1.606420 
# 
# From -- ./inp_files/26673.got.cif
#   From: 2010.03.12/outbox.cif.g09.slc.cpg/sg51_14_cif.got.tgz:26673.got - 2010.04.16 13:43:02.
