data_PCOD8206636
_publ_section_title
;
Structure prediction by ZEFSAII (Michael W. Deem and Ramdas Pophale) SiO2 
 PCOD8206636
Probable space group: P M M A
;
_chemical_formula_sum "Si O2"
_cell_formula_units_Z 64
_cell_length_a 9.272587
_cell_length_b 14.635235
_cell_length_c 24.085101
_cell_angle_alpha 90.000000
_cell_angle_beta 90.000000
_cell_angle_gamma 90.000000
_cell_volume 3268.504513
_symmetry_space_group_name_H-M "P M M A"
_symmetry_group_IT_number 51
_symmetry_cell_setting 'orthorhombic'
loop_
_space_group_symop_operation_xyz
x,y,z
1/2-x,-y,z
1/2+x,-y,-z
-x,y,-z
-x,-y,-z
1/2+x,y,-z
1/2-x,y,z
x,-y,z
loop_
_atom_site_type_symbol
_atom_site_label
_atom_site_fract_x
_atom_site_fract_y
_atom_site_fract_z
Si Si1 0.420040 0.396114 0.943140
Si Si2 0.909122 0.598674 0.244905
Si Si3 0.911021 0.638441 0.653931
Si Si4 0.917244 0.104779 0.786565
Si Si5 0.914112 0.139329 0.445608
Si Si6 0.411165 0.643268 0.551547
Si Si7 0.082109 0.258233 0.847679
Si Si8 0.413402 0.854374 0.337604
O O1 0.250000 0.388506 0.952560
O O2 0.458311 0.500000 0.922689
O O3 0.471947 0.316152 0.900990
O O4 0.500000 0.374233 0.000000
O O5 0.750000 0.619654 0.270340
O O6 0.905879 0.500000 0.214308
O O7 0.952328 0.676635 0.203178
O O8 0.030834 0.593066 0.290833
O O9 0.750000 0.603474 0.642923
O O10 0.915647 0.746473 0.658694
O O11 0.012695 0.602355 0.605332
O O12 0.750000 0.133102 0.787291
O O13 0.976272 0.117865 0.723189
O O14 0.997147 0.164926 0.833870
O O15 0.940550 0.000000 0.804250
O O16 0.750000 0.101469 0.446877
O O17 0.912370 0.247821 0.447328
O O18 0.000000 0.102261 0.500000
O O19 0.990650 0.105080 0.388347
O O20 0.500000 0.605128 0.500000
O O21 0.250000 0.604833 0.548213
O O22 0.250000 0.233939 0.853610
O O23 0.250000 0.892098 0.344160
#
# Coordination Sequence:
#
# PCOD8206636 Si02
#       8
#     8   8   8   8   8   8   8   8
#     4   9  18  34  57  88 125 162 196 230 271 320
#     4  10  20  33  50  74 105 141 176 212 260 318
#     4  10  18  29  46  68  96 130 168 213 263 317
#     4  10  21  37  56  79 109 146 187 233 285 335
#     4   9  16  25  41  66  94 125 163 211 267 330
#     4   9  16  26  41  63  90 122 163 210 261 319
#     4  10  20  35  57  83 114 149 187 229 271 318
#     4   9  17  30  47  68  97 132 170 217 272 328
#
# _framework density 19.580819999999999
#
# number of rings (size 3 to 8) (size 9 to 14) (size 15 to 20)
#    0.000    2.500    1.250    1.500    0.000    6.500 
#    0.000    0.000    0.000    3.375    0.000    0.000 
#    0.000    0.000    0.000    0.000    0.000    0.000 
#
# Total GULP energy -793171.913605 kJ/mol
# GULP energy per Si atom -12393.311150 kJ/mol
# Density = 1.953625 g / cm^3
# Si number density = 19.580820 Si / 1000 Ang^3
#
#
#
# Elastic Constant Matrix: (Units=GPa)
#
#
# Indices 1 2 3 4 5 6 
#
# 1 110.8856 36.0439 64.4448 0.0000 0.0000 0.0000
# 2 36.0439 78.2267 44.2576 0.0000 0.0000 0.0000
# 3 64.4448 44.2576 118.5288 0.0000 0.0000 0.0000
# 4 0.0000 0.0000 0.0000 -1.5325 0.0000 0.0000
# 5 0.0000 0.0000 0.0000 0.0000 35.6431 0.0000
# 6 0.0000 0.0000 0.0000 0.0000 0.0000 12.2039
#
#
#
# Elastic Compliance Matrix: (Units=1/GPa)
#
#
# Indices 1 2 3 4 5 6 
#
# 1 0.013602 -0.002641 -0.006409 0.000000 0.000000 0.000000
# 2 -0.002641 0.016720 -0.004807 0.000000 0.000000 0.000000
# 3 -0.006409 -0.004807 0.013716 0.000000 0.000000 0.000000
# 4 0.000000 0.000000 0.000000 -0.652533 0.000000 0.000000
# 5 0.000000 0.000000 0.000000 0.000000 0.028056 0.000000
# 6 0.000000 0.000000 0.000000 0.000000 0.000000 0.081941
#
#
# Mechanical properties :
#
#
# Convention : Reuss Voigt Hill
#
# Bulk Modulus (GPa) = 61.26203 66.34819 63.80511
# Shear Modulus (GPa) = -10.74478 20.12256 4.68889
#
# Velocity S-wave (km/s) = -2.34506 3.20920 1.54914
# Velocity P-wave (km/s) = 4.90125 6.90578 5.98799
#
# Compressibility (1/GPa) = 0.01632332
#
# Stress axis : x y z
#
# Youngs Moduli (GPa) = 73.52021 59.80884 72.90541
#
# Poissons Ratio (x) = 0.15796 0.46726
# Poissons Ratio (y) = 0.19417 0.35046
# Poissons Ratio (z) = 0.47120 0.28751
#
# Static dielectric constant tensor:
#      x y z
#    x 3.664960 0.000000 0.000000 
#    y 0.000000 3.598260 0.000000 
#    z 0.000000 0.000000 3.514550 
# 
# 
# High freq. dielectric constant tensor:
#      x y z
#    x 1.761010 0.000000 0.000000 
#    y 0.000000 1.753750 0.000000 
#    z 0.000000 0.000000 1.743420 
# 
# From -- ./inp_files/35019.got.cif
#   From: 2010.03.12/outbox.cif.g09.slc.cpg/sg51_18_cif.got.tgz:35019.got - 2010.04.16 13:43:02.
