data_PCOD8206229
_publ_section_title
;
Structure prediction by ZEFSAII (Michael W. Deem and Ramdas Pophale) SiO2 
 PCOD8206229
Probable space group: P M M A
;
_chemical_formula_sum "Si O2"
_cell_formula_units_Z 64
_cell_length_a 20.120543
_cell_length_b 17.979127
_cell_length_c 9.408229
_cell_angle_alpha 90.000000
_cell_angle_beta 90.000000
_cell_angle_gamma 90.000000
_cell_volume 3403.424939
_symmetry_space_group_name_H-M "P M M A"
_symmetry_group_IT_number 51
_symmetry_cell_setting 'orthorhombic'
loop_
_space_group_symop_operation_xyz
x,y,z
1/2-x,-y,z
1/2+x,-y,-z
-x,y,-z
-x,-y,-z
1/2+x,y,-z
1/2-x,y,z
x,-y,z
loop_
_atom_site_type_symbol
_atom_site_label
_atom_site_fract_x
_atom_site_fract_y
_atom_site_fract_z
Si Si1 0.676924 0.825209 0.645069
Si Si2 0.083906 0.854264 0.120009
Si Si3 0.178325 0.654191 0.326714
Si Si4 0.071581 0.315915 0.124540
Si Si5 0.073930 0.672295 0.805188
Si Si6 0.443424 0.915152 0.836174
Si Si7 0.673937 0.586454 0.376151
Si Si8 0.932580 0.190444 0.409692
O O1 0.750000 0.858899 0.608380
O O2 0.645286 0.873821 0.775187
O O3 0.686851 0.741477 0.696192
O O4 0.630378 0.821792 0.508976
O O5 0.061638 0.770916 0.166424
O O6 0.022670 0.910065 0.142209
O O7 0.099085 0.865987 0.951820
O O8 0.250000 0.615202 0.297123
O O9 0.123040 0.632565 0.211695
O O10 0.153724 0.632563 0.483563
O O11 0.001630 0.354710 0.164209
O O12 0.098966 0.310754 0.964089
O O13 0.121404 0.607274 0.746074
O O14 0.077751 0.740715 0.696689
O O15 0.431287 0.885162 0.678899
O O16 0.419769 0.000000 0.845391
O O17 0.750000 0.605860 0.330092
O O18 0.666855 0.500000 0.411042
O O19 0.000000 0.201558 0.500000
#
# Coordination Sequence:
#
# PCOD8206229 Si02
#       8
#     8   8   8   8   8   8   8   8
#     4  10  20  34  56  84 112 144 190 241 293 346
#     4  10  17  36  55  81 114 144 186 241 289 338
#     4   9  18  34  56  81 109 143 187 237 283 338
#     4  10  19  34  56  85 115 141 189 241 291 328
#     4  11  20  34  58  82 115 151 185 236 285 335
#     4  11  21  34  57  86 113 147 195 242 288 345
#     4  10  22  39  57  81 115 152 188 228 282 347
#     4  12  20  35  58  86 118 149 192 244 292 335
#
# _framework density 18.804587000000001
#
# number of rings (size 3 to 8) (size 9 to 14) (size 15 to 20)
#    0.000    1.625    5.000    2.250    0.000    0.750 
#    0.000    3.750    0.000    5.625    0.000    0.000 
#    0.000    0.000    0.000    0.000    0.000    0.000 
#
# Total GULP energy -792859.803581 kJ/mol
# GULP energy per Si atom -12388.434431 kJ/mol
# Density = 1.876179 g / cm^3
# Si number density = 18.804587 Si / 1000 Ang^3
#
#
#
# Elastic Constant Matrix: (Units=GPa)
#
#
# Indices 1 2 3 4 5 6 
#
# 1 116.8605 24.1780 74.8777 0.0000 0.0000 0.0000
# 2 24.1780 48.5836 23.1286 0.0000 0.0000 0.0000
# 3 74.8777 23.1286 127.1264 0.0000 0.0000 0.0000
# 4 0.0000 0.0000 0.0000 14.8003 0.0000 0.0000
# 5 0.0000 0.0000 0.0000 0.0000 32.2822 0.0000
# 6 0.0000 0.0000 0.0000 0.0000 0.0000 16.0787
#
#
#
# Elastic Compliance Matrix: (Units=1/GPa)
#
#
# Indices 1 2 3 4 5 6 
#
# 1 0.014236 -0.003386 -0.007769 0.000000 0.000000 0.000000
# 2 -0.003386 0.023340 -0.002252 0.000000 0.000000 0.000000
# 3 -0.007769 -0.002252 0.012852 0.000000 0.000000 0.000000
# 4 0.000000 0.000000 0.000000 0.067566 0.000000 0.000000
# 5 0.000000 0.000000 0.000000 0.000000 0.030977 0.000000
# 6 0.000000 0.000000 0.000000 0.000000 0.000000 0.062194
#
#
# Mechanical properties :
#
#
# Convention : Reuss Voigt Hill
#
# Bulk Modulus (GPa) = 42.34782 59.65988 51.00385
# Shear Modulus (GPa) = 20.33768 23.99134 22.16451
#
# Velocity S-wave (km/s) = 3.29223 3.57574 3.43691
# Velocity P-wave (km/s) = 6.08445 6.98878 6.55223
#
# Compressibility (1/GPa) = 0.02361397
#
# Stress axis : x y z
#
# Youngs Moduli (GPa) = 70.24681 42.84441 77.81087
#
# Poissons Ratio (x) = 0.14507 0.60449
# Poissons Ratio (y) = 0.23786 0.17523
# Poissons Ratio (z) = 0.54573 0.09648
#
# Static dielectric constant tensor:
#      x y z
#    x 3.795810 0.000000 0.000000 
#    y 0.000000 3.079450 0.000000 
#    z 0.000000 0.000000 3.670930 
# 
# 
# High freq. dielectric constant tensor:
#      x y z
#    x 1.723310 0.000000 0.000000 
#    y 0.000000 1.690720 0.000000 
#    z 0.000000 0.000000 1.742510 
# 
# From -- ./inp_files/11190.got.cif
#   From: 2010.03.12/outbox.cif.g09.slc.cpg/sg51_6_cif.got.tgz:11190.got - 2010.04.16 13:43:02.
