data_PCOD8206472
_publ_section_title
;
Structure prediction by ZEFSAII (Michael W. Deem and Ramdas Pophale) SiO2 
 PCOD8206472
Probable space group: P M M A
;
_chemical_formula_sum "Si O2"
_cell_formula_units_Z 64
_cell_length_a 29.674938
_cell_length_b 9.040006
_cell_length_c 14.797791
_cell_angle_alpha 90.000000
_cell_angle_beta 90.000000
_cell_angle_gamma 90.000000
_cell_volume 3969.679350
_symmetry_space_group_name_H-M "P M M A"
_symmetry_group_IT_number 51
_symmetry_cell_setting 'orthorhombic'
loop_
_space_group_symop_operation_xyz
x,y,z
1/2-x,-y,z
1/2+x,-y,-z
-x,y,-z
-x,-y,-z
1/2+x,y,-z
1/2-x,y,z
x,-y,z
loop_
_atom_site_type_symbol
_atom_site_label
_atom_site_fract_x
_atom_site_fract_y
_atom_site_fract_z
Si Si1 0.032784 0.173381 0.667504
Si Si2 0.557912 0.673437 0.628619
Si Si3 0.610963 0.826511 0.469777
Si Si4 0.201141 0.675320 0.299902
Si Si5 0.434008 0.174564 0.051168
Si Si6 0.884419 0.672340 0.801076
Si Si7 0.300511 0.325925 0.505254
Si Si8 0.528013 0.824973 0.130951
O O1 0.078300 0.207887 0.614088
O O2 0.040150 0.235403 0.769515
O O3 0.991546 0.256422 0.618825
O O4 0.021018 0.000000 0.667255
O O5 0.555426 0.500000 0.607760
O O6 0.592346 0.745835 0.558454
O O7 0.575921 0.705070 0.729450
O O8 0.660290 0.763131 0.442126
O O9 0.614102 0.000000 0.489365
O O10 0.250000 0.723873 0.261286
O O11 0.196728 0.500000 0.302384
O O12 0.162036 0.741894 0.237214
O O13 0.196059 0.730706 0.402280
O O14 0.392758 0.250663 0.102722
O O15 0.479231 0.232655 0.100211
O O16 0.428873 0.000000 0.060016
O O17 0.435414 0.224040 0.945358
O O18 0.879249 0.500000 0.819359
O O19 0.250000 0.289519 0.542664
O O20 0.309896 0.500000 0.513799
O O21 0.526676 0.000000 0.132660
#
# Coordination Sequence:
#
# PCOD8206472 Si02
#       8
#     8   8   8   8   8   8   8   8
#     4  10  20  34  48  64  91 126 160 195 232 273
#     4  11  21  32  45  65  94 128 162 193 223 268
#     4  11  22  32  46  68  94 125 158 194 233 270
#     4   8  14  27  46  64  85 116 150 181 217 267
#     4   9  16  28  48  67  84 115 150 183 224 270
#     4  10  18  28  44  68  93 117 149 186 224 268
#     4   9  17  32  52  69  89 120 155 191 232 277
#     4   8  15  29  47  65  85 113 154 189 219 270
#
# _framework density 16.122209000000002
#
# number of rings (size 3 to 8) (size 9 to 14) (size 15 to 20)
#    0.000    2.500    2.500    2.625    0.000    3.250 
#    0.000    1.875    0.000    0.375    0.000    0.875 
#    0.000    5.000    0.000    0.000    0.000    0.000 
#
# Total GULP energy -793250.076722 kJ/mol
# GULP energy per Si atom -12394.532449 kJ/mol
# Density = 1.608551 g / cm^3
# Si number density = 16.122209 Si / 1000 Ang^3
#
#
#
# Elastic Constant Matrix: (Units=GPa)
#
#
# Indices 1 2 3 4 5 6 
#
# 1 117.9099 39.2240 32.4730 0.0000 0.0000 0.0000
# 2 39.2240 48.2558 24.3027 0.0000 0.0000 0.0000
# 3 32.4730 24.3027 58.7911 0.0000 0.0000 0.0000
# 4 0.0000 0.0000 0.0000 17.7923 0.0000 0.0000
# 5 0.0000 0.0000 0.0000 0.0000 23.2611 0.0000
# 6 0.0000 0.0000 0.0000 0.0000 0.0000 20.9809
#
#
#
# Elastic Compliance Matrix: (Units=1/GPa)
#
#
# Indices 1 2 3 4 5 6 
#
# 1 0.012114 -0.008179 -0.003310 0.000000 0.000000 0.000000
# 2 -0.008179 0.031694 -0.008584 0.000000 0.000000 0.000000
# 3 -0.003310 -0.008584 0.022386 0.000000 0.000000 0.000000
# 4 0.000000 0.000000 0.000000 0.056204 0.000000 0.000000
# 5 0.000000 0.000000 0.000000 0.000000 0.042990 0.000000
# 6 0.000000 0.000000 0.000000 0.000000 0.000000 0.047662
#
#
# Mechanical properties :
#
#
# Convention : Reuss Voigt Hill
#
# Bulk Modulus (GPa) = 38.39079 46.32845 42.35962
# Shear Modulus (GPa) = 19.09282 21.00402 20.04842
#
# Velocity S-wave (km/s) = 3.44503 3.61335 3.53019
# Velocity P-wave (km/s) = 6.29987 6.79754 6.55343
#
# Compressibility (1/GPa) = 0.02604791
#
# Stress axis : x y z
#
# Youngs Moduli (GPa) = 82.55228 31.55134 44.67131
#
# Poissons Ratio (x) = 0.25807 0.14785
# Poissons Ratio (y) = 0.67523 0.38345
# Poissons Ratio (z) = 0.27322 0.27083
#
# Static dielectric constant tensor:
#      x y z
#    x 3.181430 0.000000 0.000000 
#    y 0.000000 2.818240 0.000000 
#    z 0.000000 0.000000 3.149170 
# 
# 
# High freq. dielectric constant tensor:
#      x y z
#    x 1.611650 0.000000 0.000000 
#    y 0.000000 1.600500 0.000000 
#    z 0.000000 0.000000 1.599760 
# 
# From -- ./inp_files/26675.got.cif
#   From: 2010.03.12/outbox.cif.g09.slc.cpg/sg51_14_cif.got.tgz:26675.got - 2010.04.16 13:43:02.
