data_PCOD8206535
_publ_section_title
;
Structure prediction by ZEFSAII (Michael W. Deem and Ramdas Pophale) SiO2 
 PCOD8206535
Probable space group: P M M A
;
_chemical_formula_sum "Si O2"
_cell_formula_units_Z 64
_cell_length_a 30.621627
_cell_length_b 13.592583
_cell_length_c 9.629833
_cell_angle_alpha 90.000000
_cell_angle_beta 90.000000
_cell_angle_gamma 90.000000
_cell_volume 4008.196564
_symmetry_space_group_name_H-M "P M M A"
_symmetry_group_IT_number 51
_symmetry_cell_setting 'orthorhombic'
loop_
_space_group_symop_operation_xyz
x,y,z
1/2-x,-y,z
1/2+x,-y,-z
-x,y,-z
-x,-y,-z
1/2+x,y,-z
1/2-x,y,z
x,-y,z
loop_
_atom_site_type_symbol
_atom_site_label
_atom_site_fract_x
_atom_site_fract_y
_atom_site_fract_z
Si Si1 0.457664 0.889789 0.815739
Si Si2 0.067945 0.306971 0.711802
Si Si3 0.104740 0.698713 0.197760
Si Si4 0.557587 0.889988 0.862223
Si Si5 0.136517 0.384472 0.925704
Si Si6 0.798379 0.383647 0.305792
Si Si7 0.488141 0.613952 0.150674
Si Si8 0.371741 0.382689 0.483521
O O1 0.430327 0.812142 0.723375
O O2 0.509180 0.866176 0.806796
O O3 0.448421 0.000000 0.759777
O O4 0.441297 0.880079 0.972620
O O5 0.093961 0.360349 0.835279
O O6 0.085611 0.341973 0.563356
O O7 0.017539 0.337673 0.729272
O O8 0.091767 0.813539 0.203831
O O9 0.062147 0.631047 0.185021
O O10 0.131113 0.668726 0.334756
O O11 0.136429 0.676956 0.067882
O O12 0.571533 0.000000 0.817403
O O13 0.136589 0.500000 0.959441
O O14 0.179476 0.351982 0.839596
O O15 0.750000 0.336281 0.317011
O O16 0.795106 0.500000 0.310466
O O17 0.828339 0.348770 0.434102
O O18 0.498619 0.500000 0.148003
O O19 0.500000 0.661303 0.000000
O O20 0.375136 0.500000 0.470336
#
# Coordination Sequence:
#
# PCOD8206535 Si02
#       8
#     8   8   8   8   8   8   8   8
#     4   9  16  29  48  67  85 120 177 224 251 273
#     4  11  18  31  45  64  93 130 173 202 236 277
#     4  12  20  31  45  68 101 128 164 204 244 276
#     4   9  17  30  47  66  89 124 169 215 255 280
#     4  10  18  28  48  72  95 121 157 204 239 278
#     4   8  16  34  55  71  92 126 158 186 236 300
#     4  11  19  26  42  63  89 131 174 204 228 274
#     4  10  22  34  46  69 103 135 159 195 241 287
#
# _framework density 15.967280000000001
#
# number of rings (size 3 to 8) (size 9 to 14) (size 15 to 20)
#    0.000    2.000    3.750    3.750    0.000    0.500 
#    0.000    2.500    0.000    4.500    0.000    0.000 
#    0.000   19.000    0.000    0.000    0.000    0.000 
#
# Total GULP energy -793512.776655 kJ/mol
# GULP energy per Si atom -12398.637135 kJ/mol
# Density = 1.593094 g / cm^3
# Si number density = 15.967280 Si / 1000 Ang^3
#
#
#
# Elastic Constant Matrix: (Units=GPa)
#
#
# Indices 1 2 3 4 5 6 
#
# 1 77.4580 24.0890 37.5005 0.0000 0.0000 0.0000
# 2 24.0890 90.4284 29.4900 0.0000 0.0000 0.0000
# 3 37.5005 29.4900 92.3057 0.0000 0.0000 0.0000
# 4 0.0000 0.0000 0.0000 21.0734 0.0000 0.0000
# 5 0.0000 0.0000 0.0000 0.0000 15.1515 0.0000
# 6 0.0000 0.0000 0.0000 0.0000 0.0000 9.3088
#
#
#
# Elastic Compliance Matrix: (Units=1/GPa)
#
#
# Indices 1 2 3 4 5 6 
#
# 1 0.016553 -0.002474 -0.005934 0.000000 0.000000 0.000000
# 2 -0.002474 0.012714 -0.003057 0.000000 0.000000 0.000000
# 3 -0.005934 -0.003057 0.014221 0.000000 0.000000 0.000000
# 4 0.000000 0.000000 0.000000 0.047453 0.000000 0.000000
# 5 0.000000 0.000000 0.000000 0.000000 0.066000 0.000000
# 6 0.000000 0.000000 0.000000 0.000000 0.000000 0.107426
#
#
# Mechanical properties :
#
#
# Convention : Reuss Voigt Hill
#
# Bulk Modulus (GPa) = 48.64400 49.15014 48.89707
# Shear Modulus (GPa) = 16.99811 20.38091 18.68951
#
# Velocity S-wave (km/s) = 3.26630 3.57657 3.42495
# Velocity P-wave (km/s) = 6.68998 6.92130 6.80663
#
# Compressibility (1/GPa) = 0.02055752
#
# Stress axis : x y z
#
# Youngs Moduli (GPa) = 60.41301 78.65067 70.31812
#
# Poissons Ratio (x) = 0.19459 0.41729
# Poissons Ratio (y) = 0.14947 0.21495
# Poissons Ratio (z) = 0.35851 0.24042
#
# Static dielectric constant tensor:
#      x y z
#    x 2.989010 0.000000 0.000000 
#    y 0.000000 3.085670 0.000000 
#    z 0.000000 0.000000 2.943560 
# 
# 
# High freq. dielectric constant tensor:
#      x y z
#    x 1.578630 0.000000 0.000000 
#    y 0.000000 1.606060 0.000000 
#    z 0.000000 0.000000 1.598990 
# 
# From -- ./inp_files/13261.got.cif
#   From: 2010.03.12/outbox.cif.g09.slc.cpg/sg51_7_cif.got.tgz:13261.got - 2010.04.16 13:43:02.
