data_PCOD8206744
_publ_section_title
;
Structure prediction by ZEFSAII (Michael W. Deem and Ramdas Pophale) SiO2 
 PCOD8206744
Probable space group: P M M A
;
_chemical_formula_sum "Si O2"
_cell_formula_units_Z 48
_cell_length_a 19.030188
_cell_length_b 9.754931
_cell_length_c 14.734076
_cell_angle_alpha 90.000000
_cell_angle_beta 90.000000
_cell_angle_gamma 90.000000
_cell_volume 2735.206918
_symmetry_space_group_name_H-M "P M M A"
_symmetry_group_IT_number 51
_symmetry_cell_setting 'orthorhombic'
loop_
_space_group_symop_operation_xyz
x,y,z
1/2-x,-y,z
1/2+x,-y,-z
-x,y,-z
-x,-y,-z
1/2+x,y,-z
1/2-x,y,z
x,-y,z
loop_
_atom_site_type_symbol
_atom_site_label
_atom_site_fract_x
_atom_site_fract_y
_atom_site_fract_z
Si Si1 0.549693 0.842884 0.864013
Si Si2 0.897624 0.843647 0.058068
Si Si3 0.566673 0.338715 0.691531
Si Si4 0.412957 0.661906 0.636812
Si Si5 0.829465 0.662703 0.535436
Si Si6 0.169954 0.344910 0.808932
O O1 0.471334 0.806632 0.895050
O O2 0.574713 0.742887 0.784815
O O3 0.554455 0.000000 0.830712
O O4 0.600295 0.818955 0.950212
O O5 0.839189 0.744818 0.100573
O O6 0.877216 0.000000 0.078694
O O7 0.566837 0.500000 0.714055
O O8 0.495028 0.297912 0.638590
O O9 0.631847 0.295274 0.628406
O O10 0.403134 0.500000 0.633906
O O11 0.374046 0.725166 0.548755
O O12 0.376318 0.719231 0.727704
O O13 0.750000 0.722148 0.535462
O O14 0.827457 0.500000 0.527119
O O15 0.250000 0.340591 0.776626
O O16 0.146264 0.500000 0.831176
#
# Coordination Sequence:
#
# PCOD8206744 Si02
#       6
#     8   8   8   8   8   8
#     4   9  18  33  52  72  95 126 163 203 247 291
#     4   9  18  33  51  70  95 129 167 201 239 295
#     4  10  18  29  50  78  99 124 166 209 243 287
#     4   9  16  28  46  71 101 130 161 199 243 292
#     4   9  17  29  46  70 101 133 163 200 246 292
#     4  10  19  30  47  74 105 132 160 201 253 296
#
# _framework density 17.548946000000001
#
# number of rings (size 3 to 8) (size 9 to 14) (size 15 to 20)
#    0.000    2.667    1.667    2.000    0.000    5.000 
#    0.000    2.500    0.000    6.500    0.000    0.000 
#    0.000    0.000    0.000    0.000    0.000    0.000 
#
# Total GULP energy -595110.164953 kJ/mol
# GULP energy per Si atom -12398.128437 kJ/mol
# Density = 1.750900 g / cm^3
# Si number density = 17.548946 Si / 1000 Ang^3
#
#
#
# Elastic Constant Matrix: (Units=GPa)
#
#
# Indices 1 2 3 4 5 6 
#
# 1 86.1998 25.0109 49.9990 0.0000 0.0000 0.0000
# 2 25.0109 47.4850 48.0867 0.0000 0.0000 0.0000
# 3 49.9990 48.0867 123.5542 0.0000 0.0000 0.0000
# 4 0.0000 0.0000 0.0000 10.8721 0.0000 0.0000
# 5 0.0000 0.0000 0.0000 0.0000 25.0466 0.0000
# 6 0.0000 0.0000 0.0000 0.0000 0.0000 16.3222
#
#
#
# Elastic Compliance Matrix: (Units=1/GPa)
#
#
# Indices 1 2 3 4 5 6 
#
# 1 0.015409 -0.002973 -0.005079 0.000000 0.000000 0.000000
# 2 -0.002973 0.035332 -0.012548 0.000000 0.000000 0.000000
# 3 -0.005079 -0.012548 0.015032 0.000000 0.000000 0.000000
# 4 0.000000 0.000000 0.000000 0.091978 0.000000 0.000000
# 5 0.000000 0.000000 0.000000 0.000000 0.039926 0.000000
# 6 0.000000 0.000000 0.000000 0.000000 0.000000 0.061266
#
#
# Mechanical properties :
#
#
# Convention : Reuss Voigt Hill
#
# Bulk Modulus (GPa) = 40.69279 55.93690 48.31484
# Shear Modulus (GPa) = 16.21612 19.39103 17.80358
#
# Velocity S-wave (km/s) = 3.04312 3.32771 3.18859
# Velocity P-wave (km/s) = 5.96539 6.83439 6.41462
#
# Compressibility (1/GPa) = 0.02457438
#
# Stress axis : x y z
#
# Youngs Moduli (GPa) = 64.89538 28.30263 66.52317
#
# Poissons Ratio (x) = 0.08416 0.33784
# Poissons Ratio (y) = 0.19296 0.83473
# Poissons Ratio (z) = 0.32957 0.35514
#
# Static dielectric constant tensor:
#      x y z
#    x 3.238650 0.000000 0.000000 
#    y 0.000000 2.885480 0.000000 
#    z 0.000000 0.000000 3.317750 
# 
# 
# High freq. dielectric constant tensor:
#      x y z
#    x 1.671230 0.000000 0.000000 
#    y 0.000000 1.635930 0.000000 
#    z 0.000000 0.000000 1.683300 
# 
# From -- ./inp_files/18110.got.cif
#   From: 2010.03.12/outbox.cif.g09.slc.cpg/sg51_10_cif.got.tgz:18110.got - 2010.04.16 13:43:02.
