data_PCOD8206586
_publ_section_title
;
Structure prediction by ZEFSAII (Michael W. Deem and Ramdas Pophale) SiO2 
 PCOD8206586
Probable space group: P M M A
;
_chemical_formula_sum "Si O2"
_cell_formula_units_Z 64
_cell_length_a 9.085411
_cell_length_b 21.482491
_cell_length_c 20.880963
_cell_angle_alpha 90.000000
_cell_angle_beta 90.000000
_cell_angle_gamma 90.000000
_cell_volume 4075.489145
_symmetry_space_group_name_H-M "P M M A"
_symmetry_group_IT_number 51
_symmetry_cell_setting 'orthorhombic'
loop_
_space_group_symop_operation_xyz
x,y,z
1/2-x,-y,z
1/2+x,-y,-z
-x,y,-z
-x,-y,-z
1/2+x,y,-z
1/2-x,y,z
x,-y,z
loop_
_atom_site_type_symbol
_atom_site_label
_atom_site_fract_x
_atom_site_fract_y
_atom_site_fract_z
Si Si1 0.580324 0.158033 0.668197
Si Si2 0.580933 0.426475 0.065449
Si Si3 0.909959 0.245806 0.943709
Si Si4 0.585033 0.069136 0.787955
Si Si5 0.084839 0.655028 0.165550
Si Si6 0.086619 0.841855 0.866127
Si Si7 0.923513 0.070558 0.431999
Si Si8 0.417807 0.254515 0.749784
O O1 0.750000 0.171484 0.648676
O O2 0.571410 0.110563 0.725881
O O3 0.492975 0.124761 0.611225
O O4 0.503162 0.223101 0.689512
O O5 0.750000 0.403340 0.061428
O O6 0.572137 0.500000 0.073034
O O7 0.505046 0.399051 0.129290
O O8 0.500000 0.405263 0.000000
O O9 0.750000 0.228891 0.970351
O O10 0.898460 0.288406 0.882516
O O11 0.992479 0.182231 0.925839
O O12 0.000000 0.280471 0.000000
O O13 0.750000 0.071630 0.815256
O O14 0.478123 0.092649 0.843467
O O15 0.537036 0.000000 0.768512
O O16 0.250000 0.631707 0.184606
O O17 0.999179 0.681119 0.228385
O O18 0.250000 0.853223 0.890867
O O19 0.082369 0.792720 0.808562
O O20 0.750000 0.082941 0.438389
O O21 0.000000 0.077191 0.500000
O O22 0.951947 0.000000 0.405353
O O23 0.250000 0.270306 0.729335
#
# Coordination Sequence:
#
# PCOD8206586 Si02
#       8
#     8   8   8   8   8   8   8   8
#     4  10  18  29  45  64  86 110 139 174 212 253
#     4  10  20  32  45  62  86 117 151 185 220 259
#     4  10  19  29  42  59  77  97 122 154 194 240
#     4   9  17  28  42  59  78 100 124 153 193 239
#     4  10  19  30  45  64  85 109 138 173 212 252
#     4   9  17  28  41  57  76  96 120 153 192 235
#     4  10  20  32  45  62  86 117 152 187 222 261
#     4   9  17  29  44  62  84 108 135 170 211 252
#
# _framework density 15.703635999999999
#
# number of rings (size 3 to 8) (size 9 to 14) (size 15 to 20)
#    0.000    2.375    0.000    3.375    0.000    8.250 
#    0.000    0.000    0.000    0.375    0.000    0.000 
#    0.000    0.000    0.000    0.000    0.000    0.625 
#
# Total GULP energy -793234.198613 kJ/mol
# GULP energy per Si atom -12394.284353 kJ/mol
# Density = 1.566789 g / cm^3
# Si number density = 15.703636 Si / 1000 Ang^3
#
#
#
# Elastic Constant Matrix: (Units=GPa)
#
#
# Indices 1 2 3 4 5 6 
#
# 1 140.7752 34.5054 38.0357 0.0000 0.0000 0.0000
# 2 34.5054 44.7662 21.3946 0.0000 0.0000 0.0000
# 3 38.0357 21.3946 42.8746 0.0000 0.0000 0.0000
# 4 0.0000 0.0000 0.0000 25.1395 0.0000 0.0000
# 5 0.0000 0.0000 0.0000 0.0000 25.1632 0.0000
# 6 0.0000 0.0000 0.0000 0.0000 0.0000 25.8169
#
#
#
# Elastic Compliance Matrix: (Units=1/GPa)
#
#
# Indices 1 2 3 4 5 6 
#
# 1 0.010004 -0.004556 -0.006601 0.000000 0.000000 0.000000
# 2 -0.004556 0.031409 -0.011631 0.000000 0.000000 0.000000
# 3 -0.006601 -0.011631 0.034984 0.000000 0.000000 0.000000
# 4 0.000000 0.000000 0.000000 0.039778 0.000000 0.000000
# 5 0.000000 0.000000 0.000000 0.000000 0.039741 0.000000
# 6 0.000000 0.000000 0.000000 0.000000 0.000000 0.038734
#
#
# Mechanical properties :
#
#
# Convention : Reuss Voigt Hill
#
# Bulk Modulus (GPa) = 32.44694 46.25416 39.35055
# Shear Modulus (GPa) = 19.96006 24.18927 22.07467
#
# Velocity S-wave (km/s) = 3.56904 3.92900 3.75334
# Velocity P-wave (km/s) = 6.13930 7.07821 6.62541
#
# Compressibility (1/GPa) = 0.03081955
#
# Stress axis : x y z
#
# Youngs Moduli (GPa) = 99.96172 31.83822 28.58434
#
# Poissons Ratio (x) = 0.14505 0.18869
# Poissons Ratio (y) = 0.45542 0.33247
# Poissons Ratio (z) = 0.65988 0.37032
#
# Static dielectric constant tensor:
#      x y z
#    x 3.394970 0.000000 0.000000 
#    y 0.000000 2.840640 0.000000 
#    z 0.000000 0.000000 2.767020 
# 
# 
# High freq. dielectric constant tensor:
#      x y z
#    x 1.628190 0.000000 0.000000 
#    y 0.000000 1.572620 0.000000 
#    z 0.000000 0.000000 1.560580 
# 
# From -- ./inp_files/32542.got.cif
#   From: 2010.03.12/outbox.cif.g09.slc.cpg/sg51_17_cif.got.tgz:32542.got - 2010.04.16 13:43:02.
