data_PCOD8206126
_publ_section_title
;
Structure prediction by ZEFSAII (Michael W. Deem and Ramdas Pophale) SiO2 
 PCOD8206126
Probable space group: P M M A
;
_chemical_formula_sum "Si O2"
_cell_formula_units_Z 64
_cell_length_a 20.380980
_cell_length_b 20.245635
_cell_length_c 9.050034
_cell_angle_alpha 90.000000
_cell_angle_beta 90.000000
_cell_angle_gamma 90.000000
_cell_volume 3734.278262
_symmetry_space_group_name_H-M "P M M A"
_symmetry_group_IT_number 51
_symmetry_cell_setting 'orthorhombic'
loop_
_space_group_symop_operation_xyz
x,y,z
1/2-x,-y,z
1/2+x,-y,-z
-x,y,-z
-x,-y,-z
1/2+x,y,-z
1/2-x,y,z
x,-y,z
loop_
_atom_site_type_symbol
_atom_site_label
_atom_site_fract_x
_atom_site_fract_y
_atom_site_fract_z
Si Si1 0.172675 0.927363 0.238574
Si Si2 0.828027 0.160576 0.502128
Si Si3 0.322221 0.807117 0.046979
Si Si4 0.380463 0.232349 0.746801
Si Si5 0.858709 0.277597 0.698215
Si Si6 0.823139 0.646263 0.427222
Si Si7 0.498840 0.309712 0.175731
Si Si8 0.453412 0.423756 0.636908
O O1 0.250000 0.929354 0.214231
O O2 0.158814 0.907698 0.410317
O O3 0.145103 0.872334 0.124190
O O4 0.141767 0.000000 0.208939
O O5 0.750000 0.175860 0.494035
O O6 0.862307 0.163940 0.340318
O O7 0.868299 0.216615 0.588105
O O8 0.250000 0.823795 0.985673
O O9 0.314578 0.747980 0.166086
O O10 0.367353 0.781289 0.917547
O O11 0.335807 0.290693 0.678845
O O12 0.456500 0.253926 0.743290
O O13 0.825039 0.335143 0.601859
O O14 0.926986 0.302292 0.761374
O O15 0.750000 0.619219 0.391868
O O16 0.877124 0.589825 0.400282
O O17 0.525956 0.381862 0.219659
O O18 0.500000 0.302533 0.000000
O O19 0.500000 0.403230 0.500000
O O20 0.462258 0.500000 0.677453
#
# Coordination Sequence:
#
# PCOD8206126 Si02
#       8
#     8   8   8   8   8   8   8   8
#     4   8  15  28  45  66  95 133 172 200 238 305
#     4   9  17  29  47  71  99 128 158 201 255 300
#     4  10  17  27  46  71 100 130 157 201 259 304
#     4  10  19  29  46  73 106 125 158 205 261 302
#     4  10  17  30  47  72  99 127 160 202 247 300
#     4  10  19  32  53  77 100 129 164 209 258 301
#     4  11  21  34  50  75 102 131 166 205 243 299
#     4  10  21  37  55  74  99 135 172 205 243 291
#
# _framework density 17.13852
#
# number of rings (size 3 to 8) (size 9 to 14) (size 15 to 20)
#    0.000    2.250    2.500    3.750    0.000    0.500 
#    0.000    0.625    0.000    3.000    0.000   14.000 
#    0.000    0.000    0.000    0.000    0.000    0.000 
#
# Total GULP energy -792922.609216 kJ/mol
# GULP energy per Si atom -12389.415769 kJ/mol
# Density = 1.709951 g / cm^3
# Si number density = 17.138520 Si / 1000 Ang^3
#
#
#
# Elastic Constant Matrix: (Units=GPa)
#
#
# Indices 1 2 3 4 5 6 
#
# 1 84.6646 25.8255 19.0359 0.0000 0.0000 0.0000
# 2 25.8255 65.5597 26.8981 0.0000 0.0000 0.0000
# 3 19.0359 26.8981 83.0070 0.0000 0.0000 0.0000
# 4 0.0000 0.0000 0.0000 19.0294 0.0000 0.0000
# 5 0.0000 0.0000 0.0000 0.0000 25.4871 0.0000
# 6 0.0000 0.0000 0.0000 0.0000 0.0000 13.0315
#
#
#
# Elastic Compliance Matrix: (Units=1/GPa)
#
#
# Indices 1 2 3 4 5 6 
#
# 1 0.013605 -0.004705 -0.001595 0.000000 0.000000 0.000000
# 2 -0.004705 0.019219 -0.005149 0.000000 0.000000 0.000000
# 3 -0.001595 -0.005149 0.014082 0.000000 0.000000 0.000000
# 4 0.000000 0.000000 0.000000 0.052550 0.000000 0.000000
# 5 0.000000 0.000000 0.000000 0.000000 0.039235 0.000000
# 6 0.000000 0.000000 0.000000 0.000000 0.000000 0.076737
#
#
# Mechanical properties :
#
#
# Convention : Reuss Voigt Hill
#
# Bulk Modulus (GPa) = 41.65381 41.86116 41.75748
# Shear Modulus (GPa) = 20.29802 22.27440 21.28621
#
# Velocity S-wave (km/s) = 3.44517 3.60900 3.52804
# Velocity P-wave (km/s) = 6.33897 6.46875 6.40419
#
# Compressibility (1/GPa) = 0.02400741
#
# Stress axis : x y z
#
# Youngs Moduli (GPa) = 73.50151 52.03153 71.01487
#
# Poissons Ratio (x) = 0.24480 0.11330
# Poissons Ratio (y) = 0.34581 0.36565
# Poissons Ratio (z) = 0.11727 0.26791
#
# Static dielectric constant tensor:
#      x y z
#    x 3.067850 0.000000 0.000000 
#    y 0.000000 3.146640 0.000000 
#    z 0.000000 0.000000 3.377220 
# 
# 
# High freq. dielectric constant tensor:
#      x y z
#    x 1.648300 0.000000 0.000000 
#    y 0.000000 1.631350 0.000000 
#    z 0.000000 0.000000 1.664970 
# 
# From -- ./inp_files/11253.got.cif
#   From: 2010.03.12/outbox.cif.g09.slc.cpg/sg51_6_cif.got.tgz:11253.got - 2010.04.16 13:43:02.
