data_PCOD8206769
_publ_section_title
;
Structure prediction by ZEFSAII (Michael W. Deem and Ramdas Pophale) SiO2 
 PCOD8206769
Probable space group: P M M A
;
_chemical_formula_sum "Si O2"
_cell_formula_units_Z 40
_cell_length_a 9.215565
_cell_length_b 9.780187
_cell_length_c 24.439795
_cell_angle_alpha 90.000000
_cell_angle_beta 90.000000
_cell_angle_gamma 90.000000
_cell_volume 2202.757477
_symmetry_space_group_name_H-M "P M M A"
_symmetry_group_IT_number 51
_symmetry_cell_setting 'orthorhombic'
loop_
_space_group_symop_operation_xyz
x,y,z
1/2-x,-y,z
1/2+x,-y,-z
-x,y,-z
-x,-y,-z
1/2+x,y,-z
1/2-x,y,z
x,-y,z
loop_
_atom_site_type_symbol
_atom_site_label
_atom_site_fract_x
_atom_site_fract_y
_atom_site_fract_z
Si Si1 0.078373 0.246909 0.871310
Si Si2 0.076731 0.843211 0.754200
Si Si3 0.579385 0.000000 0.056290
Si Si4 0.076570 0.500000 0.941066
Si Si5 0.919941 0.844004 0.444348
Si Si6 0.077436 0.656491 0.655050
O O1 0.250000 0.252606 0.866210
O O2 0.015668 0.223891 0.810312
O O3 0.019994 0.377883 0.903098
O O4 0.024496 0.126458 0.909275
O O5 0.250000 0.846442 0.754255
O O6 0.017727 0.744477 0.706251
O O7 0.020241 0.000000 0.747224
O O8 0.750000 0.000000 0.045982
O O9 0.500000 0.000000 0.000000
O O10 0.250000 0.500000 0.950580
O O11 0.000000 0.500000 0.000000
O O12 0.750000 0.827218 0.454560
O O13 0.975568 0.736740 0.398976
O O14 0.000000 0.805596 0.500000
O O15 0.955791 0.000000 0.425867
O O16 0.250000 0.652725 0.657142
O O17 0.016919 0.500000 0.655890
#
# Coordination Sequence:
#
# PCOD8206769 Si02
#       6
#     8   8   4   4   8   8
#     4   9  17  28  43  64  90 118 148 183 225 270
#     4   9  15  25  41  62  90 120 147 183 232 275
#     4  10  18  30  46  66  90 116 147 184 222 266
#     4  10  20  32  46  66  92 120 149 182 222 270
#     4   9  17  30  47  68  95 126 157 188 223 265
#     4   9  17  26  40  65  95 123 151 186 229 272
#
# _framework density 18.159058000000002
#
# number of rings (size 3 to 8) (size 9 to 14) (size 15 to 20)
#    0.000    2.800    1.000    1.200    1.400    2.800 
#    0.000    0.000    0.000    0.000    0.000    2.800 
#    0.000    0.000    0.000    0.000    0.000    0.000 
#
# Total GULP energy -495679.321826 kJ/mol
# GULP energy per Si atom -12391.983046 kJ/mol
# Density = 1.811773 g / cm^3
# Si number density = 18.159058 Si / 1000 Ang^3
#
#
#
# Elastic Constant Matrix: (Units=GPa)
#
#
# Indices 1 2 3 4 5 6 
#
# 1 11.7123 17.1813 24.9483 0.0000 0.0000 0.0000
# 2 17.1813 189.1334 116.0544 0.0000 0.0000 0.0000
# 3 24.9483 116.0544 196.3624 0.0000 0.0000 0.0000
# 4 0.0000 0.0000 0.0000 58.2593 0.0000 0.0000
# 5 0.0000 0.0000 0.0000 0.0000 22.6533 0.0000
# 6 0.0000 0.0000 0.0000 0.0000 0.0000 14.7979
#
#
#
# Elastic Compliance Matrix: (Units=1/GPa)
#
#
# Indices 1 2 3 4 5 6 
#
# 1 0.117740 -0.002380 -0.013553 0.000000 0.000000 0.000000
# 2 -0.002380 0.008344 -0.004629 0.000000 0.000000 0.000000
# 3 -0.013553 -0.004629 0.009550 0.000000 0.000000 0.000000
# 4 0.000000 0.000000 0.000000 0.017165 0.000000 0.000000
# 5 0.000000 0.000000 0.000000 0.000000 0.044144 0.000000
# 6 0.000000 0.000000 0.000000 0.000000 0.000000 0.067577
#
#
# Mechanical properties :
#
#
# Convention : Reuss Voigt Hill
#
# Bulk Modulus (GPa) = 10.58077 79.28624 44.93350
# Shear Modulus (GPa) = 14.83038 35.07705 24.95372
#
# Velocity S-wave (km/s) = 2.86088 4.39983 3.71101
# Velocity P-wave (km/s) = 4.09295 8.34076 6.56964
#
# Compressibility (1/GPa) = 0.09451111
#
# Stress axis : x y z
#
# Youngs Moduli (GPa) = 8.49332 119.84788 104.70733
#
# Poissons Ratio (x) = 0.28519 1.41907
# Poissons Ratio (y) = 0.02021 0.48470
# Poissons Ratio (z) = 0.11511 0.55479
#
# Static dielectric constant tensor:
#      x y z
#    x 2.660770 0.000000 0.000000 
#    y 0.000000 3.572100 0.000000 
#    z 0.000000 0.000000 3.571850 
# 
# 
# High freq. dielectric constant tensor:
#      x y z
#    x 1.624710 0.000000 0.000000 
#    y 0.000000 1.720570 0.000000 
#    z 0.000000 0.000000 1.721100 
# 
# From -- ./inp_files/32864.got.cif
#   From: 2010.03.12/outbox.cif.g09.slc.cpg/sg51_17_cif.got.tgz:32864.got - 2010.04.16 13:43:02.
