data_PCOD8206635
_publ_section_title
;
Structure prediction by ZEFSAII (Michael W. Deem and Ramdas Pophale) SiO2 
 PCOD8206635
Probable space group: P M M A
;
_chemical_formula_sum "Si O2"
_cell_formula_units_Z 64
_cell_length_a 8.805545
_cell_length_b 23.308356
_cell_length_c 18.997972
_cell_angle_alpha 90.000000
_cell_angle_beta 90.000000
_cell_angle_gamma 90.000000
_cell_volume 3899.196543
_symmetry_space_group_name_H-M "P M M A"
_symmetry_group_IT_number 51
_symmetry_cell_setting 'orthorhombic'
loop_
_space_group_symop_operation_xyz
x,y,z
1/2-x,-y,z
1/2+x,-y,-z
-x,y,-z
-x,-y,-z
1/2+x,y,-z
1/2-x,y,z
x,-y,z
loop_
_atom_site_type_symbol
_atom_site_label
_atom_site_fract_x
_atom_site_fract_y
_atom_site_fract_z
Si Si1 0.930257 0.664135 0.343182
Si Si2 0.426625 0.566545 0.425761
Si Si3 0.572244 0.766852 0.573309
Si Si4 0.924670 0.162673 0.707784
Si Si5 0.570283 0.064172 0.212926
Si Si6 0.428210 0.878908 0.928835
Si Si7 0.429113 0.746322 0.927949
Si Si8 0.929977 0.277336 0.785609
O O1 0.750000 0.666701 0.341468
O O2 0.987706 0.601341 0.364906
O O3 0.992038 0.709410 0.399906
O O4 0.995535 0.676054 0.265682
O O5 0.500000 0.583247 0.500000
O O6 0.250000 0.583071 0.428007
O O7 0.451417 0.500000 0.408408
O O8 0.500000 0.786460 0.500000
O O9 0.750000 0.753635 0.565304
O O10 0.544252 0.818995 0.627435
O O11 0.750000 0.148549 0.720841
O O12 0.977748 0.214058 0.758985
O O13 0.018005 0.105290 0.723944
O O14 0.750000 0.064857 0.210859
O O15 0.506021 0.086743 0.138124
O O16 0.508300 0.000000 0.226404
O O17 0.250000 0.886557 0.934983
O O18 0.474704 0.812753 0.919940
O O19 0.500000 0.904642 0.000000
O O20 0.250000 0.736526 0.927942
O O21 0.504335 0.712210 0.863326
O O22 0.500000 0.721616 0.000000
O O23 0.750000 0.285326 0.784222
#
# Coordination Sequence:
#
# PCOD8206635 Si02
#       8
#     8   8   8   8   8   8   8   8
#     4  11  21  32  49  73 102 134 166 203 242 283
#     4  10  20  34  51  71 100 139 178 212 244 280
#     4  10  20  34  51  74  98 122 152 192 238 287
#     4   9  19  33  49  68  91 116 148 188 233 284
#     4  10  20  33  48  66  89 117 151 191 233 282
#     4   9  18  30  44  64  89 118 152 189 227 275
#     4  10  18  29  46  68  94 127 160 195 239 290
#     4  10  19  32  49  70  96 125 160 202 244 289
#
# _framework density 16.413637999999999
#
# number of rings (size 3 to 8) (size 9 to 14) (size 15 to 20)
#    0.000    2.125    1.250    3.750    0.000    4.750 
#    0.000    0.000    0.000    0.375    0.000    0.000 
#    0.000    0.500    0.000    1.875    0.000    2.875 
#
# Total GULP energy -793756.287589 kJ/mol
# GULP energy per Si atom -12402.441994 kJ/mol
# Density = 1.637628 g / cm^3
# Si number density = 16.413638 Si / 1000 Ang^3
#
#
#
# Elastic Constant Matrix: (Units=GPa)
#
#
# Indices 1 2 3 4 5 6 
#
# 1 89.4367 38.6118 54.0125 0.0000 0.0000 0.0000
# 2 38.6118 73.6402 51.5117 0.0000 0.0000 0.0000
# 3 54.0125 51.5117 132.2794 0.0000 0.0000 0.0000
# 4 0.0000 0.0000 0.0000 16.6177 0.0000 0.0000
# 5 0.0000 0.0000 0.0000 0.0000 33.2501 0.0000
# 6 0.0000 0.0000 0.0000 0.0000 0.0000 23.1823
#
#
#
# Elastic Compliance Matrix: (Units=1/GPa)
#
#
# Indices 1 2 3 4 5 6 
#
# 1 0.016230 -0.005325 -0.004553 0.000000 0.000000 0.000000
# 2 -0.005325 0.020410 -0.005774 0.000000 0.000000 0.000000
# 3 -0.004553 -0.005774 0.011668 0.000000 0.000000 0.000000
# 4 0.000000 0.000000 0.000000 0.060177 0.000000 0.000000
# 5 0.000000 0.000000 0.000000 0.000000 0.030075 0.000000
# 6 0.000000 0.000000 0.000000 0.000000 0.000000 0.043136
#
#
# Mechanical properties :
#
#
# Convention : Reuss Voigt Hill
#
# Bulk Modulus (GPa) = 58.81131 64.84759 61.82945
# Shear Modulus (GPa) = 22.86574 24.69136 23.77855
#
# Velocity S-wave (km/s) = 3.73647 3.88276 3.81032
# Velocity P-wave (km/s) = 7.38400 7.72627 7.55707
#
# Compressibility (1/GPa) = 0.01700353
#
# Stress axis : x y z
#
# Youngs Moduli (GPa) = 61.61518 48.99490 85.70805
#
# Poissons Ratio (x) = 0.26088 0.39027
# Poissons Ratio (y) = 0.32807 0.49487
# Poissons Ratio (z) = 0.28056 0.28289
#
# Static dielectric constant tensor:
#      x y z
#    x 3.109450 0.000000 0.000000 
#    y 0.000000 2.886030 0.000000 
#    z 0.000000 0.000000 3.256470 
# 
# 
# High freq. dielectric constant tensor:
#      x y z
#    x 1.642700 0.000000 0.000000 
#    y 0.000000 1.595930 0.000000 
#    z 0.000000 0.000000 1.631820 
# 
# From -- ./inp_files/28571.got.cif
#   From: 2010.03.12/outbox.cif.g09.slc.cpg/sg51_15_cif.got.tgz:28571.got - 2010.04.16 13:43:02.
