data_PCOD8206049
_publ_section_title
;
Structure prediction by ZEFSAII (Michael W. Deem and Ramdas Pophale) SiO2 
 PCOD8206049
Probable space group: P M M A
;
_chemical_formula_sum "Si O2"
_cell_formula_units_Z 64
_cell_length_a 14.109700
_cell_length_b 8.940703
_cell_length_c 31.557816
_cell_angle_alpha 90.000000
_cell_angle_beta 90.000000
_cell_angle_gamma 90.000000
_cell_volume 3981.038594
_symmetry_space_group_name_H-M "P M M A"
_symmetry_group_IT_number 51
_symmetry_cell_setting 'orthorhombic'
loop_
_space_group_symop_operation_xyz
x,y,z
1/2-x,-y,z
1/2+x,-y,-z
-x,y,-z
-x,-y,-z
1/2+x,y,-z
1/2-x,y,z
x,-y,z
loop_
_atom_site_type_symbol
_atom_site_label
_atom_site_fract_x
_atom_site_fract_y
_atom_site_fract_z
Si Si1 0.359122 0.323961 0.186506
Si Si2 0.137551 0.168109 0.271508
Si Si3 0.646534 0.176441 0.066279
Si Si4 0.959559 0.176515 0.891568
Si Si5 0.641135 0.323494 0.643163
Si Si6 0.360870 0.168510 0.025969
Si Si7 0.459187 0.822861 0.434712
Si Si8 0.144641 0.822984 0.519169
O O1 0.250000 0.277683 0.178331
O O2 0.369903 0.500000 0.190716
O O3 0.399347 0.251349 0.229565
O O4 0.423036 0.264967 0.148633
O O5 0.250000 0.167867 0.271014
O O6 0.102140 0.254966 0.313066
O O7 0.096734 0.000000 0.272207
O O8 0.750000 0.240730 0.079563
O O9 0.571485 0.212243 0.103089
O O10 0.655367 0.000000 0.059024
O O11 0.615044 0.242663 0.019944
O O12 0.910740 0.246018 0.933761
O O13 0.939094 0.000000 0.885407
O O14 0.750000 0.274344 0.634488
O O15 0.632644 0.500000 0.646223
O O16 0.573212 0.263386 0.606710
O O17 0.250000 0.175256 0.034170
O O18 0.400069 0.000000 0.026147
O O19 0.567983 0.774630 0.445229
O O20 0.391502 0.770146 0.473129
O O21 0.451347 0.000000 0.427289
O O22 0.250000 0.755554 0.528362
O O23 0.149869 0.000000 0.518676
#
# Coordination Sequence:
#
# PCOD8206049 Si02
#       8
#     8   8   8   8   8   8   8   8
#     4  10  20  32  44  61  89 118 138 163 207 260
#     4   9  17  30  48  67  86 110 141 174 206 248
#     4   8  14  24  38  59  86 112 140 178 218 246
#     4  10  17  25  42  65  85 109 144 179 207 244
#     4  10  19  29  42  63  92 121 145 174 216 260
#     4   8  13  21  35  58  86 111 137 173 212 245
#     4   9  16  26  43  65  86 115 156 193 222 257
#     4   8  14  25  41  62  89 119 152 192 231 259
#
# _framework density 16.076207
#
# number of rings (size 3 to 8) (size 9 to 14) (size 15 to 20)
#    0.000    3.000    0.000    3.750    0.000    5.500 
#    0.000    1.250    0.000    3.000    0.000    2.625 
#    0.000    7.000    0.000    0.000    0.000    0.000 
#
# Total GULP energy -793117.165006 kJ/mol
# GULP energy per Si atom -12392.455703 kJ/mol
# Density = 1.603962 g / cm^3
# Si number density = 16.076207 Si / 1000 Ang^3
#
#
#
# Elastic Constant Matrix: (Units=GPa)
#
#
# Indices 1 2 3 4 5 6 
#
# 1 85.9341 27.0892 65.8583 0.0000 0.0000 0.0000
# 2 27.0892 48.9807 42.1708 0.0000 0.0000 0.0000
# 3 65.8583 42.1708 134.5431 0.0000 0.0000 0.0000
# 4 0.0000 0.0000 0.0000 -4.2231 0.0000 0.0000
# 5 0.0000 0.0000 0.0000 0.0000 23.6042 0.0000
# 6 0.0000 0.0000 0.0000 0.0000 0.0000 12.2013
#
#
#
# Elastic Compliance Matrix: (Units=1/GPa)
#
#
# Indices 1 2 3 4 5 6 
#
# 1 0.019035 -0.003431 -0.008242 0.000000 0.000000 0.000000
# 2 -0.003431 0.028581 -0.007279 0.000000 0.000000 0.000000
# 3 -0.008242 -0.007279 0.013748 0.000000 0.000000 0.000000
# 4 0.000000 0.000000 0.000000 -0.236796 0.000000 0.000000
# 5 0.000000 0.000000 0.000000 0.000000 0.042365 0.000000
# 6 0.000000 0.000000 0.000000 0.000000 0.000000 0.081958
#
#
# Mechanical properties :
#
#
# Convention : Reuss Voigt Hill
#
# Bulk Modulus (GPa) = 42.62570 59.96606 51.29588
# Shear Modulus (GPa) = -928.67753 15.27248 -456.70252
#
# Velocity S-wave (km/s) = -24.06088 3.08556 -16.87314
# Velocity P-wave (km/s) = 27.30072 7.07646 18.64474
#
# Compressibility (1/GPa) = 0.02346003
#
# Stress axis : x y z
#
# Youngs Moduli (GPa) = 52.53465 34.98879 72.73573
#
# Poissons Ratio (x) = 0.12006 0.59949
# Poissons Ratio (y) = 0.18027 0.52941
# Poissons Ratio (z) = 0.43299 0.25467
#
# Static dielectric constant tensor:
#      x y z
#    x 3.167470 0.000000 0.000000 
#    y 0.000000 2.736420 0.000000 
#    z 0.000000 0.000000 3.051740 
# 
# 
# High freq. dielectric constant tensor:
#      x y z
#    x 1.599040 0.000000 0.000000 
#    y 0.000000 1.584150 0.000000 
#    z 0.000000 0.000000 1.613360 
# 
# From -- ./inp_files/37789.got.cif
#   From: 2010.03.12/outbox.cif.g09.slc.cpg/sg51_19_cif.got.tgz:37789.got - 2010.04.16 13:43:02.
