data_PCOD8206944
_publ_section_title
;
Structure prediction by ZEFSAII (Michael W. Deem and Ramdas Pophale) SiO2 
 PCOD8206944
Probable space group: P M M A
;
_chemical_formula_sum "Si O2"
_cell_formula_units_Z 28
_cell_length_a 8.694902
_cell_length_b 18.498625
_cell_length_c 9.532731
_cell_angle_alpha 90.000000
_cell_angle_beta 90.000000
_cell_angle_gamma 90.000000
_cell_volume 1533.280026
_symmetry_space_group_name_H-M "P M M A"
_symmetry_group_IT_number 51
_symmetry_cell_setting 'orthorhombic'
loop_
_space_group_symop_operation_xyz
x,y,z
1/2-x,-y,z
1/2+x,-y,-z
-x,y,-z
-x,-y,-z
1/2+x,y,-z
1/2-x,y,z
x,-y,z
loop_
_atom_site_type_symbol
_atom_site_label
_atom_site_fract_x
_atom_site_fract_y
_atom_site_fract_z
Si Si1 0.931032 0.221567 0.154080
Si Si2 0.569849 0.078184 0.846434
Si Si3 0.567759 0.354221 0.346208
Si Si4 0.067059 0.500000 0.344506
O O1 0.750000 0.217825 0.141254
O O2 0.984628 0.287723 0.250202
O O3 0.991381 0.147234 0.228771
O O4 0.000000 0.232017 0.000000
O O5 0.750000 0.092654 0.857197
O O6 0.537197 0.000000 0.771407
O O7 0.500000 0.074626 0.000000
O O8 0.500000 0.341223 0.500000
O O9 0.750000 0.362024 0.356895
O O10 0.497425 0.426693 0.273458
O O11 0.250000 0.500000 0.343592
O O12 0.000000 0.500000 0.500000
#
# Coordination Sequence:
#
# PCOD8206944 Si02
#       4
#     8   8   8   4
#     4  10  20  32  49  73 100 129 160 197 241 286
#     4   9  16  26  43  67  94 125 160 197 236 279
#     4  10  20  34  52  74  98 126 161 199 239 284
#     4  10  18  30  51  74  95 124 160 198 238 280
#
# _framework density 18.261503000000001
#
# number of rings (size 3 to 8) (size 9 to 14) (size 15 to 20)
#    0.000    2.286    0.000    7.286    0.000    6.286 
#    0.000    0.714    0.000    0.857    0.000    0.000 
#    0.000    0.000    0.000    0.000    0.000    0.000 
#
# Total GULP energy -346936.153853 kJ/mol
# GULP energy per Si atom -12390.576923 kJ/mol
# Density = 1.821994 g / cm^3
# Si number density = 18.261503 Si / 1000 Ang^3
#
#
#
# Elastic Constant Matrix: (Units=GPa)
#
#
# Indices 1 2 3 4 5 6 
#
# 1 99.9561 73.1062 24.6306 0.0000 0.0000 0.0000
# 2 73.1062 231.9229 56.8192 0.0000 0.0000 0.0000
# 3 24.6306 56.8192 41.7499 0.0000 0.0000 0.0000
# 4 0.0000 0.0000 0.0000 12.7520 0.0000 0.0000
# 5 0.0000 0.0000 0.0000 0.0000 19.4362 0.0000
# 6 0.0000 0.0000 0.0000 0.0000 0.0000 21.1814
#
#
#
# Elastic Compliance Matrix: (Units=1/GPa)
#
#
# Indices 1 2 3 4 5 6 
#
# 1 0.013282 -0.003401 -0.003207 0.000000 0.000000 0.000000
# 2 -0.003401 0.007339 -0.007982 0.000000 0.000000 0.000000
# 3 -0.003207 -0.007982 0.036707 0.000000 0.000000 0.000000
# 4 0.000000 0.000000 0.000000 0.078419 0.000000 0.000000
# 5 0.000000 0.000000 0.000000 0.000000 0.051450 0.000000
# 6 0.000000 0.000000 0.000000 0.000000 0.000000 0.047211
#
#
# Mechanical properties :
#
#
# Convention : Reuss Voigt Hill
#
# Bulk Modulus (GPa) = 35.52616 75.86009 55.69312
# Shear Modulus (GPa) = 18.31683 25.27878 21.79780
#
# Velocity S-wave (km/s) = 3.17050 3.72461 3.45867
# Velocity P-wave (km/s) = 5.73578 7.75423 6.82009
#
# Compressibility (1/GPa) = 0.02814828
#
# Stress axis : x y z
#
# Youngs Moduli (GPa) = 75.28896 136.25151 27.24247
#
# Poissons Ratio (x) = 0.46339 0.08737
# Poissons Ratio (y) = 0.25606 0.21745
# Poissons Ratio (z) = 0.24147 1.08756
#
# Static dielectric constant tensor:
#      x y z
#    x 3.472060 0.000000 0.000000 
#    y 0.000000 4.763390 0.000000 
#    z 0.000000 0.000000 2.862420 
# 
# 
# High freq. dielectric constant tensor:
#      x y z
#    x 1.728050 0.000000 0.000000 
#    y 0.000000 1.744870 0.000000 
#    z 0.000000 0.000000 1.636130 
# 
# From -- ./inp_files/4780.got.cif
#   From: 2010.03.12/outbox.cif.g09.slc.cpg/sg51_3_cif.got.tgz:4780.got - 2010.04.16 13:43:02.
