data_PCOD8206246
_publ_section_title
;
Structure prediction by ZEFSAII (Michael W. Deem and Ramdas Pophale) SiO2 
 PCOD8206246
Probable space group: P M M A
;
_chemical_formula_sum "Si O2"
_cell_formula_units_Z 56
_cell_length_a 9.497467
_cell_length_b 21.821155
_cell_length_c 17.892208
_cell_angle_alpha 90.000000
_cell_angle_beta 90.000000
_cell_angle_gamma 90.000000
_cell_volume 3708.083163
_symmetry_space_group_name_H-M "P M M A"
_symmetry_group_IT_number 51
_symmetry_cell_setting 'orthorhombic'
loop_
_space_group_symop_operation_xyz
x,y,z
1/2-x,-y,z
1/2+x,-y,-z
-x,y,-z
-x,-y,-z
1/2+x,y,-z
1/2-x,y,z
x,-y,z
loop_
_atom_site_type_symbol
_atom_site_label
_atom_site_fract_x
_atom_site_fract_y
_atom_site_fract_z
Si Si1 0.413820 0.930003 0.073341
Si Si2 0.590774 0.174927 0.819123
Si Si3 0.412399 0.708910 0.074293
Si Si4 0.595240 0.239467 0.290219
Si Si5 0.082525 0.568098 0.676508
Si Si6 0.082978 0.321602 0.575585
Si Si7 0.407251 0.357029 0.813979
O O1 0.250000 0.918219 0.055460
O O2 0.464862 0.886946 0.141232
O O3 0.442890 0.000000 0.096935
O O4 0.500000 0.911897 0.000000
O O5 0.750000 0.166384 0.792860
O O6 0.576129 0.229978 0.877366
O O7 0.504977 0.186909 0.742997
O O8 0.250000 0.692856 0.056169
O O9 0.483282 0.651750 0.118146
O O10 0.500000 0.721196 0.000000
O O11 0.750000 0.210351 0.298872
O O12 0.542760 0.264883 0.370207
O O13 0.602141 0.295726 0.233848
O O14 0.250000 0.569096 0.675774
O O15 0.022631 0.500000 0.660402
O O16 0.028776 0.614657 0.612633
O O17 0.034436 0.589424 0.759448
O O18 0.250000 0.323778 0.561076
O O19 0.000000 0.310724 0.500000
O O20 0.250000 0.372482 0.844864
#
# Coordination Sequence:
#
# PCOD8206246 Si02
#       7
#     8   8   8   8   8   8   8
#     4   9  17  28  40  56  82 114 144 172 201 234
#     4   9  17  27  40  59  80 104 136 170 200 231
#     4  10  18  26  38  57  79 100 126 163 203 240
#     4   8  15  27  41  57  78 105 134 163 196 235
#     4   8  14  26  44  62  79 103 134 162 189 229
#     4   9  17  28  42  62  87 111 133 158 192 234
#     4   8  14  26  42  57  74  98 128 161 198 236
#
# _framework density 15.102142000000001
#
# number of rings (size 3 to 8) (size 9 to 14) (size 15 to 20)
#    0.000    3.286    0.000    2.571    0.000    2.000 
#    0.000    2.143    0.000    1.714    0.000    0.000 
#    0.000    0.571    0.000    1.286    0.000    2.000 
#
# Total GULP energy -694050.970078 kJ/mol
# GULP energy per Si atom -12393.767323 kJ/mol
# Density = 1.506777 g / cm^3
# Si number density = 15.102142 Si / 1000 Ang^3
#
#
#
# Elastic Constant Matrix: (Units=GPa)
#
#
# Indices 1 2 3 4 5 6 
#
# 1 66.1006 35.6970 44.6500 0.0000 0.0000 0.0000
# 2 35.6970 74.5283 50.0655 0.0000 0.0000 0.0000
# 3 44.6500 50.0655 71.3666 0.0000 0.0000 0.0000
# 4 0.0000 0.0000 0.0000 20.8838 0.0000 0.0000
# 5 0.0000 0.0000 0.0000 0.0000 27.9357 0.0000
# 6 0.0000 0.0000 0.0000 0.0000 0.0000 14.6378
#
#
#
# Elastic Compliance Matrix: (Units=1/GPa)
#
#
# Indices 1 2 3 4 5 6 
#
# 1 0.026539 -0.002946 -0.014538 0.000000 0.000000 0.000000
# 2 -0.002946 0.025704 -0.016189 0.000000 0.000000 0.000000
# 3 -0.014538 -0.016189 0.034464 0.000000 0.000000 0.000000
# 4 0.000000 0.000000 0.000000 0.047884 0.000000 0.000000
# 5 0.000000 0.000000 0.000000 0.000000 0.035796 0.000000
# 6 0.000000 0.000000 0.000000 0.000000 0.000000 0.068316
#
#
# Mechanical properties :
#
#
# Convention : Reuss Voigt Hill
#
# Bulk Modulus (GPa) = 51.64483 52.53562 52.09022
# Shear Modulus (GPa) = 15.99986 18.13034 17.06510
#
# Velocity S-wave (km/s) = 3.25844 3.46860 3.36516
# Velocity P-wave (km/s) = 6.95901 7.13470 7.04740
#
# Compressibility (1/GPa) = 0.01936302
#
# Stress axis : x y z
#
# Youngs Moduli (GPa) = 37.68014 38.90480 29.01543
#
# Poissons Ratio (x) = 0.11460 0.42181
# Poissons Ratio (y) = 0.11099 0.46973
# Poissons Ratio (z) = 0.54778 0.62983
#
# Static dielectric constant tensor:
#      x y z
#    x 2.988490 0.000000 0.000000 
#    y 0.000000 2.923490 0.000000 
#    z 0.000000 0.000000 2.857440 
# 
# 
# High freq. dielectric constant tensor:
#      x y z
#    x 1.570120 0.000000 0.000000 
#    y 0.000000 1.552020 0.000000 
#    z 0.000000 0.000000 1.562700 
# 
# From -- ./inp_files/28190.got.cif
#   From: 2010.03.12/outbox.cif.g09.slc.cpg/sg51_15_cif.got.tgz:28190.got - 2010.04.16 13:43:02.
