data_PCOD8206915
_publ_section_title
;
Structure prediction by ZEFSAII (Michael W. Deem and Ramdas Pophale) SiO2 
 PCOD8206915
Probable space group: P M M A
;
_chemical_formula_sum "Si O2"
_cell_formula_units_Z 64
_cell_length_a 19.237644
_cell_length_b 8.941560
_cell_length_c 20.756184
_cell_angle_alpha 90.000000
_cell_angle_beta 90.000000
_cell_angle_gamma 90.000000
_cell_volume 3570.365611
_symmetry_space_group_name_H-M "P M M A"
_symmetry_group_IT_number 51
_symmetry_cell_setting 'orthorhombic'
loop_
_space_group_symop_operation_xyz
x,y,z
1/2-x,-y,z
1/2+x,-y,-z
-x,y,-z
-x,-y,-z
1/2+x,y,-z
1/2-x,y,z
x,-y,z
loop_
_atom_site_type_symbol
_atom_site_label
_atom_site_fract_x
_atom_site_fract_y
_atom_site_fract_z
Si Si1 0.466892 0.322461 0.064683
Si Si2 0.827036 0.330178 0.259108
Si Si3 0.173417 0.323005 0.121984
Si Si4 0.460699 0.676358 0.564079
Si Si5 0.828554 0.175744 0.391115
Si Si6 0.533606 0.173223 0.683461
Si Si7 0.534332 0.672987 0.196207
Si Si8 0.827290 0.171187 0.744931
O O1 0.469018 0.500000 0.059673
O O2 0.386791 0.267058 0.073075
O O3 0.512246 0.269481 0.125813
O O4 0.500000 0.251034 0.000000
O O5 0.750000 0.293927 0.231977
O O6 0.830822 0.500000 0.285520
O O7 0.846274 0.222221 0.318098
O O8 0.882170 0.306963 0.201807
O O9 0.250000 0.261759 0.101077
O O10 0.174151 0.500000 0.123541
O O11 0.153962 0.271105 0.193557
O O12 0.500000 0.729085 0.500000
O O13 0.453642 0.500000 0.568141
O O14 0.383311 0.745540 0.561538
O O15 0.504162 0.731054 0.625165
O O16 0.750000 0.225506 0.409367
O O17 0.837695 0.000000 0.397379
O O18 0.501435 0.224738 0.750696
O O19 0.616957 0.200066 0.688170
O O20 0.515373 0.000000 0.671592
O O21 0.512375 0.500000 0.206679
O O22 0.750000 0.209992 0.718514
O O23 0.831334 0.000000 0.768103
#
# Coordination Sequence:
#
# PCOD8206915 Si02
#       8
#     8   8   8   8   8   8   8   8
#     4   9  17  29  45  69 102 138 174 215 264 310
#     4   9  17  29  47  73 103 135 173 218 264 310
#     4   9  16  27  46  71  96 127 170 215 257 306
#     4  11  24  40  57  79 109 145 181 217 259 311
#     4  10  20  34  55  83 110 138 175 218 264 314
#     4  11  21  33  54  80 105 133 170 217 265 313
#     4  10  18  30  50  73 100 136 175 216 262 313
#     4   9  18  32  50  75 105 134 166 209 263 317
#
# _framework density 17.925333999999999
#
# number of rings (size 3 to 8) (size 9 to 14) (size 15 to 20)
#    0.000    2.250    2.500    1.125    0.000    2.250 
#    0.000    1.250    0.000    7.500    0.000    0.000 
#    0.000    4.000    0.000    0.000    0.000    0.000 
#
# Total GULP energy -793376.161841 kJ/mol
# GULP energy per Si atom -12396.502529 kJ/mol
# Density = 1.788454 g / cm^3
# Si number density = 17.925334 Si / 1000 Ang^3
#
#
#
# Elastic Constant Matrix: (Units=GPa)
#
#
# Indices 1 2 3 4 5 6 
#
# 1 149.2356 32.3409 69.9585 0.0000 0.0000 0.0000
# 2 32.3409 37.3143 22.8499 0.0000 0.0000 0.0000
# 3 69.9585 22.8499 100.3472 0.0000 0.0000 0.0000
# 4 0.0000 0.0000 0.0000 0.9849 0.0000 0.0000
# 5 0.0000 0.0000 0.0000 0.0000 29.3630 0.0000
# 6 0.0000 0.0000 0.0000 0.0000 0.0000 23.2205
#
#
#
# Elastic Compliance Matrix: (Units=1/GPa)
#
#
# Indices 1 2 3 4 5 6 
#
# 1 0.010861 -0.005550 -0.006308 0.000000 0.000000 0.000000
# 2 -0.005550 0.033978 -0.003868 0.000000 0.000000 0.000000
# 3 -0.006308 -0.003868 0.015244 0.000000 0.000000 0.000000
# 4 0.000000 0.000000 0.000000 1.015340 0.000000 0.000000
# 5 0.000000 0.000000 0.000000 0.000000 0.034056 0.000000
# 6 0.000000 0.000000 0.000000 0.000000 0.000000 0.043065
#
#
# Mechanical properties :
#
#
# Convention : Reuss Voigt Hill
#
# Bulk Modulus (GPa) = 34.92709 59.68841 47.30775
# Shear Modulus (GPa) = 4.18922 21.49687 12.84304
#
# Velocity S-wave (km/s) = 1.53040 3.46677 2.67961
# Velocity P-wave (km/s) = 4.75919 7.02818 6.00188
#
# Compressibility (1/GPa) = 0.02863107
#
# Stress axis : x y z
#
# Youngs Moduli (GPa) = 92.07614 29.43047 65.60130
#
# Poissons Ratio (x) = 0.16335 0.41380
# Poissons Ratio (y) = 0.51106 0.25372
# Poissons Ratio (z) = 0.58079 0.11383
#
# Static dielectric constant tensor:
#      x y z
#    x 3.918900 0.000000 0.000000 
#    y 0.000000 3.209360 0.000000 
#    z 0.000000 0.000000 3.164090 
# 
# 
# High freq. dielectric constant tensor:
#      x y z
#    x 1.718620 0.000000 0.000000 
#    y 0.000000 1.682000 0.000000 
#    z 0.000000 0.000000 1.655530 
# 
# From -- ./inp_files/35928.got.cif
#   From: 2010.03.12/outbox.cif.g09.slc.cpg/sg51_18_cif.got.tgz:35928.got - 2010.04.16 13:43:02.
