data_PCOD8206890
_publ_section_title
;
Structure prediction by ZEFSAII (Michael W. Deem and Ramdas Pophale) SiO2 
 PCOD8206890
Probable space group: P M M A
;
_chemical_formula_sum "Si O2"
_cell_formula_units_Z 56
_cell_length_a 8.692338
_cell_length_b 18.977790
_cell_length_c 18.875146
_cell_angle_alpha 90.000000
_cell_angle_beta 90.000000
_cell_angle_gamma 90.000000
_cell_volume 3113.669852
_symmetry_space_group_name_H-M "P M M A"
_symmetry_group_IT_number 51
_symmetry_cell_setting 'orthorhombic'
loop_
_space_group_symop_operation_xyz
x,y,z
1/2-x,-y,z
1/2+x,-y,-z
-x,y,-z
-x,-y,-z
1/2+x,y,-z
1/2-x,y,z
x,-y,z
loop_
_atom_site_type_symbol
_atom_site_label
_atom_site_fract_x
_atom_site_fract_y
_atom_site_fract_z
Si Si1 0.569022 0.290685 0.286649
Si Si2 0.929921 0.579906 0.198521
Si Si3 0.070416 0.075770 0.422996
Si Si4 0.931184 0.783535 0.422565
Si Si5 0.931483 0.337238 0.926039
Si Si6 0.930961 0.080476 0.924360
Si Si7 0.432711 0.792082 0.848820
O O1 0.750000 0.281648 0.288775
O O2 0.522755 0.370257 0.264807
O O3 0.506499 0.273971 0.365702
O O4 0.507136 0.235233 0.227823
O O5 0.750000 0.589794 0.180625
O O6 0.969850 0.500000 0.219593
O O7 0.026698 0.602451 0.130401
O O8 0.250000 0.093583 0.428705
O O9 0.000000 0.068635 0.500000
O O10 0.983456 0.141636 0.387691
O O11 0.044767 0.000000 0.383300
O O12 0.750000 0.782157 0.430830
O O13 0.000000 0.768457 0.500000
O O14 0.750000 0.328171 0.930736
O O15 0.006902 0.262227 0.907622
O O16 0.000000 0.363636 0.000000
O O17 0.750000 0.091041 0.928187
O O18 0.999996 0.130396 0.863393
O O19 0.975192 0.000000 0.905276
O O20 0.000000 0.102221 0.000000
O O21 0.250000 0.794744 0.852791
#
# Coordination Sequence:
#
# PCOD8206890 Si02
#       7
#     8   8   8   8   8   8   8
#     4   8  17  33  52  74  97 124 159 198 241 294
#     4   9  18  35  57  77  98 127 163 201 241 286
#     4   9  16  26  41  63  91 121 153 189 230 276
#     4  10  18  30  49  72  98 126 160 200 241 288
#     4  11  21  33  50  74 104 134 165 200 240 287
#     4  10  20  33  49  71  99 132 171 213 256 298
#     4  10  19  34  53  71  95 128 169 211 251 295
#
# _framework density 17.985209000000001
#
# number of rings (size 3 to 8) (size 9 to 14) (size 15 to 20)
#    0.000    2.429    0.000    5.143    0.000    2.286 
#    0.000    7.857    0.000    4.714    0.000    0.000 
#    0.000    0.000    0.000    0.000    0.000    0.571 
#
# Total GULP energy -694042.127694 kJ/mol
# GULP energy per Si atom -12393.609423 kJ/mol
# Density = 1.794427 g / cm^3
# Si number density = 17.985209 Si / 1000 Ang^3
#
#
#
# Elastic Constant Matrix: (Units=GPa)
#
#
# Indices 1 2 3 4 5 6 
#
# 1 79.7611 37.4740 33.6070 0.0000 0.0000 0.0000
# 2 37.4740 136.7896 70.9626 0.0000 0.0000 0.0000
# 3 33.6070 70.9626 108.2819 0.0000 0.0000 0.0000
# 4 0.0000 0.0000 0.0000 20.3917 0.0000 0.0000
# 5 0.0000 0.0000 0.0000 0.0000 19.2498 0.0000
# 6 0.0000 0.0000 0.0000 0.0000 0.0000 23.2267
#
#
#
# Elastic Compliance Matrix: (Units=1/GPa)
#
#
# Indices 1 2 3 4 5 6 
#
# 1 0.014995 -0.002566 -0.002972 0.000000 0.000000 0.000000
# 2 -0.002566 0.011515 -0.006750 0.000000 0.000000 0.000000
# 3 -0.002972 -0.006750 0.014581 0.000000 0.000000 0.000000
# 4 0.000000 0.000000 0.000000 0.049039 0.000000 0.000000
# 5 0.000000 0.000000 0.000000 0.000000 0.051949 0.000000
# 6 0.000000 0.000000 0.000000 0.000000 0.000000 0.043054
#
#
# Mechanical properties :
#
#
# Convention : Reuss Voigt Hill
#
# Bulk Modulus (GPa) = 60.55127 67.65777 64.10452
# Shear Modulus (GPa) = 23.23246 24.75958 23.99602
#
# Velocity S-wave (km/s) = 3.59800 3.71437 3.65664
# Velocity P-wave (km/s) = 7.14151 7.48970 7.31767
#
# Compressibility (1/GPa) = 0.01651493
#
# Stress axis : x y z
#
# Youngs Moduli (GPa) = 66.68683 86.84141 68.58062
#
# Poissons Ratio (x) = 0.22284 0.20385
# Poissons Ratio (y) = 0.17112 0.46293
# Poissons Ratio (z) = 0.19822 0.58619
#
# Static dielectric constant tensor:
#      x y z
#    x 3.265100 0.000000 0.000000 
#    y 0.000000 3.663950 0.000000 
#    z 0.000000 0.000000 3.337220 
# 
# 
# High freq. dielectric constant tensor:
#      x y z
#    x 1.696190 0.000000 0.000000 
#    y 0.000000 1.695580 0.000000 
#    z 0.000000 0.000000 1.670060 
# 
# From -- ./inp_files/32253.got.cif
#   From: 2010.03.12/outbox.cif.g09.slc.cpg/sg51_17_cif.got.tgz:32253.got - 2010.04.16 13:43:02.
