data_PCOD8206275
_publ_section_title
;
Structure prediction by ZEFSAII (Michael W. Deem and Ramdas Pophale) SiO2 
 PCOD8206275
Probable space group: P M M A
;
_chemical_formula_sum "Si O2"
_cell_formula_units_Z 56
_cell_length_a 28.407154
_cell_length_b 9.445071
_cell_length_c 13.502897
_cell_angle_alpha 90.000000
_cell_angle_beta 90.000000
_cell_angle_gamma 90.000000
_cell_volume 3622.929704
_symmetry_space_group_name_H-M "P M M A"
_symmetry_group_IT_number 51
_symmetry_cell_setting 'orthorhombic'
loop_
_space_group_symop_operation_xyz
x,y,z
1/2-x,-y,z
1/2+x,-y,-z
-x,y,-z
-x,-y,-z
1/2+x,y,-z
1/2-x,y,z
x,-y,z
loop_
_atom_site_type_symbol
_atom_site_label
_atom_site_fract_x
_atom_site_fract_y
_atom_site_fract_z
Si Si1 0.523739 0.838010 0.198592
Si Si2 0.103666 0.340045 0.311614
Si Si3 0.197130 0.664864 0.219187
Si Si4 0.896810 0.160946 0.061616
Si Si5 0.553396 0.338278 0.896130
Si Si6 0.301724 0.837025 0.022411
Si Si7 0.523421 0.833702 0.600701
O O1 0.579187 0.819006 0.170402
O O2 0.495613 0.742462 0.120612
O O3 0.512922 0.791662 0.311369
O O4 0.507405 0.000000 0.184639
O O5 0.097989 0.500000 0.351183
O O6 0.159069 0.295777 0.305071
O O7 0.084929 0.324947 0.200849
O O8 0.074313 0.239113 0.384727
O O9 0.250000 0.699876 0.257688
O O10 0.191769 0.500000 0.192371
O O11 0.185411 0.748868 0.119582
O O12 0.905918 0.000000 0.024894
O O13 0.919332 0.269060 0.985853
O O14 0.840511 0.191184 0.063845
O O15 0.541957 0.500000 0.922533
O O16 0.250000 0.794004 0.981166
O O17 0.302214 0.000000 0.055279
O O18 0.500000 0.777141 0.500000
O O19 0.532818 0.000000 0.595153
#
# Coordination Sequence:
#
# PCOD8206275 Si02
#       7
#     8   8   8   8   8   8   8
#     4   9  18  30  42  58  80 107 138 170 207 252
#     4   9  17  28  42  63  87 112 139 168 207 249
#     4   9  16  27  42  60  85 115 144 171 200 240
#     4  10  18  27  40  57  81 112 140 166 200 241
#     4  10  18  27  39  59  86 113 140 168 197 235
#     4   9  17  27  39  57  81 110 144 175 200 231
#     4   9  18  32  48  63  79 104 140 179 218 259
#
# _framework density 15.457103999999999
#
# number of rings (size 3 to 8) (size 9 to 14) (size 15 to 20)
#    0.000    2.714    1.429    0.857    0.000    3.714 
#    0.000    0.000    0.000    0.000    0.000    1.000 
#    0.000    3.429    0.000    0.000    0.000    0.000 
#
# Total GULP energy -693968.905960 kJ/mol
# GULP energy per Si atom -12392.301892 kJ/mol
# Density = 1.542192 g / cm^3
# Si number density = 15.457104 Si / 1000 Ang^3
#
#
#
# Elastic Constant Matrix: (Units=GPa)
#
#
# Indices 1 2 3 4 5 6 
#
# 1 133.4475 38.0044 52.7869 0.0000 0.0000 0.0000
# 2 38.0044 50.9021 25.0948 0.0000 0.0000 0.0000
# 3 52.7869 25.0948 53.2003 0.0000 0.0000 0.0000
# 4 0.0000 0.0000 0.0000 12.4781 0.0000 0.0000
# 5 0.0000 0.0000 0.0000 0.0000 20.5578 0.0000
# 6 0.0000 0.0000 0.0000 0.0000 0.0000 18.4994
#
#
#
# Elastic Compliance Matrix: (Units=1/GPa)
#
#
# Indices 1 2 3 4 5 6 
#
# 1 0.013042 -0.004375 -0.010877 0.000000 0.000000 0.000000
# 2 -0.004375 0.027066 -0.008426 0.000000 0.000000 0.000000
# 3 -0.010877 -0.008426 0.033564 0.000000 0.000000 0.000000
# 4 0.000000 0.000000 0.000000 0.080141 0.000000 0.000000
# 5 0.000000 0.000000 0.000000 0.000000 0.048643 0.000000
# 6 0.000000 0.000000 0.000000 0.000000 0.000000 0.054056
#
#
# Mechanical properties :
#
#
# Convention : Reuss Voigt Hill
#
# Bulk Modulus (GPa) = 37.99997 52.14689 45.07343
# Shear Modulus (GPa) = 15.99282 18.41798 17.20540
#
# Velocity S-wave (km/s) = 3.22010 3.45563 3.33994
# Velocity P-wave (km/s) = 6.20185 7.05207 6.64058
#
# Compressibility (1/GPa) = 0.02631581
#
# Stress axis : x y z
#
# Youngs Moduli (GPa) = 76.67487 36.94643 29.79381
#
# Poissons Ratio (x) = 0.16164 0.32407
# Poissons Ratio (y) = 0.33546 0.25105
# Poissons Ratio (z) = 0.83399 0.31132
#
# Static dielectric constant tensor:
#      x y z
#    x 3.352720 0.000000 0.000000 
#    y 0.000000 3.043470 0.000000 
#    z 0.000000 0.000000 2.674040 
# 
# 
# High freq. dielectric constant tensor:
#      x y z
#    x 1.599780 0.000000 0.000000 
#    y 0.000000 1.598120 0.000000 
#    z 0.000000 0.000000 1.541250 
# 
# From -- ./inp_files/26470.got.cif
#   From: 2010.03.12/outbox.cif.g09.slc.cpg/sg51_14_cif.got.tgz:26470.got - 2010.04.16 13:43:02.
