data_PCOD8206418
_publ_section_title
;
Structure prediction by ZEFSAII (Michael W. Deem and Ramdas Pophale) SiO2 
 PCOD8206418
Probable space group: P M M A
;
_chemical_formula_sum "Si O2"
_cell_formula_units_Z 64
_cell_length_a 20.536619
_cell_length_b 9.331671
_cell_length_c 18.830844
_cell_angle_alpha 90.000000
_cell_angle_beta 90.000000
_cell_angle_gamma 90.000000
_cell_volume 3608.761247
_symmetry_space_group_name_H-M "P M M A"
_symmetry_group_IT_number 51
_symmetry_cell_setting 'orthorhombic'
loop_
_space_group_symop_operation_xyz
x,y,z
1/2-x,-y,z
1/2+x,-y,-z
-x,y,-z
-x,-y,-z
1/2+x,y,-z
1/2-x,y,z
x,-y,z
loop_
_atom_site_type_symbol
_atom_site_label
_atom_site_fract_x
_atom_site_fract_y
_atom_site_fract_z
Si Si1 0.553260 0.161441 0.348117
Si Si2 0.050318 0.668603 0.939459
Si Si3 0.383660 0.342664 0.258151
Si Si4 0.030190 0.657412 0.779589
Si Si5 0.176867 0.833975 0.977667
Si Si6 0.901699 0.161117 0.614115
Si Si7 0.075626 0.337639 0.518621
Si Si8 0.676181 0.842112 0.857322
O O1 0.568278 0.228863 0.270063
O O2 0.477427 0.156159 0.366791
O O3 0.589302 0.258546 0.406847
O O4 0.581659 0.000000 0.348892
O O5 0.058885 0.500000 0.950565
O O6 0.023150 0.708655 0.861310
O O7 0.121567 0.739197 0.941347
O O8 0.000000 0.727837 0.000000
O O9 0.351981 0.500000 0.268416
O O10 0.460656 0.358605 0.256820
O O11 0.362273 0.239656 0.322680
O O12 0.363044 0.278551 0.183236
O O13 0.064388 0.500000 0.777651
O O14 0.250000 0.791510 0.951207
O O15 0.163777 0.000000 0.960415
O O16 0.172144 0.803727 0.060709
O O17 0.887430 0.249101 0.542456
O O18 0.874632 0.000000 0.605188
O O19 0.102809 0.500000 0.522626
O O20 0.000000 0.340948 0.500000
O O21 0.750000 0.840523 0.830556
O O22 0.645954 0.000000 0.842926
#
# Coordination Sequence:
#
# PCOD8206418 Si02
#       8
#     8   8   8   8   8   8   8   8
#     4   9  16  25  38  56  79 110 147 182 216 259
#     4  10  20  33  49  71  98 126 158 197 241 290
#     4  10  18  28  43  62  86 116 149 184 222 265
#     4   9  18  30  42  60  89 120 147 181 227 274
#     4   9  19  35  52  70  93 122 158 199 241 286
#     4   9  16  25  37  55  81 112 145 179 214 256
#     4   9  15  23  36  54  78 109 144 179 216 258
#     4   9  18  32  47  62  83 112 145 183 227 271
#
# _framework density 17.734617
#
# number of rings (size 3 to 8) (size 9 to 14) (size 15 to 20)
#    0.000    2.750    0.000    3.000    0.000    7.750 
#    0.000    1.250    0.000    0.000    0.000    0.000 
#    0.000    1.000    0.000    7.250    0.000    7.125 
#
# Total GULP energy -793229.828336 kJ/mol
# GULP energy per Si atom -12394.216068 kJ/mol
# Density = 1.769425 g / cm^3
# Si number density = 17.734617 Si / 1000 Ang^3
#
#
#
# Elastic Constant Matrix: (Units=GPa)
#
#
# Indices 1 2 3 4 5 6 
#
# 1 29.5734 15.3860 10.3138 0.0000 0.0000 0.0000
# 2 15.3860 128.2599 59.7956 0.0000 0.0000 0.0000
# 3 10.3138 59.7956 111.4748 0.0000 0.0000 0.0000
# 4 0.0000 0.0000 0.0000 32.6841 0.0000 0.0000
# 5 0.0000 0.0000 0.0000 0.0000 9.1837 0.0000
# 6 0.0000 0.0000 0.0000 0.0000 0.0000 17.4425
#
#
#
# Elastic Compliance Matrix: (Units=1/GPa)
#
#
# Indices 1 2 3 4 5 6 
#
# 1 0.036219 -0.003710 -0.001361 0.000000 0.000000 0.000000
# 2 -0.003710 0.010777 -0.005437 0.000000 0.000000 0.000000
# 3 -0.001361 -0.005437 0.012013 0.000000 0.000000 0.000000
# 4 0.000000 0.000000 0.000000 0.030596 0.000000 0.000000
# 5 0.000000 0.000000 0.000000 0.000000 0.108888 0.000000
# 6 0.000000 0.000000 0.000000 0.000000 0.000000 0.057331
#
#
# Mechanical properties :
#
#
# Convention : Reuss Voigt Hill
#
# Bulk Modulus (GPa) = 26.32140 48.92209 37.62174
# Shear Modulus (GPa) = 17.27081 24.11623 20.69352
#
# Velocity S-wave (km/s) = 3.12404 3.69160 3.41961
# Velocity P-wave (km/s) = 5.28080 6.76876 6.07054
#
# Compressibility (1/GPa) = 0.03799191
#
# Stress axis : x y z
#
# Youngs Moduli (GPa) = 27.60968 92.79259 83.24192
#
# Poissons Ratio (x) = 0.34430 0.11327
# Poissons Ratio (y) = 0.10244 0.45262
# Poissons Ratio (z) = 0.03757 0.50455
#
# Static dielectric constant tensor:
#      x y z
#    x 2.787570 0.000000 0.000000 
#    y 0.000000 3.533510 0.000000 
#    z 0.000000 0.000000 3.327140 
# 
# 
# High freq. dielectric constant tensor:
#      x y z
#    x 1.613810 0.000000 0.000000 
#    y 0.000000 1.699560 0.000000 
#    z 0.000000 0.000000 1.688460 
# 
# From -- ./inp_files/30505.got.cif
#   From: 2010.03.12/outbox.cif.g09.slc.cpg/sg51_16_cif.got.tgz:30505.got - 2010.04.16 13:43:02.
