data_PCOD8206995
_publ_section_title
;
Structure prediction by ZEFSAII (Michael W. Deem and Ramdas Pophale) SiO2 
 PCOD8206995
Probable space group: P M M A
;
_chemical_formula_sum "Si O2"
_cell_formula_units_Z 40
_cell_length_a 8.647486
_cell_length_b 26.008285
_cell_length_c 9.145122
_cell_angle_alpha 90.000000
_cell_angle_beta 90.000000
_cell_angle_gamma 90.000000
_cell_volume 2056.795373
_symmetry_space_group_name_H-M "P M M A"
_symmetry_group_IT_number 51
_symmetry_cell_setting 'orthorhombic'
loop_
_space_group_symop_operation_xyz
x,y,z
1/2-x,-y,z
1/2+x,-y,-z
-x,y,-z
-x,-y,-z
1/2+x,y,-z
1/2-x,y,z
x,-y,z
loop_
_atom_site_type_symbol
_atom_site_label
_atom_site_fract_x
_atom_site_fract_y
_atom_site_fract_z
Si Si1 0.568948 0.093294 0.160477
Si Si2 0.566668 0.598313 0.338765
Si Si3 0.569340 0.805587 0.341118
Si Si4 0.567383 0.500000 0.159656
Si Si5 0.567470 0.000000 0.660958
Si Si6 0.433213 0.702099 0.337725
O O1 0.750000 0.081326 0.153827
O O2 0.533076 0.147865 0.233342
O O3 0.486819 0.050300 0.255357
O O4 0.500000 0.093117 0.000000
O O5 0.500000 0.591198 0.500000
O O6 0.750000 0.601286 0.347882
O O7 0.507662 0.550515 0.243380
O O8 0.501528 0.650564 0.262572
O O9 0.500000 0.818170 0.500000
O O10 0.750000 0.795562 0.361229
O O11 0.492195 0.755146 0.264839
O O12 0.750000 0.500000 0.150907
O O13 0.500000 0.500000 0.000000
O O14 0.500000 0.000000 0.500000
O O15 0.750000 0.000000 0.650128
O O16 0.500000 0.703489 0.500000
O O17 0.250000 0.699521 0.336345
#
# Coordination Sequence:
#
# PCOD8206995 Si02
#       6
#     8   8   8   4   4   8
#     4  11  24  41  61  86 118 154 192 233 282 334
#     4  10  19  34  55  81 108 138 179 225 272 324
#     4  10  20  35  57  84 113 147 185 229 276 326
#     4  10  23  38  54  76 106 142 179 222 272 326
#     4  12  25  42  65  90 118 150 190 236 283 334
#     4  10  18  30  52  81 110 142 179 224 274 323
#
# _framework density 19.44773
#
# number of rings (size 3 to 8) (size 9 to 14) (size 15 to 20)
#    0.000    1.600    0.000    8.100    0.000    6.400 
#    0.000    1.000    0.000    0.000    0.000    0.000 
#    0.000    0.000    0.000    0.000    0.000    0.000 
#
# Total GULP energy -496005.103291 kJ/mol
# GULP energy per Si atom -12400.127582 kJ/mol
# Density = 1.940347 g / cm^3
# Si number density = 19.447730 Si / 1000 Ang^3
#
#
#
# Elastic Constant Matrix: (Units=GPa)
#
#
# Indices 1 2 3 4 5 6 
#
# 1 141.8954 89.9426 54.7626 0.0000 0.0000 0.0000
# 2 89.9426 188.2675 79.0152 0.0000 0.0000 0.0000
# 3 54.7626 79.0152 115.8030 0.0000 0.0000 0.0000
# 4 0.0000 0.0000 0.0000 45.5400 0.0000 0.0000
# 5 0.0000 0.0000 0.0000 0.0000 30.6124 0.0000
# 6 0.0000 0.0000 0.0000 0.0000 0.0000 33.2145
#
#
#
# Elastic Compliance Matrix: (Units=1/GPa)
#
#
# Indices 1 2 3 4 5 6 
#
# 1 0.010480 -0.004101 -0.002158 0.000000 0.000000 0.000000
# 2 -0.004101 0.009048 -0.004234 0.000000 0.000000 0.000000
# 3 -0.002158 -0.004234 0.012545 0.000000 0.000000 0.000000
# 4 0.000000 0.000000 0.000000 0.021959 0.000000 0.000000
# 5 0.000000 0.000000 0.000000 0.000000 0.032667 0.000000
# 6 0.000000 0.000000 0.000000 0.000000 0.000000 0.030107
#
#
# Mechanical properties :
#
#
# Convention : Reuss Voigt Hill
#
# Bulk Modulus (GPa) = 90.19827 99.26743 94.73285
# Shear Modulus (GPa) = 35.33918 36.68974 36.01446
#
# Velocity S-wave (km/s) = 4.26741 4.34819 4.30799
# Velocity P-wave (km/s) = 8.41199 8.73859 8.57685
#
# Compressibility (1/GPa) = 0.01108669
#
# Stress axis : x y z
#
# Youngs Moduli (GPa) = 95.42360 110.52289 79.71442
#
# Poissons Ratio (x) = 0.45325 0.17199
# Poissons Ratio (y) = 0.39133 0.33753
# Poissons Ratio (z) = 0.20588 0.46798
#
# Static dielectric constant tensor:
#      x y z
#    x 3.696170 0.000000 0.000000 
#    y 0.000000 4.391580 0.000000 
#    z 0.000000 0.000000 3.312340 
# 
# 
# High freq. dielectric constant tensor:
#      x y z
#    x 1.774780 0.000000 0.000000 
#    y 0.000000 1.788000 0.000000 
#    z 0.000000 0.000000 1.726540 
# 
# From -- ./inp_files/5577.got.cif
#   From: 2010.03.12/outbox.cif.g09.slc.cpg/sg51_3_cif.got.tgz:5577.got - 2010.04.16 13:43:02.
