data_PCOD8206984
_publ_section_title
;
Structure prediction by ZEFSAII (Michael W. Deem and Ramdas Pophale) SiO2 
 PCOD8206984
Probable space group: P M M A
;
_chemical_formula_sum "Si O2"
_cell_formula_units_Z 56
_cell_length_a 14.342043
_cell_length_b 8.797783
_cell_length_c 22.931008
_cell_angle_alpha 90.000000
_cell_angle_beta 90.000000
_cell_angle_gamma 90.000000
_cell_volume 2893.392903
_symmetry_space_group_name_H-M "P M M A"
_symmetry_group_IT_number 51
_symmetry_cell_setting 'orthorhombic'
loop_
_space_group_symop_operation_xyz
x,y,z
1/2-x,-y,z
1/2+x,-y,-z
-x,y,-z
-x,-y,-z
1/2+x,y,-z
1/2-x,y,z
x,-y,z
loop_
_atom_site_type_symbol
_atom_site_label
_atom_site_fract_x
_atom_site_fract_y
_atom_site_fract_z
Si Si1 0.351957 0.819763 0.404838
Si Si2 0.857582 0.826871 0.467000
Si Si3 0.956984 0.174816 0.139020
Si Si4 0.459033 0.179988 0.645067
Si Si5 0.354168 0.825675 0.086112
Si Si6 0.642118 0.326414 0.035070
Si Si7 0.644016 0.321088 0.245948
O O1 0.250000 0.758409 0.384348
O O2 0.376985 0.752284 0.469363
O O3 0.430830 0.776427 0.357674
O O4 0.345963 0.000000 0.412464
O O5 0.750000 0.812876 0.450519
O O6 0.914321 0.749989 0.414072
O O7 0.891356 0.000000 0.469498
O O8 0.916177 0.215130 0.075985
O O9 0.909389 0.279153 0.187108
O O10 0.068977 0.204541 0.136534
O O11 0.935510 0.000000 0.153998
O O12 0.412859 0.255043 0.700433
O O13 0.443595 0.000000 0.649986
O O14 0.250000 0.791166 0.110852
O O15 0.360928 0.000000 0.064773
O O16 0.376583 0.718179 0.031594
O O17 0.750000 0.306532 0.051376
O O18 0.609829 0.500000 0.044148
O O19 0.750000 0.256760 0.245026
O O20 0.646301 0.500000 0.251701
#
# Coordination Sequence:
#
# PCOD8206984 Si02
#       7
#     8   8   8   8   8   8   8
#     4   8  14  25  44  75 111 139 165 204 254 303
#     4   8  13  22  41  73 108 135 163 206 256 301
#     4  11  22  36  57  81 103 134 176 218 258 299
#     4  10  18  30  52  78 102 133 174 215 252 295
#     4   9  19  36  56  80 110 139 169 209 255 302
#     4  10  20  33  52  81 115 147 175 206 251 305
#     4  11  25  42  56  72  99 134 169 209 260 314
#
# _framework density 19.354441000000001
#
# number of rings (size 3 to 8) (size 9 to 14) (size 15 to 20)
#    0.000    2.429    0.000    3.857    0.000    8.857 
#    0.000    0.714    0.000    6.429    0.000    2.000 
#    0.000    0.000    0.000    0.000    0.000    0.000 
#
# Total GULP energy -694120.429527 kJ/mol
# GULP energy per Si atom -12395.007670 kJ/mol
# Density = 1.931039 g / cm^3
# Si number density = 19.354441 Si / 1000 Ang^3
#
#
#
# Elastic Constant Matrix: (Units=GPa)
#
#
# Indices 1 2 3 4 5 6 
#
# 1 133.9756 29.0962 75.0734 0.0000 0.0000 0.0000
# 2 29.0962 38.1219 19.1962 0.0000 0.0000 0.0000
# 3 75.0734 19.1962 78.8661 0.0000 0.0000 0.0000
# 4 0.0000 0.0000 0.0000 -14.4651 0.0000 0.0000
# 5 0.0000 0.0000 0.0000 0.0000 32.2559 0.0000
# 6 0.0000 0.0000 0.0000 0.0000 0.0000 15.4990
#
#
#
# Elastic Compliance Matrix: (Units=1/GPa)
#
#
# Indices 1 2 3 4 5 6 
#
# 1 0.016946 -0.005483 -0.014797 0.000000 0.000000 0.000000
# 2 -0.005483 0.031670 -0.002489 0.000000 0.000000 0.000000
# 3 -0.014797 -0.002489 0.027370 0.000000 0.000000 0.000000
# 4 0.000000 0.000000 0.000000 -0.069132 0.000000 0.000000
# 5 0.000000 0.000000 0.000000 0.000000 0.031002 0.000000
# 6 0.000000 0.000000 0.000000 0.000000 0.000000 0.064520
#
#
# Mechanical properties :
#
#
# Convention : Reuss Voigt Hill
#
# Bulk Modulus (GPa) = 32.84170 55.29945 44.07058
# Shear Modulus (GPa) = 31.63266 15.16448 23.39857
#
# Velocity S-wave (km/s) = 4.04714 2.80217 3.48077
# Velocity P-wave (km/s) = 6.23254 6.25328 6.24292
#
# Compressibility (1/GPa) = 0.03044909
#
# Stress axis : x y z
#
# Youngs Moduli (GPa) = 59.01058 31.57558 36.53569
#
# Poissons Ratio (x) = 0.17314 0.54060
# Poissons Ratio (y) = 0.32357 0.09094
# Poissons Ratio (z) = 0.87315 0.07859
#
# Static dielectric constant tensor:
#      x y z
#    x 3.967520 0.000000 0.000000 
#    y 0.000000 3.198040 0.000000 
#    z 0.000000 0.000000 3.378080 
# 
# 
# High freq. dielectric constant tensor:
#      x y z
#    x 1.774680 0.000000 0.000000 
#    y 0.000000 1.715130 0.000000 
#    z 0.000000 0.000000 1.733070 
# 
# From -- ./inp_files/33322.got.cif
#   From: 2010.03.12/outbox.cif.g09.slc.cpg/sg51_17_cif.got.tgz:33322.got - 2010.04.16 13:43:02.
