data_PCOD8206533
_publ_section_title
;
Structure prediction by ZEFSAII (Michael W. Deem and Ramdas Pophale) SiO2 
 PCOD8206533
Probable space group: P M M A
;
_chemical_formula_sum "Si O2"
_cell_formula_units_Z 48
_cell_length_a 16.171618
_cell_length_b 9.910836
_cell_length_c 15.702798
_cell_angle_alpha 90.000000
_cell_angle_beta 90.000000
_cell_angle_gamma 90.000000
_cell_volume 2516.754233
_symmetry_space_group_name_H-M "P M M A"
_symmetry_group_IT_number 51
_symmetry_cell_setting 'orthorhombic'
loop_
_space_group_symop_operation_xyz
x,y,z
1/2-x,-y,z
1/2+x,-y,-z
-x,y,-z
-x,-y,-z
1/2+x,y,-z
1/2-x,y,z
x,-y,z
loop_
_atom_site_type_symbol
_atom_site_label
_atom_site_fract_x
_atom_site_fract_y
_atom_site_fract_z
Si Si1 0.250000 0.340158 0.223078
Si Si2 0.250000 0.338650 0.412811
Si Si3 0.095476 0.344454 0.115740
Si Si4 0.845141 0.155036 0.021016
Si Si5 0.069502 0.341562 0.437513
Si Si6 0.344511 0.153435 0.781446
Si Si7 0.521617 0.346515 0.267784
O O1 0.250000 0.500000 0.230166
O O2 0.250000 0.278807 0.317403
O O3 0.170220 0.289826 0.172873
O O4 0.250000 0.500000 0.410380
O O5 0.163590 0.287162 0.456329
O O6 0.106999 0.500000 0.087355
O O7 0.014265 0.326698 0.173015
O O8 0.092814 0.251735 0.031589
O O9 0.750000 0.186043 0.996802
O O10 0.858881 0.186624 0.119761
O O11 0.866835 0.000000 0.000353
O O12 0.070811 0.500000 0.453847
O O13 0.000000 0.275682 0.500000
O O14 0.045976 0.309202 0.339597
O O15 0.250000 0.178842 0.756004
O O16 0.399301 0.250575 0.722590
O O17 0.370105 0.000000 0.762311
O O18 0.551191 0.500000 0.281400
#
# Coordination Sequence:
#
# PCOD8206533 Si02
#       7
#     4   4   8   8   8   8   8
#     4   9  14  24  43  67  96 133 170 198 241 307
#     4   9  14  26  48  69  98 145 176 198 251 313
#     4  10  18  28  47  74 102 133 168 207 257 311
#     4   9  18  32  49  70  97 131 175 221 255 294
#     4   9  17  30  48  75 111 141 170 209 256 312
#     4   9  20  39  56  68  93 139 183 212 253 314
#     4  10  20  33  51  78 107 130 164 218 264 305
#
# _framework density 19.072182999999999
#
# number of rings (size 3 to 8) (size 9 to 14) (size 15 to 20)
#    0.000    2.667    2.500    1.000    0.000    2.333 
#    1.500    5.000    0.000    0.500    0.000    0.000 
#    0.000    0.000    0.000    0.000    0.000    0.000 
#
# Total GULP energy -594900.661769 kJ/mol
# GULP energy per Si atom -12393.763787 kJ/mol
# Density = 1.902877 g / cm^3
# Si number density = 19.072183 Si / 1000 Ang^3
#
#
#
# Elastic Constant Matrix: (Units=GPa)
#
#
# Indices 1 2 3 4 5 6 
#
# 1 123.3373 43.1283 36.9120 0.0000 0.0000 0.0000
# 2 43.1283 55.2061 22.5224 0.0000 0.0000 0.0000
# 3 36.9120 22.5224 37.9318 0.0000 0.0000 0.0000
# 4 0.0000 0.0000 0.0000 1.5957 0.0000 0.0000
# 5 0.0000 0.0000 0.0000 0.0000 26.2448 0.0000
# 6 0.0000 0.0000 0.0000 0.0000 0.0000 25.7187
#
#
#
# Elastic Compliance Matrix: (Units=1/GPa)
#
#
# Indices 1 2 3 4 5 6 
#
# 1 0.013044 -0.006614 -0.008766 0.000000 0.000000 0.000000
# 2 -0.006614 0.027258 -0.009748 0.000000 0.000000 0.000000
# 3 -0.008766 -0.009748 0.040682 0.000000 0.000000 0.000000
# 4 0.000000 0.000000 0.000000 0.626669 0.000000 0.000000
# 5 0.000000 0.000000 0.000000 0.000000 0.038103 0.000000
# 6 0.000000 0.000000 0.000000 0.000000 0.000000 0.038882
#
#
# Mechanical properties :
#
#
# Convention : Reuss Voigt Hill
#
# Bulk Modulus (GPa) = 32.54520 46.84451 39.69486
# Shear Modulus (GPa) = 5.91619 18.30600 12.11110
#
# Velocity S-wave (km/s) = 1.76316 3.10147 2.52268
# Velocity P-wave (km/s) = 4.60937 6.11886 5.41695
#
# Compressibility (1/GPa) = 0.03072650
#
# Stress axis : x y z
#
# Youngs Moduli (GPa) = 76.66234 36.68639 24.58086
#
# Poissons Ratio (x) = 0.24265 0.21549
# Poissons Ratio (y) = 0.50705 0.23963
# Poissons Ratio (z) = 0.67205 0.35764
#
# Static dielectric constant tensor:
#      x y z
#    x 3.634790 0.000000 0.000000 
#    y 0.000000 3.033600 0.000000 
#    z 0.000000 0.000000 3.339890 
# 
# 
# High freq. dielectric constant tensor:
#      x y z
#    x 1.749720 0.000000 0.000000 
#    y 0.000000 1.691440 0.000000 
#    z 0.000000 0.000000 1.725560 
# 
# From -- ./inp_files/24848.got.cif
#   From: 2010.03.12/outbox.cif.g09.slc.cpg/sg51_13_cif.got.tgz:24848.got - 2010.04.16 13:43:02.
