data_PCOD8206248
_publ_section_title
;
Structure prediction by ZEFSAII (Michael W. Deem and Ramdas Pophale) SiO2 
 PCOD8206248
Probable space group: P M M A
;
_chemical_formula_sum "Si O2"
_cell_formula_units_Z 56
_cell_length_a 22.475847
_cell_length_b 8.969184
_cell_length_c 17.860323
_cell_angle_alpha 90.000000
_cell_angle_beta 90.000000
_cell_angle_gamma 90.000000
_cell_volume 3600.462644
_symmetry_space_group_name_H-M "P M M A"
_symmetry_group_IT_number 51
_symmetry_cell_setting 'orthorhombic'
loop_
_space_group_symop_operation_xyz
x,y,z
1/2-x,-y,z
1/2+x,-y,-z
-x,y,-z
-x,-y,-z
1/2+x,y,-z
1/2-x,y,z
x,-y,z
loop_
_atom_site_type_symbol
_atom_site_label
_atom_site_fract_x
_atom_site_fract_y
_atom_site_fract_z
Si Si1 0.181409 0.323614 0.760722
Si Si2 0.563878 0.323083 0.523013
Si Si3 0.432168 0.331880 0.024978
Si Si4 0.467339 0.324533 0.319854
Si Si5 0.099568 0.324082 0.630361
Si Si6 0.468164 0.825056 0.167639
Si Si7 0.899450 0.175583 0.119367
O O1 0.250000 0.279114 0.755870
O O2 0.172062 0.500000 0.768997
O O3 0.150063 0.259217 0.685311
O O4 0.153225 0.245104 0.832350
O O5 0.500000 0.258311 0.500000
O O6 0.560993 0.500000 0.520768
O O7 0.575876 0.276883 0.609733
O O8 0.608810 0.267118 0.456668
O O9 0.407806 0.500000 0.031676
O O10 0.426779 0.251298 0.105026
O O11 0.500000 0.329973 0.000000
O O12 0.393640 0.243024 0.963845
O O13 0.462854 0.500000 0.302786
O O14 0.534823 0.277890 0.339229
O O15 0.445905 0.233808 0.247763
O O16 0.105230 0.500000 0.630633
O O17 0.537251 0.781326 0.156157
O O18 0.458400 0.000000 0.161966
O O19 0.891198 0.000000 0.113940
#
# Coordination Sequence:
#
# PCOD8206248 Si02
#       7
#     8   8   8   8   8   8   8
#     4  10  19  29  43  62  81 106 143 180 209 240
#     4   7  11  19  34  56  75  98 134 169 201 241
#     4   9  17  28  43  60  78 104 138 170 202 245
#     4   9  14  22  39  58  77 105 139 169 201 244
#     4   8  13  23  38  55  78 104 134 174 210 238
#     4  10  18  26  38  59  86 111 135 164 204 251
#     4  10  19  30  42  56  80 111 139 169 208 249
#
# _framework density 15.553557
#
# number of rings (size 3 to 8) (size 9 to 14) (size 15 to 20)
#    0.000    3.000    1.429    3.000    0.000    3.143 
#    0.000    0.000    0.000    4.714    0.000    0.000 
#    0.000    1.143    0.000    8.571    0.000    2.000 
#
# Total GULP energy -693773.932334 kJ/mol
# GULP energy per Si atom -12388.820220 kJ/mol
# Density = 1.551816 g / cm^3
# Si number density = 15.553557 Si / 1000 Ang^3
#
#
#
# Elastic Constant Matrix: (Units=GPa)
#
#
# Indices 1 2 3 4 5 6 
#
# 1 47.2075 20.6890 47.3478 0.0000 0.0000 0.0000
# 2 20.6890 48.2857 45.6473 0.0000 0.0000 0.0000
# 3 47.3478 45.6473 168.2165 0.0000 0.0000 0.0000
# 4 0.0000 0.0000 0.0000 6.8472 0.0000 0.0000
# 5 0.0000 0.0000 0.0000 0.0000 16.3299 0.0000
# 6 0.0000 0.0000 0.0000 0.0000 0.0000 11.2873
#
#
#
# Elastic Compliance Matrix: (Units=1/GPa)
#
#
# Indices 1 2 3 4 5 6 
#
# 1 0.031087 -0.006790 -0.006908 0.000000 0.000000 0.000000
# 2 -0.006790 0.029339 -0.006050 0.000000 0.000000 0.000000
# 3 -0.006908 -0.006050 0.009531 0.000000 0.000000 0.000000
# 4 0.000000 0.000000 0.000000 0.146045 0.000000 0.000000
# 5 0.000000 0.000000 0.000000 0.000000 0.061238 0.000000
# 6 0.000000 0.000000 0.000000 0.000000 0.000000 0.088595
#
#
# Mechanical properties :
#
#
# Convention : Reuss Voigt Hill
#
# Bulk Modulus (GPa) = 32.82836 54.56419 43.69628
# Shear Modulus (GPa) = 12.03419 16.89459 14.46439
#
# Velocity S-wave (km/s) = 2.78461 3.29936 3.05285
# Velocity P-wave (km/s) = 5.61170 7.04784 6.37037
#
# Compressibility (1/GPa) = 0.03046147
#
# Stress axis : x y z
#
# Youngs Moduli (GPa) = 32.16807 34.08434 104.92295
#
# Poissons Ratio (x) = 0.23142 0.72476
# Poissons Ratio (y) = 0.21841 0.63482
# Poissons Ratio (z) = 0.22220 0.20622
#
# Static dielectric constant tensor:
#      x y z
#    x 2.599530 0.000000 0.000000 
#    y 0.000000 2.745210 0.000000 
#    z 0.000000 0.000000 3.480730 
# 
# 
# High freq. dielectric constant tensor:
#      x y z
#    x 1.523530 0.000000 0.000000 
#    y 0.000000 1.577600 0.000000 
#    z 0.000000 0.000000 1.619490 
# 
# From -- ./inp_files/30384.got.cif
#   From: 2010.03.12/outbox.cif.g09.slc.cpg/sg51_16_cif.got.tgz:30384.got - 2010.04.16 13:43:02.
