data_PCOD8206388
_publ_section_title
;
Structure prediction by ZEFSAII (Michael W. Deem and Ramdas Pophale) SiO2 
 PCOD8206388
Probable space group: P M M A
;
_chemical_formula_sum "Si O2"
_cell_formula_units_Z 64
_cell_length_a 26.338951
_cell_length_b 8.945215
_cell_length_c 18.068654
_cell_angle_alpha 90.000000
_cell_angle_beta 90.000000
_cell_angle_gamma 90.000000
_cell_volume 4257.111835
_symmetry_space_group_name_H-M "P M M A"
_symmetry_group_IT_number 51
_symmetry_cell_setting 'orthorhombic'
loop_
_space_group_symop_operation_xyz
x,y,z
1/2-x,-y,z
1/2+x,-y,-z
-x,y,-z
-x,-y,-z
1/2+x,y,-z
1/2-x,y,z
x,-y,z
loop_
_atom_site_type_symbol
_atom_site_label
_atom_site_fract_x
_atom_site_fract_y
_atom_site_fract_z
Si Si1 0.896312 0.176787 0.087652
Si Si2 0.510909 0.676220 0.170501
Si Si3 0.691460 0.673811 0.167776
Si Si4 0.048174 0.164608 0.052622
Si Si5 0.503773 0.174726 0.326720
Si Si6 0.101633 0.827124 0.577412
Si Si7 0.192264 0.827410 0.680134
Si Si8 0.050424 0.667942 0.451768
O O1 0.937285 0.250976 0.141812
O O2 0.840759 0.236881 0.107186
O O3 0.899803 0.000000 0.099789
O O4 0.906025 0.218516 0.001117
O O5 0.517444 0.500000 0.170184
O O6 0.462772 0.720282 0.118843
O O7 0.499217 0.732786 0.252024
O O8 0.750000 0.708221 0.150454
O O9 0.678614 0.500000 0.162287
O O10 0.677089 0.728238 0.249717
O O11 0.059688 0.000000 0.086294
O O12 0.000000 0.152890 0.000000
O O13 0.558041 0.211225 0.363253
O O14 0.458159 0.229532 0.379816
O O15 0.497144 0.000000 0.310454
O O16 0.155807 0.783373 0.612408
O O17 0.095786 0.733715 0.501897
O O18 0.098645 0.000000 0.555391
O O19 0.250000 0.796164 0.654934
O O20 0.184218 0.000000 0.702663
O O21 0.064519 0.500000 0.427163
O O22 0.000000 0.670359 0.500000
#
# Coordination Sequence:
#
# PCOD8206388 Si02
#       8
#     8   8   8   8   8   8   8   8
#     4  10  19  31  46  61  81 113 148 177 208 249
#     4  11  20  28  42  64  88 112 140 174 211 250
#     4  10  20  31  43  62  87 112 141 180 220 252
#     4   8  16  30  44  59  81 109 141 174 207 246
#     4  10  18  28  42  59  83 113 143 173 204 245
#     4   9  17  28  42  59  79 108 143 173 206 246
#     4   9  17  29  44  61  83 112 145 178 209 245
#     4   9  17  28  41  58  80 105 135 172 211 248
#
# _framework density 15.033666999999999
#
# number of rings (size 3 to 8) (size 9 to 14) (size 15 to 20)
#    0.000    2.500    0.000    4.125    0.000    7.000 
#    0.000    0.000    0.000    0.000    0.000    0.000 
#    0.000    1.000    0.000    5.250    0.000    4.250 
#
# Total GULP energy -793536.757537 kJ/mol
# GULP energy per Si atom -12399.011837 kJ/mol
# Density = 1.499945 g / cm^3
# Si number density = 15.033667 Si / 1000 Ang^3
#
#
#
# Elastic Constant Matrix: (Units=GPa)
#
#
# Indices 1 2 3 4 5 6 
#
# 1 69.7218 37.3005 45.2298 0.0000 0.0000 0.0000
# 2 37.3005 91.3080 47.1025 0.0000 0.0000 0.0000
# 3 45.2298 47.1025 78.2619 0.0000 0.0000 0.0000
# 4 0.0000 0.0000 0.0000 19.2056 0.0000 0.0000
# 5 0.0000 0.0000 0.0000 0.0000 26.0852 0.0000
# 6 0.0000 0.0000 0.0000 0.0000 0.0000 19.4424
#
#
#
# Elastic Compliance Matrix: (Units=1/GPa)
#
#
# Indices 1 2 3 4 5 6 
#
# 1 0.023827 -0.003814 -0.011475 0.000000 0.000000 0.000000
# 2 -0.003814 0.016494 -0.007723 0.000000 0.000000 0.000000
# 3 -0.011475 -0.007723 0.024057 0.000000 0.000000 0.000000
# 4 0.000000 0.000000 0.000000 0.052068 0.000000 0.000000
# 5 0.000000 0.000000 0.000000 0.000000 0.038336 0.000000
# 6 0.000000 0.000000 0.000000 0.000000 0.000000 0.051434
#
#
# Mechanical properties :
#
#
# Convention : Reuss Voigt Hill
#
# Bulk Modulus (GPa) = 54.48131 55.39527 54.93829
# Shear Modulus (GPa) = 19.35299 20.25723 19.80511
#
# Velocity S-wave (km/s) = 3.59180 3.67476 3.63352
# Velocity P-wave (km/s) = 7.31571 7.41165 7.36384
#
# Compressibility (1/GPa) = 0.01835492
#
# Stress axis : x y z
#
# Youngs Moduli (GPa) = 41.96879 60.62832 41.56776
#
# Poissons Ratio (x) = 0.23126 0.47698
# Poissons Ratio (y) = 0.16008 0.32101
# Poissons Ratio (z) = 0.48158 0.46821
#
# Static dielectric constant tensor:
#      x y z
#    x 2.850970 0.000000 0.000000 
#    y 0.000000 3.010990 0.000000 
#    z 0.000000 0.000000 2.924820 
# 
# 
# High freq. dielectric constant tensor:
#      x y z
#    x 1.542630 0.000000 0.000000 
#    y 0.000000 1.588250 0.000000 
#    z 0.000000 0.000000 1.561820 
# 
# From -- ./inp_files/31009.got.cif
#   From: 2010.03.12/outbox.cif.g09.slc.cpg/sg51_16_cif.got.tgz:31009.got - 2010.04.16 13:43:02.
