data_PCOD8206793
_publ_section_title
;
Structure prediction by ZEFSAII (Michael W. Deem and Ramdas Pophale) SiO2 
 PCOD8206793
Probable space group: P M M A
;
_chemical_formula_sum "Si O2"
_cell_formula_units_Z 64
_cell_length_a 25.414364
_cell_length_b 9.101959
_cell_length_c 17.000066
_cell_angle_alpha 90.000000
_cell_angle_beta 90.000000
_cell_angle_gamma 90.000000
_cell_volume 3932.463753
_symmetry_space_group_name_H-M "P M M A"
_symmetry_group_IT_number 51
_symmetry_cell_setting 'orthorhombic'
loop_
_space_group_symop_operation_xyz
x,y,z
1/2-x,-y,z
1/2+x,-y,-z
-x,y,-z
-x,-y,-z
1/2+x,y,-z
1/2-x,y,z
x,-y,z
loop_
_atom_site_type_symbol
_atom_site_label
_atom_site_fract_x
_atom_site_fract_y
_atom_site_fract_z
Si Si1 0.437157 0.170333 0.650971
Si Si2 0.406337 0.671622 0.187262
Si Si3 0.005008 0.829109 0.092248
Si Si4 0.309337 0.331347 0.082796
Si Si5 0.190830 0.826100 0.924407
Si Si6 0.439467 0.170992 0.341926
Si Si7 0.402216 0.174280 0.818086
Si Si8 0.437458 0.665647 0.497110
O O1 0.498519 0.198254 0.667706
O O2 0.405511 0.226798 0.727589
O O3 0.415557 0.261515 0.576888
O O4 0.426940 0.000000 0.632846
O O5 0.417953 0.500000 0.199528
O O6 0.446569 0.735419 0.123730
O O7 0.347554 0.701027 0.155686
O O8 0.409940 0.753417 0.269987
O O9 0.952191 0.767838 0.133008
O O10 0.014664 0.000000 0.113056
O O11 0.000000 0.803851 0.000000
O O12 0.250000 0.289997 0.109053
O O13 0.313146 0.500000 0.056490
O O14 0.327228 0.236106 0.008172
O O15 0.250000 0.774335 0.903109
O O16 0.151548 0.765624 0.857030
O O17 0.187122 0.000000 0.930547
O O18 0.417644 0.242519 0.422195
O O19 0.425607 0.000000 0.343380
O O20 0.403341 0.000000 0.820551
O O21 0.500000 0.669518 0.500000
O O22 0.416016 0.500000 0.490870
#
# Coordination Sequence:
#
# PCOD8206793 Si02
#       8
#     8   8   8   8   8   8   8   8
#     4   9  16  28  44  62  89 125 158 183 219 277
#     4  11  21  31  46  68  94 120 152 194 234 270
#     4  10  19  31  46  63  89 127 160 184 222 279
#     4   9  19  35  50  64  88 122 156 191 236 283
#     4   9  17  30  50  72  90 114 156 205 239 263
#     4  10  18  30  47  66  91 124 157 183 222 279
#     4   9  16  28  44  66  94 123 153 187 228 274
#     4   9  17  28  43  65  93 120 150 189 231 265
#
# _framework density 16.274785000000001
#
# number of rings (size 3 to 8) (size 9 to 14) (size 15 to 20)
#    0.000    2.500    1.250    1.875    0.000    4.250 
#    0.000    1.250    0.000    0.000    0.000    0.875 
#    0.000    3.000    0.000    0.000    0.000    0.000 
#
# Total GULP energy -793587.398091 kJ/mol
# GULP energy per Si atom -12399.803095 kJ/mol
# Density = 1.623774 g / cm^3
# Si number density = 16.274785 Si / 1000 Ang^3
#
#
#
# Elastic Constant Matrix: (Units=GPa)
#
#
# Indices 1 2 3 4 5 6 
#
# 1 70.6040 36.0002 56.6472 0.0000 0.0000 0.0000
# 2 36.0002 73.8785 59.2305 0.0000 0.0000 0.0000
# 3 56.6472 59.2305 142.2443 0.0000 0.0000 0.0000
# 4 0.0000 0.0000 0.0000 21.7381 0.0000 0.0000
# 5 0.0000 0.0000 0.0000 0.0000 20.3096 0.0000
# 6 0.0000 0.0000 0.0000 0.0000 0.0000 15.5858
#
#
#
# Elastic Compliance Matrix: (Units=1/GPa)
#
#
# Indices 1 2 3 4 5 6 
#
# 1 0.022265 -0.005615 -0.006528 0.000000 0.000000 0.000000
# 2 -0.005615 0.021735 -0.006814 0.000000 0.000000 0.000000
# 3 -0.006528 -0.006814 0.012468 0.000000 0.000000 0.000000
# 4 0.000000 0.000000 0.000000 0.046002 0.000000 0.000000
# 5 0.000000 0.000000 0.000000 0.000000 0.049238 0.000000
# 6 0.000000 0.000000 0.000000 0.000000 0.000000 0.064161
#
#
# Mechanical properties :
#
#
# Convention : Reuss Voigt Hill
#
# Bulk Modulus (GPa) = 53.90463 65.60918 59.75691
# Shear Modulus (GPa) = 19.23313 20.51663 19.87488
#
# Velocity S-wave (km/s) = 3.44142 3.55440 3.49837
# Velocity P-wave (km/s) = 6.99891 7.56610 7.28802
#
# Compressibility (1/GPa) = 0.01855128
#
# Stress axis : x y z
#
# Youngs Moduli (GPa) = 44.91441 46.00825 80.20853
#
# Poissons Ratio (x) = 0.25835 0.52363
# Poissons Ratio (y) = 0.25221 0.54657
# Poissons Ratio (z) = 0.29322 0.31352
#
# Static dielectric constant tensor:
#      x y z
#    x 2.989860 0.000000 0.000000 
#    y 0.000000 3.050820 0.000000 
#    z 0.000000 0.000000 3.217900 
# 
# 
# High freq. dielectric constant tensor:
#      x y z
#    x 1.591220 0.000000 0.000000 
#    y 0.000000 1.621040 0.000000 
#    z 0.000000 0.000000 1.632720 
# 
# From -- ./inp_files/30917.got.cif
#   From: 2010.03.12/outbox.cif.g09.slc.cpg/sg51_16_cif.got.tgz:30917.got - 2010.04.16 13:43:02.
