data_PCOD8206596
_publ_section_title
;
Structure prediction by ZEFSAII (Michael W. Deem and Ramdas Pophale) SiO2 
 PCOD8206596
Probable space group: P M M A
;
_chemical_formula_sum "Si O2"
_cell_formula_units_Z 64
_cell_length_a 28.151537
_cell_length_b 9.363771
_cell_length_c 15.474873
_cell_angle_alpha 90.000000
_cell_angle_beta 90.000000
_cell_angle_gamma 90.000000
_cell_volume 4079.246868
_symmetry_space_group_name_H-M "P M M A"
_symmetry_group_IT_number 51
_symmetry_cell_setting 'orthorhombic'
loop_
_space_group_symop_operation_xyz
x,y,z
1/2-x,-y,z
1/2+x,-y,-z
-x,y,-z
-x,-y,-z
1/2+x,y,-z
1/2-x,y,z
x,-y,z
loop_
_atom_site_type_symbol
_atom_site_label
_atom_site_fract_x
_atom_site_fract_y
_atom_site_fract_z
Si Si1 0.638540 0.830657 0.335098
Si Si2 0.446342 0.335505 0.600176
Si Si3 0.696905 0.169442 0.499614
Si Si4 0.305277 0.333115 0.186969
Si Si5 0.693625 0.657490 0.006189
Si Si6 0.804501 0.167419 0.167465
Si Si7 0.639789 0.830021 0.667684
Si Si8 0.554720 0.334898 0.599125
O O1 0.586600 0.760715 0.338693
O O2 0.669353 0.773113 0.415721
O O3 0.664519 0.779598 0.248157
O O4 0.632822 0.000000 0.338180
O O5 0.432553 0.500000 0.613050
O O6 0.500579 0.308871 0.628156
O O7 0.438984 0.290733 0.500683
O O8 0.750000 0.234007 0.499649
O O9 0.670428 0.221409 0.585574
O O10 0.699255 0.000000 0.496543
O O11 0.250000 0.296740 0.200955
O O12 0.314633 0.500000 0.206264
O O13 0.336205 0.232593 0.247442
O O14 0.321993 0.293889 0.089622
O O15 0.750000 0.653490 0.007499
O O16 0.673295 0.500000 0.025969
O O17 0.674437 0.763011 0.080162
O O18 0.750000 0.213186 0.184334
O O19 0.808605 0.000000 0.155009
O O20 0.587141 0.765821 0.658374
O O21 0.636733 0.000000 0.675033
O O22 0.568844 0.500000 0.612553
#
# Coordination Sequence:
#
# PCOD8206596 Si02
#       8
#     8   8   8   8   8   8   8   8
#     4  10  18  29  45  66  92 123 155 187 225 269
#     4   9  18  32  49  66  86 116 154 196 236 271
#     4   9  17  28  40  58  90 127 156 180 211 256
#     4   9  18  32  48  66  92 126 158 189 229 274
#     4   8  15  29  47  65  87 118 155 193 230 265
#     4   9  17  28  44  67  94 124 155 186 224 269
#     4  11  20  29  45  70  94 121 156 193 229 267
#     4   9  18  33  49  64  87 119 153 193 238 277
#
# _framework density 15.689170000000001
#
# number of rings (size 3 to 8) (size 9 to 14) (size 15 to 20)
#    0.000    2.750    1.250    2.625    0.000    3.750 
#    0.000    2.500    0.000    1.875    0.000    0.875 
#    0.000    7.000    0.000    0.000    0.000    0.000 
#
# Total GULP energy -793504.300687 kJ/mol
# GULP energy per Si atom -12398.504698 kJ/mol
# Density = 1.565346 g / cm^3
# Si number density = 15.689170 Si / 1000 Ang^3
#
#
#
# Elastic Constant Matrix: (Units=GPa)
#
#
# Indices 1 2 3 4 5 6 
#
# 1 87.7483 43.0857 51.9640 0.0000 0.0000 0.0000
# 2 43.0857 54.5477 50.5977 0.0000 0.0000 0.0000
# 3 51.9640 50.5977 121.2979 0.0000 0.0000 0.0000
# 4 0.0000 0.0000 0.0000 26.4248 0.0000 0.0000
# 5 0.0000 0.0000 0.0000 0.0000 12.3492 0.0000
# 6 0.0000 0.0000 0.0000 0.0000 0.0000 24.6293
#
#
#
# Elastic Compliance Matrix: (Units=1/GPa)
#
#
# Indices 1 2 3 4 5 6 
#
# 1 0.019312 -0.012364 -0.003116 0.000000 0.000000 0.000000
# 2 -0.012364 0.037818 -0.010479 0.000000 0.000000 0.000000
# 3 -0.003116 -0.010479 0.013950 0.000000 0.000000 0.000000
# 4 0.000000 0.000000 0.000000 0.037843 0.000000 0.000000
# 5 0.000000 0.000000 0.000000 0.000000 0.080977 0.000000
# 6 0.000000 0.000000 0.000000 0.000000 0.000000 0.040602
#
#
# Mechanical properties :
#
#
# Convention : Reuss Voigt Hill
#
# Bulk Modulus (GPa) = 52.18221 61.65428 56.91825
# Shear Modulus (GPa) = 17.31253 20.54376 18.92815
#
# Velocity S-wave (km/s) = 3.32546 3.62252 3.47716
# Velocity P-wave (km/s) = 6.93377 7.54185 7.24419
#
# Compressibility (1/GPa) = 0.01916362
#
# Stress axis : x y z
#
# Youngs Moduli (GPa) = 51.78024 26.44215 71.68415
#
# Poissons Ratio (x) = 0.32693 0.22337
# Poissons Ratio (y) = 0.64021 0.75116
# Poissons Ratio (z) = 0.16135 0.27708
#
# Static dielectric constant tensor:
#      x y z
#    x 2.873020 0.000000 0.000000 
#    y 0.000000 2.871960 0.000000 
#    z 0.000000 0.000000 3.030900 
# 
# 
# High freq. dielectric constant tensor:
#      x y z
#    x 1.583680 0.000000 0.000000 
#    y 0.000000 1.593230 0.000000 
#    z 0.000000 0.000000 1.592940 
# 
# From -- ./inp_files/26712.got.cif
#   From: 2010.03.12/outbox.cif.g09.slc.cpg/sg51_14_cif.got.tgz:26712.got - 2010.04.16 13:43:02.
