data_PCOD8206255
_publ_section_title
;
Structure prediction by ZEFSAII (Michael W. Deem and Ramdas Pophale) SiO2 
 PCOD8206255
Probable space group: P M M A
;
_chemical_formula_sum "Si O2"
_cell_formula_units_Z 64
_cell_length_a 26.445476
_cell_length_b 9.354712
_cell_length_c 18.063783
_cell_angle_alpha 90.000000
_cell_angle_beta 90.000000
_cell_angle_gamma 90.000000
_cell_volume 4468.795875
_symmetry_space_group_name_H-M "P M M A"
_symmetry_group_IT_number 51
_symmetry_cell_setting 'orthorhombic'
loop_
_space_group_symop_operation_xyz
x,y,z
1/2-x,-y,z
1/2+x,-y,-z
-x,y,-z
-x,-y,-z
1/2+x,y,-z
1/2-x,y,z
x,-y,z
loop_
_atom_site_type_symbol
_atom_site_label
_atom_site_fract_x
_atom_site_fract_y
_atom_site_fract_z
Si Si1 0.509537 0.832192 0.163982
Si Si2 0.949435 0.338474 0.547652
Si Si3 0.398439 0.834335 0.572140
Si Si4 0.951969 0.658124 0.946650
Si Si5 0.503040 0.835256 0.335493
Si Si6 0.400956 0.333157 0.911389
Si Si7 0.692560 0.166008 0.326811
Si Si8 0.806654 0.665645 0.181239
O O1 0.460954 0.769856 0.119641
O O2 0.501928 0.796191 0.249583
O O3 0.561083 0.759291 0.137901
O O4 0.513236 0.000000 0.148707
O O5 0.931959 0.500000 0.563872
O O6 0.905566 0.258058 0.502124
O O7 0.000000 0.333643 0.500000
O O8 0.959875 0.258766 0.624949
O O9 0.441512 0.799723 0.632642
O O10 0.344404 0.790279 0.606378
O O11 0.400007 0.000000 0.549353
O O12 0.942695 0.500000 0.912815
O O13 0.905523 0.704200 0.000754
O O14 0.000000 0.655871 0.000000
O O15 0.489479 0.000000 0.349565
O O16 0.414481 0.500000 0.898858
O O17 0.343968 0.297181 0.886397
O O18 0.750000 0.203661 0.350306
O O19 0.675995 0.249633 0.253672
O O20 0.686144 0.000000 0.307916
O O21 0.750000 0.710123 0.156813
O O22 0.809416 0.500000 0.202260
#
# Coordination Sequence:
#
# PCOD8206255 Si02
#       8
#     8   8   8   8   8   8   8   8
#     4  10  18  26  39  59  79 100 130 163 191 225
#     4   9  17  27  39  56  75  96 126 161 191 222
#     4   9  16  27  41  54  74 105 132 154 186 226
#     4   8  15  27  39  52  74 103 130 156 191 232
#     4   9  17  27  38  54  77 103 128 154 189 230
#     4   9  17  28  40  54  76 106 134 159 192 232
#     4   9  17  28  41  58  80 105 133 163 193 226
#     4   9  17  28  41  57  77 102 133 167 197 223
#
# _framework density 14.321531999999999
#
# number of rings (size 3 to 8) (size 9 to 14) (size 15 to 20)
#    0.000    3.000    0.000    2.250    0.000    6.750 
#    0.000    2.500    0.000    0.000    0.000    0.000 
#    0.000    1.000    0.000    5.750    0.000    3.500 
#
# Total GULP energy -793386.225090 kJ/mol
# GULP energy per Si atom -12396.659767 kJ/mol
# Density = 1.428894 g / cm^3
# Si number density = 14.321532 Si / 1000 Ang^3
#
#
#
# Elastic Constant Matrix: (Units=GPa)
#
#
# Indices 1 2 3 4 5 6 
#
# 1 71.5725 36.6888 48.2126 0.0000 0.0000 0.0000
# 2 36.6888 70.0015 53.4175 0.0000 0.0000 0.0000
# 3 48.2126 53.4175 91.6117 0.0000 0.0000 0.0000
# 4 0.0000 0.0000 0.0000 23.8193 0.0000 0.0000
# 5 0.0000 0.0000 0.0000 0.0000 25.7950 0.0000
# 6 0.0000 0.0000 0.0000 0.0000 0.0000 14.7624
#
#
#
# Elastic Compliance Matrix: (Units=1/GPa)
#
#
# Indices 1 2 3 4 5 6 
#
# 1 0.022570 -0.004982 -0.008973 0.000000 0.000000 0.000000
# 2 -0.004982 0.026837 -0.013026 0.000000 0.000000 0.000000
# 3 -0.008973 -0.013026 0.023233 0.000000 0.000000 0.000000
# 4 0.000000 0.000000 0.000000 0.041983 0.000000 0.000000
# 5 0.000000 0.000000 0.000000 0.000000 0.038767 0.000000
# 6 0.000000 0.000000 0.000000 0.000000 0.000000 0.067739
#
#
# Mechanical properties :
#
#
# Convention : Reuss Voigt Hill
#
# Bulk Modulus (GPa) = 53.54031 56.64706 55.09368
# Shear Modulus (GPa) = 17.77346 19.19978 18.48662
#
# Velocity S-wave (km/s) = 3.52665 3.66542 3.59671
# Velocity P-wave (km/s) = 7.35178 7.58640 7.47001
#
# Compressibility (1/GPa) = 0.01867752
#
# Stress axis : x y z
#
# Youngs Moduli (GPa) = 44.30631 37.26227 43.04173
#
# Poissons Ratio (x) = 0.18565 0.38621
# Poissons Ratio (y) = 0.22074 0.56067
# Poissons Ratio (z) = 0.39756 0.48539
#
# Static dielectric constant tensor:
#      x y z
#    x 2.793780 0.000000 0.000000 
#    y 0.000000 2.881400 0.000000 
#    z 0.000000 0.000000 2.830410 
# 
# 
# High freq. dielectric constant tensor:
#      x y z
#    x 1.516530 0.000000 0.000000 
#    y 0.000000 1.554020 0.000000 
#    z 0.000000 0.000000 1.532040 
# 
# From -- ./inp_files/30982.got.cif
#   From: 2010.03.12/outbox.cif.g09.slc.cpg/sg51_16_cif.got.tgz:30982.got - 2010.04.16 13:43:02.
