data_PCOD8206200
_publ_section_title
;
Structure prediction by ZEFSAII (Michael W. Deem and Ramdas Pophale) SiO2 
 PCOD8206200
Probable space group: P M M A
;
_chemical_formula_sum "Si O2"
_cell_formula_units_Z 64
_cell_length_a 31.059458
_cell_length_b 9.064096
_cell_length_c 12.022466
_cell_angle_alpha 90.000000
_cell_angle_beta 90.000000
_cell_angle_gamma 90.000000
_cell_volume 3384.635669
_symmetry_space_group_name_H-M "P M M A"
_symmetry_group_IT_number 51
_symmetry_cell_setting 'orthorhombic'
loop_
_space_group_symop_operation_xyz
x,y,z
1/2-x,-y,z
1/2+x,-y,-z
-x,y,-z
-x,-y,-z
1/2+x,y,-z
1/2-x,y,z
x,-y,z
loop_
_atom_site_type_symbol
_atom_site_label
_atom_site_fract_x
_atom_site_fract_y
_atom_site_fract_z
Si Si1 0.583095 0.828717 0.495894
Si Si2 0.299628 0.671982 0.263664
Si Si3 0.797715 0.169457 0.283388
Si Si4 0.043660 0.171663 0.736381
Si Si5 0.050537 0.175395 0.266711
Si Si6 0.629569 0.824462 0.879852
Si Si7 0.624980 0.824124 0.131510
Si Si8 0.327795 0.325662 0.507348
O O1 0.550338 0.802590 0.394844
O O2 0.561209 0.771444 0.608717
O O3 0.624623 0.732450 0.471104
O O4 0.596668 0.000000 0.504842
O O5 0.250000 0.705465 0.237470
O O6 0.310354 0.500000 0.251722
O O7 0.327688 0.761278 0.175635
O O8 0.310617 0.727404 0.387654
O O9 0.750000 0.184144 0.230139
O O10 0.832788 0.233487 0.196810
O O11 0.797386 0.259475 0.397886
O O12 0.808812 0.000000 0.311126
O O13 0.082091 0.242841 0.809676
O O14 0.996643 0.238624 0.767603
O O15 0.043524 0.000000 0.764386
O O16 0.086953 0.235317 0.183083
O O17 0.048925 0.000000 0.263829
O O18 0.632025 0.000000 0.873919
O O19 0.626995 0.765700 0.005717
O O20 0.624085 0.000000 0.133325
O O21 0.326601 0.500000 0.516655
#
# Coordination Sequence:
#
# PCOD8206200 Si02
#       8
#     8   8   8   8   8   8   8   8
#     4  10  17  30  53  78 106 138 175 215 261 316
#     4  10  22  39  56  75 103 139 174 210 262 322
#     4  10  20  35  55  78 105 138 174 212 260 317
#     4   9  16  28  50  78 109 140 170 212 265 312
#     4   9  17  28  48  81 111 135 170 217 261 307
#     4  10  20  34  54  81 108 135 177 224 258 298
#     4   9  18  32  51  78 109 141 175 216 262 304
#     4  11  21  34  55  80 107 136 169 214 267 318
#
# _framework density 18.908978000000001
#
# number of rings (size 3 to 8) (size 9 to 14) (size 15 to 20)
#    0.000    2.250    2.500    1.125    0.000    4.000 
#    0.000    4.375    0.000    2.250    0.000    0.875 
#    0.000    0.000    0.000    0.000    0.000    0.000 
#
# Total GULP energy -793513.222451 kJ/mol
# GULP energy per Si atom -12398.644101 kJ/mol
# Density = 1.886594 g / cm^3
# Si number density = 18.908978 Si / 1000 Ang^3
#
#
#
# Elastic Constant Matrix: (Units=GPa)
#
#
# Indices 1 2 3 4 5 6 
#
# 1 148.7322 19.4375 65.4558 0.0000 0.0000 0.0000
# 2 19.4375 23.8206 21.5737 0.0000 0.0000 0.0000
# 3 65.4558 21.5737 144.6765 0.0000 0.0000 0.0000
# 4 0.0000 0.0000 0.0000 14.1743 0.0000 0.0000
# 5 0.0000 0.0000 0.0000 0.0000 18.6538 0.0000
# 6 0.0000 0.0000 0.0000 0.0000 0.0000 10.5390
#
#
#
# Elastic Compliance Matrix: (Units=1/GPa)
#
#
# Indices 1 2 3 4 5 6 
#
# 1 0.008728 -0.004099 -0.003338 0.000000 0.000000 0.000000
# 2 -0.004099 0.050461 -0.005670 0.000000 0.000000 0.000000
# 3 -0.003338 -0.005670 0.009267 0.000000 0.000000 0.000000
# 4 0.000000 0.000000 0.000000 0.070550 0.000000 0.000000
# 5 0.000000 0.000000 0.000000 0.000000 0.053608 0.000000
# 6 0.000000 0.000000 0.000000 0.000000 0.000000 0.094886
#
#
# Mechanical properties :
#
#
# Convention : Reuss Voigt Hill
#
# Bulk Modulus (GPa) = 23.67279 58.90705 41.28992
# Shear Modulus (GPa) = 15.25345 22.72423 18.98884
#
# Velocity S-wave (km/s) = 2.84329 3.47042 3.17239
# Velocity P-wave (km/s) = 4.82965 6.87597 5.94157
#
# Compressibility (1/GPa) = 0.04224259
#
# Stress axis : x y z
#
# Youngs Moduli (GPa) = 114.57308 19.81743 107.90457
#
# Poissons Ratio (x) = 0.08124 0.36014
# Poissons Ratio (y) = 0.46967 0.61181
# Poissons Ratio (z) = 0.38239 0.11236
#
# Static dielectric constant tensor:
#      x y z
#    x 3.724040 0.000000 0.000000 
#    y 0.000000 2.993210 0.000000 
#    z 0.000000 0.000000 3.610130 
# 
# 
# High freq. dielectric constant tensor:
#      x y z
#    x 1.752150 0.000000 0.000000 
#    y 0.000000 1.679920 0.000000 
#    z 0.000000 0.000000 1.735200 
# 
# From -- ./inp_files/19546.got.cif
#   From: 2010.03.12/outbox.cif.g09.slc.cpg/sg51_10_cif.got.tgz:19546.got - 2010.04.16 13:43:02.
