data_PCOD8206941
_publ_section_title
;
Structure prediction by ZEFSAII (Michael W. Deem and Ramdas Pophale) SiO2 
 PCOD8206941
Probable space group: P M M A
;
_chemical_formula_sum "Si O2"
_cell_formula_units_Z 64
_cell_length_a 29.404967
_cell_length_b 8.950048
_cell_length_c 12.481430
_cell_angle_alpha 90.000000
_cell_angle_beta 90.000000
_cell_angle_gamma 90.000000
_cell_volume 3284.811150
_symmetry_space_group_name_H-M "P M M A"
_symmetry_group_IT_number 51
_symmetry_cell_setting 'orthorhombic'
loop_
_space_group_symop_operation_xyz
x,y,z
1/2-x,-y,z
1/2+x,-y,-z
-x,y,-z
-x,-y,-z
1/2+x,y,-z
1/2-x,y,z
x,-y,z
loop_
_atom_site_type_symbol
_atom_site_label
_atom_site_fract_x
_atom_site_fract_y
_atom_site_fract_z
Si Si1 0.670318 0.828350 0.334061
Si Si2 0.300189 0.828189 0.429730
Si Si3 0.390663 0.323697 0.377830
Si Si4 0.604847 0.672771 0.048310
Si Si5 0.556547 0.324829 0.830463
Si Si6 0.700588 0.329729 0.133583
Si Si7 0.419285 0.324377 0.609806
Si Si8 0.963988 0.176457 0.205402
O O1 0.698112 0.804558 0.442744
O O2 0.701432 0.780129 0.235290
O O3 0.626992 0.719649 0.330590
O O4 0.654334 0.000000 0.321951
O O5 0.250000 0.774782 0.391458
O O6 0.339332 0.736608 0.369909
O O7 0.307857 0.000000 0.400129
O O8 0.386616 0.500000 0.377224
O O9 0.419211 0.265073 0.277048
O O10 0.416262 0.269402 0.486232
O O11 0.594172 0.500000 0.074524
O O12 0.658853 0.708621 0.053996
O O13 0.578679 0.773462 0.134072
O O14 0.589438 0.713734 0.928853
O O15 0.545834 0.500000 0.822937
O O16 0.509699 0.238041 0.848544
O O17 0.750000 0.308120 0.075810
O O18 0.695492 0.500000 0.174098
O O19 0.427845 0.500000 0.616964
O O20 0.459927 0.241949 0.673389
O O21 0.965912 0.000000 0.210891
#
# Coordination Sequence:
#
# PCOD8206941 Si02
#       8
#     8   8   8   8   8   8   8   8
#     4  10  18  30  50  79 113 147 181 224 276 328
#     4   9  18  32  51  77 111 150 188 226 276 334
#     4   9  20  37  57  82 111 145 189 237 278 325
#     4  10  21  39  61  82 112 150 186 229 279 331
#     4  10  22  41  61  81 108 148 192 234 283 334
#     4  10  20  33  52  80 112 147 185 223 271 332
#     4  10  19  34  56  82 115 149 179 221 279 335
#     4  12  24  37  58  88 115 143 183 233 283 336
#
# _framework density 19.483616000000001
#
# number of rings (size 3 to 8) (size 9 to 14) (size 15 to 20)
#    0.000    2.000    1.250    2.625    0.000    5.000 
#    0.000    3.125    0.000    2.250    0.000    0.000 
#    0.000    0.000    0.000    0.000    0.000    0.000 
#
# Total GULP energy -793580.561360 kJ/mol
# GULP energy per Si atom -12399.696271 kJ/mol
# Density = 1.943927 g / cm^3
# Si number density = 19.483616 Si / 1000 Ang^3
#
#
#
# Elastic Constant Matrix: (Units=GPa)
#
#
# Indices 1 2 3 4 5 6 
#
# 1 123.2780 32.4129 52.5907 0.0000 0.0000 0.0000
# 2 32.4129 61.0748 33.4246 0.0000 0.0000 0.0000
# 3 52.5907 33.4246 95.4491 0.0000 0.0000 0.0000
# 4 0.0000 0.0000 0.0000 15.3189 0.0000 0.0000
# 5 0.0000 0.0000 0.0000 0.0000 18.8381 0.0000
# 6 0.0000 0.0000 0.0000 0.0000 0.0000 15.7979
#
#
#
# Elastic Compliance Matrix: (Units=1/GPa)
#
#
# Indices 1 2 3 4 5 6 
#
# 1 0.011070 -0.003138 -0.005000 0.000000 0.000000 0.000000
# 2 -0.003138 0.021145 -0.005675 0.000000 0.000000 0.000000
# 3 -0.005000 -0.005675 0.015219 0.000000 0.000000 0.000000
# 4 0.000000 0.000000 0.000000 0.065279 0.000000 0.000000
# 5 0.000000 0.000000 0.000000 0.000000 0.053084 0.000000
# 6 0.000000 0.000000 0.000000 0.000000 0.000000 0.063300
#
#
# Mechanical properties :
#
#
# Convention : Reuss Voigt Hill
#
# Bulk Modulus (GPa) = 50.48980 57.40648 53.94814
# Shear Modulus (GPa) = 18.98779 20.74922 19.86851
#
# Velocity S-wave (km/s) = 3.12517 3.26691 3.19682
# Velocity P-wave (km/s) = 6.24439 6.61500 6.43237
#
# Compressibility (1/GPa) = 0.01980598
#
# Stress axis : x y z
#
# Youngs Moduli (GPa) = 90.33350 47.29265 65.70589
#
# Poissons Ratio (x) = 0.14842 0.32856
# Poissons Ratio (y) = 0.28350 0.37291
# Poissons Ratio (z) = 0.45170 0.26840
#
# Static dielectric constant tensor:
#      x y z
#    x 3.660290 0.000000 0.000000 
#    y 0.000000 3.433140 0.000000 
#    z 0.000000 0.000000 3.541710 
# 
# 
# High freq. dielectric constant tensor:
#      x y z
#    x 1.763540 0.000000 0.000000 
#    y 0.000000 1.750030 0.000000 
#    z 0.000000 0.000000 1.739800 
# 
# From -- ./inp_files/19501.got.cif
#   From: 2010.03.12/outbox.cif.g09.slc.cpg/sg51_10_cif.got.tgz:19501.got - 2010.04.16 13:43:02.
