data_PCOD8206031
_publ_section_title
;
Structure prediction by ZEFSAII (Michael W. Deem and Ramdas Pophale) SiO2 
 PCOD8206031
Probable space group: P M M A
;
_chemical_formula_sum "Si O2"
_cell_formula_units_Z 40
_cell_length_a 8.742531
_cell_length_b 26.169701
_cell_length_c 9.426545
_cell_angle_alpha 90.000000
_cell_angle_beta 90.000000
_cell_angle_gamma 90.000000
_cell_volume 2156.693784
_symmetry_space_group_name_H-M "P M M A"
_symmetry_group_IT_number 51
_symmetry_cell_setting 'orthorhombic'
loop_
_space_group_symop_operation_xyz
x,y,z
1/2-x,-y,z
1/2+x,-y,-z
-x,y,-z
-x,-y,-z
1/2+x,y,-z
1/2-x,y,z
x,-y,z
loop_
_atom_site_type_symbol
_atom_site_label
_atom_site_fract_x
_atom_site_fract_y
_atom_site_fract_z
Si Si1 0.930243 0.352667 0.653788
Si Si2 0.931358 0.257823 0.844806
Si Si3 0.069396 0.557502 0.148994
Si Si4 0.931437 0.154969 0.157368
Si Si5 0.071584 0.055427 0.154562
O O1 0.750000 0.353962 0.638684
O O2 0.983253 0.304418 0.746208
O O3 0.990427 0.404396 0.729191
O O4 0.000000 0.348340 0.500000
O O5 0.750000 0.252886 0.857588
O O6 0.000289 0.206350 0.772136
O O7 0.000000 0.267183 0.000000
O O8 0.250000 0.561027 0.133503
O O9 0.016190 0.500000 0.188260
O O10 0.000000 0.575201 0.000000
O O11 0.750000 0.157528 0.156708
O O12 0.988967 0.102835 0.236730
O O13 0.000000 0.153049 0.000000
O O14 0.250000 0.067969 0.140870
O O15 0.046042 0.000000 0.231321
O O16 0.000000 0.051245 0.000000
#
# Coordination Sequence:
#
# PCOD8206031 Si02
#       5
#     8   8   8   8   8
#     4  10  22  36  51  73 101 132 164 202 246 292
#     4  10  19  32  49  69  93 123 162 204 245 290
#     4   9  18  34  55  79 105 132 165 203 242 287
#     4  10  17  25  39  59  84 116 154 195 239 286
#     4   9  15  22  33  51  79 115 151 188 233 284
#
# _framework density 18.546907000000001
#
# number of rings (size 3 to 8) (size 9 to 14) (size 15 to 20)
#    0.000    2.400    0.000    6.000    0.000    4.000 
#    0.000    0.000    0.000    0.000    0.000    0.000 
#    0.000    0.800    0.000    2.600    0.000    9.800 
#
# Total GULP energy -495704.531910 kJ/mol
# GULP energy per Si atom -12392.613298 kJ/mol
# Density = 1.850469 g / cm^3
# Si number density = 18.546907 Si / 1000 Ang^3
#
#
#
# Elastic Constant Matrix: (Units=GPa)
#
#
# Indices 1 2 3 4 5 6 
#
# 1 86.3583 58.3543 29.1700 0.0000 0.0000 0.0000
# 2 58.3543 192.4242 70.6417 0.0000 0.0000 0.0000
# 3 29.1700 70.6417 77.2758 0.0000 0.0000 0.0000
# 4 0.0000 0.0000 0.0000 15.2742 0.0000 0.0000
# 5 0.0000 0.0000 0.0000 0.0000 21.5120 0.0000
# 6 0.0000 0.0000 0.0000 0.0000 0.0000 26.9045
#
#
#
# Elastic Compliance Matrix: (Units=1/GPa)
#
#
# Indices 1 2 3 4 5 6 
#
# 1 0.014816 -0.003672 -0.002236 0.000000 0.000000 0.000000
# 2 -0.003672 0.008732 -0.006596 0.000000 0.000000 0.000000
# 3 -0.002236 -0.006596 0.019815 0.000000 0.000000 0.000000
# 4 0.000000 0.000000 0.000000 0.065470 0.000000 0.000000
# 5 0.000000 0.000000 0.000000 0.000000 0.046486 0.000000
# 6 0.000000 0.000000 0.000000 0.000000 0.000000 0.037169
#
#
# Mechanical properties :
#
#
# Convention : Reuss Voigt Hill
#
# Bulk Modulus (GPa) = 54.48307 74.71001 64.59654
# Shear Modulus (GPa) = 22.35999 25.93097 24.14548
#
# Velocity S-wave (km/s) = 3.47593 3.74321 3.61204
# Velocity P-wave (km/s) = 6.74900 7.68448 7.23189
#
# Compressibility (1/GPa) = 0.01835432
#
# Stress axis : x y z
#
# Youngs Moduli (GPa) = 67.49288 114.51994 50.46805
#
# Poissons Ratio (x) = 0.42057 0.11283
# Poissons Ratio (y) = 0.24786 0.33290
# Poissons Ratio (z) = 0.15089 0.75540
#
# Static dielectric constant tensor:
#      x y z
#    x 3.431520 0.000000 0.000000 
#    y 0.000000 4.735500 0.000000 
#    z 0.000000 0.000000 2.779650 
# 
# 
# High freq. dielectric constant tensor:
#      x y z
#    x 1.726680 0.000000 0.000000 
#    y 0.000000 1.756380 0.000000 
#    z 0.000000 0.000000 1.648650 
# 
# From -- ./inp_files/5482.got.cif
#   From: 2010.03.12/outbox.cif.g09.slc.cpg/sg51_3_cif.got.tgz:5482.got - 2010.04.16 13:43:02.
