data_PCOD8206460
_publ_section_title
;
Structure prediction by ZEFSAII (Michael W. Deem and Ramdas Pophale) SiO2 
 PCOD8206460
Probable space group: P M M A
;
_chemical_formula_sum "Si O2"
_cell_formula_units_Z 56
_cell_length_a 33.491278
_cell_length_b 13.663552
_cell_length_c 7.896800
_cell_angle_alpha 90.000000
_cell_angle_beta 90.000000
_cell_angle_gamma 90.000000
_cell_volume 3613.653215
_symmetry_space_group_name_H-M "P M M A"
_symmetry_group_IT_number 51
_symmetry_cell_setting 'orthorhombic'
loop_
_space_group_symop_operation_xyz
x,y,z
1/2-x,-y,z
1/2+x,-y,-z
-x,y,-z
-x,-y,-z
1/2+x,y,-z
1/2-x,y,z
x,-y,z
loop_
_atom_site_type_symbol
_atom_site_label
_atom_site_fract_x
_atom_site_fract_y
_atom_site_fract_z
Si Si1 0.146898 0.116216 0.757682
Si Si2 0.010153 0.752303 0.181023
Si Si3 0.455558 0.608128 0.431868
Si Si4 0.574163 0.114566 0.727145
Si Si5 0.157187 0.115356 0.138043
Si Si6 0.794419 0.116169 0.545119
Si Si7 0.929118 0.781447 0.376425
O O1 0.177377 0.149201 0.610521
O O2 0.107284 0.183270 0.741359
O O3 0.136401 0.000000 0.745534
O O4 0.166373 0.141502 0.941351
O O5 0.039065 0.670628 0.262127
O O6 0.036992 0.849273 0.161159
O O7 0.971032 0.785788 0.280545
O O8 0.000000 0.708010 0.000000
O O9 0.500000 0.596559 0.500000
O O10 0.437066 0.500000 0.399678
O O11 0.425877 0.668299 0.557940
O O12 0.614646 0.159468 0.805909
O O13 0.568686 0.144946 0.533033
O O14 0.575827 0.000000 0.738166
O O15 0.189728 0.156544 0.272846
O O16 0.156362 0.000000 0.159769
O O17 0.750000 0.159177 0.516431
O O18 0.792842 0.000000 0.547425
#
# Coordination Sequence:
#
# PCOD8206460 Si02
#       7
#     8   8   8   8   8   8   8
#     4  10  18  28  44  65  90 120 150 181 221 260
#     4  10  20  29  40  63  87 113 152 188 223 265
#     4   8  16  31  47  61  80 110 146 183 225 265
#     4  10  18  29  42  57  84 119 152 185 220 258
#     4   9  17  28  42  60  84 118 153 184 217 253
#     4   9  17  29  43  60  85 118 153 184 216 257
#     4  10  18  29  45  62  83 115 150 182 221 266
#
# _framework density 15.496783000000001
#
# number of rings (size 3 to 8) (size 9 to 14) (size 15 to 20)
#    0.000    2.571    1.429    2.571    0.000    2.857 
#    0.000    2.857    0.000    0.000    0.000    0.000 
#    0.000    0.571    0.000    0.143    0.000    0.000 
#
# Total GULP energy -693791.342763 kJ/mol
# GULP energy per Si atom -12389.131121 kJ/mol
# Density = 1.546151 g / cm^3
# Si number density = 15.496783 Si / 1000 Ang^3
#
#
#
# Elastic Constant Matrix: (Units=GPa)
#
#
# Indices 1 2 3 4 5 6 
#
# 1 90.3786 27.1192 37.3753 0.0000 0.0000 0.0000
# 2 27.1192 51.3099 19.2332 0.0000 0.0000 0.0000
# 3 37.3753 19.2332 102.0819 0.0000 0.0000 0.0000
# 4 0.0000 0.0000 0.0000 8.0160 0.0000 0.0000
# 5 0.0000 0.0000 0.0000 0.0000 17.8261 0.0000
# 6 0.0000 0.0000 0.0000 0.0000 0.0000 4.1815
#
#
#
# Elastic Compliance Matrix: (Units=1/GPa)
#
#
# Indices 1 2 3 4 5 6 
#
# 1 0.014654 -0.006170 -0.004203 0.000000 0.000000 0.000000
# 2 -0.006170 0.023568 -0.002182 0.000000 0.000000 0.000000
# 3 -0.004203 -0.002182 0.011746 0.000000 0.000000 0.000000
# 4 0.000000 0.000000 0.000000 0.124750 0.000000 0.000000
# 5 0.000000 0.000000 0.000000 0.000000 0.056097 0.000000
# 6 0.000000 0.000000 0.000000 0.000000 0.000000 0.239148
#
#
# Mechanical properties :
#
#
# Convention : Reuss Voigt Hill
#
# Bulk Modulus (GPa) = 40.22573 45.69175 42.95874
# Shear Modulus (GPa) = 9.93329 16.67425 13.30377
#
# Velocity S-wave (km/s) = 2.53453 3.28377 2.93317
# Velocity P-wave (km/s) = 5.88038 6.62769 6.26519
#
# Compressibility (1/GPa) = 0.02485971
#
# Stress axis : x y z
#
# Youngs Moduli (GPa) = 68.24121 42.43025 85.13653
#
# Poissons Ratio (x) = 0.26178 0.35781
# Poissons Ratio (y) = 0.42103 0.18573
# Poissons Ratio (z) = 0.28680 0.09256
#
# Static dielectric constant tensor:
#      x y z
#    x 3.115790 0.000000 0.000000 
#    y 0.000000 2.830620 0.000000 
#    z 0.000000 0.000000 3.175980 
# 
# 
# High freq. dielectric constant tensor:
#      x y z
#    x 1.580310 0.000000 0.000000 
#    y 0.000000 1.543910 0.000000 
#    z 0.000000 0.000000 1.606580 
# 
# From -- ./inp_files/13223.got.cif
#   From: 2010.03.12/outbox.cif.g09.slc.cpg/sg51_7_cif.got.tgz:13223.got - 2010.04.16 13:43:02.
