data_PCOD8206240
_publ_section_title
;
Structure prediction by ZEFSAII (Michael W. Deem and Ramdas Pophale) SiO2 
 PCOD8206240
Probable space group: P M M A
;
_chemical_formula_sum "Si O2"
_cell_formula_units_Z 64
_cell_length_a 22.175407
_cell_length_b 9.027448
_cell_length_c 20.277967
_cell_angle_alpha 90.000000
_cell_angle_beta 90.000000
_cell_angle_gamma 90.000000
_cell_volume 4059.392144
_symmetry_space_group_name_H-M "P M M A"
_symmetry_group_IT_number 51
_symmetry_cell_setting 'orthorhombic'
loop_
_space_group_symop_operation_xyz
x,y,z
1/2-x,-y,z
1/2+x,-y,-z
-x,y,-z
-x,-y,-z
1/2+x,y,-z
1/2-x,y,z
x,-y,z
loop_
_atom_site_type_symbol
_atom_site_label
_atom_site_fract_x
_atom_site_fract_y
_atom_site_fract_z
Si Si1 0.680551 0.673679 0.141871
Si Si2 0.608694 0.174080 0.255332
Si Si3 0.529327 0.173835 0.769995
Si Si4 0.929029 0.832570 0.513070
Si Si5 0.414695 0.325515 0.961697
Si Si6 0.539585 0.324540 0.902212
Si Si7 0.051171 0.332895 0.359644
Si Si8 0.409682 0.667114 0.614296
O O1 0.750000 0.711878 0.130191
O O2 0.669814 0.500000 0.154768
O O3 0.656919 0.762651 0.204422
O O4 0.645459 0.727552 0.075923
O O5 0.541508 0.214560 0.231255
O O6 0.622530 0.247367 0.325954
O O7 0.617516 0.000000 0.262534
O O8 0.558943 0.239744 0.836122
O O9 0.563606 0.247142 0.708351
O O10 0.540238 0.000000 0.766622
O O11 0.913810 0.749621 0.581368
O O12 0.894225 0.749515 0.454004
O O13 0.000000 0.831464 0.500000
O O14 0.904860 0.000000 0.517497
O O15 0.420572 0.500000 0.961688
O O16 0.473204 0.266453 0.922816
O O17 0.414949 0.275787 0.038537
O O18 0.541068 0.500000 0.888805
O O19 0.075761 0.500000 0.353834
O O20 0.980784 0.332599 0.374997
O O21 0.384663 0.500000 0.611031
#
# Coordination Sequence:
#
# PCOD8206240 Si02
#       8
#     8   8   8   8   8   8   8   8
#     4  10  19  31  47  63  80 104 136 174 211 251
#     4  10  19  29  40  56  79 105 134 170 210 250
#     4  10  18  26  37  57  81 105 134 171 210 245
#     4   9  15  23  34  50  74 102 132 167 203 236
#     4   8  15  27  43  62  79 100 133 168 207 251
#     4   9  15  26  44  59  77 105 134 168 205 249
#     4   9  16  24  35  51  73 104 138 167 198 239
#     4   9  16  25  38  53  71  99 136 173 201 234
#
# _framework density 15.765908
#
# number of rings (size 3 to 8) (size 9 to 14) (size 15 to 20)
#    0.000    2.750    1.250    2.625    0.000    5.750 
#    0.000    1.875    0.000    0.000    0.000    0.000 
#    0.000    0.000    0.000    1.125    0.000   20.875 
#
# Total GULP energy -793406.758181 kJ/mol
# GULP energy per Si atom -12396.980597 kJ/mol
# Density = 1.573002 g / cm^3
# Si number density = 15.765908 Si / 1000 Ang^3
#
#
#
# Elastic Constant Matrix: (Units=GPa)
#
#
# Indices 1 2 3 4 5 6 
#
# 1 38.5991 23.3032 37.1602 0.0000 0.0000 0.0000
# 2 23.3032 97.3325 70.4407 0.0000 0.0000 0.0000
# 3 37.1602 70.4407 170.3565 0.0000 0.0000 0.0000
# 4 0.0000 0.0000 0.0000 18.2755 0.0000 0.0000
# 5 0.0000 0.0000 0.0000 0.0000 12.2879 0.0000
# 6 0.0000 0.0000 0.0000 0.0000 0.0000 9.8832
#
#
#
# Elastic Compliance Matrix: (Units=1/GPa)
#
#
# Indices 1 2 3 4 5 6 
#
# 1 0.033819 -0.003936 -0.005750 0.000000 0.000000 0.000000
# 2 -0.003936 0.015120 -0.005393 0.000000 0.000000 0.000000
# 3 -0.005750 -0.005393 0.009354 0.000000 0.000000 0.000000
# 4 0.000000 0.000000 0.000000 0.054718 0.000000 0.000000
# 5 0.000000 0.000000 0.000000 0.000000 0.081381 0.000000
# 6 0.000000 0.000000 0.000000 0.000000 0.000000 0.101182
#
#
# Mechanical properties :
#
#
# Convention : Reuss Voigt Hill
#
# Bulk Modulus (GPa) = 35.54253 63.12180 49.33217
# Shear Modulus (GPa) = 14.92053 19.78159 17.35106
#
# Velocity S-wave (km/s) = 3.07967 3.54603 3.32104
# Velocity P-wave (km/s) = 5.93621 7.54252 6.78705
#
# Compressibility (1/GPa) = 0.02813530
#
# Stress axis : x y z
#
# Youngs Moduli (GPa) = 29.56941 66.13963 106.90334
#
# Poissons Ratio (x) = 0.26032 0.61464
# Poissons Ratio (y) = 0.11638 0.57655
# Poissons Ratio (z) = 0.17001 0.35671
#
# Static dielectric constant tensor:
#      x y z
#    x 2.475040 0.000000 0.000000 
#    y 0.000000 2.992460 0.000000 
#    z 0.000000 0.000000 3.282090 
# 
# 
# High freq. dielectric constant tensor:
#      x y z
#    x 1.521870 0.000000 0.000000 
#    y 0.000000 1.607730 0.000000 
#    z 0.000000 0.000000 1.622920 
# 
# From -- ./inp_files/30857.got.cif
#   From: 2010.03.12/outbox.cif.g09.slc.cpg/sg51_16_cif.got.tgz:30857.got - 2010.04.16 13:43:02.
