data_PCOD8206620
_publ_section_title
;
Structure prediction by ZEFSAII (Michael W. Deem and Ramdas Pophale) SiO2 
 PCOD8206620
Probable space group: P M M A
;
_chemical_formula_sum "Si O2"
_cell_formula_units_Z 64
_cell_length_a 9.105427
_cell_length_b 14.110297
_cell_length_c 31.228708
_cell_angle_alpha 90.000000
_cell_angle_beta 90.000000
_cell_angle_gamma 90.000000
_cell_volume 4012.273125
_symmetry_space_group_name_H-M "P M M A"
_symmetry_group_IT_number 51
_symmetry_cell_setting 'orthorhombic'
loop_
_space_group_symop_operation_xyz
x,y,z
1/2-x,-y,z
1/2+x,-y,-z
-x,y,-z
-x,-y,-z
1/2+x,y,-z
1/2-x,y,z
x,-y,z
loop_
_atom_site_type_symbol
_atom_site_label
_atom_site_fract_x
_atom_site_fract_y
_atom_site_fract_z
Si Si1 0.580237 0.107706 0.247798
Si Si2 0.925303 0.394482 0.633336
Si Si3 0.421702 0.726605 0.287110
Si Si4 0.580396 0.610169 0.797875
Si Si5 0.922050 0.608278 0.042351
Si Si6 0.912304 0.387107 0.540011
Si Si7 0.578473 0.107539 0.841469
Si Si8 0.924076 0.718608 0.126604
O O1 0.750000 0.131535 0.238647
O O2 0.513948 0.176529 0.283684
O O3 0.488795 0.125909 0.204954
O O4 0.561365 0.000000 0.263846
O O5 0.750000 0.398594 0.632662
O O6 0.986076 0.500000 0.643220
O O7 0.980891 0.323679 0.669968
O O8 0.981556 0.359414 0.586412
O O9 0.250000 0.751269 0.290181
O O10 0.454675 0.657351 0.247575
O O11 0.750000 0.625231 0.810627
O O12 0.540368 0.500000 0.794332
O O13 0.479083 0.657386 0.833529
O O14 0.750000 0.616939 0.035061
O O15 0.970113 0.500000 0.050628
O O16 0.974219 0.668280 0.083011
O O17 0.000000 0.648971 0.000000
O O18 0.750000 0.344244 0.536418
O O19 0.907618 0.500000 0.536953
O O20 0.000000 0.343029 0.500000
O O21 0.750000 0.131725 0.838901
O O22 0.498248 0.177592 0.874431
O O23 0.550936 0.000000 0.856885
O O24 0.750000 0.728973 0.129711
#
# Coordination Sequence:
#
# PCOD8206620 Si02
#       8
#     8   8   8   8   8   8   8   8
#     4  10  20  33  48  66  90 120 152 189 235 280
#     4   8  14  25  41  61  87 121 156 188 225 269
#     4  10  18  29  46  66  90 121 157 193 225 266
#     4  10  20  31  44  66  95 127 161 192 222 262
#     4   9  19  35  53  74  99 127 157 189 227 270
#     4   8  13  22  37  56  79 110 149 190 228 264
#     4  10  20  34  52  73  95 120 155 196 233 273
#     4  11  21  33  51  74 100 126 154 191 235 279
#
# _framework density 15.951057
#
# number of rings (size 3 to 8) (size 9 to 14) (size 15 to 20)
#    0.000    2.500    1.250    2.625    0.000    4.750 
#    0.000    1.875    0.000    2.250    0.000    0.000 
#    0.000    0.500    0.000    1.125    0.000    2.000 
#
# Total GULP energy -793486.832310 kJ/mol
# GULP energy per Si atom -12398.231755 kJ/mol
# Density = 1.591475 g / cm^3
# Si number density = 15.951057 Si / 1000 Ang^3
#
#
#
# Elastic Constant Matrix: (Units=GPa)
#
#
# Indices 1 2 3 4 5 6 
#
# 1 65.4614 42.0464 49.5794 0.0000 0.0000 0.0000
# 2 42.0464 96.3170 59.6657 0.0000 0.0000 0.0000
# 3 49.5794 59.6657 131.3952 0.0000 0.0000 0.0000
# 4 0.0000 0.0000 0.0000 12.1007 0.0000 0.0000
# 5 0.0000 0.0000 0.0000 0.0000 23.6651 0.0000
# 6 0.0000 0.0000 0.0000 0.0000 0.0000 24.1786
#
#
#
# Elastic Compliance Matrix: (Units=1/GPa)
#
#
# Indices 1 2 3 4 5 6 
#
# 1 0.024247 -0.006842 -0.006042 0.000000 0.000000 0.000000
# 2 -0.006842 0.016377 -0.004855 0.000000 0.000000 0.000000
# 3 -0.006042 -0.004855 0.012095 0.000000 0.000000 0.000000
# 4 0.000000 0.000000 0.000000 0.082640 0.000000 0.000000
# 5 0.000000 0.000000 0.000000 0.000000 0.042256 0.000000
# 6 0.000000 0.000000 0.000000 0.000000 0.000000 0.041359
#
#
# Mechanical properties :
#
#
# Convention : Reuss Voigt Hill
#
# Bulk Modulus (GPa) = 58.00204 66.19517 62.09860
# Shear Modulus (GPa) = 19.21609 21.44770 20.33189
#
# Velocity S-wave (km/s) = 3.47463 3.67085 3.57409
# Velocity P-wave (km/s) = 7.24837 7.71724 7.48648
#
# Compressibility (1/GPa) = 0.01724077
#
# Stress axis : x y z
#
# Youngs Moduli (GPa) = 41.24207 61.06281 82.67771
#
# Poissons Ratio (x) = 0.41778 0.49957
# Poissons Ratio (y) = 0.28217 0.40139
# Poissons Ratio (z) = 0.24920 0.29645
#
# Static dielectric constant tensor:
#      x y z
#    x 2.997350 0.000000 0.000000 
#    y 0.000000 3.048080 0.000000 
#    z 0.000000 0.000000 3.134250 
# 
# 
# High freq. dielectric constant tensor:
#      x y z
#    x 1.606910 0.000000 0.000000 
#    y 0.000000 1.595690 0.000000 
#    z 0.000000 0.000000 1.602610 
# 
# From -- ./inp_files/37667.got.cif
#   From: 2010.03.12/outbox.cif.g09.slc.cpg/sg51_19_cif.got.tgz:37667.got - 2010.04.16 13:43:02.
