data_PCOD8206953
_publ_section_title
;
Structure prediction by ZEFSAII (Michael W. Deem and Ramdas Pophale) SiO2 
 PCOD8206953
Probable space group: P M M A
;
_chemical_formula_sum "Si O2"
_cell_formula_units_Z 48
_cell_length_a 19.177839
_cell_length_b 9.825932
_cell_length_c 13.731920
_cell_angle_alpha 90.000000
_cell_angle_beta 90.000000
_cell_angle_gamma 90.000000
_cell_volume 2587.644954
_symmetry_space_group_name_H-M "P M M A"
_symmetry_group_IT_number 51
_symmetry_cell_setting 'orthorhombic'
loop_
_space_group_symop_operation_xyz
x,y,z
1/2-x,-y,z
1/2+x,-y,-z
-x,y,-z
-x,-y,-z
1/2+x,y,-z
1/2-x,y,z
x,-y,z
loop_
_atom_site_type_symbol
_atom_site_label
_atom_site_fract_x
_atom_site_fract_y
_atom_site_fract_z
Si Si1 0.444324 0.660825 0.581050
Si Si2 0.329721 0.846886 0.503197
Si Si3 0.170076 0.848319 0.277063
Si Si4 0.670943 0.662261 0.068705
Si Si5 0.549362 0.340681 0.200354
Si Si6 0.097414 0.340293 0.128408
O O1 0.500000 0.709258 0.500000
O O2 0.431985 0.500000 0.573710
O O3 0.371900 0.736012 0.563323
O O4 0.467497 0.708234 0.689531
O O5 0.250000 0.832065 0.535646
O O6 0.338345 0.814839 0.389953
O O7 0.356229 0.000000 0.525913
O O8 0.250000 0.839863 0.245050
O O9 0.128190 0.734308 0.221140
O O10 0.141352 0.000000 0.253956
O O11 0.750000 0.720285 0.078614
O O12 0.673027 0.500000 0.069069
O O13 0.621641 0.720123 0.155822
O O14 0.635327 0.713076 0.968576
O O15 0.560712 0.500000 0.203909
O O16 0.485268 0.306019 0.127811
O O17 0.110011 0.500000 0.143446
#
# Coordination Sequence:
#
# PCOD8206953 Si02
#       6
#     8   8   8   8   8   8
#     4  10  20  33  50  75 104 133 169 211 252 297
#     4   9  19  35  52  71  98 133 172 211 252 302
#     4   9  18  32  49  71 101 134 164 199 250 304
#     4   9  17  29  47  73 101 129 165 203 240 292
#     4   9  18  31  47  70 103 135 159 197 254 301
#     4  10  18  30  51  76  99 125 162 207 247 286
#
# _framework density 18.549686999999999
#
# number of rings (size 3 to 8) (size 9 to 14) (size 15 to 20)
#    0.000    2.667    0.000    3.000    0.000    6.333 
#    0.000    4.167    0.000    3.000    0.000    2.333 
#    0.000    0.000    0.000    0.000    0.000    0.000 
#
# Total GULP energy -594936.652494 kJ/mol
# GULP energy per Si atom -12394.513594 kJ/mol
# Density = 1.850747 g / cm^3
# Si number density = 18.549687 Si / 1000 Ang^3
#
#
#
# Elastic Constant Matrix: (Units=GPa)
#
#
# Indices 1 2 3 4 5 6 
#
# 1 116.9302 23.5815 62.7226 0.0000 0.0000 0.0000
# 2 23.5815 31.0383 20.6794 0.0000 0.0000 0.0000
# 3 62.7226 20.6794 88.3158 0.0000 0.0000 0.0000
# 4 0.0000 0.0000 0.0000 14.3926 0.0000 0.0000
# 5 0.0000 0.0000 0.0000 0.0000 37.3282 0.0000
# 6 0.0000 0.0000 0.0000 0.0000 0.0000 21.7492
#
#
#
# Elastic Compliance Matrix: (Units=1/GPa)
#
#
# Indices 1 2 3 4 5 6 
#
# 1 0.014417 -0.004895 -0.009093 0.000000 0.000000 0.000000
# 2 -0.004895 0.039836 -0.005851 0.000000 0.000000 0.000000
# 3 -0.009093 -0.005851 0.019151 0.000000 0.000000 0.000000
# 4 0.000000 0.000000 0.000000 0.069480 0.000000 0.000000
# 5 0.000000 0.000000 0.000000 0.000000 0.026789 0.000000
# 6 0.000000 0.000000 0.000000 0.000000 0.000000 0.045979
#
#
# Mechanical properties :
#
#
# Convention : Reuss Voigt Hill
#
# Bulk Modulus (GPa) = 29.65126 50.02792 39.83959
# Shear Modulus (GPa) = 18.75673 23.31406 21.03539
#
# Velocity S-wave (km/s) = 3.18333 3.54905 3.37115
# Velocity P-wave (km/s) = 5.43423 6.61986 6.05613
#
# Compressibility (1/GPa) = 0.03372538
#
# Stress axis : x y z
#
# Youngs Moduli (GPa) = 69.36386 25.10314 52.21728
#
# Poissons Ratio (x) = 0.12288 0.47479
# Poissons Ratio (y) = 0.33954 0.30553
# Poissons Ratio (z) = 0.63070 0.14688
#
# Static dielectric constant tensor:
#      x y z
#    x 3.623410 0.000000 0.000000 
#    y 0.000000 3.012940 0.000000 
#    z 0.000000 0.000000 3.535220 
# 
# 
# High freq. dielectric constant tensor:
#      x y z
#    x 1.727670 0.000000 0.000000 
#    y 0.000000 1.676520 0.000000 
#    z 0.000000 0.000000 1.720540 
# 
# From -- ./inp_files/24732.got.cif
#   From: 2010.03.12/outbox.cif.g09.slc.cpg/sg51_13_cif.got.tgz:24732.got - 2010.04.16 13:43:02.
