data_PCOD8206160
_publ_section_title
;
Structure prediction by ZEFSAII (Michael W. Deem and Ramdas Pophale) SiO2 
 PCOD8206160
Probable space group: P M M A
;
_chemical_formula_sum "Si O2"
_cell_formula_units_Z 64
_cell_length_a 22.965768
_cell_length_b 9.303573
_cell_length_c 19.118017
_cell_angle_alpha 90.000000
_cell_angle_beta 90.000000
_cell_angle_gamma 90.000000
_cell_volume 4084.826231
_symmetry_space_group_name_H-M "P M M A"
_symmetry_group_IT_number 51
_symmetry_cell_setting 'orthorhombic'
loop_
_space_group_symop_operation_xyz
x,y,z
1/2-x,-y,z
1/2+x,-y,-z
-x,y,-z
-x,-y,-z
1/2+x,y,-z
1/2-x,y,z
x,-y,z
loop_
_atom_site_type_symbol
_atom_site_label
_atom_site_fract_x
_atom_site_fract_y
_atom_site_fract_z
Si Si1 0.681776 0.832096 0.885614
Si Si2 0.367821 0.331878 0.246671
Si Si3 0.909616 0.167591 0.525550
Si Si4 0.003488 0.332336 0.744158
Si Si5 0.816799 0.667504 0.605398
Si Si6 0.522330 0.330498 0.103673
Si Si7 0.977416 0.832605 0.390484
Si Si8 0.092856 0.329523 0.026366
O O1 0.750000 0.806272 0.895515
O O2 0.660886 0.759769 0.814250
O O3 0.650196 0.757202 0.951568
O O4 0.666209 0.000000 0.883528
O O5 0.357745 0.500000 0.230471
O O6 0.435512 0.294996 0.253134
O O7 0.337126 0.282772 0.318074
O O8 0.851505 0.252155 0.544496
O O9 0.925669 0.200770 0.445023
O O10 0.961851 0.219625 0.575843
O O11 0.898578 0.000000 0.536390
O O12 0.013859 0.500000 0.732328
O O13 0.032544 0.277380 0.816897
O O14 0.035109 0.251120 0.680992
O O15 0.750000 0.708993 0.595771
O O16 0.828536 0.500000 0.596079
O O17 0.516026 0.500000 0.102586
O O18 0.460217 0.274672 0.075199
O O19 0.576052 0.286163 0.053593
O O20 0.980388 0.000000 0.373383
O O21 0.104112 0.500000 0.033845
#
# Coordination Sequence:
#
# PCOD8206160 Si02
#       8
#     8   8   8   8   8   8   8   8
#     4  11  23  34  44  64  95 127 160 197 230 263
#     4  10  19  32  48  66  92 128 163 189 220 269
#     4   9  18  32  47  64  90 124 159 191 226 272
#     4  10  17  28  48  73  95 120 152 187 229 275
#     4  10  20  32  46  67  94 122 157 198 231 263
#     4   8  15  28  48  71  93 116 149 190 231 272
#     4   9  18  31  46  66  93 123 154 190 230 273
#     4   9  16  31  51  67  88 121 155 190 228 271
#
# _framework density 15.667742000000001
#
# number of rings (size 3 to 8) (size 9 to 14) (size 15 to 20)
#    0.000    2.500    2.500    2.250    0.000    3.250 
#    0.000    3.125    0.000    0.000    0.000    0.875 
#    0.000    1.000    0.000    0.000    0.000    0.000 
#
# Total GULP energy -793474.810723 kJ/mol
# GULP energy per Si atom -12398.043918 kJ/mol
# Density = 1.563208 g / cm^3
# Si number density = 15.667742 Si / 1000 Ang^3
#
#
#
# Elastic Constant Matrix: (Units=GPa)
#
#
# Indices 1 2 3 4 5 6 
#
# 1 76.3717 43.2412 59.1177 0.0000 0.0000 0.0000
# 2 43.2412 53.1942 51.4585 0.0000 0.0000 0.0000
# 3 59.1177 51.4585 137.6570 0.0000 0.0000 0.0000
# 4 0.0000 0.0000 0.0000 14.1166 0.0000 0.0000
# 5 0.0000 0.0000 0.0000 0.0000 21.5382 0.0000
# 6 0.0000 0.0000 0.0000 0.0000 0.0000 24.2134
#
#
#
# Elastic Compliance Matrix: (Units=1/GPa)
#
#
# Indices 1 2 3 4 5 6 
#
# 1 0.026441 -0.016462 -0.005201 0.000000 0.000000 0.000000
# 2 -0.016462 0.039697 -0.007770 0.000000 0.000000 0.000000
# 3 -0.005201 -0.007770 0.012403 0.000000 0.000000 0.000000
# 4 0.000000 0.000000 0.000000 0.070839 0.000000 0.000000
# 5 0.000000 0.000000 0.000000 0.000000 0.046429 0.000000
# 6 0.000000 0.000000 0.000000 0.000000 0.000000 0.041299
#
#
# Mechanical properties :
#
#
# Convention : Reuss Voigt Hill
#
# Bulk Modulus (GPa) = 50.82748 63.87308 57.35028
# Shear Modulus (GPa) = 16.52718 19.53400 18.03059
#
# Velocity S-wave (km/s) = 3.25138 3.53479 3.39604
# Velocity P-wave (km/s) = 6.82690 7.58389 7.21533
#
# Compressibility (1/GPa) = 0.01967440
#
# Stress axis : x y z
#
# Youngs Moduli (GPa) = 37.82041 25.19082 80.62752
#
# Poissons Ratio (x) = 0.41469 0.41938
# Poissons Ratio (y) = 0.62259 0.62646
# Poissons Ratio (z) = 0.19672 0.19573
#
# Static dielectric constant tensor:
#      x y z
#    x 2.835730 0.000000 0.000000 
#    y 0.000000 2.827980 0.000000 
#    z 0.000000 0.000000 3.287090 
# 
# 
# High freq. dielectric constant tensor:
#      x y z
#    x 1.574860 0.000000 0.000000 
#    y 0.000000 1.589250 0.000000 
#    z 0.000000 0.000000 1.602910 
# 
# From -- ./inp_files/30898.got.cif
#   From: 2010.03.12/outbox.cif.g09.slc.cpg/sg51_16_cif.got.tgz:30898.got - 2010.04.16 13:43:02.
