data_PCOD8206655
_publ_section_title
;
Structure prediction by ZEFSAII (Michael W. Deem and Ramdas Pophale) SiO2 
 PCOD8206655
Probable space group: P M M A
;
_chemical_formula_sum "Si O2"
_cell_formula_units_Z 56
_cell_length_a 28.675638
_cell_length_b 9.536819
_cell_length_c 12.812957
_cell_angle_alpha 90.000000
_cell_angle_beta 90.000000
_cell_angle_gamma 90.000000
_cell_volume 3504.015335
_symmetry_space_group_name_H-M "P M M A"
_symmetry_group_IT_number 51
_symmetry_cell_setting 'orthorhombic'
loop_
_space_group_symop_operation_xyz
x,y,z
1/2-x,-y,z
1/2+x,-y,-z
-x,y,-z
-x,-y,-z
1/2+x,y,-z
1/2-x,y,z
x,-y,z
loop_
_atom_site_type_symbol
_atom_site_label
_atom_site_fract_x
_atom_site_fract_y
_atom_site_fract_z
Si Si1 0.698113 0.660462 0.892820
Si Si2 0.055868 0.166070 0.386615
Si Si3 0.602580 0.164024 0.181054
Si Si4 0.801479 0.839008 0.095084
Si Si5 0.049350 0.834229 0.618832
Si Si6 0.894948 0.661662 0.785914
Si Si7 0.554482 0.337256 0.999459
O O1 0.750000 0.694367 0.849075
O O2 0.694208 0.500000 0.929541
O O3 0.659955 0.691426 0.804277
O O4 0.686248 0.751099 0.993384
O O5 0.066653 0.216666 0.505108
O O6 0.091531 0.243205 0.311247
O O7 0.003424 0.214758 0.357968
O O8 0.062194 0.000000 0.373589
O O9 0.658529 0.189912 0.181050
O O10 0.583214 0.224068 0.290738
O O11 0.578786 0.244685 0.086791
O O12 0.590554 0.000000 0.168516
O O13 0.750000 0.799169 0.139939
O O14 0.802485 0.000000 0.059910
O O15 0.049766 0.000000 0.616533
O O16 0.904272 0.500000 0.757793
O O17 0.924608 0.705014 0.887489
O O18 0.564356 0.500000 0.023947
O O19 0.500000 0.302862 0.000000
#
# Coordination Sequence:
#
# PCOD8206655 Si02
#       7
#     8   8   8   8   8   8   8
#     4   9  17  30  47  64  86 120 155 184 219 268
#     4   9  17  31  50  66  86 119 157 191 223 261
#     4  10  18  29  47  67  89 117 150 186 223 270
#     4   9  17  28  43  66  92 115 144 185 227 265
#     4   8  16  31  48  67  88 116 156 194 222 259
#     4  10  19  30  44  66  94 118 146 185 226 270
#     4  10  20  31  42  63  97 126 144 176 227 273
#
# _framework density 15.981666000000001
#
# number of rings (size 3 to 8) (size 9 to 14) (size 15 to 20)
#    0.000    2.714    1.429    1.714    0.000    1.429 
#    0.000    2.143    0.000    0.857    0.000    2.000 
#    0.000    0.000    0.000    0.000    0.000    0.000 
#
# Total GULP energy -694172.236608 kJ/mol
# GULP energy per Si atom -12395.932797 kJ/mol
# Density = 1.594529 g / cm^3
# Si number density = 15.981666 Si / 1000 Ang^3
#
#
#
# Elastic Constant Matrix: (Units=GPa)
#
#
# Indices 1 2 3 4 5 6 
#
# 1 115.9590 37.3650 68.3820 0.0000 0.0000 0.0000
# 2 37.3650 40.5663 40.3229 0.0000 0.0000 0.0000
# 3 68.3820 40.3229 107.2013 0.0000 0.0000 0.0000
# 4 0.0000 0.0000 0.0000 -2.2023 0.0000 0.0000
# 5 0.0000 0.0000 0.0000 0.0000 19.8751 0.0000
# 6 0.0000 0.0000 0.0000 0.0000 0.0000 18.1094
#
#
#
# Elastic Compliance Matrix: (Units=1/GPa)
#
#
# Indices 1 2 3 4 5 6 
#
# 1 0.014925 -0.006842 -0.006947 0.000000 0.000000 0.000000
# 2 -0.006842 0.042508 -0.011625 0.000000 0.000000 0.000000
# 3 -0.006947 -0.011625 0.018132 0.000000 0.000000 0.000000
# 4 0.000000 0.000000 0.000000 -0.454073 0.000000 0.000000
# 5 0.000000 0.000000 0.000000 0.000000 0.050314 0.000000
# 6 0.000000 0.000000 0.000000 0.000000 0.000000 0.055220
#
#
# Mechanical properties :
#
#
# Convention : Reuss Voigt Hill
#
# Bulk Modulus (GPa) = 40.42363 61.76295 51.09329
# Shear Modulus (GPa) = -23.37531 15.00022 -4.18755
#
# Velocity S-wave (km/s) = -3.82859 3.06696 -1.62047
# Velocity P-wave (km/s) = 2.40926 7.16043 5.34211
#
# Compressibility (1/GPa) = 0.02473801
#
# Stress axis : x y z
#
# Youngs Moduli (GPa) = 67.00133 23.52502 55.15099
#
# Poissons Ratio (x) = 0.16096 0.38313
# Poissons Ratio (y) = 0.45843 0.64111
# Poissons Ratio (z) = 0.46545 0.27347
#
# Static dielectric constant tensor:
#      x y z
#    x 3.389930 0.000000 0.000000 
#    y 0.000000 2.913480 0.000000 
#    z 0.000000 0.000000 3.050750 
# 
# 
# High freq. dielectric constant tensor:
#      x y z
#    x 1.622590 0.000000 0.000000 
#    y 0.000000 1.602540 0.000000 
#    z 0.000000 0.000000 1.593310 
# 
# From -- ./inp_files/19165.got.cif
#   From: 2010.03.12/outbox.cif.g09.slc.cpg/sg51_10_cif.got.tgz:19165.got - 2010.04.16 13:43:02.
