data_PCOD8206241
_publ_section_title
;
Structure prediction by ZEFSAII (Michael W. Deem and Ramdas Pophale) SiO2 
 PCOD8206241
Probable space group: P M M A
;
_chemical_formula_sum "Si O2"
_cell_formula_units_Z 64
_cell_length_a 9.347388
_cell_length_b 21.896898
_cell_length_c 21.057365
_cell_angle_alpha 90.000000
_cell_angle_beta 90.000000
_cell_angle_gamma 90.000000
_cell_volume 4309.996233
_symmetry_space_group_name_H-M "P M M A"
_symmetry_group_IT_number 51
_symmetry_cell_setting 'orthorhombic'
loop_
_space_group_symop_operation_xyz
x,y,z
1/2-x,-y,z
1/2+x,-y,-z
-x,y,-z
-x,-y,-z
1/2+x,y,-z
1/2-x,y,z
x,-y,z
loop_
_atom_site_type_symbol
_atom_site_label
_atom_site_fract_x
_atom_site_fract_y
_atom_site_fract_z
Si Si1 0.918825 0.653979 0.819810
Si Si2 0.412959 0.749480 0.747092
Si Si3 0.582773 0.070703 0.563474
Si Si4 0.093756 0.737536 0.444829
Si Si5 0.909634 0.834219 0.665551
Si Si6 0.083157 0.430835 0.063761
Si Si7 0.912746 0.570024 0.270137
Si Si8 0.094464 0.341931 0.628933
O O1 0.750000 0.666511 0.813510
O O2 0.959083 0.622559 0.886826
O O3 0.002472 0.718160 0.806712
O O4 0.966238 0.604429 0.768699
O O5 0.250000 0.764620 0.767849
O O6 0.488995 0.812978 0.723962
O O7 0.416217 0.702299 0.689709
O O8 0.500000 0.092070 0.500000
O O9 0.750000 0.084662 0.551715
O O10 0.529702 0.107129 0.626467
O O11 0.552597 0.000000 0.577327
O O12 0.250000 0.723880 0.472010
O O13 0.099792 0.780311 0.384693
O O14 0.000000 0.768893 0.500000
O O15 0.022483 0.673386 0.424144
O O16 0.750000 0.847933 0.692351
O O17 0.250000 0.428003 0.048613
O O18 0.043036 0.500000 0.087836
O O19 0.000000 0.414955 0.000000
O O20 0.750000 0.584807 0.246102
O O21 0.949213 0.500000 0.264625
O O22 0.926944 0.589856 0.344082
O O23 0.250000 0.334102 0.597057
#
# Coordination Sequence:
#
# PCOD8206241 Si02
#       8
#     8   8   8   8   8   8   8   8
#     4  10  18  28  42  60  82 104 129 163 200 236
#     4   9  17  28  42  59  77  99 127 160 200 241
#     4   9  17  28  41  58  82 112 144 175 206 242
#     4  10  18  26  38  54  70  89 114 146 185 227
#     4   9  17  28  41  58  79 102 129 162 200 237
#     4   9  18  30  42  58  81 110 142 172 201 234
#     4   9  17  28  42  59  76  95 119 148 186 230
#     4   8  15  27  39  52  71  90 110 141 181 225
#
# _framework density 14.8492
#
# number of rings (size 3 to 8) (size 9 to 14) (size 15 to 20)
#    0.000    2.875    0.000    2.625    0.000    5.750 
#    0.000    1.250    0.000    0.375    0.000    0.000 
#    0.000    0.000    0.000    0.000    0.000    0.625 
#
# Total GULP energy -792930.204782 kJ/mol
# GULP energy per Si atom -12389.534450 kJ/mol
# Density = 1.481540 g / cm^3
# Si number density = 14.849200 Si / 1000 Ang^3
#
#
#
# Elastic Constant Matrix: (Units=GPa)
#
#
# Indices 1 2 3 4 5 6 
#
# 1 85.7125 33.1725 34.9749 0.0000 0.0000 0.0000
# 2 33.1725 61.2418 36.8361 0.0000 0.0000 0.0000
# 3 34.9749 36.8361 47.5303 0.0000 0.0000 0.0000
# 4 0.0000 0.0000 0.0000 24.0754 0.0000 0.0000
# 5 0.0000 0.0000 0.0000 0.0000 22.7888 0.0000
# 6 0.0000 0.0000 0.0000 0.0000 0.0000 16.0387
#
#
#
# Elastic Compliance Matrix: (Units=1/GPa)
#
#
# Indices 1 2 3 4 5 6 
#
# 1 0.016992 -0.003153 -0.010060 0.000000 0.000000 0.000000
# 2 -0.003153 0.031172 -0.021838 0.000000 0.000000 0.000000
# 3 -0.010060 -0.021838 0.045366 0.000000 0.000000 0.000000
# 4 0.000000 0.000000 0.000000 0.041536 0.000000 0.000000
# 5 0.000000 0.000000 0.000000 0.000000 0.043881 0.000000
# 6 0.000000 0.000000 0.000000 0.000000 0.000000 0.062349
#
#
# Mechanical properties :
#
#
# Convention : Reuss Voigt Hill
#
# Bulk Modulus (GPa) = 42.68372 44.93907 43.81140
# Shear Modulus (GPa) = 15.66373 18.54733 17.10553
#
# Velocity S-wave (km/s) = 3.25137 3.53802 3.39772
# Velocity P-wave (km/s) = 6.55000 6.85707 6.70529
#
# Compressibility (1/GPa) = 0.02342813
#
# Stress axis : x y z
#
# Youngs Moduli (GPa) = 58.85064 32.08002 22.04275
#
# Poissons Ratio (x) = 0.10115 0.22175
# Poissons Ratio (y) = 0.18557 0.48137
# Poissons Ratio (z) = 0.59203 0.70057
#
# Static dielectric constant tensor:
#      x y z
#    x 3.129650 0.000000 0.000000 
#    y 0.000000 2.874160 0.000000 
#    z 0.000000 0.000000 2.682050 
# 
# 
# High freq. dielectric constant tensor:
#      x y z
#    x 1.580540 0.000000 0.000000 
#    y 0.000000 1.540940 0.000000 
#    z 0.000000 0.000000 1.528580 
# 
# From -- ./inp_files/32708.got.cif
#   From: 2010.03.12/outbox.cif.g09.slc.cpg/sg51_17_cif.got.tgz:32708.got - 2010.04.16 13:43:02.
