data_PCOD8206504
_publ_section_title
;
Structure prediction by ZEFSAII (Michael W. Deem and Ramdas Pophale) SiO2 
 PCOD8206504
Probable space group: P M M A
;
_chemical_formula_sum "Si O2"
_cell_formula_units_Z 56
_cell_length_a 18.608159
_cell_length_b 12.607840
_cell_length_c 13.768756
_cell_angle_alpha 90.000000
_cell_angle_beta 90.000000
_cell_angle_gamma 90.000000
_cell_volume 3230.269827
_symmetry_space_group_name_H-M "P M M A"
_symmetry_group_IT_number 51
_symmetry_cell_setting 'orthorhombic'
loop_
_space_group_symop_operation_xyz
x,y,z
1/2-x,-y,z
1/2+x,-y,-z
-x,y,-z
-x,-y,-z
1/2+x,y,-z
1/2-x,y,z
x,-y,z
loop_
_atom_site_type_symbol
_atom_site_label
_atom_site_fract_x
_atom_site_fract_y
_atom_site_fract_z
Si Si1 0.086153 0.500000 0.510575
Si Si2 0.832478 0.292948 0.501448
Si Si3 0.167519 0.500000 0.706407
Si Si4 0.670787 0.273639 0.271840
Si Si5 0.331041 0.873230 0.057090
Si Si6 0.563027 0.125759 0.573884
Si Si7 0.907044 0.878480 0.137339
Si Si8 0.440468 0.878577 0.208759
O O1 0.120780 0.394270 0.461915
O O2 0.107714 0.500000 0.623058
O O3 0.000000 0.500000 0.500000
O O4 0.750000 0.306050 0.535384
O O5 0.838080 0.282141 0.386412
O O6 0.863557 0.184721 0.546196
O O7 0.250000 0.500000 0.662048
O O8 0.157214 0.606818 0.770454
O O9 0.750000 0.233908 0.242979
O O10 0.616257 0.189125 0.229954
O O11 0.250000 0.829173 0.058010
O O12 0.372414 0.827091 0.151996
O O13 0.332806 0.000000 0.057380
O O14 0.371541 0.832618 0.960342
O O15 0.500000 0.161144 0.500000
O O16 0.544088 0.166513 0.683372
O O17 0.575843 0.000000 0.566484
O O18 0.992856 0.866811 0.134814
O O19 0.883953 0.000000 0.155190
O O20 0.421423 0.000000 0.226054
#
# Coordination Sequence:
#
# PCOD8206504 Si02
#       8
#     4   8   4   8   8   8   8   8
#     4  10  18  30  50  70  89 118 159 206 250 289
#     4  10  20  33  48  68  96 128 163 202 244 291
#     4   8  16  32  48  64  90 122 156 192 230 277
#     4   9  17  29  46  67  93 124 154 189 233 279
#     4   9  17  29  45  66  92 121 156 195 230 272
#     4  10  20  33  48  69  98 131 167 203 238 283
#     4  10  18  28  45  71  99 121 145 186 240 288
#     4   9  18  31  46  63  90 129 162 188 226 279
#
# _framework density 17.336013000000001
#
# number of rings (size 3 to 8) (size 9 to 14) (size 15 to 20)
#    0.000    2.571    0.000    3.643    0.000    6.286 
#    0.000    2.857    0.000    0.000    0.000    3.000 
#    0.000    2.286    0.000    0.000    0.000    0.000 
#
# Total GULP energy -693950.255945 kJ/mol
# GULP energy per Si atom -12391.968856 kJ/mol
# Density = 1.729656 g / cm^3
# Si number density = 17.336013 Si / 1000 Ang^3
#
#
#
# Elastic Constant Matrix: (Units=GPa)
#
#
# Indices 1 2 3 4 5 6 
#
# 1 126.6878 38.1415 53.3774 0.0000 0.0000 0.0000
# 2 38.1415 57.4268 22.9611 0.0000 0.0000 0.0000
# 3 53.3774 22.9611 81.7121 0.0000 0.0000 0.0000
# 4 0.0000 0.0000 0.0000 9.2823 0.0000 0.0000
# 5 0.0000 0.0000 0.0000 0.0000 28.1354 0.0000
# 6 0.0000 0.0000 0.0000 0.0000 0.0000 24.6000
#
#
#
# Elastic Compliance Matrix: (Units=1/GPa)
#
#
# Indices 1 2 3 4 5 6 
#
# 1 0.012298 -0.005583 -0.006465 0.000000 0.000000 0.000000
# 2 -0.005583 0.022152 -0.002578 0.000000 0.000000 0.000000
# 3 -0.006465 -0.002578 0.017185 0.000000 0.000000 0.000000
# 4 0.000000 0.000000 0.000000 0.107732 0.000000 0.000000
# 5 0.000000 0.000000 0.000000 0.000000 0.035542 0.000000
# 6 0.000000 0.000000 0.000000 0.000000 0.000000 0.040650
#
#
# Mechanical properties :
#
#
# Convention : Reuss Voigt Hill
#
# Bulk Modulus (GPa) = 44.67339 54.97630 49.82485
# Shear Modulus (GPa) = 18.36387 22.49332 20.42860
#
# Velocity S-wave (km/s) = 3.25820 3.60598 3.43649
# Velocity P-wave (km/s) = 6.32294 7.00846 6.67451
#
# Compressibility (1/GPa) = 0.02238469
#
# Stress axis : x y z
#
# Youngs Moduli (GPa) = 81.31308 45.14182 58.18910
#
# Poissons Ratio (x) = 0.25204 0.37617
# Poissons Ratio (y) = 0.45400 0.14999
# Poissons Ratio (z) = 0.52566 0.11636
#
# Static dielectric constant tensor:
#      x y z
#    x 3.314700 0.000000 0.000000 
#    y 0.000000 3.183550 0.000000 
#    z 0.000000 0.000000 3.157280 
# 
# 
# High freq. dielectric constant tensor:
#      x y z
#    x 1.677640 0.000000 0.000000 
#    y 0.000000 1.639760 0.000000 
#    z 0.000000 0.000000 1.647110 
# 
# From -- ./inp_files/25305.got.cif
#   From: 2010.03.12/outbox.cif.g09.slc.cpg/sg51_13_cif.got.tgz:25305.got - 2010.04.16 13:43:02.
