data_PCOD8206067
_publ_section_title
;
Structure prediction by ZEFSAII (Michael W. Deem and Ramdas Pophale) SiO2 
 PCOD8206067
Probable space group: P M M A
;
_chemical_formula_sum "Si O2"
_cell_formula_units_Z 64
_cell_length_a 26.896645
_cell_length_b 9.177361
_cell_length_c 16.771784
_cell_angle_alpha 90.000000
_cell_angle_beta 90.000000
_cell_angle_gamma 90.000000
_cell_volume 4139.950867
_symmetry_space_group_name_H-M "P M M A"
_symmetry_group_IT_number 51
_symmetry_cell_setting 'orthorhombic'
loop_
_space_group_symop_operation_xyz
x,y,z
1/2-x,-y,z
1/2+x,-y,-z
-x,y,-z
-x,-y,-z
1/2+x,y,-z
1/2-x,y,z
x,-y,z
loop_
_atom_site_type_symbol
_atom_site_label
_atom_site_fract_x
_atom_site_fract_y
_atom_site_fract_z
Si Si1 0.192936 0.828294 0.413300
Si Si2 0.051208 0.666344 0.652613
Si Si3 0.883814 0.332655 0.489356
Si Si4 0.577749 0.330016 0.865817
Si Si5 0.035919 0.668007 0.831171
Si Si6 0.557924 0.164283 0.018806
Si Si7 0.123135 0.164148 0.271631
Si Si8 0.957668 0.165261 0.599461
O O1 0.250000 0.780348 0.410118
O O2 0.167032 0.750964 0.488900
O O3 0.166745 0.779669 0.330693
O O4 0.185996 0.000000 0.425225
O O5 0.031063 0.500000 0.647123
O O6 0.103567 0.681390 0.605111
O O7 0.058678 0.708195 0.745034
O O8 0.012560 0.774200 0.611362
O O9 0.877564 0.500000 0.514891
O O10 0.930202 0.265532 0.535923
O O11 0.586940 0.500000 0.876836
O O12 0.522747 0.295317 0.832542
O O13 0.618955 0.268491 0.804680
O O14 0.586880 0.253406 0.950825
O O15 0.044154 0.500000 0.853346
O O16 0.066522 0.762380 0.895198
O O17 0.578508 0.000000 0.020863
O O18 0.500000 0.168250 0.000000
O O19 0.070783 0.169326 0.316881
O O20 0.134742 0.000000 0.242595
O O21 0.960473 0.000000 0.566958
#
# Coordination Sequence:
#
# PCOD8206067 Si02
#       8
#     8   8   8   8   8   8   8   8
#     4   9  19  36  53  67  87 114 144 183 230 273
#     4  10  19  30  42  60  88 120 150 185 223 258
#     4  10  20  31  45  64  87 114 147 183 223 269
#     4  10  17  26  42  60  82 114 149 181 212 253
#     4   9  17  28  40  56  82 117 153 182 214 253
#     4   9  17  27  39  56  81 112 147 184 216 247
#     4   9  17  28  43  64  86 111 144 182 221 261
#     4  10  19  29  42  60  86 118 152 186 220 258
#
# _framework density 15.459121
#
# number of rings (size 3 to 8) (size 9 to 14) (size 15 to 20)
#    0.000    2.500    1.250    2.625    0.000    7.250 
#    0.000    0.000    0.000    0.000    0.000    0.000 
#    0.000    1.000    0.000    7.250    0.000    3.750 
#
# Total GULP energy -793488.547511 kJ/mol
# GULP energy per Si atom -12398.258555 kJ/mol
# Density = 1.542394 g / cm^3
# Si number density = 15.459121 Si / 1000 Ang^3
#
#
#
# Elastic Constant Matrix: (Units=GPa)
#
#
# Indices 1 2 3 4 5 6 
#
# 1 68.0859 35.5012 45.3983 0.0000 0.0000 0.0000
# 2 35.5012 82.8376 52.7908 0.0000 0.0000 0.0000
# 3 45.3983 52.7908 106.9038 0.0000 0.0000 0.0000
# 4 0.0000 0.0000 0.0000 24.8344 0.0000 0.0000
# 5 0.0000 0.0000 0.0000 0.0000 11.9979 0.0000
# 6 0.0000 0.0000 0.0000 0.0000 0.0000 15.4931
#
#
#
# Elastic Compliance Matrix: (Units=1/GPa)
#
#
# Indices 1 2 3 4 5 6 
#
# 1 0.021838 -0.005033 -0.006789 0.000000 0.000000 0.000000
# 2 -0.005033 0.018775 -0.007134 0.000000 0.000000 0.000000
# 3 -0.006789 -0.007134 0.015760 0.000000 0.000000 0.000000
# 4 0.000000 0.000000 0.000000 0.040267 0.000000 0.000000
# 5 0.000000 0.000000 0.000000 0.000000 0.083348 0.000000
# 6 0.000000 0.000000 0.000000 0.000000 0.000000 0.064545
#
#
# Mechanical properties :
#
#
# Convention : Reuss Voigt Hill
#
# Bulk Modulus (GPa) = 54.16504 58.35645 56.26074
# Shear Modulus (GPa) = 17.32513 18.74088 18.03300
#
# Velocity S-wave (km/s) = 3.35133 3.48557 3.41911
# Velocity P-wave (km/s) = 7.07735 7.35049 7.21521
#
# Compressibility (1/GPa) = 0.01846209
#
# Stress axis : x y z
#
# Youngs Moduli (GPa) = 45.79182 53.26178 63.45143
#
# Poissons Ratio (x) = 0.26805 0.43074
# Poissons Ratio (y) = 0.23046 0.45268
# Poissons Ratio (z) = 0.31086 0.37998
#
# Static dielectric constant tensor:
#      x y z
#    x 2.570580 0.000000 0.000000 
#    y 0.000000 3.056840 0.000000 
#    z 0.000000 0.000000 3.033180 
# 
# 
# High freq. dielectric constant tensor:
#      x y z
#    x 1.531640 0.000000 0.000000 
#    y 0.000000 1.605600 0.000000 
#    z 0.000000 0.000000 1.593230 
# 
# From -- ./inp_files/31006.got.cif
#   From: 2010.03.12/outbox.cif.g09.slc.cpg/sg51_16_cif.got.tgz:31006.got - 2010.04.16 13:43:02.
