data_PCOD8206914
_publ_section_title
;
Structure prediction by ZEFSAII (Michael W. Deem and Ramdas Pophale) SiO2 
 PCOD8206914
Probable space group: P M M A
;
_chemical_formula_sum "Si O2"
_cell_formula_units_Z 36
_cell_length_a 8.807318
_cell_length_b 15.159474
_cell_length_c 14.373308
_cell_angle_alpha 90.000000
_cell_angle_beta 90.000000
_cell_angle_gamma 90.000000
_cell_volume 1919.042275
_symmetry_space_group_name_H-M "P M M A"
_symmetry_group_IT_number 51
_symmetry_cell_setting 'orthorhombic'
loop_
_space_group_symop_operation_xyz
x,y,z
1/2-x,-y,z
1/2+x,-y,-z
-x,y,-z
-x,-y,-z
1/2+x,y,-z
1/2-x,y,z
x,-y,z
loop_
_atom_site_type_symbol
_atom_site_label
_atom_site_fract_x
_atom_site_fract_y
_atom_site_fract_z
Si Si1 0.426782 0.399324 0.900030
Si Si2 0.424272 0.325570 0.402737
Si Si3 0.575823 0.753920 0.786300
Si Si4 0.569723 0.500000 0.397860
Si Si5 0.571412 0.100630 0.096204
O O1 0.250000 0.375914 0.906917
O O2 0.451059 0.500000 0.865543
O O3 0.505428 0.334796 0.827660
O O4 0.500000 0.384515 0.000000
O O5 0.500000 0.295637 0.500000
O O6 0.250000 0.349723 0.423980
O O7 0.437919 0.248282 0.326221
O O8 0.506384 0.409821 0.353764
O O9 0.750000 0.759973 0.817815
O O10 0.488404 0.840796 0.819217
O O11 0.750000 0.500000 0.393974
O O12 0.500000 0.500000 0.500000
O O13 0.750000 0.110446 0.088251
O O14 0.521640 0.000000 0.115236
O O15 0.500000 0.135463 0.000000
#
# Coordination Sequence:
#
# PCOD8206914 Si02
#       5
#     8   8   8   4   8
#     4  10  21  36  53  75 106 145 185 223 266 318
#     4  10  21  36  53  76 106 143 184 229 277 321
#     4  11  23  36  55  81 110 144 181 225 274 326
#     4  10  18  30  50  72  99 136 179 226 272 316
#     4  10  21  38  61  87 114 143 177 221 272 326
#
# _framework density 18.759357000000001
#
# number of rings (size 3 to 8) (size 9 to 14) (size 15 to 20)
#    0.000    1.778    0.000    5.667    1.556    6.222 
#    0.000    0.000    0.000    0.667    0.000    0.000 
#    0.000    0.000    0.000    0.000    0.000    0.000 
#
# Total GULP energy -446384.379676 kJ/mol
# GULP energy per Si atom -12399.566102 kJ/mol
# Density = 1.871666 g / cm^3
# Si number density = 18.759357 Si / 1000 Ang^3
#
#
#
# Elastic Constant Matrix: (Units=GPa)
#
#
# Indices 1 2 3 4 5 6 
#
# 1 130.1952 42.1107 43.5292 0.0000 0.0000 0.0000
# 2 42.1107 86.2960 50.7216 0.0000 0.0000 0.0000
# 3 43.5292 50.7216 83.9407 0.0000 0.0000 0.0000
# 4 0.0000 0.0000 0.0000 25.8228 0.0000 0.0000
# 5 0.0000 0.0000 0.0000 0.0000 29.3538 0.0000
# 6 0.0000 0.0000 0.0000 0.0000 0.0000 31.0831
#
#
#
# Elastic Compliance Matrix: (Units=1/GPa)
#
#
# Indices 1 2 3 4 5 6 
#
# 1 0.009696 -0.002754 -0.003364 0.000000 0.000000 0.000000
# 2 -0.002754 0.018753 -0.009903 0.000000 0.000000 0.000000
# 3 -0.003364 -0.009903 0.019642 0.000000 0.000000 0.000000
# 4 0.000000 0.000000 0.000000 0.038725 0.000000 0.000000
# 5 0.000000 0.000000 0.000000 0.000000 0.034067 0.000000
# 6 0.000000 0.000000 0.000000 0.000000 0.000000 0.032172
#
#
# Mechanical properties :
#
#
# Convention : Reuss Voigt Hill
#
# Bulk Modulus (GPa) = 62.31342 63.68387 62.99865
# Shear Modulus (GPa) = 26.25397 28.18995 27.22196
#
# Velocity S-wave (km/s) = 3.74507 3.88069 3.81348
# Velocity P-wave (km/s) = 7.21041 7.35535 7.28324
#
# Compressibility (1/GPa) = 0.01604791
#
# Stress axis : x y z
#
# Youngs Moduli (GPa) = 103.13161 53.32525 50.91250
#
# Poissons Ratio (x) = 0.14688 0.17126
# Poissons Ratio (y) = 0.28408 0.50419
# Poissons Ratio (z) = 0.34692 0.52808
#
# Static dielectric constant tensor:
#      x y z
#    x 3.683950 0.000000 0.000000 
#    y 0.000000 3.615320 0.000000 
#    z 0.000000 0.000000 3.322950 
# 
# 
# High freq. dielectric constant tensor:
#      x y z
#    x 1.750200 0.000000 0.000000 
#    y 0.000000 1.709130 0.000000 
#    z 0.000000 0.000000 1.722780 
# 
# From -- ./inp_files/20314.got.cif
#   From: 2010.03.12/outbox.cif.g09.slc.cpg/sg51_11_cif.got.tgz:20314.got - 2010.04.16 13:43:02.
