data_PCOD8206642
_publ_section_title
;
Structure prediction by ZEFSAII (Michael W. Deem and Ramdas Pophale) SiO2 
 PCOD8206642
Probable space group: P M M A
;
_chemical_formula_sum "Si O2"
_cell_formula_units_Z 56
_cell_length_a 23.598588
_cell_length_b 8.952096
_cell_length_c 15.271392
_cell_angle_alpha 90.000000
_cell_angle_beta 90.000000
_cell_angle_gamma 90.000000
_cell_volume 3226.185791
_symmetry_space_group_name_H-M "P M M A"
_symmetry_group_IT_number 51
_symmetry_cell_setting 'orthorhombic'
loop_
_space_group_symop_operation_xyz
x,y,z
1/2-x,-y,z
1/2+x,-y,-z
-x,y,-z
-x,-y,-z
1/2+x,y,-z
1/2-x,y,z
x,-y,z
loop_
_atom_site_type_symbol
_atom_site_label
_atom_site_fract_x
_atom_site_fract_y
_atom_site_fract_z
Si Si1 0.061451 0.676786 0.676632
Si Si2 0.569733 0.676476 0.676070
Si Si3 0.106041 0.673027 0.856345
Si Si4 0.500486 0.840356 0.900921
Si Si5 0.815451 0.325223 0.990196
Si Si6 0.433004 0.832982 0.500825
Si Si7 0.878798 0.823971 0.835839
O O1 0.061886 0.500000 0.661050
O O2 0.105200 0.726041 0.754444
O O3 0.086435 0.756624 0.591162
O O4 0.995784 0.725373 0.698268
O O5 0.576086 0.500000 0.679781
O O6 0.587805 0.733435 0.580165
O O7 0.616823 0.749414 0.740082
O O8 0.118220 0.500000 0.858764
O O9 0.042669 0.706670 0.886163
O O10 0.151130 0.745118 0.924794
O O11 0.561981 0.779713 0.878676
O O12 0.486732 0.000000 0.851150
O O13 0.500000 0.884228 0.000000
O O14 0.750000 0.295961 0.009690
O O15 0.829231 0.500000 0.978980
O O16 0.830890 0.244737 0.898929
O O17 0.500000 0.839961 0.500000
O O18 0.407339 0.000000 0.494497
O O19 0.867892 0.000000 0.826738
#
# Coordination Sequence:
#
# PCOD8206642 Si02
#       7
#     8   8   8   8   8   8   8
#     4   9  17  28  43  67  97 130 164 198 241 291
#     4  10  18  29  46  69  99 132 164 199 241 291
#     4  10  19  31  49  71  96 128 166 203 242 291
#     4  10  19  30  44  68  99 127 157 196 245 294
#     4  10  22  38  53  70  95 129 169 210 248 289
#     4   9  17  28  42  64  97 134 165 195 236 288
#     4  11  21  32  49  72  99 130 164 203 246 295
#
# _framework density 17.357959999999999
#
# number of rings (size 3 to 8) (size 9 to 14) (size 15 to 20)
#    0.000    2.143    2.857    1.286    0.000    4.000 
#    0.000    0.000    0.000    0.000    0.000    1.000 
#    0.000    5.714    0.000    0.000    0.000    0.000 
#
# Total GULP energy -693761.846789 kJ/mol
# GULP energy per Si atom -12388.604407 kJ/mol
# Density = 1.731845 g / cm^3
# Si number density = 17.357960 Si / 1000 Ang^3
#
#
#
# Elastic Constant Matrix: (Units=GPa)
#
#
# Indices 1 2 3 4 5 6 
#
# 1 41.9643 19.4551 30.2603 0.0000 0.0000 0.0000
# 2 19.4551 60.2808 49.5732 0.0000 0.0000 0.0000
# 3 30.2603 49.5732 129.3102 0.0000 0.0000 0.0000
# 4 0.0000 0.0000 0.0000 25.7590 0.0000 0.0000
# 5 0.0000 0.0000 0.0000 0.0000 11.0851 0.0000
# 6 0.0000 0.0000 0.0000 0.0000 0.0000 13.7532
#
#
#
# Elastic Compliance Matrix: (Units=1/GPa)
#
#
# Indices 1 2 3 4 5 6 
#
# 1 0.029951 -0.005699 -0.004824 0.000000 0.000000 0.000000
# 2 -0.005699 0.025312 -0.008370 0.000000 0.000000 0.000000
# 3 -0.004824 -0.008370 0.012071 0.000000 0.000000 0.000000
# 4 0.000000 0.000000 0.000000 0.038821 0.000000 0.000000
# 5 0.000000 0.000000 0.000000 0.000000 0.090211 0.000000
# 6 0.000000 0.000000 0.000000 0.000000 0.000000 0.072711
#
#
# Mechanical properties :
#
#
# Convention : Reuss Voigt Hill
#
# Bulk Modulus (GPa) = 33.84446 47.79250 40.81848
# Shear Modulus (GPa) = 15.78726 18.93723 17.36224
#
# Velocity S-wave (km/s) = 3.01908 3.30659 3.16610
# Velocity P-wave (km/s) = 5.62969 6.49394 6.07720
#
# Compressibility (1/GPa) = 0.02954693
#
# Stress axis : x y z
#
# Youngs Moduli (GPa) = 33.38841 39.50764 82.84356
#
# Poissons Ratio (x) = 0.22516 0.39963
# Poissons Ratio (y) = 0.19029 0.69339
# Poissons Ratio (z) = 0.16106 0.33068
#
# Static dielectric constant tensor:
#      x y z
#    x 2.814710 0.000000 0.000000 
#    y 0.000000 3.243130 0.000000 
#    z 0.000000 0.000000 3.546550 
# 
# 
# High freq. dielectric constant tensor:
#      x y z
#    x 1.605840 0.000000 0.000000 
#    y 0.000000 1.674860 0.000000 
#    z 0.000000 0.000000 1.685100 
# 
# From -- ./inp_files/25643.got.cif
#   From: 2010.03.12/outbox.cif.g09.slc.cpg/sg51_13_cif.got.tgz:25643.got - 2010.04.16 13:43:02.
