data_PCOD8206860
_publ_section_title
;
Structure prediction by ZEFSAII (Michael W. Deem and Ramdas Pophale) SiO2 
 PCOD8206860
Probable space group: P M M A
;
_chemical_formula_sum "Si O2"
_cell_formula_units_Z 28
_cell_length_a 8.754280
_cell_length_b 10.664270
_cell_length_c 14.768737
_cell_angle_alpha 90.000000
_cell_angle_beta 90.000000
_cell_angle_gamma 90.000000
_cell_volume 1378.779831
_symmetry_space_group_name_H-M "P M M A"
_symmetry_group_IT_number 51
_symmetry_cell_setting 'orthorhombic'
loop_
_space_group_symop_operation_xyz
x,y,z
1/2-x,-y,z
1/2+x,-y,-z
-x,y,-z
-x,-y,-z
1/2+x,y,-z
1/2-x,y,z
x,-y,z
loop_
_atom_site_type_symbol
_atom_site_label
_atom_site_fract_x
_atom_site_fract_y
_atom_site_fract_z
Si Si1 0.071262 0.863935 0.279576
Si Si2 0.427399 0.250687 0.096099
Si Si3 0.431472 0.640619 0.402670
Si Si4 0.431124 0.500000 0.900368
O O1 0.250000 0.861961 0.299245
O O2 0.043287 0.855031 0.171292
O O3 0.999900 0.746684 0.334816
O O4 0.003328 0.000000 0.310019
O O5 0.250000 0.277242 0.078663
O O6 0.503293 0.373393 0.143329
O O7 0.500000 0.210959 0.000000
O O8 0.500000 0.671086 0.500000
O O9 0.250000 0.647664 0.408469
O O10 0.481543 0.500000 0.370642
O O11 0.250000 0.500000 0.899178
O O12 0.500000 0.500000 0.000000
#
# Coordination Sequence:
#
# PCOD8206860 Si02
#       4
#     8   8   8   4
#     4   9  19  34  53  78 107 142 182 217 257 315
#     4  10  19  32  52  75 105 141 181 222 263 309
#     4   9  18  34  57  81 105 134 172 217 265 316
#     4  10  18  30  48  72 101 132 173 220 267 310
#
# _framework density 20.307808999999999
#
# number of rings (size 3 to 8) (size 9 to 14) (size 15 to 20)
#    0.000    2.571    0.000    3.857    2.000    1.143 
#    0.000    2.857    0.000    6.000    0.000    0.000 
#    0.000    0.000    0.000    0.000    0.000    0.000 
#
# Total GULP energy -346886.704364 kJ/mol
# GULP energy per Si atom -12388.810870 kJ/mol
# Density = 2.026159 g / cm^3
# Si number density = 20.307809 Si / 1000 Ang^3
#
#
#
# Elastic Constant Matrix: (Units=GPa)
#
#
# Indices 1 2 3 4 5 6 
#
# 1 71.8974 26.8539 21.9895 0.0000 0.0000 0.0000
# 2 26.8539 171.5484 82.7226 0.0000 0.0000 0.0000
# 3 21.9895 82.7226 106.0773 0.0000 0.0000 0.0000
# 4 0.0000 0.0000 0.0000 23.7500 0.0000 0.0000
# 5 0.0000 0.0000 0.0000 0.0000 25.4075 0.0000
# 6 0.0000 0.0000 0.0000 0.0000 0.0000 9.5642
#
#
#
# Elastic Compliance Matrix: (Units=1/GPa)
#
#
# Indices 1 2 3 4 5 6 
#
# 1 0.015047 -0.001364 -0.002055 0.000000 0.000000 0.000000
# 2 -0.001364 0.009466 -0.007099 0.000000 0.000000 0.000000
# 3 -0.002055 -0.007099 0.015389 0.000000 0.000000 0.000000
# 4 0.000000 0.000000 0.000000 0.042105 0.000000 0.000000
# 5 0.000000 0.000000 0.000000 0.000000 0.039359 0.000000
# 6 0.000000 0.000000 0.000000 0.000000 0.000000 0.104556
#
#
# Mechanical properties :
#
#
# Convention : Reuss Voigt Hill
#
# Bulk Modulus (GPa) = 53.00873 68.07279 60.54076
# Shear Modulus (GPa) = 19.74348 26.27480 23.00914
#
# Velocity S-wave (km/s) = 3.12141 3.60088 3.36969
# Velocity P-wave (km/s) = 6.25702 7.13314 6.70940
#
# Compressibility (1/GPa) = 0.01886482
#
# Stress axis : x y z
#
# Youngs Moduli (GPa) = 66.45901 105.63963 64.98018
#
# Poissons Ratio (x) = 0.14413 0.13355
# Poissons Ratio (y) = 0.09067 0.46131
# Poissons Ratio (z) = 0.13659 0.74996
#
# Static dielectric constant tensor:
#      x y z
#    x 3.362500 0.000000 0.000000 
#    y 0.000000 4.818910 0.000000 
#    z 0.000000 0.000000 3.518960 
# 
# 
# High freq. dielectric constant tensor:
#      x y z
#    x 1.760440 0.000000 0.000000 
#    y 0.000000 1.803980 0.000000 
#    z 0.000000 0.000000 1.782040 
# 
# From -- ./inp_files/20001.got.cif
#   From: 2010.03.12/outbox.cif.g09.slc.cpg/sg51_11_cif.got.tgz:20001.got - 2010.04.16 13:43:02.
