data_PCOD8206439
_publ_section_title
;
Structure prediction by ZEFSAII (Michael W. Deem and Ramdas Pophale) SiO2 
 PCOD8206439
Probable space group: P M M A
;
_chemical_formula_sum "Si O2"
_cell_formula_units_Z 48
_cell_length_a 9.434608
_cell_length_b 13.280232
_cell_length_c 25.175916
_cell_angle_alpha 90.000000
_cell_angle_beta 90.000000
_cell_angle_gamma 90.000000
_cell_volume 3154.385758
_symmetry_space_group_name_H-M "P M M A"
_symmetry_group_IT_number 51
_symmetry_cell_setting 'orthorhombic'
loop_
_space_group_symop_operation_xyz
x,y,z
1/2-x,-y,z
1/2+x,-y,-z
-x,y,-z
-x,-y,-z
1/2+x,y,-z
1/2-x,y,z
x,-y,z
loop_
_atom_site_type_symbol
_atom_site_label
_atom_site_fract_x
_atom_site_fract_y
_atom_site_fract_z
Si Si1 0.914242 0.885874 0.552161
Si Si2 0.589554 0.620065 0.050142
Si Si3 0.908660 0.619650 0.851960
Si Si4 0.082870 0.612103 0.264169
Si Si5 0.594532 0.384200 0.454106
Si Si6 0.415021 0.708963 0.370699
O O1 0.750000 0.875329 0.537674
O O2 0.952798 0.817788 0.603849
O O3 0.000000 0.851552 0.500000
O O4 0.953987 0.000000 0.568079
O O5 0.750000 0.662010 0.047092
O O6 0.591675 0.500000 0.050491
O O7 0.514561 0.662573 0.103349
O O8 0.500000 0.660014 0.000000
O O9 0.750000 0.663744 0.861163
O O10 0.900843 0.500000 0.855836
O O11 0.971097 0.649630 0.793693
O O12 0.250000 0.601173 0.259394
O O13 0.021446 0.500000 0.278196
O O14 0.043605 0.696530 0.308540
O O15 0.500000 0.331206 0.500000
O O16 0.750000 0.332201 0.451811
O O17 0.615832 0.500000 0.467928
O O18 0.510737 0.374336 0.399285
O O19 0.250000 0.682889 0.379467
#
# Coordination Sequence:
#
# PCOD8206439 Si02
#       6
#     8   8   8   8   8   8
#     4   9  18  31  45  61  79  97 119 151 192 234
#     4   9  15  21  30  45  64  87 118 155 190 218
#     4   8  13  22  34  46  63  88 117 149 182 214
#     4   8  14  24  38  55  73  95 124 154 183 218
#     4  10  20  31  41  55  76  99 121 148 183 221
#     4  10  18  28  44  61  76  97 125 155 186 224
#
# _framework density 15.216908999999999
#
# number of rings (size 3 to 8) (size 9 to 14) (size 15 to 20)
#    0.000    3.000    0.000    3.000    0.000    5.667 
#    0.000    0.833    0.000    3.000    0.000    0.000 
#    0.000    0.000    0.000    0.000    0.000    0.833 
#
# Total GULP energy -594711.922898 kJ/mol
# GULP energy per Si atom -12389.831727 kJ/mol
# Density = 1.518227 g / cm^3
# Si number density = 15.216909 Si / 1000 Ang^3
#
#
#
# Elastic Constant Matrix: (Units=GPa)
#
#
# Indices 1 2 3 4 5 6 
#
# 1 84.9118 17.6245 58.9766 0.0000 0.0000 0.0000
# 2 17.6245 40.3701 34.0833 0.0000 0.0000 0.0000
# 3 58.9766 34.0833 152.1527 0.0000 0.0000 0.0000
# 4 0.0000 0.0000 0.0000 10.1739 0.0000 0.0000
# 5 0.0000 0.0000 0.0000 0.0000 23.2705 0.0000
# 6 0.0000 0.0000 0.0000 0.0000 0.0000 8.6281
#
#
#
# Elastic Compliance Matrix: (Units=1/GPa)
#
#
# Indices 1 2 3 4 5 6 
#
# 1 0.016272 -0.002194 -0.005816 0.000000 0.000000 0.000000
# 2 -0.002194 0.030844 -0.006059 0.000000 0.000000 0.000000
# 3 -0.005816 -0.006059 0.010184 0.000000 0.000000 0.000000
# 4 0.000000 0.000000 0.000000 0.098290 0.000000 0.000000
# 5 0.000000 0.000000 0.000000 0.000000 0.042973 0.000000
# 6 0.000000 0.000000 0.000000 0.000000 0.000000 0.115901
#
#
# Mechanical properties :
#
#
# Convention : Reuss Voigt Hill
#
# Bulk Modulus (GPa) = 34.29048 55.42261 44.85655
# Shear Modulus (GPa) = 14.19161 19.53118 16.86139
#
# Velocity S-wave (km/s) = 3.05720 3.58651 3.33238
# Velocity P-wave (km/s) = 5.91991 7.32472 6.65946
#
# Compressibility (1/GPa) = 0.02916261
#
# Stress axis : x y z
#
# Youngs Moduli (GPa) = 61.45662 32.42133 98.19482
#
# Poissons Ratio (x) = 0.07112 0.57107
# Poissons Ratio (y) = 0.13482 0.59496
# Poissons Ratio (z) = 0.35741 0.19644
#
# Static dielectric constant tensor:
#      x y z
#    x 3.044570 0.000000 0.000000 
#    y 0.000000 2.513080 0.000000 
#    z 0.000000 0.000000 3.241640 
# 
# 
# High freq. dielectric constant tensor:
#      x y z
#    x 1.579230 0.000000 0.000000 
#    y 0.000000 1.518110 0.000000 
#    z 0.000000 0.000000 1.584270 
# 
# From -- ./inp_files/34623.got.cif
#   From: 2010.03.12/outbox.cif.g09.slc.cpg/sg51_18_cif.got.tgz:34623.got - 2010.04.16 13:43:02.
