data_PCOD8206866
_publ_section_title
;
Structure prediction by ZEFSAII (Michael W. Deem and Ramdas Pophale) SiO2 
 PCOD8206866
Probable space group: P M M A
;
_chemical_formula_sum "Si O2"
_cell_formula_units_Z 48
_cell_length_a 18.036675
_cell_length_b 14.112367
_cell_length_c 10.453265
_cell_angle_alpha 90.000000
_cell_angle_beta 90.000000
_cell_angle_gamma 90.000000
_cell_volume 2660.775924
_symmetry_space_group_name_H-M "P M M A"
_symmetry_group_IT_number 51
_symmetry_cell_setting 'orthorhombic'
loop_
_space_group_symop_operation_xyz
x,y,z
1/2-x,-y,z
1/2+x,-y,-z
-x,y,-z
-x,-y,-z
1/2+x,y,-z
1/2-x,y,z
x,-y,z
loop_
_atom_site_type_symbol
_atom_site_label
_atom_site_fract_x
_atom_site_fract_y
_atom_site_fract_z
Si Si1 0.837970 0.720684 0.891469
Si Si2 0.838310 0.393996 0.137300
Si Si3 0.835923 0.894257 0.265692
Si Si4 0.086281 0.891897 0.001092
Si Si5 0.837307 0.293628 0.390380
Si Si6 0.838422 0.392145 0.643867
O O1 0.750000 0.731204 0.888481
O O2 0.867213 0.664038 0.767896
O O3 0.866814 0.664604 0.015778
O O4 0.873646 0.825241 0.894812
O O5 0.750000 0.394068 0.138497
O O6 0.869625 0.500000 0.126396
O O7 0.869983 0.348126 0.267266
O O8 0.750000 0.882754 0.226581
O O9 0.882244 0.871592 0.139594
O O10 0.856623 0.818406 0.376244
O O11 0.852624 0.000000 0.318237
O O12 0.101725 0.000000 0.042696
O O13 0.000000 0.868555 0.000000
O O14 0.750000 0.309512 0.395559
O O15 0.871462 0.337541 0.519804
O O16 0.750000 0.393124 0.642214
O O17 0.868412 0.500000 0.646079
#
# Coordination Sequence:
#
# PCOD8206866 Si02
#       6
#     8   8   8   8   8   8
#     4  10  18  30  48  73 100 127 159 196 243 288
#     4   9  15  23  40  67  95 121 157 200 234 275
#     4   9  16  28  48  73  98 122 155 202 248 285
#     4  10  20  33  50  72  97 126 161 201 247 295
#     4   9  15  25  42  69  99 129 161 193 237 285
#     4   9  17  28  44  70 105 136 159 193 241 288
#
# _framework density 18.039850999999999
#
# number of rings (size 3 to 8) (size 9 to 14) (size 15 to 20)
#    0.000    2.667    1.667    1.500    0.000    5.000 
#    0.000    0.833    0.000    6.000    0.000    4.667 
#    0.000    0.000    0.000    0.000    0.000    0.000 
#
# Total GULP energy -595050.534486 kJ/mol
# GULP energy per Si atom -12396.886135 kJ/mol
# Density = 1.799879 g / cm^3
# Si number density = 18.039851 Si / 1000 Ang^3
#
#
#
# Elastic Constant Matrix: (Units=GPa)
#
#
# Indices 1 2 3 4 5 6 
#
# 1 23.4744 30.9135 22.3823 0.0000 0.0000 0.0000
# 2 30.9135 168.2209 88.4450 0.0000 0.0000 0.0000
# 3 22.3823 88.4450 149.3881 0.0000 0.0000 0.0000
# 4 0.0000 0.0000 0.0000 36.5511 0.0000 0.0000
# 5 0.0000 0.0000 0.0000 0.0000 4.3367 0.0000
# 6 0.0000 0.0000 0.0000 0.0000 0.0000 10.2824
#
#
#
# Elastic Compliance Matrix: (Units=1/GPa)
#
#
# Indices 1 2 3 4 5 6 
#
# 1 0.057377 -0.008747 -0.003418 0.000000 0.000000 0.000000
# 2 -0.008747 0.009965 -0.004589 0.000000 0.000000 0.000000
# 3 -0.003418 -0.004589 0.009923 0.000000 0.000000 0.000000
# 4 0.000000 0.000000 0.000000 0.027359 0.000000 0.000000
# 5 0.000000 0.000000 0.000000 0.000000 0.230593 0.000000
# 6 0.000000 0.000000 0.000000 0.000000 0.000000 0.097254
#
#
# Mechanical properties :
#
#
# Convention : Reuss Voigt Hill
#
# Bulk Modulus (GPa) = 22.85347 69.39611 46.12479
# Shear Modulus (GPa) = 10.40443 23.52354 16.96399
#
# Velocity S-wave (km/s) = 2.40416 3.61498 3.06986
# Velocity P-wave (km/s) = 4.51691 7.48170 6.17974
#
# Compressibility (1/GPa) = 0.04375704
#
# Stress axis : x y z
#
# Youngs Moduli (GPa) = 17.42845 100.35359 100.77550
#
# Poissons Ratio (x) = 0.87779 0.34445
# Poissons Ratio (y) = 0.15245 0.46247
# Poissons Ratio (z) = 0.05957 0.46053
#
# Static dielectric constant tensor:
#      x y z
#    x 2.763720 0.000000 0.000000 
#    y 0.000000 3.663730 0.000000 
#    z 0.000000 0.000000 3.389350 
# 
# 
# High freq. dielectric constant tensor:
#      x y z
#    x 1.634810 0.000000 0.000000 
#    y 0.000000 1.720020 0.000000 
#    z 0.000000 0.000000 1.687520 
# 
# From -- ./inp_files/9586.got.cif
#   From: 2010.03.12/outbox.cif.g09.slc.cpg/sg51_5_cif.got.tgz:9586.got - 2010.04.16 13:43:02.
