data_PCOD8206912
_publ_section_title
;
Structure prediction by ZEFSAII (Michael W. Deem and Ramdas Pophale) SiO2 
 PCOD8206912
Probable space group: P M M A
;
_chemical_formula_sum "Si O2"
_cell_formula_units_Z 64
_cell_length_a 9.466941
_cell_length_b 20.139010
_cell_length_c 19.868861
_cell_angle_alpha 90.000000
_cell_angle_beta 90.000000
_cell_angle_gamma 90.000000
_cell_volume 3788.094107
_symmetry_space_group_name_H-M "P M M A"
_symmetry_group_IT_number 51
_symmetry_cell_setting 'orthorhombic'
loop_
_space_group_symop_operation_xyz
x,y,z
1/2-x,-y,z
1/2+x,-y,-z
-x,y,-z
-x,-y,-z
1/2+x,y,-z
1/2-x,y,z
x,-y,z
loop_
_atom_site_type_symbol
_atom_site_label
_atom_site_fract_x
_atom_site_fract_y
_atom_site_fract_z
Si Si1 0.086668 0.922421 0.434124
Si Si2 0.907665 0.379163 0.060916
Si Si3 0.917114 0.773737 0.205656
Si Si4 0.407413 0.220382 0.939592
Si Si5 0.418657 0.626659 0.792537
Si Si6 0.414314 0.303361 0.567455
Si Si7 0.086538 0.827420 0.654265
Si Si8 0.417727 0.426820 0.653532
O O1 0.250000 0.901744 0.443932
O O2 0.000000 0.901443 0.500000
O O3 0.017491 0.883806 0.372456
O O4 0.072069 0.000000 0.419032
O O5 0.750000 0.406569 0.050260
O O6 0.908152 0.299764 0.059571
O O7 0.967462 0.402189 0.134426
O O8 0.000000 0.408920 0.000000
O O9 0.750000 0.765295 0.201437
O O10 0.968778 0.803085 0.133437
O O11 0.981318 0.700586 0.217927
O O12 0.957789 0.821111 0.267534
O O13 0.250000 0.192903 0.950550
O O14 0.500000 0.190344 0.000000
O O15 0.250000 0.628735 0.792860
O O16 0.475329 0.583295 0.729816
O O17 0.500000 0.289511 0.500000
O O18 0.250000 0.310774 0.549019
O O19 0.439286 0.242467 0.617756
O O20 0.474383 0.370377 0.602728
O O21 0.250000 0.849396 0.646116
O O22 0.250000 0.421076 0.655423
O O23 0.466545 0.500000 0.628676
#
# Coordination Sequence:
#
# PCOD8206912 Si02
#       8
#     8   8   8   8   8   8   8   8
#     4  10  21  36  52  71  97 127 157 188 222 264
#     4   8  13  20  34  55  78 105 136 173 215 260
#     4   8  13  23  40  61  86 117 150 184 224 267
#     4   8  13  21  34  54  82 114 146 179 217 262
#     4   8  12  22  39  58  80 108 145 184 221 261
#     4  10  20  32  47  68  91 114 144 184 230 274
#     4  10  18  30  50  72  95 123 154 189 227 269
#     4   9  16  27  44  64  84 109 147 192 230 267
#
# _framework density 16.895039000000001
#
# number of rings (size 3 to 8) (size 9 to 14) (size 15 to 20)
#    0.000    3.125    1.250    2.250    0.000    2.500 
#    0.000    0.625    0.000    1.875    0.000    0.000 
#    0.000    0.500    0.000    1.125    0.000    2.000 
#
# Total GULP energy -793038.647395 kJ/mol
# GULP energy per Si atom -12391.228866 kJ/mol
# Density = 1.685659 g / cm^3
# Si number density = 16.895039 Si / 1000 Ang^3
#
#
#
# Elastic Constant Matrix: (Units=GPa)
#
#
# Indices 1 2 3 4 5 6 
#
# 1 54.5605 24.0912 45.6239 0.0000 0.0000 0.0000
# 2 24.0912 42.8653 30.9682 0.0000 0.0000 0.0000
# 3 45.6239 30.9682 132.3936 0.0000 0.0000 0.0000
# 4 0.0000 0.0000 0.0000 16.9795 0.0000 0.0000
# 5 0.0000 0.0000 0.0000 0.0000 24.9225 0.0000
# 6 0.0000 0.0000 0.0000 0.0000 0.0000 8.9189
#
#
#
# Elastic Compliance Matrix: (Units=1/GPa)
#
#
# Indices 1 2 3 4 5 6 
#
# 1 0.029601 -0.011151 -0.007592 0.000000 0.000000 0.000000
# 2 -0.011151 0.032274 -0.003706 0.000000 0.000000 0.000000
# 3 -0.007592 -0.003706 0.011037 0.000000 0.000000 0.000000
# 4 0.000000 0.000000 0.000000 0.058895 0.000000 0.000000
# 5 0.000000 0.000000 0.000000 0.000000 0.040124 0.000000
# 6 0.000000 0.000000 0.000000 0.000000 0.000000 0.112121
#
#
# Mechanical properties :
#
#
# Convention : Reuss Voigt Hill
#
# Bulk Modulus (GPa) = 35.69974 47.90957 41.80465
# Shear Modulus (GPa) = 14.78031 18.77326 16.77678
#
# Velocity S-wave (km/s) = 2.96096 3.33704 3.15461
# Velocity P-wave (km/s) = 5.73288 6.57773 6.16978
#
# Compressibility (1/GPa) = 0.02801141
#
# Stress axis : x y z
#
# Youngs Moduli (GPa) = 33.78283 30.98493 90.60797
#
# Poissons Ratio (x) = 0.34552 0.68792
# Poissons Ratio (y) = 0.37672 0.33583
# Poissons Ratio (z) = 0.25649 0.11484
#
# Static dielectric constant tensor:
#      x y z
#    x 2.884440 0.000000 0.000000 
#    y 0.000000 2.858170 0.000000 
#    z 0.000000 0.000000 3.583830 
# 
# 
# High freq. dielectric constant tensor:
#      x y z
#    x 1.608400 0.000000 0.000000 
#    y 0.000000 1.609500 0.000000 
#    z 0.000000 0.000000 1.667560 
# 
# From -- ./inp_files/32582.got.cif
#   From: 2010.03.12/outbox.cif.g09.slc.cpg/sg51_17_cif.got.tgz:32582.got - 2010.04.16 13:43:02.
