data_PCOD8206290
_publ_section_title
;
Structure prediction by ZEFSAII (Michael W. Deem and Ramdas Pophale) SiO2 
 PCOD8206290
Probable space group: P M M A
;
_chemical_formula_sum "Si O2"
_cell_formula_units_Z 64
_cell_length_a 8.835953
_cell_length_b 26.176973
_cell_length_c 18.393439
_cell_angle_alpha 90.000000
_cell_angle_beta 90.000000
_cell_angle_gamma 90.000000
_cell_volume 4254.374908
_symmetry_space_group_name_H-M "P M M A"
_symmetry_group_IT_number 51
_symmetry_cell_setting 'orthorhombic'
loop_
_space_group_symop_operation_xyz
x,y,z
1/2-x,-y,z
1/2+x,-y,-z
-x,y,-z
-x,-y,-z
1/2+x,y,-z
1/2-x,y,z
x,-y,z
loop_
_atom_site_type_symbol
_atom_site_label
_atom_site_fract_x
_atom_site_fract_y
_atom_site_fract_z
Si Si1 0.079575 0.193839 0.795992
Si Si2 0.572368 0.651955 0.834551
Si Si3 0.416785 0.700982 0.709792
Si Si4 0.069411 0.236593 0.577431
Si Si5 0.570013 0.144491 0.664715
Si Si6 0.925829 0.059534 0.423684
Si Si7 0.429730 0.248561 0.078884
Si Si8 0.071262 0.557107 0.076695
O O1 0.250000 0.174036 0.811026
O O2 0.084368 0.246609 0.753501
O O3 0.989849 0.153223 0.746598
O O4 0.991850 0.202003 0.871902
O O5 0.750000 0.651626 0.833215
O O6 0.519520 0.659713 0.751338
O O7 0.515288 0.697493 0.886973
O O8 0.510139 0.597802 0.864281
O O9 0.250000 0.677045 0.706066
O O10 0.474948 0.715099 0.628955
O O11 0.250000 0.229421 0.574264
O O12 0.000000 0.249831 0.500000
O O13 0.997005 0.184891 0.607625
O O14 0.750000 0.147909 0.664180
O O15 0.512950 0.088904 0.640330
O O16 0.750000 0.075091 0.425532
O O17 0.000000 0.075169 0.500000
O O18 0.947846 0.000000 0.407615
O O19 0.250000 0.245059 0.074516
O O20 0.500000 0.243029 0.000000
O O21 0.250000 0.561189 0.067780
O O22 0.022519 0.500000 0.101185
O O23 0.000000 0.571716 0.000000
#
# Coordination Sequence:
#
# PCOD8206290 Si02
#       8
#     8   8   8   8   8   8   8   8
#     4   9  17  30  44  59  81 108 139 173 208 246
#     4   9  17  27  40  57  78 107 140 171 204 244
#     4   8  16  28  41  57  78 104 133 167 203 241
#     4  10  19  30  43  61  84 110 140 170 203 243
#     4  11  20  30  45  63  85 113 143 174 209 248
#     4  10  20  33  47  63  85 113 145 180 214 246
#     4  10  18  27  40  60  84 110 141 173 208 248
#     4   9  17  28  40  56  79 106 137 172 206 239
#
# _framework density 15.043338
#
# number of rings (size 3 to 8) (size 9 to 14) (size 15 to 20)
#    0.000    2.500    0.000    4.125    0.000    5.250 
#    0.000    0.000    0.000    0.000    0.000    0.000 
#    0.000    1.000    0.000    3.000    0.000    4.625 
#
# Total GULP energy -793419.137880 kJ/mol
# GULP energy per Si atom -12397.174029 kJ/mol
# Density = 1.500910 g / cm^3
# Si number density = 15.043338 Si / 1000 Ang^3
#
#
#
# Elastic Constant Matrix: (Units=GPa)
#
#
# Indices 1 2 3 4 5 6 
#
# 1 79.1730 34.0435 45.2509 0.0000 0.0000 0.0000
# 2 34.0435 67.9845 49.9104 0.0000 0.0000 0.0000
# 3 45.2509 49.9104 112.0466 0.0000 0.0000 0.0000
# 4 0.0000 0.0000 0.0000 23.6893 0.0000 0.0000
# 5 0.0000 0.0000 0.0000 0.0000 29.2573 0.0000
# 6 0.0000 0.0000 0.0000 0.0000 0.0000 17.8828
#
#
#
# Elastic Compliance Matrix: (Units=1/GPa)
#
#
# Indices 1 2 3 4 5 6 
#
# 1 0.017642 -0.005355 -0.004740 0.000000 0.000000 0.000000
# 2 -0.005355 0.023482 -0.008297 0.000000 0.000000 0.000000
# 3 -0.004740 -0.008297 0.014535 0.000000 0.000000 0.000000
# 4 0.000000 0.000000 0.000000 0.042213 0.000000 0.000000
# 5 0.000000 0.000000 0.000000 0.000000 0.034180 0.000000
# 6 0.000000 0.000000 0.000000 0.000000 0.000000 0.055920
#
#
# Mechanical properties :
#
#
# Convention : Reuss Voigt Hill
#
# Bulk Modulus (GPa) = 52.97844 57.51265 55.24555
# Shear Modulus (GPa) = 21.64066 22.83251 22.23659
#
# Velocity S-wave (km/s) = 3.79694 3.90010 3.84887
# Velocity P-wave (km/s) = 7.38350 7.65476 7.52035
#
# Compressibility (1/GPa) = 0.01887560
#
# Stress axis : x y z
#
# Youngs Moduli (GPa) = 56.68312 42.58562 68.79938
#
# Poissons Ratio (x) = 0.22803 0.32608
# Poissons Ratio (y) = 0.30352 0.57086
# Poissons Ratio (z) = 0.26866 0.35335
#
# Static dielectric constant tensor:
#      x y z
#    x 3.037930 0.000000 0.000000 
#    y 0.000000 2.832980 0.000000 
#    z 0.000000 0.000000 3.026650 
# 
# 
# High freq. dielectric constant tensor:
#      x y z
#    x 1.589150 0.000000 0.000000 
#    y 0.000000 1.541210 0.000000 
#    z 0.000000 0.000000 1.566390 
# 
# From -- ./inp_files/28673.got.cif
#   From: 2010.03.12/outbox.cif.g09.slc.cpg/sg51_15_cif.got.tgz:28673.got - 2010.04.16 13:43:02.
