data_PCOD8206119
_publ_section_title
;
Structure prediction by ZEFSAII (Michael W. Deem and Ramdas Pophale) SiO2 
 PCOD8206119
Probable space group: P M M A
;
_chemical_formula_sum "Si O2"
_cell_formula_units_Z 48
_cell_length_a 8.831763
_cell_length_b 19.007429
_cell_length_c 15.583092
_cell_angle_alpha 90.000000
_cell_angle_beta 90.000000
_cell_angle_gamma 90.000000
_cell_volume 2615.919757
_symmetry_space_group_name_H-M "P M M A"
_symmetry_group_IT_number 51
_symmetry_cell_setting 'orthorhombic'
loop_
_space_group_symop_operation_xyz
x,y,z
1/2-x,-y,z
1/2+x,-y,-z
-x,y,-z
-x,-y,-z
1/2+x,y,-z
1/2-x,y,z
x,-y,z
loop_
_atom_site_type_symbol
_atom_site_label
_atom_site_fract_x
_atom_site_fract_y
_atom_site_fract_z
Si Si1 0.073736 0.177383 0.080671
Si Si2 0.072714 0.079567 0.587034
Si Si3 0.574769 0.417800 0.410626
Si Si4 0.571201 0.329245 0.084994
Si Si5 0.572412 0.667031 0.741716
Si Si6 0.922470 0.830745 0.730271
O O1 0.250000 0.194597 0.063833
O O2 0.055664 0.138803 0.172539
O O3 0.977407 0.248279 0.084957
O O4 0.000000 0.133643 0.000000
O O5 0.250000 0.081744 0.574470
O O6 0.000000 0.110340 0.500000
O O7 0.030788 0.126881 0.667855
O O8 0.014472 0.000000 0.603199
O O9 0.500000 0.395571 0.500000
O O10 0.750000 0.396162 0.412300
O O11 0.553053 0.500000 0.392886
O O12 0.488525 0.376033 0.337791
O O13 0.750000 0.337941 0.083006
O O14 0.506664 0.363375 0.172367
O O15 0.500000 0.366320 0.000000
O O16 0.750000 0.655808 0.751996
O O17 0.533090 0.748894 0.727523
O O18 0.750000 0.841598 0.700211
#
# Coordination Sequence:
#
# PCOD8206119 Si02
#       6
#     8   8   8   8   8   8
#     4   9  16  27  44  69 100 132 166 202 244 293
#     4  10  21  36  54  74  96 127 166 205 248 301
#     4  10  21  37  56  77 101 133 172 209 250 302
#     4  10  17  27  45  70 101 135 169 205 248 296
#     4  10  20  34  52  77 106 134 169 210 253 298
#     4   9  19  33  50  75 104 132 164 205 249 293
#
# _framework density 18.349187000000001
#
# number of rings (size 3 to 8) (size 9 to 14) (size 15 to 20)
#    0.000    2.333    0.000    5.500    0.000    6.667 
#    0.000    0.000    0.000    1.000    0.000    0.000 
#    0.000    0.000    0.000    0.000    0.000    0.000 
#
# Total GULP energy -595010.354556 kJ/mol
# GULP energy per Si atom -12396.049053 kJ/mol
# Density = 1.830742 g / cm^3
# Si number density = 18.349187 Si / 1000 Ang^3
#
#
#
# Elastic Constant Matrix: (Units=GPa)
#
#
# Indices 1 2 3 4 5 6 
#
# 1 120.6083 30.2870 71.7302 0.0000 0.0000 0.0000
# 2 30.2870 31.8516 45.6414 0.0000 0.0000 0.0000
# 3 71.7302 45.6414 170.9780 0.0000 0.0000 0.0000
# 4 0.0000 0.0000 0.0000 -22.6583 0.0000 0.0000
# 5 0.0000 0.0000 0.0000 0.0000 42.8868 0.0000
# 6 0.0000 0.0000 0.0000 0.0000 0.0000 21.4848
#
#
#
# Elastic Compliance Matrix: (Units=1/GPa)
#
#
# Indices 1 2 3 4 5 6 
#
# 1 0.011876 -0.006726 -0.003187 0.000000 0.000000 0.000000
# 2 -0.006726 0.054653 -0.011768 0.000000 0.000000 0.000000
# 3 -0.003187 -0.011768 0.010327 0.000000 0.000000 0.000000
# 4 0.000000 0.000000 0.000000 -0.044134 0.000000 0.000000
# 5 0.000000 0.000000 0.000000 0.000000 0.023317 0.000000
# 6 0.000000 0.000000 0.000000 0.000000 0.000000 0.046544
#
#
# Mechanical properties :
#
#
# Convention : Reuss Voigt Hill
#
# Bulk Modulus (GPa) = 29.85478 68.75056 49.30267
# Shear Modulus (GPa) = 31.82497 20.06128 25.94312
#
# Velocity S-wave (km/s) = 4.16914 3.31010 3.76421
# Velocity P-wave (km/s) = 6.28342 7.22207 6.76903
#
# Compressibility (1/GPa) = 0.03349547
#
# Stress axis : x y z
#
# Youngs Moduli (GPa) = 84.20663 18.29709 96.83419
#
# Poissons Ratio (x) = 0.12306 0.30858
# Poissons Ratio (y) = 0.56636 1.13952
# Poissons Ratio (z) = 0.26834 0.21531
#
# Static dielectric constant tensor:
#      x y z
#    x 3.541270 0.000000 0.000000 
#    y 0.000000 2.944450 0.000000 
#    z 0.000000 0.000000 3.998120 
# 
# 
# High freq. dielectric constant tensor:
#      x y z
#    x 1.727550 0.000000 0.000000 
#    y 0.000000 1.653220 0.000000 
#    z 0.000000 0.000000 1.738420 
# 
# From -- ./inp_files/21403.got.cif
#   From: 2010.03.12/outbox.cif.g09.slc.cpg/sg51_11_cif.got.tgz:21403.got - 2010.04.16 13:43:02.
