data_PCOD8206138
_publ_section_title
;
Structure prediction by ZEFSAII (Michael W. Deem and Ramdas Pophale) SiO2 
 PCOD8206138
Probable space group: P M M A
;
_chemical_formula_sum "Si O2"
_cell_formula_units_Z 56
_cell_length_a 9.682037
_cell_length_b 22.016413
_cell_length_c 14.138035
_cell_angle_alpha 90.000000
_cell_angle_beta 90.000000
_cell_angle_gamma 90.000000
_cell_volume 3013.716209
_symmetry_space_group_name_H-M "P M M A"
_symmetry_group_IT_number 51
_symmetry_cell_setting 'orthorhombic'
loop_
_space_group_symop_operation_xyz
x,y,z
1/2-x,-y,z
1/2+x,-y,-z
-x,y,-z
-x,-y,-z
1/2+x,y,-z
1/2-x,y,z
x,-y,z
loop_
_atom_site_type_symbol
_atom_site_label
_atom_site_fract_x
_atom_site_fract_y
_atom_site_fract_z
Si Si1 0.090567 0.000000 0.906032
Si Si2 0.407015 0.218468 0.912056
Si Si3 0.500000 0.363607 0.500000
Si Si4 0.102197 0.736047 0.374833
Si Si5 0.090166 0.111692 0.770699
Si Si6 0.090292 0.433757 0.680993
Si Si7 0.410619 0.316528 0.773957
Si Si8 0.589197 0.127183 0.587021
O O1 0.055162 0.058693 0.844083
O O2 0.250000 0.000000 0.937459
O O3 0.000000 0.000000 0.000000
O O4 0.250000 0.211182 0.945971
O O5 0.438246 0.174908 0.823983
O O6 0.437216 0.288142 0.877855
O O7 0.500000 0.200909 0.000000
O O8 0.390288 0.318414 0.451369
O O9 0.571063 0.407166 0.423598
O O10 0.250000 0.735124 0.321016
O O11 0.083044 0.800376 0.425400
O O12 0.979532 0.727602 0.301748
O O13 0.250000 0.107753 0.735998
O O14 0.985070 0.105871 0.683471
O O15 0.250000 0.443771 0.699564
O O16 0.016181 0.500000 0.691389
O O17 0.032676 0.385747 0.760194
O O18 0.250000 0.314970 0.748500
O O19 0.500000 0.099161 0.500000
O O20 0.750000 0.104647 0.585390
#
# Coordination Sequence:
#
# PCOD8206138 Si02
#       8
#     4   8   4   8   8   8   8   8
#     4  10  22  40  65  92 119 152 187 224 278 332
#     4  10  20  33  53  80 108 138 171 218 276 327
#     4  10  17  28  42  66 102 137 172 216 268 319
#     4  10  19  29  45  71 101 135 175 216 261 312
#     4  10  21  39  59  84 117 149 182 226 271 323
#     4   9  17  28  44  66  93 131 177 219 261 317
#     4   9  18  32  49  69  98 133 168 211 266 318
#     4  11  22  35  54  82 113 151 190 230 274 320
#
# _framework density 18.581710000000001
#
# number of rings (size 3 to 8) (size 9 to 14) (size 15 to 20)
#    0.000    2.143    2.143    1.500    0.000    2.857 
#    0.000    0.357    0.000    4.286    0.000    0.000 
#    0.000    0.000    0.000    0.000    0.000    0.000 
#
# Total GULP energy -693903.780348 kJ/mol
# GULP energy per Si atom -12391.138935 kJ/mol
# Density = 1.853942 g / cm^3
# Si number density = 18.581710 Si / 1000 Ang^3
#
#
#
# Elastic Constant Matrix: (Units=GPa)
#
#
# Indices 1 2 3 4 5 6 
#
# 1 91.8399 28.4585 63.6452 0.0000 0.0000 0.0000
# 2 28.4585 85.8495 36.5712 0.0000 0.0000 0.0000
# 3 63.6452 36.5712 103.0351 0.0000 0.0000 0.0000
# 4 0.0000 0.0000 0.0000 13.2570 0.0000 0.0000
# 5 0.0000 0.0000 0.0000 0.0000 33.9765 0.0000
# 6 0.0000 0.0000 0.0000 0.0000 0.0000 15.0287
#
#
#
# Elastic Compliance Matrix: (Units=1/GPa)
#
#
# Indices 1 2 3 4 5 6 
#
# 1 0.019211 -0.001547 -0.011318 0.000000 0.000000 0.000000
# 2 -0.001547 0.013848 -0.003960 0.000000 0.000000 0.000000
# 3 -0.011318 -0.003960 0.018102 0.000000 0.000000 0.000000
# 4 0.000000 0.000000 0.000000 0.075432 0.000000 0.000000
# 5 0.000000 0.000000 0.000000 0.000000 0.029432 0.000000
# 6 0.000000 0.000000 0.000000 0.000000 0.000000 0.066539
#
#
# Mechanical properties :
#
#
# Convention : Reuss Voigt Hill
#
# Bulk Modulus (GPa) = 57.10298 59.78604 58.44451
# Shear Modulus (GPa) = 19.08036 22.58908 20.83472
#
# Velocity S-wave (km/s) = 3.20790 3.49042 3.35214
# Velocity P-wave (km/s) = 6.67221 6.96337 6.81934
#
# Compressibility (1/GPa) = 0.01751222
#
# Stress axis : x y z
#
# Youngs Moduli (GPa) = 52.05342 72.21331 55.24324
#
# Poissons Ratio (x) = 0.11172 0.62522
# Poissons Ratio (y) = 0.08053 0.21874
# Poissons Ratio (z) = 0.58912 0.28593
#
# Static dielectric constant tensor:
#      x y z
#    x 3.389180 0.000000 0.000000 
#    y 0.000000 3.736840 0.000000 
#    z 0.000000 0.000000 3.192460 
# 
# 
# High freq. dielectric constant tensor:
#      x y z
#    x 1.714270 0.000000 0.000000 
#    y 0.000000 1.721560 0.000000 
#    z 0.000000 0.000000 1.697800 
# 
# From -- ./inp_files/21900.got.cif
#   From: 2010.03.12/outbox.cif.g09.slc.cpg/sg51_11_cif.got.tgz:21900.got - 2010.04.16 13:43:02.
