data_PCOD8206433
_publ_section_title
;
Structure prediction by ZEFSAII (Michael W. Deem and Ramdas Pophale) SiO2 
 PCOD8206433
Probable space group: P M M A
;
_chemical_formula_sum "Si O2"
_cell_formula_units_Z 52
_cell_length_a 9.049565
_cell_length_b 22.398554
_cell_length_c 14.885053
_cell_angle_alpha 90.000000
_cell_angle_beta 90.000000
_cell_angle_gamma 90.000000
_cell_volume 3017.158123
_symmetry_space_group_name_H-M "P M M A"
_symmetry_group_IT_number 51
_symmetry_cell_setting 'orthorhombic'
loop_
_space_group_symop_operation_xyz
x,y,z
1/2-x,-y,z
1/2+x,-y,-z
-x,y,-z
-x,-y,-z
1/2+x,y,-z
1/2-x,y,z
x,-y,z
loop_
_atom_site_type_symbol
_atom_site_label
_atom_site_fract_x
_atom_site_fract_y
_atom_site_fract_z
Si Si1 0.075045 0.109318 0.218139
Si Si2 0.415646 0.570689 0.414316
Si Si3 0.425779 0.000000 0.096853
Si Si4 0.422990 0.786118 0.092397
Si Si5 0.078028 0.930126 0.409910
Si Si6 0.423493 0.349534 0.091964
Si Si7 0.579360 0.570016 0.235140
O O1 0.250000 0.104154 0.224685
O O2 0.023741 0.172237 0.174908
O O3 0.013672 0.102564 0.320251
O O4 0.017678 0.057231 0.152631
O O5 0.500000 0.597957 0.500000
O O6 0.250000 0.597704 0.406654
O O7 0.403946 0.500000 0.423250
O O8 0.514574 0.589360 0.330460
O O9 0.250000 0.000000 0.084151
O O10 0.500000 0.000000 0.000000
O O11 0.250000 0.793954 0.075557
O O12 0.464102 0.718375 0.118705
O O13 0.500000 0.805865 0.000000
O O14 0.250000 0.916995 0.421768
O O15 0.000000 0.905330 0.500000
O O16 0.045872 0.000000 0.397342
O O17 0.250000 0.358499 0.081562
O O18 0.484093 0.394794 0.164097
O O19 0.500000 0.367576 0.000000
O O20 0.750000 0.588828 0.230457
O O21 0.558945 0.500000 0.217339
#
# Coordination Sequence:
#
# PCOD8206433 Si02
#       7
#     8   8   4   8   8   8   8
#     4   9  16  29  48  68  93 126 159 189 233 286
#     4   9  16  27  45  70 100 131 160 191 230 280
#     4  10  18  28  43  66  96 126 153 186 231 280
#     4   9  18  32  50  70  92 123 161 197 233 282
#     4   9  16  28  46  67  92 124 159 195 234 278
#     4  10  20  34  51  70  93 124 162 201 242 289
#     4  10  20  33  50  73  99 126 158 199 247 295
#
# _framework density 17.234760999999999
#
# number of rings (size 3 to 8) (size 9 to 14) (size 15 to 20)
#    0.000    2.615    0.769    1.846    0.000    3.692 
#    0.000    1.538    0.000    0.923    0.000    2.154 
#    0.000    0.000    0.000    0.000    0.000    0.000 
#
# Total GULP energy -644678.869072 kJ/mol
# GULP energy per Si atom -12397.670559 kJ/mol
# Density = 1.719553 g / cm^3
# Si number density = 17.234761 Si / 1000 Ang^3
#
#
#
# Elastic Constant Matrix: (Units=GPa)
#
#
# Indices 1 2 3 4 5 6 
#
# 1 58.4576 26.4536 46.2464 0.0000 0.0000 0.0000
# 2 26.4536 50.6329 57.4837 0.0000 0.0000 0.0000
# 3 46.2464 57.4837 165.4761 0.0000 0.0000 0.0000
# 4 0.0000 0.0000 0.0000 13.7587 0.0000 0.0000
# 5 0.0000 0.0000 0.0000 0.0000 32.3757 0.0000
# 6 0.0000 0.0000 0.0000 0.0000 0.0000 -23.9834
#
#
#
# Elastic Compliance Matrix: (Units=1/GPa)
#
#
# Indices 1 2 3 4 5 6 
#
# 1 0.023802 -0.008064 -0.003851 0.000000 0.000000 0.000000
# 2 -0.008064 0.035343 -0.010024 0.000000 0.000000 0.000000
# 3 -0.003851 -0.010024 0.010602 0.000000 0.000000 0.000000
# 4 0.000000 0.000000 0.000000 0.072682 0.000000 0.000000
# 5 0.000000 0.000000 0.000000 0.000000 0.030887 0.000000
# 6 0.000000 0.000000 0.000000 0.000000 0.000000 -0.041696
#
#
# Mechanical properties :
#
#
# Convention : Reuss Voigt Hill
#
# Bulk Modulus (GPa) = 38.65534 59.43708 49.04621
# Shear Modulus (GPa) = 27.15614 14.05572 20.60593
#
# Velocity S-wave (km/s) = 3.97377 2.85887 3.46150
# Velocity P-wave (km/s) = 6.59786 6.74234 6.67049
#
# Compressibility (1/GPa) = 0.02586965
#
# Stress axis : x y z
#
# Youngs Moduli (GPa) = 42.01353 28.29391 94.32537
#
# Poissons Ratio (x) = 0.22815 0.36323
# Poissons Ratio (y) = 0.33878 0.94553
# Poissons Ratio (z) = 0.16179 0.28362
#
# Static dielectric constant tensor:
#      x y z
#    x 3.176400 0.000000 0.000000 
#    y 0.000000 3.068820 0.000000 
#    z 0.000000 0.000000 3.333760 
# 
# 
# High freq. dielectric constant tensor:
#      x y z
#    x 1.658410 0.000000 0.000000 
#    y 0.000000 1.634800 0.000000 
#    z 0.000000 0.000000 1.676220 
# 
# From -- ./inp_files/21518.got.cif
#   From: 2010.03.12/outbox.cif.g09.slc.cpg/sg51_11_cif.got.tgz:21518.got - 2010.04.16 13:43:02.
