data_PCOD8206687
_publ_section_title
;
Structure prediction by ZEFSAII (Michael W. Deem and Ramdas Pophale) SiO2 
 PCOD8206687
Probable space group: P M M A
;
_chemical_formula_sum "Si O2"
_cell_formula_units_Z 64
_cell_length_a 25.931375
_cell_length_b 8.827301
_cell_length_c 17.043975
_cell_angle_alpha 90.000000
_cell_angle_beta 90.000000
_cell_angle_gamma 90.000000
_cell_volume 3901.434948
_symmetry_space_group_name_H-M "P M M A"
_symmetry_group_IT_number 51
_symmetry_cell_setting 'orthorhombic'
loop_
_space_group_symop_operation_xyz
x,y,z
1/2-x,-y,z
1/2+x,-y,-z
-x,y,-z
-x,-y,-z
1/2+x,y,-z
1/2-x,y,z
x,-y,z
loop_
_atom_site_type_symbol
_atom_site_label
_atom_site_fract_x
_atom_site_fract_y
_atom_site_fract_z
Si Si1 0.693502 0.820166 0.413421
Si Si2 0.448273 0.175793 0.838303
Si Si3 0.095743 0.179827 0.315717
Si Si4 0.561300 0.167739 0.993195
Si Si5 0.497768 0.677287 0.408907
Si Si6 0.406356 0.176645 0.673557
Si Si7 0.557969 0.677176 0.836973
Si Si8 0.807048 0.179903 0.589217
O O1 0.750000 0.760453 0.385977
O O2 0.649402 0.762393 0.354250
O O3 0.681637 0.760112 0.501198
O O4 0.694174 0.000000 0.414324
O O5 0.409006 0.203279 0.767078
O O6 0.499084 0.274223 0.823774
O O7 0.465812 0.000000 0.843438
O O8 0.419488 0.221666 0.920105
O O9 0.048475 0.233344 0.368683
O O10 0.093335 0.243379 0.227854
O O11 0.149025 0.242853 0.352831
O O12 0.094275 0.000000 0.312304
O O13 0.579029 0.278742 0.923602
O O14 0.582333 0.000000 0.973488
O O15 0.500000 0.166604 0.000000
O O16 0.500000 0.720728 0.500000
O O17 0.488752 0.500000 0.395691
O O18 0.551120 0.725439 0.370090
O O19 0.414687 0.000000 0.652587
O O20 0.562514 0.500000 0.825959
O O21 0.750000 0.235103 0.616568
O O22 0.808804 0.000000 0.588881
#
# Coordination Sequence:
#
# PCOD8206687 Si02
#       8
#     8   8   8   8   8   8   8   8
#     4   8  14  26  45  70  95 116 148 196 237 267
#     4   9  17  29  44  65  92 122 156 192 226 269
#     4  11  20  31  49  69  91 121 156 190 230 281
#     4   8  15  28  44  61  87 121 155 189 228 266
#     4  11  23  34  43  62  95 128 155 188 229 271
#     4  10  18  29  48  70  92 123 158 187 225 277
#     4  11  20  29  43  65  94 123 153 188 230 275
#     4   8  15  28  46  68  91 115 150 197 238 269
#
# _framework density 16.404221
#
# number of rings (size 3 to 8) (size 9 to 14) (size 15 to 20)
#    0.000    2.500    1.250    4.125    0.000    4.250 
#    0.000    0.000    0.000    1.875    0.000    6.125 
#    0.000    5.000    0.000    0.000    0.000    0.000 
#
# Total GULP energy -793278.875747 kJ/mol
# GULP energy per Si atom -12394.982434 kJ/mol
# Density = 1.636688 g / cm^3
# Si number density = 16.404221 Si / 1000 Ang^3
#
#
#
# Elastic Constant Matrix: (Units=GPa)
#
#
# Indices 1 2 3 4 5 6 
#
# 1 105.0816 23.7009 69.0692 0.0000 0.0000 0.0000
# 2 23.7009 52.9720 36.4096 0.0000 0.0000 0.0000
# 3 69.0692 36.4096 146.3336 0.0000 0.0000 0.0000
# 4 0.0000 0.0000 0.0000 17.5928 0.0000 0.0000
# 5 0.0000 0.0000 0.0000 0.0000 18.0304 0.0000
# 6 0.0000 0.0000 0.0000 0.0000 0.0000 0.9761
#
#
#
# Elastic Compliance Matrix: (Units=1/GPa)
#
#
# Indices 1 2 3 4 5 6 
#
# 1 0.013983 -0.002075 -0.006084 0.000000 0.000000 0.000000
# 2 -0.002075 0.023080 -0.004763 0.000000 0.000000 0.000000
# 3 -0.006084 -0.004763 0.010890 0.000000 0.000000 0.000000
# 4 0.000000 0.000000 0.000000 0.056841 0.000000 0.000000
# 5 0.000000 0.000000 0.000000 0.000000 0.055462 0.000000
# 6 0.000000 0.000000 0.000000 0.000000 0.000000 1.024502
#
#
# Mechanical properties :
#
#
# Convention : Reuss Voigt Hill
#
# Bulk Modulus (GPa) = 45.22846 62.52741 53.87794
# Shear Modulus (GPa) = 4.10518 19.00036 11.55277
#
# Velocity S-wave (km/s) = 1.58365 3.40701 2.65666
# Velocity P-wave (km/s) = 5.56552 7.32642 6.50582
#
# Compressibility (1/GPa) = 0.02210997
#
# Stress axis : x y z
#
# Youngs Moduli (GPa) = 71.51433 43.32709 91.82373
#
# Poissons Ratio (x) = 0.08989 0.55864
# Poissons Ratio (y) = 0.14838 0.43739
# Poissons Ratio (z) = 0.43508 0.20638
#
# Static dielectric constant tensor:
#      x y z
#    x 3.115560 0.000000 0.000000 
#    y 0.000000 2.877740 0.000000 
#    z 0.000000 0.000000 3.560370 
# 
# 
# High freq. dielectric constant tensor:
#      x y z
#    x 1.595820 0.000000 0.000000 
#    y 0.000000 1.611190 0.000000 
#    z 0.000000 0.000000 1.643080 
# 
# From -- ./inp_files/30902.got.cif
#   From: 2010.03.12/outbox.cif.g09.slc.cpg/sg51_16_cif.got.tgz:30902.got - 2010.04.16 13:43:02.
