data_PCOD8206604
_publ_section_title
;
Structure prediction by ZEFSAII (Michael W. Deem and Ramdas Pophale) SiO2 
 PCOD8206604
Probable space group: P M M A
;
_chemical_formula_sum "Si O2"
_cell_formula_units_Z 64
_cell_length_a 8.935985
_cell_length_b 23.235967
_cell_length_c 18.931006
_cell_angle_alpha 90.000000
_cell_angle_beta 90.000000
_cell_angle_gamma 90.000000
_cell_volume 3930.763143
_symmetry_space_group_name_H-M "P M M A"
_symmetry_group_IT_number 51
_symmetry_cell_setting 'orthorhombic'
loop_
_space_group_symop_operation_xyz
x,y,z
1/2-x,-y,z
1/2+x,-y,-z
-x,y,-z
-x,-y,-z
1/2+x,y,-z
1/2-x,y,z
x,-y,z
loop_
_atom_site_type_symbol
_atom_site_label
_atom_site_fract_x
_atom_site_fract_y
_atom_site_fract_z
Si Si1 0.425936 0.226362 0.924421
Si Si2 0.573736 0.117772 0.429839
Si Si3 0.575464 0.660015 0.160662
Si Si4 0.577339 0.066152 0.282039
Si Si5 0.925502 0.759255 0.569316
Si Si6 0.424635 0.433643 0.072668
Si Si7 0.578592 0.278012 0.720485
Si Si8 0.924001 0.163559 0.802383
O O1 0.250000 0.218882 0.931761
O O2 0.469044 0.288061 0.891449
O O3 0.488533 0.175797 0.874895
O O4 0.500000 0.220961 0.000000
O O5 0.500000 0.089855 0.500000
O O6 0.750000 0.124059 0.441457
O O7 0.534508 0.077629 0.363502
O O8 0.503663 0.180112 0.416284
O O9 0.750000 0.647087 0.160173
O O10 0.489678 0.602819 0.137161
O O11 0.525379 0.675786 0.240104
O O12 0.750000 0.082372 0.269306
O O13 0.477406 0.103327 0.229304
O O14 0.544553 0.000000 0.264741
O O15 0.750000 0.769459 0.556988
O O16 0.953340 0.718207 0.636764
O O17 0.000000 0.729935 0.500000
O O18 0.250000 0.422062 0.065165
O O19 0.461403 0.500000 0.088520
O O20 0.500000 0.413221 0.000000
O O21 0.750000 0.292981 0.738207
O O22 0.540460 0.213484 0.745859
O O23 0.750000 0.159570 0.820253
#
# Coordination Sequence:
#
# PCOD8206604 Si02
#       8
#     8   8   8   8   8   8   8   8
#     4  10  20  33  50  74  99 124 153 188 234 281
#     4  10  19  30  46  65  89 120 154 192 231 276
#     4  10  20  31  48  73 100 130 164 201 238 276
#     4  10  21  35  49  66  90 120 153 191 234 281
#     4  10  18  29  45  67  93 124 157 192 235 283
#     4  10  20  33  49  69  98 137 175 207 239 275
#     4   9  18  31  47  67  95 125 156 196 240 283
#     4  10  19  33  51  70  92 118 151 190 233 282
#
# _framework density 16.281827
#
# number of rings (size 3 to 8) (size 9 to 14) (size 15 to 20)
#    0.000    2.125    1.250    3.375    0.000    5.750 
#    0.000    0.000    0.000    0.375    0.000    0.000 
#    0.000    0.500    0.000    1.625    0.000    2.000 
#
# Total GULP energy -793734.449816 kJ/mol
# GULP energy per Si atom -12402.100778 kJ/mol
# Density = 1.624477 g / cm^3
# Si number density = 16.281827 Si / 1000 Ang^3
#
#
#
# Elastic Constant Matrix: (Units=GPa)
#
#
# Indices 1 2 3 4 5 6 
#
# 1 86.2820 38.7763 51.8014 0.0000 0.0000 0.0000
# 2 38.7763 65.1944 41.3079 0.0000 0.0000 0.0000
# 3 51.8014 41.3079 110.8493 0.0000 0.0000 0.0000
# 4 0.0000 0.0000 0.0000 22.3263 0.0000 0.0000
# 5 0.0000 0.0000 0.0000 0.0000 31.9340 0.0000
# 6 0.0000 0.0000 0.0000 0.0000 0.0000 23.8615
#
#
#
# Elastic Compliance Matrix: (Units=1/GPa)
#
#
# Indices 1 2 3 4 5 6 
#
# 1 0.018362 -0.007180 -0.005905 0.000000 0.000000 0.000000
# 2 -0.007180 0.022887 -0.005174 0.000000 0.000000 0.000000
# 3 -0.005905 -0.005174 0.013709 0.000000 0.000000 0.000000
# 4 0.000000 0.000000 0.000000 0.044790 0.000000 0.000000
# 5 0.000000 0.000000 0.000000 0.000000 0.031315 0.000000
# 6 0.000000 0.000000 0.000000 0.000000 0.000000 0.041909
#
#
# Mechanical properties :
#
#
# Convention : Reuss Voigt Hill
#
# Bulk Modulus (GPa) = 54.22810 58.45521 56.34165
# Shear Modulus (GPa) = 23.18726 24.32035 23.75380
#
# Velocity S-wave (km/s) = 3.77784 3.86905 3.82372
# Velocity P-wave (km/s) = 7.23932 7.47927 7.36027
#
# Compressibility (1/GPa) = 0.01844062
#
# Stress axis : x y z
#
# Youngs Moduli (GPa) = 54.46053 43.69255 72.94550
#
# Poissons Ratio (x) = 0.31370 0.43076
# Poissons Ratio (y) = 0.39101 0.37740
# Poissons Ratio (z) = 0.32160 0.22605
#
# Static dielectric constant tensor:
#      x y z
#    x 3.182490 0.000000 0.000000 
#    y 0.000000 2.794350 0.000000 
#    z 0.000000 0.000000 3.308580 
# 
# 
# High freq. dielectric constant tensor:
#      x y z
#    x 1.642780 0.000000 0.000000 
#    y 0.000000 1.588630 0.000000 
#    z 0.000000 0.000000 1.625740 
# 
# From -- ./inp_files/32676.got.cif
#   From: 2010.03.12/outbox.cif.g09.slc.cpg/sg51_17_cif.got.tgz:32676.got - 2010.04.16 13:43:02.
