data_PCOD8206913
_publ_section_title
;
Structure prediction by ZEFSAII (Michael W. Deem and Ramdas Pophale) SiO2 
 PCOD8206913
Probable space group: P M M A
;
_chemical_formula_sum "Si O2"
_cell_formula_units_Z 36
_cell_length_a 8.977062
_cell_length_b 14.170460
_cell_length_c 15.567432
_cell_angle_alpha 90.000000
_cell_angle_beta 90.000000
_cell_angle_gamma 90.000000
_cell_volume 1980.318983
_symmetry_space_group_name_H-M "P M M A"
_symmetry_group_IT_number 51
_symmetry_cell_setting 'orthorhombic'
loop_
_space_group_symop_operation_xyz
x,y,z
1/2-x,-y,z
1/2+x,-y,-z
-x,y,-z
-x,-y,-z
1/2+x,y,-z
1/2-x,y,z
x,-y,z
loop_
_atom_site_type_symbol
_atom_site_label
_atom_site_fract_x
_atom_site_fract_y
_atom_site_fract_z
Si Si1 0.424311 0.610284 0.089546
Si Si2 0.923167 0.000000 0.910229
Si Si3 0.084001 0.611215 0.417209
Si Si4 0.924758 0.693638 0.255961
Si Si5 0.081145 0.101007 0.774296
O O1 0.250000 0.635111 0.085867
O O2 0.449951 0.500000 0.107762
O O3 0.501855 0.668118 0.165458
O O4 0.500000 0.640189 0.000000
O O5 0.975060 0.093590 0.857951
O O6 0.750000 0.000000 0.923779
O O7 0.000000 0.000000 0.000000
O O8 0.250000 0.654916 0.412528
O O9 0.094797 0.500000 0.427239
O O10 0.000000 0.654814 0.500000
O O11 0.995191 0.632768 0.331090
O O12 0.750000 0.671387 0.251850
O O13 0.958857 0.804367 0.278085
O O14 0.250000 0.111156 0.807811
O O15 0.064266 0.000000 0.721600
#
# Coordination Sequence:
#
# PCOD8206913 Si02
#       5
#     8   4   8   8   8
#     4  10  21  36  52  73 105 142 180 223 267 317
#     4  10  18  30  50  72  97 132 173 220 270 316
#     4  10  21  37  57  83 115 146 179 223 271 323
#     4  11  21  34  57  82 107 143 181 222 272 325
#     4   8  18  36  51  70 101 135 172 215 262 313
#
# _framework density 18.178889000000002
#
# number of rings (size 3 to 8) (size 9 to 14) (size 15 to 20)
#    0.667    1.556    0.000    3.333    0.000    8.000 
#    0.000    0.000    0.000    0.667    0.000    0.000 
#    0.000    0.000    0.000    0.000    0.000    0.000 
#
# Total GULP energy -446061.011060 kJ/mol
# GULP energy per Si atom -12390.583641 kJ/mol
# Density = 1.813751 g / cm^3
# Si number density = 18.178889 Si / 1000 Ang^3
#
#
#
# Elastic Constant Matrix: (Units=GPa)
#
#
# Indices 1 2 3 4 5 6 
#
# 1 132.1254 29.0013 46.8097 0.0000 0.0000 0.0000
# 2 29.0013 50.2035 18.8614 0.0000 0.0000 0.0000
# 3 46.8097 18.8614 95.1152 0.0000 0.0000 0.0000
# 4 0.0000 0.0000 0.0000 8.5566 0.0000 0.0000
# 5 0.0000 0.0000 0.0000 0.0000 31.0332 0.0000
# 6 0.0000 0.0000 0.0000 0.0000 0.0000 19.7503
#
#
#
# Elastic Compliance Matrix: (Units=1/GPa)
#
#
# Indices 1 2 3 4 5 6 
#
# 1 0.009929 -0.004214 -0.004051 0.000000 0.000000 0.000000
# 2 -0.004214 0.023311 -0.002549 0.000000 0.000000 0.000000
# 3 -0.004051 -0.002549 0.013012 0.000000 0.000000 0.000000
# 4 0.000000 0.000000 0.000000 0.116868 0.000000 0.000000
# 5 0.000000 0.000000 0.000000 0.000000 0.032224 0.000000
# 6 0.000000 0.000000 0.000000 0.000000 0.000000 0.050632
#
#
# Mechanical properties :
#
#
# Convention : Reuss Voigt Hill
#
# Bulk Modulus (GPa) = 40.60844 51.86545 46.23695
# Shear Modulus (GPa) = 18.12839 24.05281 21.09060
#
# Velocity S-wave (km/s) = 3.16131 3.64141 3.40982
# Velocity P-wave (km/s) = 5.97594 6.80238 6.40251
#
# Compressibility (1/GPa) = 0.02462542
#
# Stress axis : x y z
#
# Youngs Moduli (GPa) = 100.72000 42.89891 76.84941
#
# Poissons Ratio (x) = 0.18076 0.31129
# Poissons Ratio (y) = 0.42440 0.19588
# Poissons Ratio (z) = 0.40798 0.10934
#
# Static dielectric constant tensor:
#      x y z
#    x 3.483100 0.000000 0.000000 
#    y 0.000000 3.462130 0.000000 
#    z 0.000000 0.000000 3.133760 
# 
# 
# High freq. dielectric constant tensor:
#      x y z
#    x 1.722660 0.000000 0.000000 
#    y 0.000000 1.693660 0.000000 
#    z 0.000000 0.000000 1.678530 
# 
# From -- ./inp_files/20328.got.cif
#   From: 2010.03.12/outbox.cif.g09.slc.cpg/sg51_11_cif.got.tgz:20328.got - 2010.04.16 13:43:02.
