data_PCOD8206423
_publ_section_title
;
Structure prediction by ZEFSAII (Michael W. Deem and Ramdas Pophale) SiO2 
 PCOD8206423
Probable space group: P M M A
;
_chemical_formula_sum "Si O2"
_cell_formula_units_Z 52
_cell_length_a 9.296203
_cell_length_b 26.107512
_cell_length_c 13.610746
_cell_angle_alpha 90.000000
_cell_angle_beta 90.000000
_cell_angle_gamma 90.000000
_cell_volume 3303.338009
_symmetry_space_group_name_H-M "P M M A"
_symmetry_group_IT_number 51
_symmetry_cell_setting 'orthorhombic'
loop_
_space_group_symop_operation_xyz
x,y,z
1/2-x,-y,z
1/2+x,-y,-z
-x,y,-z
-x,-y,-z
1/2+x,y,-z
1/2-x,y,z
x,-y,z
loop_
_atom_site_type_symbol
_atom_site_label
_atom_site_fract_x
_atom_site_fract_y
_atom_site_fract_z
Si Si1 0.081059 0.111285 0.603916
Si Si2 0.916726 0.440858 0.099105
Si Si3 0.916843 0.256564 0.902193
Si Si4 0.082641 0.358681 0.208270
Si Si5 0.916307 0.699555 0.596997
Si Si6 0.587729 0.000000 0.402946
Si Si7 0.082155 0.198459 0.292820
O O1 0.250000 0.122973 0.587993
O O2 0.000000 0.117290 0.500000
O O3 0.015136 0.149763 0.682985
O O4 0.056731 0.054121 0.651846
O O5 0.750000 0.427000 0.084521
O O6 0.937845 0.500000 0.127246
O O7 0.984451 0.407806 0.186769
O O8 0.000000 0.426694 0.000000
O O9 0.750000 0.256218 0.927422
O O10 0.962174 0.312793 0.864753
O O11 0.951870 0.214820 0.818667
O O12 0.000000 0.241185 0.000000
O O13 0.250000 0.372576 0.194813
O O14 0.050305 0.342260 0.319676
O O15 0.750000 0.699808 0.570555
O O16 0.962488 0.755698 0.634150
O O17 0.000000 0.683573 0.500000
O O18 0.500000 0.000000 0.500000
O O19 0.750000 0.000000 0.439373
O O20 0.250000 0.185065 0.305197
#
# Coordination Sequence:
#
# PCOD8206423 Si02
#       7
#     8   8   8   8   8   4   8
#     4  10  18  28  43  63  88 118 149 181 217 258
#     4  10  20  32  47  69  94 118 145 179 219 262
#     4   9  18  31  46  65  91 118 145 179 217 259
#     4   9  18  32  48  67  91 119 148 179 217 259
#     4   9  18  31  46  65  91 120 149 181 217 256
#     4   8  16  28  40  58  85 114 145 180 217 256
#     4   9  18  31  44  63  91 119 146 179 218 259
#
# _framework density 15.741652999999999
#
# number of rings (size 3 to 8) (size 9 to 14) (size 15 to 20)
#    0.000    2.769    0.000    3.692    0.000    6.462 
#    0.000    3.077    0.000    0.462    0.000    0.538 
#    0.000    0.000    0.000    0.000    0.000    0.000 
#
# Total GULP energy -644592.694792 kJ/mol
# GULP energy per Si atom -12396.013361 kJ/mol
# Density = 1.570582 g / cm^3
# Si number density = 15.741653 Si / 1000 Ang^3
#
#
#
# Elastic Constant Matrix: (Units=GPa)
#
#
# Indices 1 2 3 4 5 6 
#
# 1 82.5784 60.1525 52.2321 0.0000 0.0000 0.0000
# 2 60.1525 102.8437 48.7823 0.0000 0.0000 0.0000
# 3 52.2321 48.7823 95.7878 0.0000 0.0000 0.0000
# 4 0.0000 0.0000 0.0000 20.0624 0.0000 0.0000
# 5 0.0000 0.0000 0.0000 0.0000 31.6344 0.0000
# 6 0.0000 0.0000 0.0000 0.0000 0.0000 28.3685
#
#
#
# Elastic Compliance Matrix: (Units=1/GPa)
#
#
# Indices 1 2 3 4 5 6 
#
# 1 0.025212 -0.010845 -0.008225 0.000000 0.000000 0.000000
# 2 -0.010845 0.017485 -0.002991 0.000000 0.000000 0.000000
# 3 -0.008225 -0.002991 0.016448 0.000000 0.000000 0.000000
# 4 0.000000 0.000000 0.000000 0.049845 0.000000 0.000000
# 5 0.000000 0.000000 0.000000 0.000000 0.031611 0.000000
# 6 0.000000 0.000000 0.000000 0.000000 0.000000 0.035250
#
#
# Mechanical properties :
#
#
# Convention : Reuss Voigt Hill
#
# Bulk Modulus (GPa) = 66.56270 67.06041 66.81156
# Shear Modulus (GPa) = 22.22414 24.01592 23.12003
#
# Velocity S-wave (km/s) = 3.76148 3.91017 3.83654
# Velocity P-wave (km/s) = 7.82567 7.94223 7.88417
#
# Compressibility (1/GPa) = 0.01502343
#
# Stress axis : x y z
#
# Youngs Moduli (GPa) = 39.66420 57.19035 60.79785
#
# Poissons Ratio (x) = 0.62022 0.50004
# Poissons Ratio (y) = 0.43015 0.18186
# Poissons Ratio (z) = 0.32622 0.17107
#
# Static dielectric constant tensor:
#      x y z
#    x 2.989260 0.000000 0.000000 
#    y 0.000000 3.218100 0.000000 
#    z 0.000000 0.000000 2.760760 
# 
# 
# High freq. dielectric constant tensor:
#      x y z
#    x 1.611710 0.000000 0.000000 
#    y 0.000000 1.600850 0.000000 
#    z 0.000000 0.000000 1.580310 
# 
# From -- ./inp_files/14650.got.cif
#   From: 2010.03.12/outbox.cif.g09.slc.cpg/sg51_8_cif.got.tgz:14650.got - 2010.04.16 13:43:02.
