data_PCOD8206032
_publ_section_title
;
Structure prediction by ZEFSAII (Michael W. Deem and Ramdas Pophale) SiO2 
 PCOD8206032
Probable space group: P M M A
;
_chemical_formula_sum "Si O2"
_cell_formula_units_Z 28
_cell_length_a 8.684664
_cell_length_b 18.597987
_cell_length_c 9.243731
_cell_angle_alpha 90.000000
_cell_angle_beta 90.000000
_cell_angle_gamma 90.000000
_cell_volume 1493.022179
_symmetry_space_group_name_H-M "P M M A"
_symmetry_group_IT_number 51
_symmetry_cell_setting 'orthorhombic'
loop_
_space_group_symop_operation_xyz
x,y,z
1/2-x,-y,z
1/2+x,-y,-z
-x,y,-z
-x,-y,-z
1/2+x,y,-z
1/2-x,y,z
x,-y,z
loop_
_atom_site_type_symbol
_atom_site_label
_atom_site_fract_x
_atom_site_fract_y
_atom_site_fract_z
Si Si1 0.432654 0.863884 0.840899
Si Si2 0.429615 0.577941 0.841749
Si Si3 0.431606 0.000000 0.657897
Si Si4 0.432193 0.718688 0.160805
O O1 0.250000 0.859130 0.851734
O O2 0.498592 0.790787 0.766758
O O3 0.489558 0.929651 0.742636
O O4 0.500000 0.875496 0.000000
O O5 0.250000 0.595156 0.854470
O O6 0.457014 0.500000 0.763678
O O7 0.511775 0.645013 0.758357
O O8 0.500000 0.572229 0.000000
O O9 0.500000 0.000000 0.500000
O O10 0.250000 0.000000 0.646146
O O11 0.250000 0.723238 0.160208
O O12 0.500000 0.715625 0.000000
#
# Coordination Sequence:
#
# PCOD8206032 Si02
#       4
#     8   8   4   8
#     4  10  19  33  51  73  97 125 161 199 239 284
#     4   9  15  22  33  51  79 116 153 189 230 275
#     4  10  23  38  54  74  98 126 157 196 242 290
#     4  10  17  25  39  60  86 119 155 193 234 276
#
# _framework density 18.753907000000002
#
# number of rings (size 3 to 8) (size 9 to 14) (size 15 to 20)
#    0.000    2.286    0.000    8.143    0.000    4.000 
#    0.000    0.000    0.000    0.000    0.000    0.000 
#    0.000    1.143    0.000    3.714    0.000   14.000 
#
# Total GULP energy -346912.715399 kJ/mol
# GULP energy per Si atom -12389.739836 kJ/mol
# Density = 1.871122 g / cm^3
# Si number density = 18.753907 Si / 1000 Ang^3
#
#
#
# Elastic Constant Matrix: (Units=GPa)
#
#
# Indices 1 2 3 4 5 6 
#
# 1 121.3831 74.6152 20.3677 0.0000 0.0000 0.0000
# 2 74.6152 237.7402 47.5415 0.0000 0.0000 0.0000
# 3 20.3677 47.5415 42.5048 0.0000 0.0000 0.0000
# 4 0.0000 0.0000 0.0000 1.2318 0.0000 0.0000
# 5 0.0000 0.0000 0.0000 0.0000 15.2288 0.0000
# 6 0.0000 0.0000 0.0000 0.0000 0.0000 33.8797
#
#
#
# Elastic Compliance Matrix: (Units=1/GPa)
#
#
# Indices 1 2 3 4 5 6 
#
# 1 0.010302 -0.002893 -0.001701 0.000000 0.000000 0.000000
# 2 -0.002893 0.006231 -0.005583 0.000000 0.000000 0.000000
# 3 -0.001701 -0.005583 0.030586 0.000000 0.000000 0.000000
# 4 0.000000 0.000000 0.000000 0.811843 0.000000 0.000000
# 5 0.000000 0.000000 0.000000 0.000000 0.065665 0.000000
# 6 0.000000 0.000000 0.000000 0.000000 0.000000 0.029516
#
#
# Mechanical properties :
#
#
# Convention : Reuss Voigt Hill
#
# Bulk Modulus (GPa) = 37.36108 76.29744 56.82926
# Shear Modulus (GPa) = 5.08431 27.34164 16.21298
#
# Velocity S-wave (km/s) = 1.64832 3.82241 2.94345
# Velocity P-wave (km/s) = 4.85671 7.76227 6.47459
#
# Compressibility (1/GPa) = 0.02676582
#
# Stress axis : x y z
#
# Youngs Moduli (GPa) = 97.06593 160.49514 32.69499
#
# Poissons Ratio (x) = 0.46437 0.05560
# Poissons Ratio (y) = 0.28084 0.18252
# Poissons Ratio (z) = 0.16506 0.89598
#
# Static dielectric constant tensor:
#      x y z
#    x 3.509970 0.000000 0.000000 
#    y 0.000000 5.282730 0.000000 
#    z 0.000000 0.000000 2.694890 
# 
# 
# High freq. dielectric constant tensor:
#      x y z
#    x 1.744300 0.000000 0.000000 
#    y 0.000000 1.774000 0.000000 
#    z 0.000000 0.000000 1.630550 
# 
# From -- ./inp_files/4781.got.cif
#   From: 2010.03.12/outbox.cif.g09.slc.cpg/sg51_3_cif.got.tgz:4781.got - 2010.04.16 13:43:02.
