data_PCOD8206238
_publ_section_title
;
Structure prediction by ZEFSAII (Michael W. Deem and Ramdas Pophale) SiO2 
 PCOD8206238
Probable space group: P M M A
;
_chemical_formula_sum "Si O2"
_cell_formula_units_Z 64
_cell_length_a 9.003084
_cell_length_b 27.122935
_cell_length_c 18.033289
_cell_angle_alpha 90.000000
_cell_angle_beta 90.000000
_cell_angle_gamma 90.000000
_cell_volume 4403.549961
_symmetry_space_group_name_H-M "P M M A"
_symmetry_group_IT_number 51
_symmetry_cell_setting 'orthorhombic'
loop_
_space_group_symop_operation_xyz
x,y,z
1/2-x,-y,z
1/2+x,-y,-z
-x,y,-z
-x,-y,-z
1/2+x,y,-z
1/2-x,y,z
x,-y,z
loop_
_atom_site_type_symbol
_atom_site_label
_atom_site_fract_x
_atom_site_fract_y
_atom_site_fract_z
Si Si1 0.574142 0.646271 0.920658
Si Si2 0.918294 0.703089 0.202868
Si Si3 0.916208 0.606501 0.302614
Si Si4 0.925855 0.159329 0.419519
Si Si5 0.919837 0.339057 0.577183
Si Si6 0.079011 0.555365 0.178744
Si Si7 0.422093 0.051989 0.577735
Si Si8 0.078701 0.757935 0.325103
O O1 0.750000 0.652766 0.927335
O O2 0.508453 0.690900 0.871859
O O3 0.529677 0.593511 0.884980
O O4 0.500000 0.648768 0.000000
O O5 0.750000 0.719256 0.183398
O O6 0.917552 0.655546 0.254326
O O7 0.002097 0.746981 0.245936
O O8 0.750000 0.590787 0.324266
O O9 0.007520 0.615727 0.377799
O O10 0.989008 0.562936 0.254750
O O11 0.750000 0.168912 0.427573
O O12 0.962530 0.104602 0.384873
O O13 0.000000 0.166543 0.500000
O O14 0.994233 0.196530 0.361030
O O15 0.750000 0.352737 0.562861
O O16 0.937293 0.288457 0.621213
O O17 0.000000 0.331580 0.500000
O O18 0.250000 0.564454 0.198828
O O19 0.049896 0.500000 0.149269
O O20 0.500000 0.050006 0.500000
O O21 0.250000 0.052938 0.559947
O O22 0.461783 0.000000 0.621628
O O23 0.250000 0.771466 0.311497
#
# Coordination Sequence:
#
# PCOD8206238 Si02
#       8
#     8   8   8   8   8   8   8   8
#     4  10  19  31  47  67  90 113 137 163 191 224
#     4   9  17  30  46  62  81 106 135 164 195 234
#     4   9  17  29  45  63  81 102 130 162 194 233
#     4  10  18  26  37  54  77 105 138 178 220 256
#     4  10  19  29  42  59  79 103 130 162 200 241
#     4   9  18  32  48  65  86 111 135 159 190 228
#     4   8  14  24  36  49  67  95 133 175 216 255
#     4  10  19  29  41  58  81 107 134 166 205 247
#
# _framework density 14.533728999999999
#
# number of rings (size 3 to 8) (size 9 to 14) (size 15 to 20)
#    0.000    2.625    0.000    2.625    0.000    7.000 
#    0.000    0.000    0.000    0.375    0.000    0.000 
#    0.000    0.000    0.000    0.000    0.000    0.625 
#
# Total GULP energy -793140.552247 kJ/mol
# GULP energy per Si atom -12392.821129 kJ/mol
# Density = 1.450065 g / cm^3
# Si number density = 14.533729 Si / 1000 Ang^3
#
#
#
# Elastic Constant Matrix: (Units=GPa)
#
#
# Indices 1 2 3 4 5 6 
#
# 1 102.3883 42.4152 51.8784 0.0000 0.0000 0.0000
# 2 42.4152 80.4108 45.6408 0.0000 0.0000 0.0000
# 3 51.8784 45.6408 61.0807 0.0000 0.0000 0.0000
# 4 0.0000 0.0000 0.0000 6.0229 0.0000 0.0000
# 5 0.0000 0.0000 0.0000 0.0000 25.4036 0.0000
# 6 0.0000 0.0000 0.0000 0.0000 0.0000 16.0975
#
#
#
# Elastic Compliance Matrix: (Units=1/GPa)
#
#
# Indices 1 2 3 4 5 6 
#
# 1 0.017230 -0.001358 -0.013619 0.000000 0.000000 0.000000
# 2 -0.001358 0.021702 -0.015063 0.000000 0.000000 0.000000
# 3 -0.013619 -0.015063 0.039194 0.000000 0.000000 0.000000
# 4 0.000000 0.000000 0.000000 0.166033 0.000000 0.000000
# 5 0.000000 0.000000 0.000000 0.000000 0.039365 0.000000
# 6 0.000000 0.000000 0.000000 0.000000 0.000000 0.062121
#
#
# Mechanical properties :
#
#
# Convention : Reuss Voigt Hill
#
# Bulk Modulus (GPa) = 55.41361 58.19429 56.80395
# Shear Modulus (GPa) = 12.14353 16.43448 14.28900
#
# Velocity S-wave (km/s) = 2.89371 3.36636 3.13894
# Velocity P-wave (km/s) = 7.02674 7.43220 7.23231
#
# Compressibility (1/GPa) = 0.01804611
#
# Stress axis : x y z
#
# Youngs Moduli (GPa) = 58.03790 46.07846 25.51381
#
# Poissons Ratio (x) = 0.06259 0.34748
# Poissons Ratio (y) = 0.07883 0.38431
# Poissons Ratio (z) = 0.79044 0.69406
#
# Static dielectric constant tensor:
#      x y z
#    x 3.054290 0.000000 0.000000 
#    y 0.000000 3.025790 0.000000 
#    z 0.000000 0.000000 2.622370 
# 
# 
# High freq. dielectric constant tensor:
#      x y z
#    x 1.576070 0.000000 0.000000 
#    y 0.000000 1.536430 0.000000 
#    z 0.000000 0.000000 1.520390 
# 
# From -- ./inp_files/28642.got.cif
#   From: 2010.03.12/outbox.cif.g09.slc.cpg/sg51_15_cif.got.tgz:28642.got - 2010.04.16 13:43:02.
