data_PCOD8206007
_publ_section_title
;
Structure prediction by ZEFSAII (Michael W. Deem and Ramdas Pophale) SiO2 
 PCOD8206007
Probable space group: P M M A
;
_chemical_formula_sum "Si O2"
_cell_formula_units_Z 56
_cell_length_a 21.997865
_cell_length_b 8.728952
_cell_length_c 17.846718
_cell_angle_alpha 90.000000
_cell_angle_beta 90.000000
_cell_angle_gamma 90.000000
_cell_volume 3426.896588
_symmetry_space_group_name_H-M "P M M A"
_symmetry_group_IT_number 51
_symmetry_cell_setting 'orthorhombic'
loop_
_space_group_symop_operation_xyz
x,y,z
1/2-x,-y,z
1/2+x,-y,-z
-x,y,-z
-x,-y,-z
1/2+x,y,-z
1/2-x,y,z
x,-y,z
loop_
_atom_site_type_symbol
_atom_site_label
_atom_site_fract_x
_atom_site_fract_y
_atom_site_fract_z
Si Si1 0.961855 0.819698 0.237916
Si Si2 0.910481 0.678962 0.548075
Si Si3 0.923447 0.820689 0.947234
Si Si4 0.818117 0.818419 0.655550
Si Si5 0.552404 0.319994 0.090163
Si Si6 0.598363 0.819239 0.786541
Si Si7 0.540164 0.320947 0.390331
O O1 0.923540 0.734867 0.171617
O O2 0.935153 0.771491 0.318488
O O3 0.031285 0.757510 0.234205
O O4 0.955955 0.000000 0.226371
O O5 0.900608 0.500000 0.561078
O O6 0.853123 0.769413 0.580555
O O7 0.915404 0.716241 0.459756
O O8 0.972007 0.733397 0.589259
O O9 0.883937 0.777202 0.872924
O O10 0.992168 0.777557 0.925966
O O11 0.918902 0.000000 0.964701
O O12 0.901943 0.726232 0.021425
O O13 0.750000 0.750702 0.653816
O O14 0.852286 0.749632 0.729053
O O15 0.816129 0.000000 0.659258
O O16 0.539784 0.500000 0.089009
O O17 0.596362 0.000000 0.776978
O O18 0.540619 0.500000 0.372192
#
# Coordination Sequence:
#
# PCOD8206007 Si02
#       7
#     8   8   8   8   8   8   8
#     4  10  17  26  41  60  84 113 145 176 211 260
#     4   9  18  31  45  62  86 113 144 180 225 271
#     4   9  15  25  38  52  76 108 144 176 205 247
#     4  10  19  31  46  64  87 115 151 189 220 254
#     4  10  17  24  35  55  82 109 139 170 208 250
#     4   8  15  26  39  57  80 109 143 178 215 250
#     4   9  17  29  44  63  86 113 143 181 222 267
#
# _framework density 16.341317
#
# number of rings (size 3 to 8) (size 9 to 14) (size 15 to 20)
#    0.000    2.714    1.429    4.714    0.000    0.857 
#    0.000    2.143    0.000    0.000    0.000    0.000 
#    0.000    1.143    0.000    6.000    0.000    3.286 
#
# Total GULP energy -693927.983693 kJ/mol
# GULP energy per Si atom -12391.571137 kJ/mol
# Density = 1.630412 g / cm^3
# Si number density = 16.341317 Si / 1000 Ang^3
#
#
#
# Elastic Constant Matrix: (Units=GPa)
#
#
# Indices 1 2 3 4 5 6 
#
# 1 48.2111 12.5340 33.8331 0.0000 0.0000 0.0000
# 2 12.5340 44.8514 38.4443 0.0000 0.0000 0.0000
# 3 33.8331 38.4443 151.4908 0.0000 0.0000 0.0000
# 4 0.0000 0.0000 0.0000 29.3997 0.0000 0.0000
# 5 0.0000 0.0000 0.0000 0.0000 13.1010 0.0000
# 6 0.0000 0.0000 0.0000 0.0000 0.0000 11.2504
#
#
#
# Elastic Compliance Matrix: (Units=1/GPa)
#
#
# Indices 1 2 3 4 5 6 
#
# 1 0.024869 -0.002798 -0.004844 0.000000 0.000000 0.000000
# 2 -0.002798 0.028809 -0.006686 0.000000 0.000000 0.000000
# 3 -0.004844 -0.006686 0.009380 0.000000 0.000000 0.000000
# 4 0.000000 0.000000 0.000000 0.034014 0.000000 0.000000
# 5 0.000000 0.000000 0.000000 0.000000 0.076330 0.000000
# 6 0.000000 0.000000 0.000000 0.000000 0.000000 0.088886
#
#
# Mechanical properties :
#
#
# Convention : Reuss Voigt Hill
#
# Bulk Modulus (GPa) = 29.06844 46.01957 37.54401
# Shear Modulus (GPa) = 16.53387 21.39970 18.96678
#
# Velocity S-wave (km/s) = 3.18430 3.62269 3.41055
# Velocity P-wave (km/s) = 5.59881 6.76174 6.20757
#
# Compressibility (1/GPa) = 0.03440157
#
# Stress axis : x y z
#
# Youngs Moduli (GPa) = 40.21088 34.71191 106.61373
#
# Poissons Ratio (x) = 0.09711 0.51645
# Poissons Ratio (y) = 0.11249 0.71282
# Poissons Ratio (z) = 0.19479 0.23208
#
# Static dielectric constant tensor:
#      x y z
#    x 2.682900 0.000000 0.000000 
#    y 0.000000 2.876320 0.000000 
#    z 0.000000 0.000000 3.761520 
# 
# 
# High freq. dielectric constant tensor:
#      x y z
#    x 1.544770 0.000000 0.000000 
#    y 0.000000 1.621850 0.000000 
#    z 0.000000 0.000000 1.655700 
# 
# From -- ./inp_files/30778.got.cif
#   From: 2010.03.12/outbox.cif.g09.slc.cpg/sg51_16_cif.got.tgz:30778.got - 2010.04.16 13:43:02.
