data_PCOD8206767
_publ_section_title
;
Structure prediction by ZEFSAII (Michael W. Deem and Ramdas Pophale) SiO2 
 PCOD8206767
Probable space group: P M M A
;
_chemical_formula_sum "Si O2"
_cell_formula_units_Z 64
_cell_length_a 29.628900
_cell_length_b 8.617005
_cell_length_c 15.002015
_cell_angle_alpha 90.000000
_cell_angle_beta 90.000000
_cell_angle_gamma 90.000000
_cell_volume 3830.200146
_symmetry_space_group_name_H-M "P M M A"
_symmetry_group_IT_number 51
_symmetry_cell_setting 'orthorhombic'
loop_
_space_group_symop_operation_xyz
x,y,z
1/2-x,-y,z
1/2+x,-y,-z
-x,y,-z
-x,-y,-z
1/2+x,y,-z
1/2-x,y,z
x,-y,z
loop_
_atom_site_type_symbol
_atom_site_label
_atom_site_fract_x
_atom_site_fract_y
_atom_site_fract_z
Si Si1 0.883415 0.179415 0.195545
Si Si2 0.701034 0.684325 0.483785
Si Si3 0.198961 0.322427 0.719041
Si Si4 0.560538 0.680756 0.354182
Si Si5 0.027506 0.181019 0.122241
Si Si6 0.605242 0.684516 0.536680
Si Si7 0.937992 0.319180 0.048220
Si Si8 0.958721 0.681057 0.691661
O O1 0.831811 0.215495 0.219249
O O2 0.916642 0.225119 0.275127
O O3 0.894479 0.274104 0.105783
O O4 0.889757 0.000000 0.174615
O O5 0.750000 0.747124 0.520062
O O6 0.702474 0.500000 0.485863
O O7 0.694719 0.738303 0.382035
O O8 0.657551 0.744726 0.539471
O O9 0.250000 0.306780 0.753539
O O10 0.182189 0.500000 0.724827
O O11 0.571924 0.500000 0.340536
O O12 0.580310 0.743904 0.447474
O O13 0.507165 0.711257 0.353203
O O14 0.048093 0.224112 0.217647
O O15 0.981872 0.277441 0.106838
O O16 0.016174 0.000000 0.117672
O O17 0.062944 0.225604 0.044833
O O18 0.603489 0.500000 0.536243
O O19 0.579048 0.746244 0.623460
O O20 0.938070 0.500000 0.026273
O O21 0.951839 0.500000 0.712322
#
# Coordination Sequence:
#
# PCOD8206767 Si02
#       8
#     8   8   8   8   8   8   8   8
#     4  12  22  31  47  73 104 133 162 199 248 300
#     4   8  13  23  43  70  95 120 158 209 251 280
#     4   9  17  31  51  72  96 129 169 207 243 289
#     4  10  18  30  46  65  95 133 174 207 236 281
#     4  11  21  34  50  72 100 125 155 201 251 295
#     4   9  16  27  45  69  95 128 172 210 242 283
#     4  11  21  35  54  72  93 125 165 202 238 290
#     4  10  19  30  47  69  95 132 172 208 241 287
#
# _framework density 16.709309000000001
#
# number of rings (size 3 to 8) (size 9 to 14) (size 15 to 20)
#    0.000    2.000    2.500    5.250    0.000    1.750 
#    0.000    0.625    0.000    1.500    0.000    0.875 
#    0.000    5.000    0.000    0.000    0.000    0.000 
#
# Total GULP energy -793495.997112 kJ/mol
# GULP energy per Si atom -12398.374955 kJ/mol
# Density = 1.667128 g / cm^3
# Si number density = 16.709309 Si / 1000 Ang^3
#
#
#
# Elastic Constant Matrix: (Units=GPa)
#
#
# Indices 1 2 3 4 5 6 
#
# 1 112.2116 16.3927 50.3083 0.0000 0.0000 0.0000
# 2 16.3927 52.3923 16.8159 0.0000 0.0000 0.0000
# 3 50.3083 16.8159 93.2087 0.0000 0.0000 0.0000
# 4 0.0000 0.0000 0.0000 8.8651 0.0000 0.0000
# 5 0.0000 0.0000 0.0000 0.0000 21.0752 0.0000
# 6 0.0000 0.0000 0.0000 0.0000 0.0000 11.2965
#
#
#
# Elastic Compliance Matrix: (Units=1/GPa)
#
#
# Indices 1 2 3 4 5 6 
#
# 1 0.011908 -0.001765 -0.006109 0.000000 0.000000 0.000000
# 2 -0.001765 0.020522 -0.002750 0.000000 0.000000 0.000000
# 3 -0.006109 -0.002750 0.014522 0.000000 0.000000 0.000000
# 4 0.000000 0.000000 0.000000 0.112802 0.000000 0.000000
# 5 0.000000 0.000000 0.000000 0.000000 0.047449 0.000000
# 6 0.000000 0.000000 0.000000 0.000000 0.000000 0.088523
#
#
# Mechanical properties :
#
#
# Convention : Reuss Voigt Hill
#
# Bulk Modulus (GPa) = 38.90380 47.20515 43.05448
# Shear Modulus (GPa) = 15.35901 19.86707 17.61304
#
# Velocity S-wave (km/s) = 3.03510 3.45190 3.25019
# Velocity P-wave (km/s) = 5.96789 6.64828 6.31725
#
# Compressibility (1/GPa) = 0.02570443
#
# Stress axis : x y z
#
# Youngs Moduli (GPa) = 83.97369 48.72918 68.86131
#
# Poissons Ratio (x) = 0.08602 0.42067
# Poissons Ratio (y) = 0.14823 0.18934
# Poissons Ratio (z) = 0.51300 0.13398
#
# Static dielectric constant tensor:
#      x y z
#    x 3.334530 0.000000 0.000000 
#    y 0.000000 2.889800 0.000000 
#    z 0.000000 0.000000 3.145730 
# 
# 
# High freq. dielectric constant tensor:
#      x y z
#    x 1.634160 0.000000 0.000000 
#    y 0.000000 1.623530 0.000000 
#    z 0.000000 0.000000 1.625850 
# 
# From -- ./inp_files/26725.got.cif
#   From: 2010.03.12/outbox.cif.g09.slc.cpg/sg51_14_cif.got.tgz:26725.got - 2010.04.16 13:43:02.
