data_PCOD8206422
_publ_section_title
;
Structure prediction by ZEFSAII (Michael W. Deem and Ramdas Pophale) SiO2 
 PCOD8206422
Probable space group: P M M A
;
_chemical_formula_sum "Si O2"
_cell_formula_units_Z 56
_cell_length_a 9.164311
_cell_length_b 18.308971
_cell_length_c 21.095513
_cell_angle_alpha 90.000000
_cell_angle_beta 90.000000
_cell_angle_gamma 90.000000
_cell_volume 3539.597232
_symmetry_space_group_name_H-M "P M M A"
_symmetry_group_IT_number 51
_symmetry_cell_setting 'orthorhombic'
loop_
_space_group_symop_operation_xyz
x,y,z
1/2-x,-y,z
1/2+x,-y,-z
-x,y,-z
-x,-y,-z
1/2+x,y,-z
1/2-x,y,z
x,-y,z
loop_
_atom_site_type_symbol
_atom_site_label
_atom_site_fract_x
_atom_site_fract_y
_atom_site_fract_z
Si Si1 0.086007 0.794936 0.744253
Si Si2 0.577411 0.665989 0.689022
Si Si3 0.920378 0.084053 0.809362
Si Si4 0.420331 0.835762 0.062183
Si Si5 0.419706 0.416626 0.798868
Si Si6 0.920427 0.583064 0.562610
Si Si7 0.588685 0.285941 0.122403
O O1 0.250000 0.808187 0.718842
O O2 0.087896 0.752739 0.809960
O O3 0.996303 0.745819 0.694348
O O4 0.007451 0.872727 0.754871
O O5 0.750000 0.674025 0.698216
O O6 0.518885 0.609331 0.740947
O O7 0.534434 0.634351 0.620762
O O8 0.750000 0.096728 0.797355
O O9 0.962700 0.111849 0.879566
O O10 0.965471 0.000000 0.804300
O O11 0.250000 0.834143 0.049036
O O12 0.474061 0.752847 0.075883
O O13 0.500000 0.867103 0.000000
O O14 0.250000 0.405503 0.779912
O O15 0.456823 0.500000 0.814775
O O16 0.454560 0.370065 0.862922
O O17 0.750000 0.586951 0.549505
O O18 0.969260 0.500000 0.577905
O O19 0.000000 0.612726 0.500000
O O20 0.750000 0.280222 0.091569
#
# Coordination Sequence:
#
# PCOD8206422 Si02
#       7
#     8   8   8   8   8   8   8
#     4   9  17  29  45  65  87 113 145 178 215 257
#     4  10  18  28  43  63  88 117 150 186 220 257
#     4   9  18  32  48  67  92 118 141 169 210 257
#     4  10  19  30  45  63  83 110 143 175 207 249
#     4   9  17  28  43  64  87 110 138 176 223 268
#     4   9  18  30  42  59  86 121 158 192 225 259
#     4   8  15  28  43  59  81 107 136 172 213 256
#
# _framework density 15.821009
#
# number of rings (size 3 to 8) (size 9 to 14) (size 15 to 20)
#    0.000    2.857    0.000    2.571    0.000    6.571 
#    0.000    1.429    0.000    0.429    0.000    0.000 
#    0.000    0.571    0.000    1.857    0.000    2.286 
#
# Total GULP energy -694268.579522 kJ/mol
# GULP energy per Si atom -12397.653206 kJ/mol
# Density = 1.578500 g / cm^3
# Si number density = 15.821009 Si / 1000 Ang^3
#
#
#
# Elastic Constant Matrix: (Units=GPa)
#
#
# Indices 1 2 3 4 5 6 
#
# 1 74.7107 47.3166 34.3411 0.0000 0.0000 0.0000
# 2 47.3166 120.8988 41.1469 0.0000 0.0000 0.0000
# 3 34.3411 41.1469 52.4638 0.0000 0.0000 0.0000
# 4 0.0000 0.0000 0.0000 18.7615 0.0000 0.0000
# 5 0.0000 0.0000 0.0000 0.0000 25.3175 0.0000
# 6 0.0000 0.0000 0.0000 0.0000 0.0000 23.5813
#
#
#
# Elastic Compliance Matrix: (Units=1/GPa)
#
#
# Indices 1 2 3 4 5 6 
#
# 1 0.021033 -0.004837 -0.009974 0.000000 0.000000 0.000000
# 2 -0.004837 0.012396 -0.006555 0.000000 0.000000 0.000000
# 3 -0.009974 -0.006555 0.030731 0.000000 0.000000 0.000000
# 4 0.000000 0.000000 0.000000 0.053301 0.000000 0.000000
# 5 0.000000 0.000000 0.000000 0.000000 0.039498 0.000000
# 6 0.000000 0.000000 0.000000 0.000000 0.000000 0.042406
#
#
# Mechanical properties :
#
#
# Convention : Reuss Voigt Hill
#
# Bulk Modulus (GPa) = 46.67144 54.85362 50.76253
# Shear Modulus (GPa) = 20.06100 21.88331 20.97216
#
# Velocity S-wave (km/s) = 3.56476 3.72315 3.64481
# Velocity P-wave (km/s) = 6.81961 7.29583 7.06173
#
# Compressibility (1/GPa) = 0.02142638
#
# Stress axis : x y z
#
# Youngs Moduli (GPa) = 47.54423 80.67332 32.54086
#
# Poissons Ratio (x) = 0.39024 0.32455
# Poissons Ratio (y) = 0.22999 0.21332
# Poissons Ratio (z) = 0.47419 0.52885
#
# Static dielectric constant tensor:
#      x y z
#    x 3.103240 0.000000 0.000000 
#    y 0.000000 3.133540 0.000000 
#    z 0.000000 0.000000 2.790740 
# 
# 
# High freq. dielectric constant tensor:
#      x y z
#    x 1.616660 0.000000 0.000000 
#    y 0.000000 1.598540 0.000000 
#    z 0.000000 0.000000 1.571250 
# 
# From -- ./inp_files/32250.got.cif
#   From: 2010.03.12/outbox.cif.g09.slc.cpg/sg51_17_cif.got.tgz:32250.got - 2010.04.16 13:43:02.
