data_PCOD8206606
_publ_section_title
;
Structure prediction by ZEFSAII (Michael W. Deem and Ramdas Pophale) SiO2 
 PCOD8206606
Probable space group: P M M A
;
_chemical_formula_sum "Si O2"
_cell_formula_units_Z 52
_cell_length_a 8.833183
_cell_length_b 26.695958
_cell_length_c 13.695239
_cell_angle_alpha 90.000000
_cell_angle_beta 90.000000
_cell_angle_gamma 90.000000
_cell_volume 3229.478176
_symmetry_space_group_name_H-M "P M M A"
_symmetry_group_IT_number 51
_symmetry_cell_setting 'orthorhombic'
loop_
_space_group_symop_operation_xyz
x,y,z
1/2-x,-y,z
1/2+x,-y,-z
-x,y,-z
-x,-y,-z
1/2+x,y,-z
1/2-x,y,z
x,-y,z
loop_
_atom_site_type_symbol
_atom_site_label
_atom_site_fract_x
_atom_site_fract_y
_atom_site_fract_z
Si Si1 0.570517 0.801331 0.281958
Si Si2 0.928859 0.891215 0.607475
Si Si3 0.072561 0.444597 0.898198
Si Si4 0.923378 0.000000 0.602081
Si Si5 0.925446 0.704961 0.399020
Si Si6 0.569925 0.746515 0.896126
Si Si7 0.927951 0.654128 0.204645
O O1 0.750000 0.803294 0.266168
O O2 0.507874 0.854260 0.316988
O O3 0.525424 0.760148 0.363378
O O4 0.492151 0.787233 0.180301
O O5 0.750000 0.880065 0.600486
O O6 0.962984 0.946917 0.653870
O O7 0.000000 0.885122 0.500000
O O8 0.250000 0.445006 0.914970
O O9 0.016151 0.500000 0.864648
O O10 0.027276 0.403357 0.817540
O O11 0.000000 0.428644 0.000000
O O12 0.000000 0.000000 0.500000
O O13 0.750000 0.000000 0.575824
O O14 0.750000 0.703316 0.418826
O O15 0.973253 0.664655 0.316696
O O16 0.000000 0.689744 0.500000
O O17 0.750000 0.749124 0.900605
O O18 0.519119 0.690575 0.867019
O O19 0.500000 0.760796 0.000000
O O20 0.750000 0.664905 0.188150
#
# Coordination Sequence:
#
# PCOD8206606 Si02
#       7
#     8   8   8   4   8   8   8
#     4  10  20  33  47  67  93 121 154 192 231 274
#     4  10  18  29  45  67  95 128 161 195 233 273
#     4   9  17  29  46  67  90 116 146 182 226 273
#     4   8  16  28  42  62  91 124 159 194 230 272
#     4   9  18  30  44  62  87 117 149 185 222 262
#     4  11  21  33  49  69  93 121 151 184 225 274
#     4   9  18  32  47  66  92 120 151 186 224 269
#
# _framework density 16.101672000000001
#
# number of rings (size 3 to 8) (size 9 to 14) (size 15 to 20)
#    0.000    2.462    0.000    4.154    0.000    6.769 
#    0.000    0.000    0.000    0.462    0.000    0.538 
#    0.000    0.000    0.000    0.000    0.000    0.308 
#
# Total GULP energy -644512.601102 kJ/mol
# GULP energy per Si atom -12394.473098 kJ/mol
# Density = 1.606502 g / cm^3
# Si number density = 16.101672 Si / 1000 Ang^3
#
#
#
# Elastic Constant Matrix: (Units=GPa)
#
#
# Indices 1 2 3 4 5 6 
#
# 1 70.2443 46.2219 45.9010 0.0000 0.0000 0.0000
# 2 46.2219 138.6622 68.4948 0.0000 0.0000 0.0000
# 3 45.9010 68.4948 111.8106 0.0000 0.0000 0.0000
# 4 0.0000 0.0000 0.0000 12.4307 0.0000 0.0000
# 5 0.0000 0.0000 0.0000 0.0000 28.3065 0.0000
# 6 0.0000 0.0000 0.0000 0.0000 0.0000 22.3869
#
#
#
# Elastic Compliance Matrix: (Units=1/GPa)
#
#
# Indices 1 2 3 4 5 6 
#
# 1 0.020828 -0.003899 -0.006162 0.000000 0.000000 0.000000
# 2 -0.003899 0.011071 -0.005181 0.000000 0.000000 0.000000
# 3 -0.006162 -0.005181 0.014647 0.000000 0.000000 0.000000
# 4 0.000000 0.000000 0.000000 0.080446 0.000000 0.000000
# 5 0.000000 0.000000 0.000000 0.000000 0.035328 0.000000
# 6 0.000000 0.000000 0.000000 0.000000 0.000000 0.044669
#
#
# Mechanical properties :
#
#
# Convention : Reuss Voigt Hill
#
# Bulk Modulus (GPa) = 62.25950 71.32805 66.79378
# Shear Modulus (GPa) = 20.59073 23.29811 21.94442
#
# Velocity S-wave (km/s) = 3.57990 3.80799 3.69571
# Velocity P-wave (km/s) = 7.47249 7.98305 7.73198
#
# Compressibility (1/GPa) = 0.01606180
#
# Stress axis : x y z
#
# Youngs Moduli (GPa) = 48.01182 90.32670 68.27160
#
# Poissons Ratio (x) = 0.35219 0.42068
# Poissons Ratio (y) = 0.18720 0.35374
# Poissons Ratio (z) = 0.29584 0.46801
#
# Static dielectric constant tensor:
#      x y z
#    x 3.118300 0.000000 0.000000 
#    y 0.000000 3.330410 0.000000 
#    z 0.000000 0.000000 2.867890 
# 
# 
# High freq. dielectric constant tensor:
#      x y z
#    x 1.627870 0.000000 0.000000 
#    y 0.000000 1.619020 0.000000 
#    z 0.000000 0.000000 1.595870 
# 
# From -- ./inp_files/14636.got.cif
#   From: 2010.03.12/outbox.cif.g09.slc.cpg/sg51_8_cif.got.tgz:14636.got - 2010.04.16 13:43:02.
