data_PCOD8206307
_publ_section_title
;
Structure prediction by ZEFSAII (Michael W. Deem and Ramdas Pophale) SiO2 
 PCOD8206307
Probable space group: P M M A
;
_chemical_formula_sum "Si O2"
_cell_formula_units_Z 52
_cell_length_a 8.823464
_cell_length_b 26.914102
_cell_length_c 13.516896
_cell_angle_alpha 90.000000
_cell_angle_beta 90.000000
_cell_angle_gamma 90.000000
_cell_volume 3209.933124
_symmetry_space_group_name_H-M "P M M A"
_symmetry_group_IT_number 51
_symmetry_cell_setting 'orthorhombic'
loop_
_space_group_symop_operation_xyz
x,y,z
1/2-x,-y,z
1/2+x,-y,-z
-x,y,-z
-x,-y,-z
1/2+x,y,-z
1/2-x,y,z
x,-y,z
loop_
_atom_site_type_symbol
_atom_site_label
_atom_site_fract_x
_atom_site_fract_y
_atom_site_fract_z
Si Si1 0.429886 0.399685 0.286226
Si Si2 0.426908 0.947569 0.893989
Si Si3 0.928327 0.500000 0.607576
Si Si4 0.430275 0.650847 0.895411
Si Si5 0.426925 0.253685 0.199045
Si Si6 0.429510 0.160115 0.891627
Si Si7 0.076364 0.304120 0.399841
O O1 0.250000 0.395979 0.267523
O O2 0.481377 0.452297 0.330113
O O3 0.514128 0.390505 0.182710
O O4 0.484730 0.357697 0.363696
O O5 0.250000 0.946962 0.912161
O O6 0.470603 0.894591 0.844212
O O7 0.472217 0.000000 0.837318
O O8 0.500000 0.948818 0.000000
O O9 0.750000 0.500000 0.592407
O O10 0.000000 0.500000 0.500000
O O11 0.250000 0.651274 0.900961
O O12 0.488470 0.705636 0.867275
O O13 0.500000 0.635121 0.000000
O O14 0.250000 0.255879 0.171586
O O15 0.495095 0.199666 0.180612
O O16 0.454112 0.263741 0.314850
O O17 0.250000 0.168995 0.898059
O O18 0.500000 0.166159 0.000000
O O19 0.250000 0.309531 0.425466
O O20 0.000000 0.285800 0.500000
#
# Coordination Sequence:
#
# PCOD8206307 Si02
#       7
#     8   8   4   8   8   8   8
#     4   9  19  35  51  73 100 125 152 184 222 265
#     4   8  14  24  37  54  79 112 149 186 222 260
#     4  10  20  34  55  78 103 128 153 190 232 272
#     4  11  21  34  52  71  92 122 156 191 227 268
#     4  10  20  33  46  65  93 121 150 186 225 268
#     4  10  18  27  41  62  88 120 155 189 224 263
#     4   9  18  31  48  67  90 117 145 179 220 265
#
# _framework density 16.199715000000001
#
# number of rings (size 3 to 8) (size 9 to 14) (size 15 to 20)
#    0.000    2.462    0.000    4.154    0.000    4.308 
#    0.000    0.385    0.000    0.000    0.000    0.000 
#    0.000    0.615    0.000    1.385    0.000    2.462 
#
# Total GULP energy -644389.638210 kJ/mol
# GULP energy per Si atom -12392.108427 kJ/mol
# Density = 1.616284 g / cm^3
# Si number density = 16.199715 Si / 1000 Ang^3
#
#
#
# Elastic Constant Matrix: (Units=GPa)
#
#
# Indices 1 2 3 4 5 6 
#
# 1 75.5941 46.3038 47.3022 0.0000 0.0000 0.0000
# 2 46.3038 151.2054 57.2849 0.0000 0.0000 0.0000
# 3 47.3022 57.2849 101.1790 0.0000 0.0000 0.0000
# 4 0.0000 0.0000 0.0000 13.8159 0.0000 0.0000
# 5 0.0000 0.0000 0.0000 0.0000 27.7375 0.0000
# 6 0.0000 0.0000 0.0000 0.0000 0.0000 18.0341
#
#
#
# Elastic Compliance Matrix: (Units=1/GPa)
#
#
# Indices 1 2 3 4 5 6 
#
# 1 0.019892 -0.003270 -0.007449 0.000000 0.000000 0.000000
# 2 -0.003270 0.008957 -0.003543 0.000000 0.000000 0.000000
# 3 -0.007449 -0.003543 0.015371 0.000000 0.000000 0.000000
# 4 0.000000 0.000000 0.000000 0.072380 0.000000 0.000000
# 5 0.000000 0.000000 0.000000 0.000000 0.036052 0.000000
# 6 0.000000 0.000000 0.000000 0.000000 0.000000 0.055451
#
#
# Mechanical properties :
#
#
# Convention : Reuss Voigt Hill
#
# Bulk Modulus (GPa) = 63.69864 69.97336 66.83600
# Shear Modulus (GPa) = 20.67324 23.72333 22.19829
#
# Velocity S-wave (km/s) = 3.57620 3.83094 3.70576
# Velocity P-wave (km/s) = 7.51388 7.92818 7.72381
#
# Compressibility (1/GPa) = 0.01569892
#
# Stress axis : x y z
#
# Youngs Moduli (GPa) = 50.27091 111.64554 65.05556
#
# Poissons Ratio (x) = 0.36505 0.48457
# Poissons Ratio (y) = 0.16437 0.23046
# Poissons Ratio (z) = 0.37445 0.39551
#
# Static dielectric constant tensor:
#      x y z
#    x 3.076690 0.000000 0.000000 
#    y 0.000000 3.531820 0.000000 
#    z 0.000000 0.000000 2.885330 
# 
# 
# High freq. dielectric constant tensor:
#      x y z
#    x 1.631250 0.000000 0.000000 
#    y 0.000000 1.628900 0.000000 
#    z 0.000000 0.000000 1.590550 
# 
# From -- ./inp_files/14631.got.cif
#   From: 2010.03.12/outbox.cif.g09.slc.cpg/sg51_8_cif.got.tgz:14631.got - 2010.04.16 13:43:02.
