data_PCOD8206545
_publ_section_title
;
Structure prediction by ZEFSAII (Michael W. Deem and Ramdas Pophale) SiO2 
 PCOD8206545
Probable space group: P M M A
;
_chemical_formula_sum "Si O2"
_cell_formula_units_Z 40
_cell_length_a 25.841768
_cell_length_b 9.088050
_cell_length_c 9.124124
_cell_angle_alpha 90.000000
_cell_angle_beta 90.000000
_cell_angle_gamma 90.000000
_cell_volume 2142.812197
_symmetry_space_group_name_H-M "P M M A"
_symmetry_group_IT_number 51
_symmetry_cell_setting 'orthorhombic'
loop_
_space_group_symop_operation_xyz
x,y,z
1/2-x,-y,z
1/2+x,-y,-z
-x,y,-z
-x,-y,-z
1/2+x,y,-z
1/2-x,y,z
x,-y,z
loop_
_atom_site_type_symbol
_atom_site_label
_atom_site_fract_x
_atom_site_fract_y
_atom_site_fract_z
Si Si1 0.250000 0.172800 0.096090
Si Si2 0.450592 0.826635 0.593177
Si Si3 0.750000 0.666534 0.606949
Si Si4 0.362429 0.666847 0.425114
Si Si5 0.351898 0.328664 0.083885
Si Si6 0.951412 0.327102 0.097308
O O1 0.250000 0.212189 0.267070
O O2 0.301890 0.240698 0.024753
O O3 0.250000 0.000000 0.071343
O O4 0.500000 0.774509 0.500000
O O5 0.398338 0.776800 0.513512
O O6 0.455089 0.755821 0.750947
O O7 0.448946 0.000000 0.611074
O O8 0.750000 0.500000 0.676673
O O9 0.696916 0.685390 0.514553
O O10 0.381877 0.500000 0.450493
O O11 0.364027 0.707235 0.253394
O O12 0.340616 0.500000 0.063351
O O13 0.400134 0.276342 0.987504
O O14 0.951476 0.500000 0.128716
O O15 0.000000 0.279801 0.000000
#
# Coordination Sequence:
#
# PCOD8206545 Si02
#       6
#     4   8   4   8   8   8
#     4  10  18  28  49  80 111 144 178 210 252 312
#     4  11  24  38  52  76 111 145 174 211 264 320
#     4   8  16  32  53  78 107 138 176 222 266 304
#     4   9  17  33  58  82 105 137 178 221 261 307
#     4   9  18  34  56  81 108 138 175 221 267 307
#     4  10  21  38  60  82 102 132 178 225 266 312
#
# _framework density 18.667058000000001
#
# number of rings (size 3 to 8) (size 9 to 14) (size 15 to 20)
#    0.000    2.400    0.000    3.900    0.000    7.600 
#    0.000    1.000    0.000    2.400    0.000    0.000 
#    0.000    0.000    0.000    0.000    0.000    0.000 
#
# Total GULP energy -495937.143451 kJ/mol
# GULP energy per Si atom -12398.428586 kJ/mol
# Density = 1.862457 g / cm^3
# Si number density = 18.667058 Si / 1000 Ang^3
#
#
#
# Elastic Constant Matrix: (Units=GPa)
#
#
# Indices 1 2 3 4 5 6 
#
# 1 186.9468 67.1372 79.4701 0.0000 0.0000 0.0000
# 2 67.1372 65.2499 48.5648 0.0000 0.0000 0.0000
# 3 79.4701 48.5648 103.8339 0.0000 0.0000 0.0000
# 4 0.0000 0.0000 0.0000 20.7272 0.0000 0.0000
# 5 0.0000 0.0000 0.0000 0.0000 29.2149 0.0000
# 6 0.0000 0.0000 0.0000 0.0000 0.0000 15.7681
#
#
#
# Elastic Compliance Matrix: (Units=1/GPa)
#
#
# Indices 1 2 3 4 5 6 
#
# 1 0.009523 -0.006709 -0.004150 0.000000 0.000000 0.000000
# 2 -0.006709 0.028237 -0.008072 0.000000 0.000000 0.000000
# 3 -0.004150 -0.008072 0.016583 0.000000 0.000000 0.000000
# 4 0.000000 0.000000 0.000000 0.048246 0.000000 0.000000
# 5 0.000000 0.000000 0.000000 0.000000 0.034229 0.000000
# 6 0.000000 0.000000 0.000000 0.000000 0.000000 0.063419
#
#
# Mechanical properties :
#
#
# Convention : Reuss Voigt Hill
#
# Bulk Modulus (GPa) = 60.68195 82.93055 71.80625
# Shear Modulus (GPa) = 20.52609 23.86594 22.19602
#
# Velocity S-wave (km/s) = 3.31960 3.57950 3.45200
# Velocity P-wave (km/s) = 6.87540 7.84897 7.37826
#
# Compressibility (1/GPa) = 0.01647936
#
# Stress axis : x y z
#
# Youngs Moduli (GPa) = 105.01032 35.41483 60.30414
#
# Poissons Ratio (x) = 0.23761 0.25029
# Poissons Ratio (y) = 0.70454 0.48676
# Poissons Ratio (z) = 0.43583 0.28586
#
# Static dielectric constant tensor:
#      x y z
#    x 3.874950 0.000000 0.000000 
#    y 0.000000 3.271750 0.000000 
#    z 0.000000 0.000000 3.182960 
# 
# 
# High freq. dielectric constant tensor:
#      x y z
#    x 1.749540 0.000000 0.000000 
#    y 0.000000 1.715170 0.000000 
#    z 0.000000 0.000000 1.694900 
# 
# From -- ./inp_files/12192.got.cif
#   From: 2010.03.12/outbox.cif.g09.slc.cpg/sg51_7_cif.got.tgz:12192.got - 2010.04.16 13:43:02.
