data_PCOD8206603
_publ_section_title
;
Structure prediction by ZEFSAII (Michael W. Deem and Ramdas Pophale) SiO2 
 PCOD8206603
Probable space group: P M M A
;
_chemical_formula_sum "Si O2"
_cell_formula_units_Z 64
_cell_length_a 9.269165
_cell_length_b 18.717412
_cell_length_c 23.503310
_cell_angle_alpha 90.000000
_cell_angle_beta 90.000000
_cell_angle_gamma 90.000000
_cell_volume 4077.701602
_symmetry_space_group_name_H-M "P M M A"
_symmetry_group_IT_number 51
_symmetry_cell_setting 'orthorhombic'
loop_
_space_group_symop_operation_xyz
x,y,z
1/2-x,-y,z
1/2+x,-y,-z
-x,y,-z
-x,-y,-z
1/2+x,y,-z
1/2-x,y,z
x,-y,z
loop_
_atom_site_type_symbol
_atom_site_label
_atom_site_fract_x
_atom_site_fract_y
_atom_site_fract_z
Si Si1 0.079568 0.292798 0.943613
Si Si2 0.915184 0.418535 0.889919
Si Si3 0.418808 0.918197 0.444179
Si Si4 0.581140 0.165628 0.667490
Si Si5 0.418719 0.712531 0.723098
Si Si6 0.583354 0.419123 0.758164
Si Si7 0.583379 0.200624 0.164654
Si Si8 0.418880 0.080774 0.220240
O O1 0.250000 0.298029 0.953583
O O2 0.039239 0.236814 0.894443
O O3 0.021374 0.371014 0.927619
O O4 0.000000 0.264960 0.000000
O O5 0.750000 0.393846 0.899233
O O6 0.934885 0.500000 0.909907
O O7 0.958465 0.411114 0.824115
O O8 0.500000 0.889804 0.500000
O O9 0.250000 0.910986 0.455259
O O10 0.468216 0.870186 0.391259
O O11 0.461586 0.000000 0.430932
O O12 0.750000 0.183856 0.667926
O O13 0.492462 0.238733 0.674867
O O14 0.541622 0.110374 0.717500
O O15 0.250000 0.708103 0.710583
O O16 0.485347 0.633284 0.720424
O O17 0.455015 0.744656 0.784945
O O18 0.750000 0.399025 0.749006
O O19 0.553252 0.500000 0.737811
O O20 0.750000 0.179961 0.166232
O O21 0.494673 0.127612 0.171499
O O22 0.250000 0.084373 0.208988
O O23 0.476492 0.000000 0.216175
#
# Coordination Sequence:
#
# PCOD8206603 Si02
#       8
#     8   8   8   8   8   8   8   8
#     4  11  22  35  49  66  87 114 148 185 223 269
#     4   9  18  32  49  68  89 115 148 183 219 263
#     4   9  17  29  45  65  93 130 168 201 231 266
#     4   9  17  29  45  66  94 127 158 190 227 267
#     4  10  18  29  45  67  93 119 150 189 230 271
#     4   9  17  29  46  67  91 120 152 183 220 271
#     4   9  19  33  46  64  90 115 141 176 224 275
#     4   9  17  29  48  72  92 113 145 183 222 267
#
# _framework density 15.695116000000001
#
# number of rings (size 3 to 8) (size 9 to 14) (size 15 to 20)
#    0.000    2.625    1.250    1.875    0.000    4.500 
#    0.000    1.250    0.000    2.625    0.000    0.000 
#    0.000    0.500    0.000    1.625    0.000    2.000 
#
# Total GULP energy -793692.122496 kJ/mol
# GULP energy per Si atom -12401.439414 kJ/mol
# Density = 1.565939 g / cm^3
# Si number density = 15.695116 Si / 1000 Ang^3
#
#
#
# Elastic Constant Matrix: (Units=GPa)
#
#
# Indices 1 2 3 4 5 6 
#
# 1 62.7171 50.7315 45.0217 0.0000 0.0000 0.0000
# 2 50.7315 104.6166 53.7622 0.0000 0.0000 0.0000
# 3 45.0217 53.7622 92.9704 0.0000 0.0000 0.0000
# 4 0.0000 0.0000 0.0000 25.2361 0.0000 0.0000
# 5 0.0000 0.0000 0.0000 0.0000 24.3368 0.0000
# 6 0.0000 0.0000 0.0000 0.0000 0.0000 27.8835
#
#
#
# Elastic Compliance Matrix: (Units=1/GPa)
#
#
# Indices 1 2 3 4 5 6 
#
# 1 0.030656 -0.010297 -0.008891 0.000000 0.000000 0.000000
# 2 -0.010297 0.017059 -0.004878 0.000000 0.000000 0.000000
# 3 -0.008891 -0.004878 0.017883 0.000000 0.000000 0.000000
# 4 0.000000 0.000000 0.000000 0.039626 0.000000 0.000000
# 5 0.000000 0.000000 0.000000 0.000000 0.041090 0.000000
# 6 0.000000 0.000000 0.000000 0.000000 0.000000 0.035863
#
#
# Mechanical properties :
#
#
# Convention : Reuss Voigt Hill
#
# Bulk Modulus (GPa) = 57.25695 62.14833 59.70264
# Shear Modulus (GPa) = 21.17462 22.87720 22.02591
#
# Velocity S-wave (km/s) = 3.67702 3.82199 3.75021
# Velocity P-wave (km/s) = 7.38832 7.69156 7.54146
#
# Compressibility (1/GPa) = 0.01746513
#
# Stress axis : x y z
#
# Youngs Moduli (GPa) = 32.61976 58.62020 55.91990
#
# Poissons Ratio (x) = 0.60361 0.49719
# Poissons Ratio (y) = 0.33588 0.27280
# Poissons Ratio (z) = 0.29003 0.28597
#
# Static dielectric constant tensor:
#      x y z
#    x 2.955410 0.000000 0.000000 
#    y 0.000000 2.985900 0.000000 
#    z 0.000000 0.000000 2.824010 
# 
# 
# High freq. dielectric constant tensor:
#      x y z
#    x 1.605530 0.000000 0.000000 
#    y 0.000000 1.596650 0.000000 
#    z 0.000000 0.000000 1.572470 
# 
# From -- ./inp_files/35090.got.cif
#   From: 2010.03.12/outbox.cif.g09.slc.cpg/sg51_18_cif.got.tgz:35090.got - 2010.04.16 13:43:02.
