data_PCOD8206680
_publ_section_title
;
Structure prediction by ZEFSAII (Michael W. Deem and Ramdas Pophale) SiO2 
 PCOD8206680
Probable space group: P M M A
;
_chemical_formula_sum "Si O2"
_cell_formula_units_Z 56
_cell_length_a 23.506824
_cell_length_b 9.153266
_cell_length_c 15.446093
_cell_angle_alpha 90.000000
_cell_angle_beta 90.000000
_cell_angle_gamma 90.000000
_cell_volume 3323.446443
_symmetry_space_group_name_H-M "P M M A"
_symmetry_group_IT_number 51
_symmetry_cell_setting 'orthorhombic'
loop_
_space_group_symop_operation_xyz
x,y,z
1/2-x,-y,z
1/2+x,-y,-z
-x,y,-z
-x,-y,-z
1/2+x,y,-z
1/2-x,y,z
x,-y,z
loop_
_atom_site_type_symbol
_atom_site_label
_atom_site_fract_x
_atom_site_fract_y
_atom_site_fract_z
Si Si1 0.250000 0.669792 0.082363
Si Si2 0.936910 0.329176 0.677293
Si Si3 0.750000 0.827184 0.101011
Si Si4 0.870792 0.172886 0.161177
Si Si5 0.432855 0.660941 0.510761
Si Si6 0.564476 0.827012 0.993686
Si Si7 0.444041 0.173549 0.678137
Si Si8 0.129676 0.669068 0.154394
O O1 0.250000 0.500000 0.057558
O O2 0.195445 0.711789 0.140370
O O3 0.250000 0.758459 0.993753
O O4 0.953920 0.500000 0.676968
O O5 0.909944 0.286168 0.583421
O O6 0.888406 0.293630 0.747451
O O7 0.993964 0.238910 0.697578
O O8 0.694986 0.776562 0.156084
O O9 0.750000 0.000000 0.086205
O O10 0.900879 0.231258 0.247927
O O11 0.875510 0.000000 0.160105
O O12 0.902636 0.236441 0.076979
O O13 0.500000 0.652497 0.500000
O O14 0.408674 0.500000 0.534415
O O15 0.417268 0.773512 0.586878
O O16 0.590304 0.763225 0.907092
O O17 0.569426 0.000000 0.988388
O O18 0.500000 0.774119 0.000000
O O19 0.449283 0.000000 0.676663
O O20 0.119216 0.500000 0.133094
#
# Coordination Sequence:
#
# PCOD8206680 Si02
#       8
#     4   8   4   8   8   8   8   8
#     4  10  20  34  50  71  94 118 160 213 244 263
#     4   9  18  32  48  68  96 129 157 183 229 292
#     4  10  18  34  54  65  84 126 172 195 224 287
#     4   9  18  30  46  68  92 122 157 192 230 277
#     4   8  15  29  47  67  94 126 156 184 224 285
#     4  10  19  31  47  69  97 125 154 192 235 281
#     4  10  18  29  47  73  99 120 151 196 239 275
#     4  10  20  33  49  69  95 125 159 198 239 281
#
# _framework density 16.849978
#
# number of rings (size 3 to 8) (size 9 to 14) (size 15 to 20)
#    0.000    2.571    1.429    2.143    0.000    4.571 
#    0.000    2.857    0.000    0.857    0.000    1.000 
#    0.000    0.000    0.000    0.000    0.000    1.214 
#
# Total GULP energy -694194.206631 kJ/mol
# GULP energy per Si atom -12396.325118 kJ/mol
# Density = 1.681163 g / cm^3
# Si number density = 16.849978 Si / 1000 Ang^3
#
#
#
# Elastic Constant Matrix: (Units=GPa)
#
#
# Indices 1 2 3 4 5 6 
#
# 1 103.4618 31.8504 56.0836 0.0000 0.0000 0.0000
# 2 31.8504 38.9726 34.5853 0.0000 0.0000 0.0000
# 3 56.0836 34.5853 136.1233 0.0000 0.0000 0.0000
# 4 0.0000 0.0000 0.0000 28.1021 0.0000 0.0000
# 5 0.0000 0.0000 0.0000 0.0000 13.5165 0.0000
# 6 0.0000 0.0000 0.0000 0.0000 0.0000 16.8530
#
#
#
# Elastic Compliance Matrix: (Units=1/GPa)
#
#
# Indices 1 2 3 4 5 6 
#
# 1 0.014267 -0.008319 -0.003764 0.000000 0.000000 0.000000
# 2 -0.008319 0.037979 -0.006222 0.000000 0.000000 0.000000
# 3 -0.003764 -0.006222 0.010478 0.000000 0.000000 0.000000
# 4 0.000000 0.000000 0.000000 0.035584 0.000000 0.000000
# 5 0.000000 0.000000 0.000000 0.000000 0.073983 0.000000
# 6 0.000000 0.000000 0.000000 0.000000 0.000000 0.059337
#
#
# Mechanical properties :
#
#
# Convention : Reuss Voigt Hill
#
# Bulk Modulus (GPa) = 38.29445 58.17736 48.23590
# Shear Modulus (GPa) = 18.05414 22.09689 20.07552
#
# Velocity S-wave (km/s) = 3.27687 3.62524 3.45545
# Velocity P-wave (km/s) = 6.09042 7.21975 6.67900
#
# Compressibility (1/GPa) = 0.02611345
#
# Stress axis : x y z
#
# Youngs Moduli (GPa) = 70.09188 26.33003 95.43704
#
# Poissons Ratio (x) = 0.21904 0.35927
# Poissons Ratio (y) = 0.58310 0.59381
# Poissons Ratio (z) = 0.26386 0.16383
#
# Static dielectric constant tensor:
#      x y z
#    x 3.335430 0.000000 0.000000 
#    y 0.000000 3.021620 0.000000 
#    z 0.000000 0.000000 3.591650 
# 
# 
# High freq. dielectric constant tensor:
#      x y z
#    x 1.628830 0.000000 0.000000 
#    y 0.000000 1.634900 0.000000 
#    z 0.000000 0.000000 1.658690 
# 
# From -- ./inp_files/25898.got.cif
#   From: 2010.03.12/outbox.cif.g09.slc.cpg/sg51_13_cif.got.tgz:25898.got - 2010.04.16 13:43:02.
