data_PCOD8206788
_publ_section_title
;
Structure prediction by ZEFSAII (Michael W. Deem and Ramdas Pophale) SiO2 
 PCOD8206788
Probable space group: P M M A
;
_chemical_formula_sum "Si O2"
_cell_formula_units_Z 64
_cell_length_a 9.089760
_cell_length_b 14.269272
_cell_length_c 30.813046
_cell_angle_alpha 90.000000
_cell_angle_beta 90.000000
_cell_angle_gamma 90.000000
_cell_volume 3996.583264
_symmetry_space_group_name_H-M "P M M A"
_symmetry_group_IT_number 51
_symmetry_cell_setting 'orthorhombic'
loop_
_space_group_symop_operation_xyz
x,y,z
1/2-x,-y,z
1/2+x,-y,-z
-x,y,-z
-x,-y,-z
1/2+x,y,-z
1/2-x,y,z
x,-y,z
loop_
_atom_site_type_symbol
_atom_site_label
_atom_site_fract_x
_atom_site_fract_y
_atom_site_fract_z
Si Si1 0.924107 0.718892 0.627302
Si Si2 0.079835 0.391600 0.702847
Si Si3 0.924427 0.101956 0.246195
Si Si4 0.420872 0.106112 0.655727
Si Si5 0.416001 0.611496 0.957995
Si Si6 0.422759 0.391678 0.128492
Si Si7 0.077401 0.607349 0.456777
Si Si8 0.421890 0.293335 0.793005
O O1 0.750000 0.721432 0.629808
O O2 0.979094 0.666787 0.584065
O O3 0.982377 0.664874 0.669182
O O4 0.986740 0.824265 0.625384
O O5 0.250000 0.374686 0.691355
O O6 0.036141 0.500000 0.700453
O O7 0.045487 0.355716 0.750993
O O8 0.750000 0.101439 0.248694
O O9 0.980943 0.117986 0.295167
O O10 0.976301 0.186449 0.215369
O O11 0.980598 0.000000 0.228834
O O12 0.250000 0.133536 0.653001
O O13 0.446370 0.000000 0.639458
O O14 0.250000 0.650893 0.957439
O O15 0.415298 0.500000 0.960051
O O16 0.499867 0.645810 0.915048
O O17 0.500000 0.652381 0.000000
O O18 0.250000 0.377162 0.123031
O O19 0.462816 0.500000 0.136973
O O20 0.480899 0.331126 0.168128
O O21 0.250000 0.617859 0.463454
O O22 0.031601 0.500000 0.448164
O O23 0.000000 0.646289 0.500000
O O24 0.250000 0.297781 0.805522
#
# Coordination Sequence:
#
# PCOD8206788 Si02
#       8
#     8   8   8   8   8   8   8   8
#     4  11  21  32  49  73 101 125 150 190 239 287
#     4  10  20  32  46  66  93 127 166 199 226 269
#     4   8  14  27  48  69  88 114 151 195 236 272
#     4   9  17  32  53  73  94 122 158 196 232 276
#     4   9  16  27  44  64  86 115 154 198 240 279
#     4  10  20  31  42  60  90 127 163 196 234 280
#     4   9  19  35  52  71  95 124 156 190 231 277
#     4  10  18  30  47  65  89 121 159 197 230 270
#
# _framework density 16.013680000000001
#
# number of rings (size 3 to 8) (size 9 to 14) (size 15 to 20)
#    0.000    2.500    1.250    2.625    0.000    5.250 
#    0.000    1.250    0.000    0.750    0.000    0.000 
#    0.000    0.500    0.000    1.375    0.000    2.000 
#
# Total GULP energy -793541.437915 kJ/mol
# GULP energy per Si atom -12399.084967 kJ/mol
# Density = 1.597723 g / cm^3
# Si number density = 16.013680 Si / 1000 Ang^3
#
#
#
# Elastic Constant Matrix: (Units=GPa)
#
#
# Indices 1 2 3 4 5 6 
#
# 1 63.9797 36.0885 47.3371 0.0000 0.0000 0.0000
# 2 36.0885 94.4715 49.5305 0.0000 0.0000 0.0000
# 3 47.3371 49.5305 103.7239 0.0000 0.0000 0.0000
# 4 0.0000 0.0000 0.0000 7.3762 0.0000 0.0000
# 5 0.0000 0.0000 0.0000 0.0000 30.1481 0.0000
# 6 0.0000 0.0000 0.0000 0.0000 0.0000 19.5863
#
#
#
# Elastic Compliance Matrix: (Units=1/GPa)
#
#
# Indices 1 2 3 4 5 6 
#
# 1 0.025120 -0.004783 -0.009180 0.000000 0.000000 0.000000
# 2 -0.004783 0.015031 -0.004995 0.000000 0.000000 0.000000
# 3 -0.009180 -0.004995 0.016216 0.000000 0.000000 0.000000
# 4 0.000000 0.000000 0.000000 0.135571 0.000000 0.000000
# 5 0.000000 0.000000 0.000000 0.000000 0.033170 0.000000
# 6 0.000000 0.000000 0.000000 0.000000 0.000000 0.051056
#
#
# Mechanical properties :
#
#
# Convention : Reuss Voigt Hill
#
# Bulk Modulus (GPa) = 54.19790 58.67636 56.43713
# Shear Modulus (GPa) = 15.61377 20.03671 17.82524
#
# Velocity S-wave (km/s) = 3.12593 3.54110 3.33997
# Velocity P-wave (km/s) = 6.85177 7.31028 7.08474
#
# Compressibility (1/GPa) = 0.01845090
#
# Stress axis : x y z
#
# Youngs Moduli (GPa) = 39.80881 66.52901 61.66818
#
# Poissons Ratio (x) = 0.31820 0.56613
# Poissons Ratio (y) = 0.19040 0.30803
# Poissons Ratio (z) = 0.36546 0.33230
#
# Static dielectric constant tensor:
#      x y z
#    x 2.950270 0.000000 0.000000 
#    y 0.000000 3.240280 0.000000 
#    z 0.000000 0.000000 3.009850 
# 
# 
# High freq. dielectric constant tensor:
#      x y z
#    x 1.608600 0.000000 0.000000 
#    y 0.000000 1.599760 0.000000 
#    z 0.000000 0.000000 1.603950 
# 
# From -- ./inp_files/37589.got.cif
#   From: 2010.03.12/outbox.cif.g09.slc.cpg/sg51_19_cif.got.tgz:37589.got - 2010.04.16 13:43:02.
