data_PCOD8206444
_publ_section_title
;
Structure prediction by ZEFSAII (Michael W. Deem and Ramdas Pophale) SiO2 
 PCOD8206444
Probable space group: P M M A
;
_chemical_formula_sum "Si O2"
_cell_formula_units_Z 64
_cell_length_a 25.335135
_cell_length_b 9.497294
_cell_length_c 17.291654
_cell_angle_alpha 90.000000
_cell_angle_beta 90.000000
_cell_angle_gamma 90.000000
_cell_volume 4160.635229
_symmetry_space_group_name_H-M "P M M A"
_symmetry_group_IT_number 51
_symmetry_cell_setting 'orthorhombic'
loop_
_space_group_symop_operation_xyz
x,y,z
1/2-x,-y,z
1/2+x,-y,-z
-x,y,-z
-x,-y,-z
1/2+x,y,-z
1/2-x,y,z
x,-y,z
loop_
_atom_site_type_symbol
_atom_site_label
_atom_site_fract_x
_atom_site_fract_y
_atom_site_fract_z
Si Si1 0.559623 0.166778 0.499227
Si Si2 0.905662 0.165227 0.825985
Si Si3 0.309480 0.162565 0.071358
Si Si4 0.058330 0.166545 0.336032
Si Si5 0.097099 0.336252 0.810862
Si Si6 0.436552 0.833516 0.668000
Si Si7 0.810139 0.337252 0.077387
Si Si8 0.995124 0.336599 0.910091
O O1 0.500000 0.221474 0.500000
O O2 0.583534 0.222850 0.581725
O O3 0.585801 0.214365 0.417526
O O4 0.560228 0.000000 0.498865
O O5 0.847124 0.198556 0.856581
O O6 0.908266 0.221504 0.737341
O O7 0.947881 0.244478 0.877716
O O8 0.919018 0.000000 0.830191
O O9 0.250000 0.202578 0.096401
O O10 0.313900 0.000000 0.047776
O O11 0.327873 0.250674 0.997476
O O12 0.997619 0.213363 0.325289
O O13 0.060009 0.000000 0.339271
O O14 0.094595 0.500000 0.789345
O O15 0.096640 0.247745 0.732218
O O16 0.152027 0.296445 0.851992
O O17 0.049189 0.294216 0.867340
O O18 0.429916 0.000000 0.681050
O O19 0.750000 0.301763 0.101479
O O20 0.817110 0.500000 0.055316
O O21 0.981672 0.500000 0.897156
O O22 0.000000 0.300552 0.000000
#
# Coordination Sequence:
#
# PCOD8206444 Si02
#       8
#     8   8   8   8   8   8   8   8
#     4   7  11  20  37  59  81 107 139 171 198 230
#     4  10  18  28  44  64  84 109 140 173 205 244
#     4   9  18  31  45  63  86 108 135 177 222 249
#     4   8  13  23  39  61  85 108 140 174 199 235
#     4  10  19  29  42  62  87 110 134 172 217 249
#     4   9  15  25  42  62  84 111 142 170 199 246
#     4   9  18  33  50  63  77 106 149 184 207 243
#     4  10  20  31  41  56  84 117 140 162 203 254
#
# _framework density 15.382267000000001
#
# number of rings (size 3 to 8) (size 9 to 14) (size 15 to 20)
#    0.000    3.000    1.250    2.250    0.000    2.250 
#    0.000    0.000    0.000    4.125    0.000    0.875 
#    0.000    3.000    0.000    0.000    0.000    0.000 
#
# Total GULP energy -792955.233860 kJ/mol
# GULP energy per Si atom -12389.925529 kJ/mol
# Density = 1.534726 g / cm^3
# Si number density = 15.382267 Si / 1000 Ang^3
#
#
#
# Elastic Constant Matrix: (Units=GPa)
#
#
# Indices 1 2 3 4 5 6 
#
# 1 68.4625 28.4603 62.7576 0.0000 0.0000 0.0000
# 2 28.4603 31.6113 45.9826 0.0000 0.0000 0.0000
# 3 62.7576 45.9826 170.3311 0.0000 0.0000 0.0000
# 4 0.0000 0.0000 0.0000 7.6088 0.0000 0.0000
# 5 0.0000 0.0000 0.0000 0.0000 17.8370 0.0000
# 6 0.0000 0.0000 0.0000 0.0000 0.0000 17.0437
#
#
#
# Elastic Compliance Matrix: (Units=1/GPa)
#
#
# Indices 1 2 3 4 5 6 
#
# 1 0.026022 -0.015613 -0.005373 0.000000 0.000000 0.000000
# 2 -0.015613 0.061456 -0.010838 0.000000 0.000000 0.000000
# 3 -0.005373 -0.010838 0.010776 0.000000 0.000000 0.000000
# 4 0.000000 0.000000 0.000000 0.131426 0.000000 0.000000
# 5 0.000000 0.000000 0.000000 0.000000 0.056063 0.000000
# 6 0.000000 0.000000 0.000000 0.000000 0.000000 0.058673
#
#
# Mechanical properties :
#
#
# Convention : Reuss Voigt Hill
#
# Bulk Modulus (GPa) = 28.89583 60.53399 44.71491
# Shear Modulus (GPa) = 11.91610 17.37820 14.64715
#
# Velocity S-wave (km/s) = 2.78630 3.36483 3.08914
# Velocity P-wave (km/s) = 5.40159 7.38476 6.46962
#
# Compressibility (1/GPa) = 0.03460707
#
# Stress axis : x y z
#
# Youngs Moduli (GPa) = 38.42904 16.27172 92.79479
#
# Poissons Ratio (x) = 0.25404 0.49858
# Poissons Ratio (y) = 0.59998 1.00575
# Poissons Ratio (z) = 0.20648 0.17636
#
# Static dielectric constant tensor:
#      x y z
#    x 2.826370 0.000000 0.000000 
#    y 0.000000 2.734950 0.000000 
#    z 0.000000 0.000000 3.480590 
# 
# 
# High freq. dielectric constant tensor:
#      x y z
#    x 1.555920 0.000000 0.000000 
#    y 0.000000 1.566300 0.000000 
#    z 0.000000 0.000000 1.603260 
# 
# From -- ./inp_files/30874.got.cif
#   From: 2010.03.12/outbox.cif.g09.slc.cpg/sg51_16_cif.got.tgz:30874.got - 2010.04.16 13:43:02.
