data_PCOD8206821
_publ_section_title
;
Structure prediction by ZEFSAII (Michael W. Deem and Ramdas Pophale) SiO2 
 PCOD8206821
Probable space group: P M M A
;
_chemical_formula_sum "Si O2"
_cell_formula_units_Z 44
_cell_length_a 9.101616
_cell_length_b 12.543462
_cell_length_c 25.916441
_cell_angle_alpha 90.000000
_cell_angle_beta 90.000000
_cell_angle_gamma 90.000000
_cell_volume 2958.770557
_symmetry_space_group_name_H-M "P M M A"
_symmetry_group_IT_number 51
_symmetry_cell_setting 'orthorhombic'
loop_
_space_group_symop_operation_xyz
x,y,z
1/2-x,-y,z
1/2+x,-y,-z
-x,y,-z
-x,-y,-z
1/2+x,y,-z
1/2-x,y,z
x,-y,z
loop_
_atom_site_type_symbol
_atom_site_label
_atom_site_fract_x
_atom_site_fract_y
_atom_site_fract_z
Si Si1 0.421040 0.120152 0.639774
Si Si2 0.415699 0.873122 0.148306
Si Si3 0.585240 0.127224 0.049874
Si Si4 0.425169 0.708819 0.554880
Si Si5 0.571977 0.500000 0.556475
Si Si6 0.584489 0.873405 0.738882
O O1 0.250000 0.119079 0.650190
O O2 0.461168 0.190045 0.590242
O O3 0.490557 0.172333 0.691357
O O4 0.479677 0.000000 0.629425
O O5 0.250000 0.832068 0.140052
O O6 0.514806 0.825819 0.102386
O O7 0.474633 0.834957 0.204761
O O8 0.417860 0.000000 0.146038
O O9 0.750000 0.170345 0.046571
O O10 0.580388 0.000000 0.050519
O O11 0.500000 0.171426 0.000000
O O12 0.500000 0.732596 0.500000
O O13 0.250000 0.689190 0.548553
O O14 0.505225 0.607036 0.582263
O O15 0.750000 0.500000 0.556083
O O16 0.500000 0.500000 0.500000
O O17 0.750000 0.832650 0.731700
O O18 0.577286 0.000000 0.737354
#
# Coordination Sequence:
#
# PCOD8206821 Si02
#       6
#     8   8   8   8   4   8
#     4   9  18  30  42  58  81 106 130 158 192 230
#     4   8  13  21  31  42  57  78 106 141 179 217
#     4   9  15  20  26  37  53  74 101 136 179 222
#     4  10  19  31  46  63  83 105 129 158 193 231
#     4  10  18  30  48  66  82 100 126 158 191 228
#     4   8  14  24  37  51  67  90 120 152 185 221
#
# _framework density 14.871041999999999
#
# number of rings (size 3 to 8) (size 9 to 14) (size 15 to 20)
#    0.000    3.091    0.000    4.091    0.000    4.727 
#    0.000    3.636    0.000    0.000    0.000    0.000 
#    0.000    0.000    0.000    0.000    0.000    0.000 
#
# Total GULP energy -545133.042103 kJ/mol
# GULP energy per Si atom -12389.387321 kJ/mol
# Density = 1.483719 g / cm^3
# Si number density = 14.871042 Si / 1000 Ang^3
#
#
#
# Elastic Constant Matrix: (Units=GPa)
#
#
# Indices 1 2 3 4 5 6 
#
# 1 93.3515 28.7063 64.7161 0.0000 0.0000 0.0000
# 2 28.7063 40.3537 36.7049 0.0000 0.0000 0.0000
# 3 64.7161 36.7049 129.6179 0.0000 0.0000 0.0000
# 4 0.0000 0.0000 0.0000 0.6091 0.0000 0.0000
# 5 0.0000 0.0000 0.0000 0.0000 31.0196 0.0000
# 6 0.0000 0.0000 0.0000 0.0000 0.0000 12.0485
#
#
#
# Elastic Compliance Matrix: (Units=1/GPa)
#
#
# Indices 1 2 3 4 5 6 
#
# 1 0.017408 -0.006032 -0.006984 0.000000 0.000000 0.000000
# 2 -0.006032 0.035468 -0.007032 0.000000 0.000000 0.000000
# 3 -0.006984 -0.007032 0.013193 0.000000 0.000000 0.000000
# 4 0.000000 0.000000 0.000000 1.641803 0.000000 0.000000
# 5 0.000000 0.000000 0.000000 0.000000 0.032238 0.000000
# 6 0.000000 0.000000 0.000000 0.000000 0.000000 0.082998
#
#
# Mechanical properties :
#
#
# Convention : Reuss Voigt Hill
#
# Bulk Modulus (GPa) = 38.49932 58.17533 48.33732
# Shear Modulus (GPa) = 2.67114 17.61513 10.14313
#
# Velocity S-wave (km/s) = 1.34168 3.44543 2.61449
# Velocity P-wave (km/s) = 5.32401 7.41841 6.45670
#
# Compressibility (1/GPa) = 0.02597448
#
# Stress axis : x y z
#
# Youngs Moduli (GPa) = 57.44332 28.19446 75.79632
#
# Poissons Ratio (x) = 0.17006 0.52934
# Poissons Ratio (y) = 0.34647 0.53302
# Poissons Ratio (z) = 0.40117 0.19827
#
# Static dielectric constant tensor:
#      x y z
#    x 3.025760 0.000000 0.000000 
#    y 0.000000 2.688250 0.000000 
#    z 0.000000 0.000000 3.162580 
# 
# 
# High freq. dielectric constant tensor:
#      x y z
#    x 1.578310 0.000000 0.000000 
#    y 0.000000 1.493650 0.000000 
#    z 0.000000 0.000000 1.574470 
# 
# From -- ./inp_files/36323.got.cif
#   From: 2010.03.12/outbox.cif.g09.slc.cpg/sg51_19_cif.got.tgz:36323.got - 2010.04.16 13:43:02.
