data_PCOD8206627
_publ_section_title
;
Structure prediction by ZEFSAII (Michael W. Deem and Ramdas Pophale) SiO2 
 PCOD8206627
Probable space group: P M M A
;
_chemical_formula_sum "Si O2"
_cell_formula_units_Z 64
_cell_length_a 8.975898
_cell_length_b 23.441415
_cell_length_c 18.943209
_cell_angle_alpha 90.000000
_cell_angle_beta 90.000000
_cell_angle_gamma 90.000000
_cell_volume 3985.797984
_symmetry_space_group_name_H-M "P M M A"
_symmetry_group_IT_number 51
_symmetry_cell_setting 'orthorhombic'
loop_
_space_group_symop_operation_xyz
x,y,z
1/2-x,-y,z
1/2+x,-y,-z
-x,y,-z
-x,-y,-z
1/2+x,y,-z
1/2-x,y,z
x,-y,z
loop_
_atom_site_type_symbol
_atom_site_label
_atom_site_fract_x
_atom_site_fract_y
_atom_site_fract_z
Si Si1 0.579676 0.160726 0.207785
Si Si2 0.423546 0.118697 0.429613
Si Si3 0.574927 0.251495 0.571544
Si Si4 0.924234 0.230853 0.072591
Si Si5 0.426363 0.935829 0.285999
Si Si6 0.576848 0.436314 0.928654
Si Si7 0.426670 0.274944 0.712776
Si Si8 0.574591 0.671079 0.840796
O O1 0.750000 0.145414 0.222541
O O2 0.553691 0.178574 0.126797
O O3 0.484186 0.104609 0.223629
O O4 0.529139 0.212488 0.258348
O O5 0.500000 0.094230 0.500000
O O6 0.250000 0.107955 0.438497
O O7 0.461588 0.184938 0.419527
O O8 0.487738 0.085315 0.361849
O O9 0.500000 0.274804 0.500000
O O10 0.750000 0.264026 0.569932
O O11 0.499229 0.284624 0.636396
O O12 0.750000 0.244560 0.062162
O O13 0.004514 0.287089 0.101241
O O14 0.000000 0.211596 0.000000
O O15 0.250000 0.932458 0.285931
O O16 0.483075 0.000000 0.272257
O O17 0.750000 0.436220 0.945373
O O18 0.521606 0.500000 0.907582
O O19 0.540233 0.393475 0.864826
O O20 0.500000 0.414637 0.000000
O O21 0.250000 0.283148 0.709442
O O22 0.496078 0.321722 0.765184
O O23 0.750000 0.683665 0.834396
#
# Coordination Sequence:
#
# PCOD8206627 Si02
#       8
#     8   8   8   8   8   8   8   8
#     4   9  19  33  48  66  89 114 145 182 225 275
#     4   9  18  30  44  64  88 116 148 183 219 264
#     4  10  18  29  46  67  92 124 156 189 231 280
#     4  10  20  33  49  72  96 119 147 187 232 278
#     4  10  20  33  48  66  88 114 147 186 226 272
#     4   9  18  31  46  66  95 132 170 202 231 267
#     4  10  19  31  47  68  94 122 155 196 236 278
#     4  10  19  30  47  70  97 129 161 196 234 272
#
# _framework density 16.057010999999999
#
# number of rings (size 3 to 8) (size 9 to 14) (size 15 to 20)
#    0.000    2.375    1.250    2.625    0.000    6.000 
#    0.000    0.000    0.000    0.375    0.000    0.000 
#    0.000    0.500    0.000    1.375    0.000    2.000 
#
# Total GULP energy -793660.537951 kJ/mol
# GULP energy per Si atom -12400.945905 kJ/mol
# Density = 1.602046 g / cm^3
# Si number density = 16.057011 Si / 1000 Ang^3
#
#
#
# Elastic Constant Matrix: (Units=GPa)
#
#
# Indices 1 2 3 4 5 6 
#
# 1 70.3318 37.9833 52.7641 0.0000 0.0000 0.0000
# 2 37.9833 76.8299 50.8557 0.0000 0.0000 0.0000
# 3 52.7641 50.8557 128.2159 0.0000 0.0000 0.0000
# 4 0.0000 0.0000 0.0000 20.4815 0.0000 0.0000
# 5 0.0000 0.0000 0.0000 0.0000 33.1829 0.0000
# 6 0.0000 0.0000 0.0000 0.0000 0.0000 19.1463
#
#
#
# Elastic Compliance Matrix: (Units=1/GPa)
#
#
# Indices 1 2 3 4 5 6 
#
# 1 0.022997 -0.006922 -0.006718 0.000000 0.000000 0.000000
# 2 -0.006922 0.019733 -0.004978 0.000000 0.000000 0.000000
# 3 -0.006718 -0.004978 0.012539 0.000000 0.000000 0.000000
# 4 0.000000 0.000000 0.000000 0.048825 0.000000 0.000000
# 5 0.000000 0.000000 0.000000 0.000000 0.030136 0.000000
# 6 0.000000 0.000000 0.000000 0.000000 0.000000 0.052229
#
#
# Mechanical properties :
#
#
# Convention : Reuss Voigt Hill
#
# Bulk Modulus (GPa) = 55.45927 62.06487 58.76207
# Shear Modulus (GPa) = 21.76690 23.48044 22.62367
#
# Velocity S-wave (km/s) = 3.68584 3.82817 3.75768
# Velocity P-wave (km/s) = 7.26140 7.63391 7.44998
#
# Compressibility (1/GPa) = 0.01803125
#
# Stress axis : x y z
#
# Youngs Moduli (GPa) = 43.48429 50.67574 79.75355
#
# Poissons Ratio (x) = 0.35079 0.53579
# Poissons Ratio (y) = 0.30101 0.39704
# Poissons Ratio (z) = 0.29213 0.25228
#
# Static dielectric constant tensor:
#      x y z
#    x 3.072210 0.000000 0.000000 
#    y 0.000000 2.905340 0.000000 
#    z 0.000000 0.000000 3.094730 
# 
# 
# High freq. dielectric constant tensor:
#      x y z
#    x 1.626580 0.000000 0.000000 
#    y 0.000000 1.581730 0.000000 
#    z 0.000000 0.000000 1.616140 
# 
# From -- ./inp_files/28573.got.cif
#   From: 2010.03.12/outbox.cif.g09.slc.cpg/sg51_15_cif.got.tgz:28573.got - 2010.04.16 13:43:02.
