data_PCOD8206511
_publ_section_title
;
Structure prediction by ZEFSAII (Michael W. Deem and Ramdas Pophale) SiO2 
 PCOD8206511
Probable space group: P M M A
;
_chemical_formula_sum "Si O2"
_cell_formula_units_Z 48
_cell_length_a 26.380124
_cell_length_b 8.889737
_cell_length_c 11.858130
_cell_angle_alpha 90.000000
_cell_angle_beta 90.000000
_cell_angle_gamma 90.000000
_cell_volume 2780.878104
_symmetry_space_group_name_H-M "P M M A"
_symmetry_group_IT_number 51
_symmetry_cell_setting 'orthorhombic'
loop_
_space_group_symop_operation_xyz
x,y,z
1/2-x,-y,z
1/2+x,-y,-z
-x,y,-z
-x,-y,-z
1/2+x,y,-z
1/2-x,y,z
x,-y,z
loop_
_atom_site_type_symbol
_atom_site_label
_atom_site_fract_x
_atom_site_fract_y
_atom_site_fract_z
Si Si1 0.429887 0.324510 0.204874
Si Si2 0.945994 0.680347 0.543268
Si Si3 0.041666 0.668304 0.863094
Si Si4 0.121385 0.175918 0.010421
Si Si5 0.386595 0.669131 0.662174
Si Si6 0.692163 0.679040 0.161858
O O1 0.416991 0.500000 0.208218
O O2 0.433307 0.259583 0.331818
O O3 0.482422 0.293654 0.138979
O O4 0.385583 0.238351 0.137508
O O5 0.947398 0.500000 0.541061
O O6 0.901754 0.742494 0.458266
O O7 0.000000 0.743228 0.500000
O O8 0.050895 0.500000 0.912814
O O9 0.070845 0.787708 0.939554
O O10 0.062076 0.673718 0.735655
O O11 0.170373 0.252945 0.953791
O O12 0.130755 0.000000 0.014890
O O13 0.368982 0.500000 0.638455
O O14 0.340095 0.745696 0.731484
O O15 0.750000 0.729204 0.177262
O O16 0.685832 0.500000 0.154296
#
# Coordination Sequence:
#
# PCOD8206511 Si02
#       6
#     8   8   8   8   8   8
#     4  10  18  28  46  69  97 134 169 197 231 276
#     4   9  14  23  43  72 100 128 161 194 230 276
#     4   9  16  28  46  67  94 128 165 201 234 273
#     4  11  22  32  44  66  97 129 161 198 242 290
#     4   8  13  24  44  72  99 119 149 195 242 284
#     4   9  18  34  56  76  92 114 150 201 254 295
#
# _framework density 17.260735
#
# number of rings (size 3 to 8) (size 9 to 14) (size 15 to 20)
#    0.000    2.667    1.667    3.000    0.000    3.000 
#    0.000    0.000    0.000    5.500    0.000    4.667 
#    0.000    0.000    0.000    0.000    0.000    0.000 
#
# Total GULP energy -594855.538165 kJ/mol
# GULP energy per Si atom -12392.823712 kJ/mol
# Density = 1.722145 g / cm^3
# Si number density = 17.260735 Si / 1000 Ang^3
#
#
#
# Elastic Constant Matrix: (Units=GPa)
#
#
# Indices 1 2 3 4 5 6 
#
# 1 99.8555 23.2861 48.8594 0.0000 0.0000 0.0000
# 2 23.2861 38.5915 25.2232 0.0000 0.0000 0.0000
# 3 48.8594 25.2232 112.1417 0.0000 0.0000 0.0000
# 4 0.0000 0.0000 0.0000 1.6851 0.0000 0.0000
# 5 0.0000 0.0000 0.0000 0.0000 17.9289 0.0000
# 6 0.0000 0.0000 0.0000 0.0000 0.0000 9.4086
#
#
#
# Elastic Compliance Matrix: (Units=1/GPa)
#
#
# Indices 1 2 3 4 5 6 
#
# 1 0.013518 -0.005050 -0.004754 0.000000 0.000000 0.000000
# 2 -0.005050 0.032265 -0.005057 0.000000 0.000000 0.000000
# 3 -0.004754 -0.005057 0.012126 0.000000 0.000000 0.000000
# 4 0.000000 0.000000 0.000000 0.593440 0.000000 0.000000
# 5 0.000000 0.000000 0.000000 0.000000 0.055776 0.000000
# 6 0.000000 0.000000 0.000000 0.000000 0.000000 0.106285
#
#
# Mechanical properties :
#
#
# Convention : Reuss Voigt Hill
#
# Bulk Modulus (GPa) = 35.47664 49.48068 42.47866
# Shear Modulus (GPa) = 5.86492 16.01919 10.94206
#
# Velocity S-wave (km/s) = 1.84532 3.04973 2.52052
# Velocity P-wave (km/s) = 5.01381 6.41327 5.75623
#
# Compressibility (1/GPa) = 0.02818756
#
# Stress axis : x y z
#
# Youngs Moduli (GPa) = 73.97435 30.99375 82.46751
#
# Poissons Ratio (x) = 0.15651 0.39205
# Poissons Ratio (y) = 0.37355 0.41703
# Poissons Ratio (z) = 0.35167 0.15673
#
# Static dielectric constant tensor:
#      x y z
#    x 3.095900 0.000000 0.000000 
#    y 0.000000 2.732870 0.000000 
#    z 0.000000 0.000000 3.462100 
# 
# 
# High freq. dielectric constant tensor:
#      x y z
#    x 1.638510 0.000000 0.000000 
#    y 0.000000 1.617120 0.000000 
#    z 0.000000 0.000000 1.674010 
# 
# From -- ./inp_files/18996.got.cif
#   From: 2010.03.12/outbox.cif.g09.slc.cpg/sg51_10_cif.got.tgz:18996.got - 2010.04.16 13:43:02.
