data_PCOD8206962
_publ_section_title
;
Structure prediction by ZEFSAII (Michael W. Deem and Ramdas Pophale) SiO2 
 PCOD8206962
Probable space group: P M M A
;
_chemical_formula_sum "Si O2"
_cell_formula_units_Z 40
_cell_length_a 8.782314
_cell_length_b 26.271664
_cell_length_c 9.200736
_cell_angle_alpha 90.000000
_cell_angle_beta 90.000000
_cell_angle_gamma 90.000000
_cell_volume 2122.849038
_symmetry_space_group_name_H-M "P M M A"
_symmetry_group_IT_number 51
_symmetry_cell_setting 'orthorhombic'
loop_
_space_group_symop_operation_xyz
x,y,z
1/2-x,-y,z
1/2+x,-y,-z
-x,y,-z
-x,-y,-z
1/2+x,y,-z
1/2-x,y,z
x,-y,z
loop_
_atom_site_type_symbol
_atom_site_label
_atom_site_fract_x
_atom_site_fract_y
_atom_site_fract_z
Si Si1 0.430523 0.295509 0.842325
Si Si2 0.927597 0.500000 0.344776
Si Si3 0.570216 0.609812 0.341357
Si Si4 0.429116 0.199620 0.657557
Si Si5 0.568216 0.000000 0.839337
Si Si6 0.069256 0.102036 0.841391
O O1 0.250000 0.295461 0.856381
O O2 0.492032 0.347162 0.767146
O O3 0.489213 0.248092 0.747298
O O4 0.500000 0.290731 0.000000
O O5 0.750000 0.500000 0.369185
O O6 0.974462 0.445941 0.270586
O O7 0.000000 0.500000 0.500000
O O8 0.500000 0.617511 0.500000
O O9 0.750000 0.615375 0.359739
O O10 0.500000 0.200137 0.500000
O O11 0.250000 0.202245 0.640125
O O12 0.479697 0.148800 0.740810
O O13 0.503269 0.051485 0.765695
O O14 0.750000 0.000000 0.838903
O O15 0.500000 0.000000 0.000000
O O16 0.250000 0.095872 0.855152
O O17 0.000000 0.111664 0.000000
#
# Coordination Sequence:
#
# PCOD8206962 Si02
#       6
#     8   4   8   8   4   8
#     4  10  21  36  52  74 101 132 168 208 252 301
#     4   8  14  26  45  70  98 130 164 204 247 292
#     4   9  17  30  50  74 101 131 168 208 250 297
#     4  10  22  37  54  76 102 131 167 208 253 301
#     4  10  18  30  51  78 105 136 170 204 244 292
#     4  10  19  33  53  78 105 134 168 207 247 293
#
# _framework density 18.842603
#
# number of rings (size 3 to 8) (size 9 to 14) (size 15 to 20)
#    0.000    2.400    0.000    3.900    0.000    3.200 
#    0.000    1.000    0.000    0.000    0.000    0.000 
#    0.000    0.000    0.000    0.000    0.000    0.000 
#
# Total GULP energy -495723.572895 kJ/mol
# GULP energy per Si atom -12393.089322 kJ/mol
# Density = 1.879972 g / cm^3
# Si number density = 18.842603 Si / 1000 Ang^3
#
#
#
# Elastic Constant Matrix: (Units=GPa)
#
#
# Indices 1 2 3 4 5 6 
#
# 1 47.4751 49.6462 31.6789 0.0000 0.0000 0.0000
# 2 49.6462 226.6392 93.9457 0.0000 0.0000 0.0000
# 3 31.6789 93.9457 120.8430 0.0000 0.0000 0.0000
# 4 0.0000 0.0000 0.0000 36.8822 0.0000 0.0000
# 5 0.0000 0.0000 0.0000 0.0000 29.0022 0.0000
# 6 0.0000 0.0000 0.0000 0.0000 0.0000 -19.0555
#
#
#
# Elastic Compliance Matrix: (Units=1/GPa)
#
#
# Indices 1 2 3 4 5 6 
#
# 1 0.028494 -0.004641 -0.003862 0.000000 0.000000 0.000000
# 2 -0.004641 0.007266 -0.004432 0.000000 0.000000 0.000000
# 3 -0.003862 -0.004432 0.012733 0.000000 0.000000 0.000000
# 4 0.000000 0.000000 0.000000 0.027113 0.000000 0.000000
# 5 0.000000 0.000000 0.000000 0.000000 0.034480 0.000000
# 6 0.000000 0.000000 0.000000 0.000000 0.000000 -0.052478
#
#
# Mechanical properties :
#
#
# Convention : Reuss Voigt Hill
#
# Bulk Modulus (GPa) = 44.20201 82.83321 63.51761
# Shear Modulus (GPa) = 54.93371 24.01156 39.47263
#
# Velocity S-wave (km/s) = 5.40530 3.57364 4.58193
# Velocity P-wave (km/s) = 7.90353 7.81562 7.85970
#
# Compressibility (1/GPa) = 0.02262340
#
# Stress axis : x y z
#
# Youngs Moduli (GPa) = 35.09562 137.62460 78.53476
#
# Poissons Ratio (x) = 0.63871 0.30327
# Poissons Ratio (y) = 0.16288 0.34808
# Poissons Ratio (z) = 0.13553 0.60998
#
# Static dielectric constant tensor:
#      x y z
#    x 3.372180 0.000000 0.000000 
#    y 0.000000 4.523580 0.000000 
#    z 0.000000 0.000000 3.146110 
# 
# 
# High freq. dielectric constant tensor:
#      x y z
#    x 1.727380 0.000000 0.000000 
#    y 0.000000 1.766010 0.000000 
#    z 0.000000 0.000000 1.698700 
# 
# From -- ./inp_files/5566.got.cif
#   From: 2010.03.12/outbox.cif.g09.slc.cpg/sg51_3_cif.got.tgz:5566.got - 2010.04.16 13:43:02.
