data_PCOD8206539
_publ_section_title
;
Structure prediction by ZEFSAII (Michael W. Deem and Ramdas Pophale) SiO2 
 PCOD8206539
Probable space group: P M M A
;
_chemical_formula_sum "Si O2"
_cell_formula_units_Z 48
_cell_length_a 18.070735
_cell_length_b 8.888909
_cell_length_c 16.148315
_cell_angle_alpha 90.000000
_cell_angle_beta 90.000000
_cell_angle_gamma 90.000000
_cell_volume 2593.889611
_symmetry_space_group_name_H-M "P M M A"
_symmetry_group_IT_number 51
_symmetry_cell_setting 'orthorhombic'
loop_
_space_group_symop_operation_xyz
x,y,z
1/2-x,-y,z
1/2+x,-y,-z
-x,y,-z
-x,-y,-z
1/2+x,y,-z
1/2-x,y,z
x,-y,z
loop_
_atom_site_type_symbol
_atom_site_label
_atom_site_fract_x
_atom_site_fract_y
_atom_site_fract_z
Si Si1 0.250000 0.320924 0.387216
Si Si2 0.031164 0.321601 0.632016
Si Si3 0.250000 0.176746 0.210380
Si Si4 0.608413 0.177331 0.895839
Si Si5 0.535593 0.323702 0.182805
Si Si6 0.893735 0.679061 0.527714
Si Si7 0.835415 0.674778 0.059996
O O1 0.250000 0.500000 0.386112
O O2 0.250000 0.265820 0.294628
O O3 0.318416 0.253472 0.437699
O O4 0.030475 0.500000 0.639693
O O5 0.040775 0.254496 0.724183
O O6 0.095659 0.269337 0.568058
O O7 0.956274 0.260293 0.590207
O O8 0.323446 0.227854 0.161882
O O9 0.250000 0.000000 0.226865
O O10 0.531541 0.248169 0.866425
O O11 0.598518 0.000000 0.896024
O O12 0.627887 0.229474 0.987649
O O13 0.518145 0.500000 0.184377
O O14 0.615139 0.291550 0.141056
O O15 0.895470 0.500000 0.530582
O O16 0.750000 0.723184 0.076680
O O17 0.839335 0.500000 0.035501
#
# Coordination Sequence:
#
# PCOD8206539 Si02
#       7
#     4   8   4   8   8   8   8
#     4  10  18  28  48  79 102 126 170 213 250 302
#     4   8  14  27  45  67 101 137 162 197 250 298
#     4  10  22  36  50  73 106 136 166 213 268 318
#     4  11  22  37  55  76 103 136 175 218 268 316
#     4  10  20  34  54  80 105 137 178 217 257 307
#     4   8  14  25  43  70 102 131 162 202 247 294
#     4  10  21  37  54  75 106 140 174 213 259 313
#
# _framework density 18.505027999999999
#
# number of rings (size 3 to 8) (size 9 to 14) (size 15 to 20)
#    0.000    2.500    0.833    3.000    0.000    5.333 
#    1.500    0.000    0.000    1.000    0.000    4.667 
#    0.000    0.000    0.000    0.000    0.000    0.000 
#
# Total GULP energy -594933.410518 kJ/mol
# GULP energy per Si atom -12394.446052 kJ/mol
# Density = 1.846291 g / cm^3
# Si number density = 18.505028 Si / 1000 Ang^3
#
#
#
# Elastic Constant Matrix: (Units=GPa)
#
#
# Indices 1 2 3 4 5 6 
#
# 1 120.2970 27.6920 93.5165 0.0000 0.0000 0.0000
# 2 27.6920 25.2019 29.3006 0.0000 0.0000 0.0000
# 3 93.5165 29.3006 157.8608 0.0000 0.0000 0.0000
# 4 0.0000 0.0000 0.0000 -0.7403 0.0000 0.0000
# 5 0.0000 0.0000 0.0000 0.0000 -59.9187 0.0000
# 6 0.0000 0.0000 0.0000 0.0000 0.0000 15.7878
#
#
#
# Elastic Compliance Matrix: (Units=1/GPa)
#
#
# Indices 1 2 3 4 5 6 
#
# 1 0.016808 -0.008789 -0.008326 0.000000 0.000000 0.000000
# 2 -0.008789 0.055195 -0.005038 0.000000 0.000000 0.000000
# 3 -0.008326 -0.005038 0.012202 0.000000 0.000000 0.000000
# 4 0.000000 0.000000 0.000000 -1.350867 0.000000 0.000000
# 5 0.000000 0.000000 0.000000 0.000000 -0.016689 0.000000
# 6 0.000000 0.000000 0.000000 0.000000 0.000000 0.063340
#
#
# Mechanical properties :
#
#
# Convention : Reuss Voigt Hill
#
# Bulk Modulus (GPa) = 25.06342 67.15312 46.10827
# Shear Modulus (GPa) = -4.30143 1.21579 -1.54282
#
# Velocity S-wave (km/s) = -1.52627 0.81144 -0.91408
# Velocity P-wave (km/s) = 3.23535 6.10293 4.88433
#
# Compressibility (1/GPa) = 0.03989879
#
# Stress axis : x y z
#
# Youngs Moduli (GPa) = 59.49402 18.11775 81.95344
#
# Poissons Ratio (x) = 0.15924 0.68234
# Poissons Ratio (y) = 0.52291 0.41288
# Poissons Ratio (z) = 0.49534 0.09128
#
# Static dielectric constant tensor:
#      x y z
#    x 3.764210 0.000000 0.000000 
#    y 0.000000 2.993080 0.000000 
#    z 0.000000 0.000000 3.672490 
# 
# 
# High freq. dielectric constant tensor:
#      x y z
#    x 1.725970 0.000000 0.000000 
#    y 0.000000 1.674430 0.000000 
#    z 0.000000 0.000000 1.729340 
# 
# From -- ./inp_files/24887.got.cif
#   From: 2010.03.12/outbox.cif.g09.slc.cpg/sg51_13_cif.got.tgz:24887.got - 2010.04.16 13:43:02.
