data_PCOD8206118
_publ_section_title
;
Structure prediction by ZEFSAII (Michael W. Deem and Ramdas Pophale) SiO2 
 PCOD8206118
Probable space group: P M M A
;
_chemical_formula_sum "Si O2"
_cell_formula_units_Z 64
_cell_length_a 28.306319
_cell_length_b 9.129273
_cell_length_c 15.562677
_cell_angle_alpha 90.000000
_cell_angle_beta 90.000000
_cell_angle_gamma 90.000000
_cell_volume 4021.646510
_symmetry_space_group_name_H-M "P M M A"
_symmetry_group_IT_number 51
_symmetry_cell_setting 'orthorhombic'
loop_
_space_group_symop_operation_xyz
x,y,z
1/2-x,-y,z
1/2+x,-y,-z
-x,y,-z
-x,-y,-z
1/2+x,y,-z
1/2-x,y,z
x,-y,z
loop_
_atom_site_type_symbol
_atom_site_label
_atom_site_fract_x
_atom_site_fract_y
_atom_site_fract_z
Si Si1 0.137900 0.173994 0.670679
Si Si2 0.055266 0.670307 0.403971
Si Si3 0.302734 0.174203 0.830592
Si Si4 0.642905 0.826127 0.660926
Si Si5 0.306074 0.162799 0.018958
Si Si6 0.305714 0.331046 0.185222
Si Si7 0.697020 0.825955 0.491909
Si Si8 0.051989 0.330143 0.601124
O O1 0.161966 0.234289 0.757722
O O2 0.168784 0.232571 0.590658
O O3 0.085269 0.237965 0.664326
O O4 0.134593 0.000000 0.670443
O O5 0.067936 0.500000 0.393565
O O6 0.089625 0.766548 0.344955
O O7 0.060607 0.719154 0.502954
O O8 0.002027 0.701086 0.372426
O O9 0.250000 0.238200 0.814439
O O10 0.299901 0.000000 0.825760
O O11 0.322508 0.220397 0.924804
O O12 0.667836 0.763673 0.744419
O O13 0.671657 0.769550 0.577971
O O14 0.641992 0.000000 0.667162
O O15 0.250000 0.153030 0.016832
O O16 0.323197 0.274888 0.092044
O O17 0.326622 0.000000 0.037875
O O18 0.250000 0.306677 0.196596
O O19 0.319825 0.500000 0.194326
O O20 0.750000 0.761467 0.489486
O O21 0.698595 0.000000 0.490799
O O22 0.064003 0.500000 0.611583
#
# Coordination Sequence:
#
# PCOD8206118 Si02
#       8
#     8   8   8   8   8   8   8   8
#     4  10  17  27  45  69  93 120 155 191 223 263
#     4   9  18  33  49  63  85 120 157 193 234 277
#     4   8  14  25  44  69  95 123 154 187 225 268
#     4  11  20  30  46  69  93 120 154 194 233 269
#     4   8  14  27  46  66  88 117 154 193 227 261
#     4  10  20  32  46  66  93 125 157 189 227 272
#     4   9  17  27  39  60  92 125 153 180 214 257
#     4   9  18  32  48  64  87 120 154 192 236 275
#
# _framework density 15.913880000000001
#
# number of rings (size 3 to 8) (size 9 to 14) (size 15 to 20)
#    0.000    2.750    1.250    3.000    0.000    3.250 
#    0.000    1.875    0.000    3.000    0.000    0.875 
#    0.000    7.000    0.000    0.000    0.000    0.000 
#
# Total GULP energy -793454.611922 kJ/mol
# GULP energy per Si atom -12397.728311 kJ/mol
# Density = 1.587766 g / cm^3
# Si number density = 15.913880 Si / 1000 Ang^3
#
#
#
# Elastic Constant Matrix: (Units=GPa)
#
#
# Indices 1 2 3 4 5 6 
#
# 1 84.7379 36.9233 50.5572 0.0000 0.0000 0.0000
# 2 36.9233 51.7929 40.0920 0.0000 0.0000 0.0000
# 3 50.5572 40.0920 121.6590 0.0000 0.0000 0.0000
# 4 0.0000 0.0000 0.0000 17.1056 0.0000 0.0000
# 5 0.0000 0.0000 0.0000 0.0000 12.3047 0.0000
# 6 0.0000 0.0000 0.0000 0.0000 0.0000 21.7694
#
#
#
# Elastic Compliance Matrix: (Units=1/GPa)
#
#
# Indices 1 2 3 4 5 6 
#
# 1 0.018837 -0.009893 -0.004568 0.000000 0.000000 0.000000
# 2 -0.009893 0.031116 -0.006143 0.000000 0.000000 0.000000
# 3 -0.004568 -0.006143 0.012142 0.000000 0.000000 0.000000
# 4 0.000000 0.000000 0.000000 0.058461 0.000000 0.000000
# 5 0.000000 0.000000 0.000000 0.000000 0.081269 0.000000
# 6 0.000000 0.000000 0.000000 0.000000 0.000000 0.045936
#
#
# Mechanical properties :
#
#
# Convention : Reuss Voigt Hill
#
# Bulk Modulus (GPa) = 47.87549 57.03718 52.45634
# Shear Modulus (GPa) = 16.89583 18.94376 17.91979
#
# Velocity S-wave (km/s) = 3.26192 3.45395 3.35930
# Velocity P-wave (km/s) = 6.65854 7.19898 6.93403
#
# Compressibility (1/GPa) = 0.02088751
#
# Stress axis : x y z
#
# Youngs Moduli (GPa) = 53.08638 32.13831 82.35736
#
# Poissons Ratio (x) = 0.31795 0.37619
# Poissons Ratio (y) = 0.52520 0.50589
# Poissons Ratio (z) = 0.24249 0.19741
#
# Static dielectric constant tensor:
#      x y z
#    x 2.935030 0.000000 0.000000 
#    y 0.000000 2.799870 0.000000 
#    z 0.000000 0.000000 3.177050 
# 
# 
# High freq. dielectric constant tensor:
#      x y z
#    x 1.592570 0.000000 0.000000 
#    y 0.000000 1.591850 0.000000 
#    z 0.000000 0.000000 1.604140 
# 
# From -- ./inp_files/26651.got.cif
#   From: 2010.03.12/outbox.cif.g09.slc.cpg/sg51_14_cif.got.tgz:26651.got - 2010.04.16 13:43:02.
