data_PCOD8206344
_publ_section_title
;
Structure prediction by ZEFSAII (Michael W. Deem and Ramdas Pophale) SiO2 
 PCOD8206344
Probable space group: P M M A
;
_chemical_formula_sum "Si O2"
_cell_formula_units_Z 64
_cell_length_a 14.355051
_cell_length_b 14.250275
_cell_length_c 18.286043
_cell_angle_alpha 90.000000
_cell_angle_beta 90.000000
_cell_angle_gamma 90.000000
_cell_volume 3740.655575
_symmetry_space_group_name_H-M "P M M A"
_symmetry_group_IT_number 51
_symmetry_cell_setting 'orthorhombic'
loop_
_space_group_symop_operation_xyz
x,y,z
1/2-x,-y,z
1/2+x,-y,-z
-x,y,-z
-x,-y,-z
1/2+x,y,-z
1/2-x,y,z
x,-y,z
loop_
_atom_site_type_symbol
_atom_site_label
_atom_site_fract_x
_atom_site_fract_y
_atom_site_fract_z
Si Si1 0.143892 0.605262 0.685629
Si Si2 0.857538 0.892050 0.535538
Si Si3 0.356583 0.208131 0.612613
Si Si4 0.531601 0.610284 0.171879
Si Si5 0.895199 0.602626 0.023165
Si Si6 0.476456 0.109826 0.325868
Si Si7 0.643583 0.104877 0.813219
Si Si8 0.647529 0.291559 0.883948
O O1 0.250000 0.607050 0.714590
O O2 0.118021 0.500000 0.658425
O O3 0.131396 0.678800 0.619071
O O4 0.077220 0.638203 0.751451
O O5 0.750000 0.880460 0.556456
O O6 0.885790 0.825845 0.467925
O O7 0.916501 0.857250 0.604419
O O8 0.880074 0.000000 0.514361
O O9 0.250000 0.178149 0.629391
O O10 0.423012 0.159692 0.672615
O O11 0.515769 0.500000 0.165436
O O12 0.602609 0.641609 0.106615
O O13 0.429923 0.656223 0.164076
O O14 0.844770 0.500000 0.018349
O O15 0.849183 0.678229 0.969143
O O16 0.000000 0.587281 0.000000
O O17 0.421747 0.138625 0.253046
O O18 0.493312 0.000000 0.328275
O O19 0.750000 0.104741 0.784789
O O20 0.629536 0.179082 0.879201
O O21 0.616306 0.000000 0.840493
O O22 0.750000 0.314300 0.850577
#
# Coordination Sequence:
#
# PCOD8206344 Si02
#       8
#     8   8   8   8   8   8   8   8
#     4   9  18  32  48  64  83 114 154 186 213 248
#     4   9  17  29  46  69  93 114 139 174 218 265
#     4  10  19  29  43  66  93 116 141 178 220 260
#     4   9  17  30  47  67  92 116 140 178 221 262
#     4   8  15  27  42  62  88 114 137 167 212 261
#     4  10  18  29  47  67  89 117 144 175 218 265
#     4   9  18  31  45  63  87 117 154 187 212 246
#     4  10  18  27  43  67  93 119 144 175 219 265
#
# _framework density 17.109300999999999
#
# number of rings (size 3 to 8) (size 9 to 14) (size 15 to 20)
#    0.000    2.750    0.000    3.000    0.000    4.750 
#    0.000    1.250    0.000    4.875    0.000    0.000 
#    0.000   14.000    0.000    0.000    0.000    0.000 
#
# Total GULP energy -793124.788936 kJ/mol
# GULP energy per Si atom -12392.574827 kJ/mol
# Density = 1.707036 g / cm^3
# Si number density = 17.109301 Si / 1000 Ang^3
#
#
#
# Elastic Constant Matrix: (Units=GPa)
#
#
# Indices 1 2 3 4 5 6 
#
# 1 68.4443 37.3648 23.8710 0.0000 0.0000 0.0000
# 2 37.3648 88.0570 59.1255 0.0000 0.0000 0.0000
# 3 23.8710 59.1255 71.5363 0.0000 0.0000 0.0000
# 4 0.0000 0.0000 0.0000 25.7286 0.0000 0.0000
# 5 0.0000 0.0000 0.0000 0.0000 19.0874 0.0000
# 6 0.0000 0.0000 0.0000 0.0000 0.0000 20.7874
#
#
#
# Elastic Compliance Matrix: (Units=1/GPa)
#
#
# Indices 1 2 3 4 5 6 
#
# 1 0.019032 -0.008564 0.000728 0.000000 0.000000 0.000000
# 2 -0.008564 0.029371 -0.021418 0.000000 0.000000 0.000000
# 3 0.000728 -0.021418 0.031438 0.000000 0.000000 0.000000
# 4 0.000000 0.000000 0.000000 0.038867 0.000000 0.000000
# 5 0.000000 0.000000 0.000000 0.000000 0.052390 0.000000
# 6 0.000000 0.000000 0.000000 0.000000 0.000000 0.048106
#
#
# Mechanical properties :
#
#
# Convention : Reuss Voigt Hill
#
# Bulk Modulus (GPa) = 46.87682 52.08447 49.48065
# Shear Modulus (GPa) = 17.55465 20.29910 18.92688
#
# Velocity S-wave (km/s) = 3.20664 3.44821 3.32962
# Velocity P-wave (km/s) = 6.41623 6.80895 6.61550
#
# Compressibility (1/GPa) = 0.02133250
#
# Stress axis : x y z
#
# Youngs Moduli (GPa) = 52.54288 34.04691 31.80862
#
# Poissons Ratio (x) = 0.29159 -0.02315
# Poissons Ratio (y) = 0.45000 0.68127
# Poissons Ratio (z) = -0.03824 0.72921
#
# Static dielectric constant tensor:
#      x y z
#    x 3.274890 0.000000 0.000000 
#    y 0.000000 3.240430 0.000000 
#    z 0.000000 0.000000 3.249660 
# 
# 
# High freq. dielectric constant tensor:
#      x y z
#    x 1.666010 0.000000 0.000000 
#    y 0.000000 1.650780 0.000000 
#    z 0.000000 0.000000 1.634860 
# 
# From -- ./inp_files/29994.got.cif
#   From: 2010.03.12/outbox.cif.g09.slc.cpg/sg51_15_cif.got.tgz:29994.got - 2010.04.16 13:43:02.
