data_PCOD8206157
_publ_section_title
;
Structure prediction by ZEFSAII (Michael W. Deem and Ramdas Pophale) SiO2 
 PCOD8206157
Probable space group: P M M A
;
_chemical_formula_sum "Si O2"
_cell_formula_units_Z 64
_cell_length_a 19.496060
_cell_length_b 9.394714
_cell_length_c 20.865914
_cell_angle_alpha 90.000000
_cell_angle_beta 90.000000
_cell_angle_gamma 90.000000
_cell_volume 3821.798885
_symmetry_space_group_name_H-M "P M M A"
_symmetry_group_IT_number 51
_symmetry_cell_setting 'orthorhombic'
loop_
_space_group_symop_operation_xyz
x,y,z
1/2-x,-y,z
1/2+x,-y,-z
-x,y,-z
-x,-y,-z
1/2+x,y,-z
1/2-x,y,z
x,-y,z
loop_
_atom_site_type_symbol
_atom_site_label
_atom_site_fract_x
_atom_site_fract_y
_atom_site_fract_z
Si Si1 0.825984 0.164995 0.747351
Si Si2 0.468938 0.334231 0.432822
Si Si3 0.325218 0.169140 0.883764
Si Si4 0.536749 0.831132 0.317385
Si Si5 0.826256 0.335763 0.619777
Si Si6 0.324709 0.831402 0.739862
Si Si7 0.033447 0.170033 0.935334
Si Si8 0.539063 0.166709 0.809604
O O1 0.750000 0.202733 0.772955
O O2 0.843965 0.248849 0.683226
O O3 0.879978 0.203694 0.803327
O O4 0.832531 0.000000 0.728770
O O5 0.500000 0.282225 0.500000
O O6 0.484349 0.500000 0.421450
O O7 0.506759 0.246063 0.378561
O O8 0.386465 0.304195 0.431790
O O9 0.250000 0.222441 0.908419
O O10 0.338529 0.227109 0.811730
O O11 0.387202 0.222261 0.929507
O O12 0.325722 0.000000 0.882418
O O13 0.616255 0.783161 0.309361
O O14 0.498426 0.775251 0.253755
O O15 0.528180 0.000000 0.326602
O O16 0.750000 0.294179 0.592853
O O17 0.827124 0.500000 0.639702
O O18 0.250000 0.777571 0.715255
O O19 0.325413 0.000000 0.744502
O O20 0.990892 0.233622 0.874889
O O21 0.029448 0.000000 0.936435
O O22 0.000000 0.233285 0.000000
O O23 0.525211 0.000000 0.813110
#
# Coordination Sequence:
#
# PCOD8206157 Si02
#       8
#     8   8   8   8   8   8   8   8
#     4   9  16  26  42  64  89 115 142 178 225 267
#     4  10  21  35  48  66  94 121 145 178 221 267
#     4   8  12  19  31  48  72 104 142 179 215 256
#     4  10  17  28  48  69  88 113 149 188 222 260
#     4   9  17  30  48  67  86 112 148 183 213 255
#     4   8  13  22  39  63  87 110 141 185 228 259
#     4   9  15  22  32  50  80 117 150 178 212 260
#     4   9  15  24  38  59  84 110 145 182 217 256
#
# _framework density 16.746040000000001
#
# number of rings (size 3 to 8) (size 9 to 14) (size 15 to 20)
#    0.000    3.000    2.500    0.750    0.000    0.250 
#    0.000    1.250    0.000    4.875    0.000    0.000 
#    0.000    2.000    0.000    0.000    0.750    0.250 
#
# Total GULP energy -792919.015527 kJ/mol
# GULP energy per Si atom -12389.359618 kJ/mol
# Density = 1.670793 g / cm^3
# Si number density = 16.746040 Si / 1000 Ang^3
#
#
#
# Elastic Constant Matrix: (Units=GPa)
#
#
# Indices 1 2 3 4 5 6 
#
# 1 168.1377 22.8059 85.5875 0.0000 0.0000 0.0000
# 2 22.8059 16.2918 21.7534 0.0000 0.0000 0.0000
# 3 85.5875 21.7534 119.8453 0.0000 0.0000 0.0000
# 4 0.0000 0.0000 0.0000 -3.7364 0.0000 0.0000
# 5 0.0000 0.0000 0.0000 0.0000 28.2148 0.0000
# 6 0.0000 0.0000 0.0000 0.0000 0.0000 11.4062
#
#
#
# Elastic Compliance Matrix: (Units=1/GPa)
#
#
# Indices 1 2 3 4 5 6 
#
# 1 0.009734 -0.005734 -0.005911 0.000000 0.000000 0.000000
# 2 -0.005734 0.084393 -0.011224 0.000000 0.000000 0.000000
# 3 -0.005911 -0.011224 0.014603 0.000000 0.000000 0.000000
# 4 0.000000 0.000000 0.000000 -0.267636 0.000000 0.000000
# 5 0.000000 0.000000 0.000000 0.000000 0.035442 0.000000
# 6 0.000000 0.000000 0.000000 0.000000 0.000000 0.087672
#
#
# Mechanical properties :
#
#
# Convention : Reuss Voigt Hill
#
# Bulk Modulus (GPa) = 15.87475 62.72984 39.30230
# Shear Modulus (GPa) = 161.59677 18.78545 90.19111
#
# Velocity S-wave (km/s) = 9.83402 3.35294 7.34677
# Velocity P-wave (km/s) = 11.76623 7.24779 9.77176
#
# Compressibility (1/GPa) = 0.06299313
#
# Stress axis : x y z
#
# Youngs Moduli (GPa) = 102.73266 11.84934 68.48132
#
# Poissons Ratio (x) = 0.06794 0.40478
# Poissons Ratio (y) = 0.58904 0.76861
# Poissons Ratio (z) = 0.60723 0.13299
#
# Static dielectric constant tensor:
#      x y z
#    x 3.769780 0.000000 0.000000 
#    y 0.000000 2.643390 0.000000 
#    z 0.000000 0.000000 3.043180 
# 
# 
# High freq. dielectric constant tensor:
#      x y z
#    x 1.672670 0.000000 0.000000 
#    y 0.000000 1.585260 0.000000 
#    z 0.000000 0.000000 1.615410 
# 
# From -- ./inp_files/30702.got.cif
#   From: 2010.03.12/outbox.cif.g09.slc.cpg/sg51_16_cif.got.tgz:30702.got - 2010.04.16 13:43:02.
