data_PCOD8206215
_publ_section_title
;
Structure prediction by ZEFSAII (Michael W. Deem and Ramdas Pophale) SiO2 
 PCOD8206215
Probable space group: P M M A
;
_chemical_formula_sum "Si O2"
_cell_formula_units_Z 32
_cell_length_a 24.296328
_cell_length_b 8.334981
_cell_length_c 7.775147
_cell_angle_alpha 90.000000
_cell_angle_beta 90.000000
_cell_angle_gamma 90.000000
_cell_volume 1574.540605
_symmetry_space_group_name_H-M "P M M A"
_symmetry_group_IT_number 51
_symmetry_cell_setting 'orthorhombic'
loop_
_space_group_symop_operation_xyz
x,y,z
1/2-x,-y,z
1/2+x,-y,-z
-x,y,-z
-x,-y,-z
1/2+x,y,-z
1/2-x,y,z
x,-y,z
loop_
_atom_site_type_symbol
_atom_site_label
_atom_site_fract_x
_atom_site_fract_y
_atom_site_fract_z
Si Si1 0.365801 0.310978 0.820070
Si Si2 0.639096 0.688439 0.796426
Si Si3 0.750000 0.314391 0.294934
Si Si4 0.750000 0.183806 0.665403
Si Si5 0.061508 0.308923 0.510339
O O1 0.362222 0.500000 0.788179
O O2 0.305302 0.234950 0.784024
O O3 0.409685 0.240583 0.683426
O O4 0.384916 0.271393 0.014037
O O5 0.650272 0.500000 0.775088
O O6 0.696565 0.779766 0.778871
O O7 0.595549 0.750719 0.655829
O O8 0.750000 0.500000 0.245713
O O9 0.750000 0.296657 0.499533
O O10 0.750000 0.000000 0.606370
O O11 0.059035 0.500000 0.512745
O O12 0.000000 0.237254 0.500000
#
# Coordination Sequence:
#
# PCOD8206215 Si02
#       5
#     8   8   4   4   8
#     4   9  17  29  51  80 105 135 173 209 254 311
#     4  10  19  34  56  77 105 142 173 208 258 312
#     4  10  17  32  54  75 103 136 172 210 257 317
#     4  12  23  34  52  79 107 134 172 218 265 313
#     4   9  17  29  49  81 113 136 168 216 258 297
#
# _framework density 20.323388999999999
#
# number of rings (size 3 to 8) (size 9 to 14) (size 15 to 20)
#    0.000    2.250    2.500    1.875    0.000    3.000 
#    0.000    7.500    0.000    0.750    0.000    1.750 
#    0.000    0.000    0.000    0.000    0.000    0.000 
#
# Total GULP energy -396737.664555 kJ/mol
# GULP energy per Si atom -12398.052017 kJ/mol
# Density = 2.027713 g / cm^3
# Si number density = 20.323389 Si / 1000 Ang^3
#
#
#
# Elastic Constant Matrix: (Units=GPa)
#
#
# Indices 1 2 3 4 5 6 
#
# 1 185.5314 13.5055 90.9754 0.0000 0.0000 0.0000
# 2 13.5055 16.8503 6.4744 0.0000 0.0000 0.0000
# 3 90.9754 6.4744 178.1181 0.0000 0.0000 0.0000
# 4 0.0000 0.0000 0.0000 2.8587 0.0000 0.0000
# 5 0.0000 0.0000 0.0000 0.0000 20.4776 0.0000
# 6 0.0000 0.0000 0.0000 0.0000 0.0000 0.1669
#
#
#
# Elastic Compliance Matrix: (Units=1/GPa)
#
#
# Indices 1 2 3 4 5 6 
#
# 1 0.007530 -0.004622 -0.003678 0.000000 0.000000 0.000000
# 2 -0.004622 0.063024 0.000070 0.000000 0.000000 0.000000
# 3 -0.003678 0.000070 0.007490 0.000000 0.000000 0.000000
# 4 0.000000 0.000000 0.000000 0.349814 0.000000 0.000000
# 5 0.000000 0.000000 0.000000 0.000000 0.048834 0.000000
# 6 0.000000 0.000000 0.000000 0.000000 0.000000 5.991394
#
#
# Mechanical properties :
#
#
# Convention : Reuss Voigt Hill
#
# Bulk Modulus (GPa) = 16.23806 66.93450 41.58628
# Shear Modulus (GPa) = 0.76863 22.67026 11.71945
#
# Velocity S-wave (km/s) = 0.61565 3.34350 2.40396
# Velocity P-wave (km/s) = 2.91763 6.92181 5.31150
#
# Compressibility (1/GPa) = 0.06158373
#
# Stress axis : x y z
#
# Youngs Moduli (GPa) = 132.80475 15.86703 133.50689
#
# Poissons Ratio (x) = 0.07334 0.49103
# Poissons Ratio (y) = 0.61382 -0.00933
# Poissons Ratio (z) = 0.48845 -0.00111
#
# Static dielectric constant tensor:
#      x y z
#    x 3.949730 0.000000 0.000000 
#    y 0.000000 2.965920 0.000000 
#    z 0.000000 0.000000 3.789720 
# 
# 
# High freq. dielectric constant tensor:
#      x y z
#    x 1.794040 0.000000 0.000000 
#    y 0.000000 1.724230 0.000000 
#    z 0.000000 0.000000 1.807300 
# 
# From -- ./inp_files/11353.got.cif
#   From: 2010.03.12/outbox.cif.g09.slc.cpg/sg51_6_cif.got.tgz:11353.got - 2010.04.16 13:43:02.
