data_PCOD8206351
_publ_section_title
;
Structure prediction by ZEFSAII (Michael W. Deem and Ramdas Pophale) SiO2 
 PCOD8206351
Probable space group: P M M A
;
_chemical_formula_sum "Si O2"
_cell_formula_units_Z 64
_cell_length_a 21.804556
_cell_length_b 9.412075
_cell_length_c 18.882657
_cell_angle_alpha 90.000000
_cell_angle_beta 90.000000
_cell_angle_gamma 90.000000
_cell_volume 3875.214364
_symmetry_space_group_name_H-M "P M M A"
_symmetry_group_IT_number 51
_symmetry_cell_setting 'orthorhombic'
loop_
_space_group_symop_operation_xyz
x,y,z
1/2-x,-y,z
1/2+x,-y,-z
-x,y,-z
-x,-y,-z
1/2+x,y,-z
1/2-x,y,z
x,-y,z
loop_
_atom_site_type_symbol
_atom_site_label
_atom_site_fract_x
_atom_site_fract_y
_atom_site_fract_z
Si Si1 0.317623 0.162168 0.207524
Si Si2 0.126406 0.659681 0.323839
Si Si3 0.935965 0.338279 0.040804
Si Si4 0.394715 0.159438 0.079302
Si Si5 0.012636 0.338972 0.691992
Si Si6 0.559090 0.332207 0.457131
Si Si7 0.681301 0.330855 0.531032
Si Si8 0.983220 0.166722 0.165178
O O1 0.250000 0.223783 0.219179
O O2 0.364882 0.249047 0.253962
O O3 0.332971 0.175772 0.124426
O O4 0.322534 0.000000 0.231961
O O5 0.146684 0.500000 0.306204
O O6 0.054865 0.668076 0.342357
O O7 0.166644 0.718967 0.388852
O O8 0.916676 0.500000 0.057045
O O9 0.936056 0.249392 0.113592
O O10 0.888214 0.266014 0.986669
O O11 0.000000 0.329799 0.000000
O O12 0.449454 0.194448 0.134052
O O13 0.403656 0.000000 0.049263
O O14 0.026092 0.500000 0.718607
O O15 0.056194 0.295391 0.626485
O O16 0.022578 0.230978 0.756416
O O17 0.500000 0.268040 0.500000
O O18 0.558693 0.500000 0.469869
O O19 0.625424 0.270124 0.482784
O O20 0.750000 0.274339 0.509611
O O21 0.681006 0.500000 0.527006
O O22 0.966820 0.000000 0.168090
#
# Coordination Sequence:
#
# PCOD8206351 Si02
#       8
#     8   8   8   8   8   8   8   8
#     4  10  20  32  44  61  90 128 163 190 220 267
#     4  10  18  28  44  65  90 119 154 195 232 270
#     4   9  17  28  44  66  89 113 143 181 222 266
#     4   9  17  29  43  61  86 119 153 183 219 264
#     4  10  18  27  44  67  91 121 154 189 233 282
#     4   9  15  26  42  62  89 121 154 189 235 286
#     4   9  16  26  42  65  90 117 154 198 238 278
#     4  10  18  29  45  64  90 120 148 183 226 274
#
# _framework density 16.515215000000001
#
# number of rings (size 3 to 8) (size 9 to 14) (size 15 to 20)
#    0.000    2.500    2.500    1.125    0.000    3.250 
#    0.000    0.000    0.000    1.125    0.000    0.875 
#    0.000    3.000    0.000    0.000    0.000    0.000 
#
# Total GULP energy -793186.012471 kJ/mol
# GULP energy per Si atom -12393.531445 kJ/mol
# Density = 1.647763 g / cm^3
# Si number density = 16.515215 Si / 1000 Ang^3
#
#
#
# Elastic Constant Matrix: (Units=GPa)
#
#
# Indices 1 2 3 4 5 6 
#
# 1 69.9696 25.3264 43.5573 0.0000 0.0000 0.0000
# 2 25.3264 71.9067 49.9439 0.0000 0.0000 0.0000
# 3 43.5573 49.9439 97.6986 0.0000 0.0000 0.0000
# 4 0.0000 0.0000 0.0000 10.1689 0.0000 0.0000
# 5 0.0000 0.0000 0.0000 0.0000 16.3478 0.0000
# 6 0.0000 0.0000 0.0000 0.0000 0.0000 10.6698
#
#
#
# Elastic Compliance Matrix: (Units=1/GPa)
#
#
# Indices 1 2 3 4 5 6 
#
# 1 0.019862 -0.001310 -0.008185 0.000000 0.000000 0.000000
# 2 -0.001310 0.021650 -0.010483 0.000000 0.000000 0.000000
# 3 -0.008185 -0.010483 0.019244 0.000000 0.000000 0.000000
# 4 0.000000 0.000000 0.000000 0.098339 0.000000 0.000000
# 5 0.000000 0.000000 0.000000 0.000000 0.061170 0.000000
# 6 0.000000 0.000000 0.000000 0.000000 0.000000 0.093723
#
#
# Mechanical properties :
#
#
# Convention : Reuss Voigt Hill
#
# Bulk Modulus (GPa) = 48.08214 53.02557 50.55386
# Shear Modulus (GPa) = 13.85511 15.48710 14.67110
#
# Velocity S-wave (km/s) = 2.89957 3.06559 2.98373
# Velocity P-wave (km/s) = 6.35508 6.68635 6.52282
#
# Compressibility (1/GPa) = 0.02079774
#
# Stress axis : x y z
#
# Youngs Moduli (GPa) = 50.34842 46.18991 51.96471
#
# Poissons Ratio (x) = 0.06053 0.42534
# Poissons Ratio (y) = 0.06598 0.54476
# Poissons Ratio (z) = 0.41211 0.48422
#
# Static dielectric constant tensor:
#      x y z
#    x 3.047490 0.000000 0.000000 
#    y 0.000000 2.906160 0.000000 
#    z 0.000000 0.000000 3.051500 
# 
# 
# High freq. dielectric constant tensor:
#      x y z
#    x 1.603870 0.000000 0.000000 
#    y 0.000000 1.612150 0.000000 
#    z 0.000000 0.000000 1.633330 
# 
# From -- ./inp_files/30926.got.cif
#   From: 2010.03.12/outbox.cif.g09.slc.cpg/sg51_16_cif.got.tgz:30926.got - 2010.04.16 13:43:02.
