data_PCOD8206057
_publ_section_title
;
Structure prediction by ZEFSAII (Michael W. Deem and Ramdas Pophale) SiO2 
 PCOD8206057
Probable space group: P M M A
;
_chemical_formula_sum "Si O2"
_cell_formula_units_Z 64
_cell_length_a 22.922856
_cell_length_b 8.907458
_cell_length_c 20.403863
_cell_angle_alpha 90.000000
_cell_angle_beta 90.000000
_cell_angle_gamma 90.000000
_cell_volume 4166.150056
_symmetry_space_group_name_H-M "P M M A"
_symmetry_group_IT_number 51
_symmetry_cell_setting 'orthorhombic'
loop_
_space_group_symop_operation_xyz
x,y,z
1/2-x,-y,z
1/2+x,-y,-z
-x,y,-z
-x,-y,-z
1/2+x,y,-z
1/2-x,y,z
x,-y,z
loop_
_atom_site_type_symbol
_atom_site_label
_atom_site_fract_x
_atom_site_fract_y
_atom_site_fract_z
Si Si1 0.024037 0.176579 0.649545
Si Si2 0.021446 0.679618 0.781397
Si Si3 0.435459 0.665545 0.528657
Si Si4 0.403760 0.323353 0.390139
Si Si5 0.553371 0.668261 0.082768
Si Si6 0.816839 0.172844 0.703277
Si Si7 0.402046 0.826565 0.180918
Si Si8 0.582898 0.329851 0.946561
O O1 0.067190 0.220255 0.589674
O O2 0.049287 0.250321 0.715956
O O3 0.958599 0.234224 0.638765
O O4 0.022722 0.000000 0.657550
O O5 0.021684 0.500000 0.778068
O O6 0.954753 0.732652 0.788121
O O7 0.060514 0.738335 0.844037
O O8 0.500000 0.660773 0.500000
O O9 0.417703 0.500000 0.554219
O O10 0.394575 0.715549 0.467621
O O11 0.416045 0.500000 0.381290
O O12 0.345768 0.274883 0.352610
O O13 0.577268 0.500000 0.084248
O O14 0.484788 0.668067 0.070466
O O15 0.587932 0.742826 0.020765
O O16 0.750000 0.222172 0.709441
O O17 0.845937 0.200210 0.773837
O O18 0.823343 0.000000 0.681963
O O19 0.384515 0.771121 0.107630
O O20 0.420625 0.000000 0.177991
O O21 0.607653 0.500000 0.944194
#
# Coordination Sequence:
#
# PCOD8206057 Si02
#       8
#     8   8   8   8   8   8   8   8
#     4  11  19  26  39  61  84 107 134 164 200 244
#     4  10  17  26  40  55  77 107 136 165 197 233
#     4   8  16  29  42  58  78 101 131 165 200 239
#     4  10  19  31  46  60  76 101 135 173 207 242
#     4   7  12  22  36  53  71  98 132 160 188 229
#     4  10  21  34  45  58  80 108 137 173 214 250
#     4  10  18  27  39  56  75  99 133 169 206 243
#     4   8  13  24  39  52  70  97 130 162 194 232
#
# _framework density 15.361905
#
# number of rings (size 3 to 8) (size 9 to 14) (size 15 to 20)
#    0.000    2.750    1.250    4.500    0.000    3.500 
#    0.000    5.625    0.000    0.000    0.000    0.000 
#    0.000    0.000    0.000    1.125    0.000   19.500 
#
# Total GULP energy -792837.286857 kJ/mol
# GULP energy per Si atom -12388.082607 kJ/mol
# Density = 1.532694 g / cm^3
# Si number density = 15.361905 Si / 1000 Ang^3
#
#
#
# Elastic Constant Matrix: (Units=GPa)
#
#
# Indices 1 2 3 4 5 6 
#
# 1 31.5727 17.2016 34.2987 0.0000 0.0000 0.0000
# 2 17.2016 79.0625 57.7286 0.0000 0.0000 0.0000
# 3 34.2987 57.7286 158.2430 0.0000 0.0000 0.0000
# 4 0.0000 0.0000 0.0000 18.9999 0.0000 0.0000
# 5 0.0000 0.0000 0.0000 0.0000 12.4348 0.0000
# 6 0.0000 0.0000 0.0000 0.0000 0.0000 9.5940
#
#
#
# Elastic Compliance Matrix: (Units=1/GPa)
#
#
# Indices 1 2 3 4 5 6 
#
# 1 0.042088 -0.003403 -0.007881 0.000000 0.000000 0.000000
# 2 -0.003403 0.017516 -0.005652 0.000000 0.000000 0.000000
# 3 -0.007881 -0.005652 0.010090 0.000000 0.000000 0.000000
# 4 0.000000 0.000000 0.000000 0.052632 0.000000 0.000000
# 5 0.000000 0.000000 0.000000 0.000000 0.080420 0.000000
# 6 0.000000 0.000000 0.000000 0.000000 0.000000 0.104232
#
#
# Mechanical properties :
#
#
# Convention : Reuss Voigt Hill
#
# Bulk Modulus (GPa) = 27.91626 54.14844 41.03235
# Shear Modulus (GPa) = 14.17271 18.84901 16.51086
#
# Velocity S-wave (km/s) = 3.04071 3.50665 3.28196
# Velocity P-wave (km/s) = 5.52628 7.19170 6.41328
#
# Compressibility (1/GPa) = 0.03582141
#
# Stress axis : x y z
#
# Youngs Moduli (GPa) = 23.75949 57.09163 99.11105
#
# Poissons Ratio (x) = 0.19426 0.78112
# Poissons Ratio (y) = 0.08084 0.56022
# Poissons Ratio (z) = 0.18725 0.32271
#
# Static dielectric constant tensor:
#      x y z
#    x 2.385590 0.000000 0.000000 
#    y 0.000000 2.917060 0.000000 
#    z 0.000000 0.000000 3.709880 
# 
# 
# High freq. dielectric constant tensor:
#      x y z
#    x 1.502000 0.000000 0.000000 
#    y 0.000000 1.585540 0.000000 
#    z 0.000000 0.000000 1.615150 
# 
# From -- ./inp_files/34098.got.cif
#   From: 2010.03.12/outbox.cif.g09.slc.cpg/sg51_18_cif.got.tgz:34098.got - 2010.04.16 13:43:02.
