data_PCOD8206677
_publ_section_title
;
Structure prediction by ZEFSAII (Michael W. Deem and Ramdas Pophale) SiO2 
 PCOD8206677
Probable space group: P M M A
;
_chemical_formula_sum "Si O2"
_cell_formula_units_Z 64
_cell_length_a 22.086031
_cell_length_b 13.204695
_cell_length_c 12.598974
_cell_angle_alpha 90.000000
_cell_angle_beta 90.000000
_cell_angle_gamma 90.000000
_cell_volume 3674.355997
_symmetry_space_group_name_H-M "P M M A"
_symmetry_group_IT_number 51
_symmetry_cell_setting 'orthorhombic'
loop_
_space_group_symop_operation_xyz
x,y,z
1/2-x,-y,z
1/2+x,-y,-z
-x,y,-z
-x,-y,-z
1/2+x,y,-z
1/2-x,y,z
x,-y,z
loop_
_atom_site_type_symbol
_atom_site_label
_atom_site_fract_x
_atom_site_fract_y
_atom_site_fract_z
Si Si1 0.320370 0.382436 0.575247
Si Si2 0.137205 0.385045 0.345682
Si Si3 0.818735 0.615863 0.038502
Si Si4 0.522761 0.385266 0.790675
Si Si5 0.183541 0.748559 0.168457
Si Si6 0.440721 0.114731 0.865507
Si Si7 0.564615 0.189568 0.898311
Si Si8 0.393295 0.697774 0.766581
O O1 0.250000 0.354604 0.562531
O O2 0.328561 0.500000 0.605136
O O3 0.356002 0.353777 0.468125
O O4 0.349013 0.315319 0.667816
O O5 0.159991 0.500000 0.330649
O O6 0.067539 0.372030 0.310026
O O7 0.181148 0.314244 0.276846
O O8 0.750000 0.628628 0.079131
O O9 0.834719 0.500000 0.015648
O O10 0.862669 0.658144 0.127130
O O11 0.829180 0.673447 0.928892
O O12 0.526531 0.500000 0.835636
O O13 0.542730 0.306778 0.883041
O O14 0.455572 0.362802 0.748250
O O15 0.250000 0.800178 0.160008
O O16 0.128886 0.830500 0.161677
O O17 0.513514 0.116831 0.847343
O O18 0.406545 0.181825 0.777567
O O19 0.416841 0.000000 0.859032
O O20 0.426801 0.165351 0.978653
#
# Coordination Sequence:
#
# PCOD8206677 Si02
#       8
#     8   8   8   8   8   8   8   8
#     4  10  20  33  51  73 103 143 177 206 241 294
#     4   9  18  32  47  70 103 142 183 207 233 284
#     4  10  19  29  44  68 105 147 172 196 241 304
#     4   9  18  30  47  75 109 140 169 208 251 293
#     4  10  18  29  47  72 105 137 171 208 241 284
#     4  10  20  36  55  71  94 130 170 214 262 312
#     4   9  17  32  49  75  99 133 170 202 247 301
#     4  11  20  33  48  74 102 131 174 214 259 309
#
# _framework density 17.418019000000001
#
# number of rings (size 3 to 8) (size 9 to 14) (size 15 to 20)
#    0.000    2.250    1.250    3.000    0.000    3.250 
#    0.000    3.750    0.000    4.500    0.000   19.250 
#    0.000   10.000    0.000    0.000    0.000    0.000 
#
# Total GULP energy -793385.008110 kJ/mol
# GULP energy per Si atom -12396.640752 kJ/mol
# Density = 1.737837 g / cm^3
# Si number density = 17.418019 Si / 1000 Ang^3
#
#
#
# Elastic Constant Matrix: (Units=GPa)
#
#
# Indices 1 2 3 4 5 6 
#
# 1 80.7752 20.9896 27.1288 0.0000 0.0000 0.0000
# 2 20.9896 63.9223 40.5050 0.0000 0.0000 0.0000
# 3 27.1288 40.5050 86.4740 0.0000 0.0000 0.0000
# 4 0.0000 0.0000 0.0000 9.3383 0.0000 0.0000
# 5 0.0000 0.0000 0.0000 0.0000 16.4977 0.0000
# 6 0.0000 0.0000 0.0000 0.0000 0.0000 14.5607
#
#
#
# Elastic Compliance Matrix: (Units=1/GPa)
#
#
# Indices 1 2 3 4 5 6 
#
# 1 0.014137 -0.002605 -0.003215 0.000000 0.000000 0.000000
# 2 -0.002605 0.022727 -0.009828 0.000000 0.000000 0.000000
# 3 -0.003215 -0.009828 0.017176 0.000000 0.000000 0.000000
# 4 0.000000 0.000000 0.000000 0.107086 0.000000 0.000000
# 5 0.000000 0.000000 0.000000 0.000000 0.060614 0.000000
# 6 0.000000 0.000000 0.000000 0.000000 0.000000 0.068678
#
#
# Mechanical properties :
#
#
# Convention : Reuss Voigt Hill
#
# Bulk Modulus (GPa) = 43.96736 45.37981 44.67359
# Shear Modulus (GPa) = 15.18387 17.58253 16.38320
#
# Velocity S-wave (km/s) = 2.95572 3.18062 3.07023
# Velocity P-wave (km/s) = 6.07829 6.29273 6.18644
#
# Compressibility (1/GPa) = 0.02274414
#
# Stress axis : x y z
#
# Youngs Moduli (GPa) = 70.73818 44.00026 58.21939
#
# Poissons Ratio (x) = 0.11461 0.18717
# Poissons Ratio (y) = 0.18426 0.57220
# Poissons Ratio (z) = 0.22741 0.43245
#
# Static dielectric constant tensor:
#      x y z
#    x 3.578660 0.000000 0.000000 
#    y 0.000000 3.011100 0.000000 
#    z 0.000000 0.000000 3.083600 
# 
# 
# High freq. dielectric constant tensor:
#      x y z
#    x 1.691660 0.000000 0.000000 
#    y 0.000000 1.634600 0.000000 
#    z 0.000000 0.000000 1.653400 
# 
# From -- ./inp_files/18868.got.cif
#   From: 2010.03.12/outbox.cif.g09.slc.cpg/sg51_10_cif.got.tgz:18868.got - 2010.04.16 13:43:02.
