data_PCOD8206520
_publ_section_title
;
Structure prediction by ZEFSAII (Michael W. Deem and Ramdas Pophale) SiO2 
 PCOD8206520
Probable space group: P M M A
;
_chemical_formula_sum "Si O2"
_cell_formula_units_Z 64
_cell_length_a 19.341809
_cell_length_b 9.031594
_cell_length_c 20.199563
_cell_angle_alpha 90.000000
_cell_angle_beta 90.000000
_cell_angle_gamma 90.000000
_cell_volume 3528.608457
_symmetry_space_group_name_H-M "P M M A"
_symmetry_group_IT_number 51
_symmetry_cell_setting 'orthorhombic'
loop_
_space_group_symop_operation_xyz
x,y,z
1/2-x,-y,z
1/2+x,-y,-z
-x,y,-z
-x,-y,-z
1/2+x,y,-z
1/2-x,y,z
x,-y,z
loop_
_atom_site_type_symbol
_atom_site_label
_atom_site_fract_x
_atom_site_fract_y
_atom_site_fract_z
Si Si1 0.830100 0.674319 0.590298
Si Si2 0.951807 0.324208 0.850494
Si Si3 0.670682 0.831637 0.245318
Si Si4 0.427046 0.675153 0.655710
Si Si5 0.581962 0.335529 0.990054
Si Si6 0.591915 0.168645 0.116313
Si Si7 0.426003 0.674589 0.293427
Si Si8 0.922595 0.175262 0.480865
O O1 0.750000 0.718002 0.590443
O O2 0.841231 0.500000 0.578436
O O3 0.861749 0.724419 0.661188
O O4 0.868259 0.763325 0.533305
O O5 0.962470 0.500000 0.851742
O O6 0.905250 0.277611 0.914447
O O7 0.915524 0.269171 0.782313
O O8 0.027519 0.255300 0.853298
O O9 0.750000 0.791501 0.257051
O O10 0.626088 0.716267 0.286856
O O11 0.654867 0.814232 0.167356
O O12 0.654228 0.000000 0.267926
O O13 0.426710 0.500000 0.644440
O O14 0.502779 0.736622 0.675655
O O15 0.402648 0.754969 0.589142
O O16 0.612694 0.500000 0.999060
O O17 0.500000 0.336473 0.000000
O O18 0.616893 0.231200 0.044997
O O19 0.569407 0.000000 0.105850
O O20 0.432293 0.500000 0.291789
O O21 0.000000 0.224813 0.500000
O O22 0.915360 0.000000 0.477231
#
# Coordination Sequence:
#
# PCOD8206520 Si02
#       8
#     8   8   8   8   8   8   8   8
#     4  10  21  38  60  85 111 141 178 218 263 316
#     4   9  16  29  48  72 102 135 168 207 262 315
#     4  10  22  38  52  71 105 145 181 221 272 326
#     4  11  21  35  59  83 105 135 177 226 269 312
#     4   8  15  26  43  67  98 133 165 203 256 312
#     4  10  18  28  46  70  98 131 173 219 261 306
#     4   9  17  31  54  81 107 136 170 216 265 310
#     4  11  23  38  58  83 112 145 179 216 263 316
#
# _framework density 18.137461999999999
#
# number of rings (size 3 to 8) (size 9 to 14) (size 15 to 20)
#    0.000    2.250    2.500    1.875    0.000    4.250 
#    0.000    0.625    0.000    0.750    0.000    1.750 
#    0.000    0.000    0.000    0.000    0.000    0.000 
#
# Total GULP energy -793425.142876 kJ/mol
# GULP energy per Si atom -12397.267857 kJ/mol
# Density = 1.809618 g / cm^3
# Si number density = 18.137462 Si / 1000 Ang^3
#
#
#
# Elastic Constant Matrix: (Units=GPa)
#
#
# Indices 1 2 3 4 5 6 
#
# 1 91.2128 33.1221 51.0047 0.0000 0.0000 0.0000
# 2 33.1221 55.7767 44.1174 0.0000 0.0000 0.0000
# 3 51.0047 44.1174 163.0532 0.0000 0.0000 0.0000
# 4 0.0000 0.0000 0.0000 25.4174 0.0000 0.0000
# 5 0.0000 0.0000 0.0000 0.0000 21.5548 0.0000
# 6 0.0000 0.0000 0.0000 0.0000 0.0000 18.9718
#
#
#
# Elastic Compliance Matrix: (Units=1/GPa)
#
#
# Indices 1 2 3 4 5 6 
#
# 1 0.014983 -0.006604 -0.002900 0.000000 0.000000 0.000000
# 2 -0.006604 0.025721 -0.004894 0.000000 0.000000 0.000000
# 3 -0.002900 -0.004894 0.008364 0.000000 0.000000 0.000000
# 4 0.000000 0.000000 0.000000 0.039343 0.000000 0.000000
# 5 0.000000 0.000000 0.000000 0.000000 0.046393 0.000000
# 6 0.000000 0.000000 0.000000 0.000000 0.000000 0.052710
#
#
# Mechanical properties :
#
#
# Convention : Reuss Voigt Hill
#
# Bulk Modulus (GPa) = 49.32567 62.94788 56.13677
# Shear Modulus (GPa) = 22.41482 25.30869 23.86175
#
# Velocity S-wave (km/s) = 3.51925 3.73953 3.63106
# Velocity P-wave (km/s) = 6.61574 7.30937 6.97118
#
# Compressibility (1/GPa) = 0.02027342
#
# Stress axis : x y z
#
# Youngs Moduli (GPa) = 66.74230 38.87918 119.55690
#
# Poissons Ratio (x) = 0.25674 0.34673
# Poissons Ratio (y) = 0.44073 0.58506
# Poissons Ratio (z) = 0.19356 0.19026
#
# Static dielectric constant tensor:
#      x y z
#    x 3.069700 0.000000 0.000000 
#    y 0.000000 3.247290 0.000000 
#    z 0.000000 0.000000 3.928430 
# 
# 
# High freq. dielectric constant tensor:
#      x y z
#    x 1.663630 0.000000 0.000000 
#    y 0.000000 1.691280 0.000000 
#    z 0.000000 0.000000 1.724150 
# 
# From -- ./inp_files/34109.got.cif
#   From: 2010.03.12/outbox.cif.g09.slc.cpg/sg51_18_cif.got.tgz:34109.got - 2010.04.16 13:43:02.
