data_PCOD8206633
_publ_section_title
;
Structure prediction by ZEFSAII (Michael W. Deem and Ramdas Pophale) SiO2 
 PCOD8206633
Probable space group: P M M A
;
_chemical_formula_sum "Si O2"
_cell_formula_units_Z 64
_cell_length_a 9.252610
_cell_length_b 20.263230
_cell_length_c 19.995146
_cell_angle_alpha 90.000000
_cell_angle_beta 90.000000
_cell_angle_gamma 90.000000
_cell_volume 3748.845225
_symmetry_space_group_name_H-M "P M M A"
_symmetry_group_IT_number 51
_symmetry_cell_setting 'orthorhombic'
loop_
_space_group_symop_operation_xyz
x,y,z
1/2-x,-y,z
1/2+x,-y,-z
-x,y,-z
-x,-y,-z
1/2+x,y,-z
1/2-x,y,z
x,-y,z
loop_
_atom_site_type_symbol
_atom_site_label
_atom_site_fract_x
_atom_site_fract_y
_atom_site_fract_z
Si Si1 0.420005 0.242882 0.209987
Si Si2 0.421130 0.802612 0.434095
Si Si3 0.582664 0.788140 0.936386
Si Si4 0.420261 0.425000 0.431840
Si Si5 0.919447 0.687398 0.663229
Si Si6 0.415464 0.071497 0.114275
Si Si7 0.084533 0.112856 0.763619
Si Si8 0.586179 0.074060 0.385092
O O1 0.250000 0.227774 0.214999
O O2 0.462251 0.251427 0.131566
O O3 0.461890 0.305646 0.257539
O O4 0.502251 0.181788 0.241856
O O5 0.500000 0.775559 0.500000
O O6 0.250000 0.803441 0.444887
O O7 0.469858 0.753546 0.374897
O O8 0.474185 0.876618 0.419384
O O9 0.750000 0.779045 0.951337
O O10 0.538842 0.865755 0.930633
O O11 0.500000 0.757609 0.000000
O O12 0.500000 0.405091 0.500000
O O13 0.250000 0.415078 0.443780
O O14 0.456504 0.500000 0.411224
O O15 0.482683 0.378394 0.372075
O O16 0.750000 0.680885 0.656873
O O17 0.250000 0.082600 0.136711
O O18 0.513514 0.067601 0.179803
O O19 0.433021 0.000000 0.077074
O O20 0.250000 0.126544 0.782941
O O21 0.069455 0.074456 0.694589
O O22 0.750000 0.094443 0.404926
O O23 0.551506 0.000000 0.410012
#
# Coordination Sequence:
#
# PCOD8206633 Si02
#       8
#     8   8   8   8   8   8   8   8
#     4   9  17  32  50  67  90 120 155 190 228 275
#     4  11  22  35  51  68  88 116 152 193 236 281
#     4   9  18  30  45  63  87 117 147 187 235 284
#     4   9  17  30  49  75 107 140 167 192 226 270
#     4   9  17  31  52  74  96 125 161 195 226 269
#     4   9  18  31  45  61  83 114 150 183 224 287
#     4  10  18  29  46  68  90 110 140 189 244 284
#     4  10  21  35  48  63  86 113 145 191 244 292
#
# _framework density 17.071923000000002
#
# number of rings (size 3 to 8) (size 9 to 14) (size 15 to 20)
#    0.000    2.500    1.250    2.250    0.000    4.000 
#    0.000    1.250    0.000    0.000    0.000    0.000 
#    0.000    0.500    0.000    0.375    0.000    0.750 
#
# Total GULP energy -793091.060269 kJ/mol
# GULP energy per Si atom -12392.047817 kJ/mol
# Density = 1.703307 g / cm^3
# Si number density = 17.071923 Si / 1000 Ang^3
#
#
#
# Elastic Constant Matrix: (Units=GPa)
#
#
# Indices 1 2 3 4 5 6 
#
# 1 50.0414 20.0583 35.2482 0.0000 0.0000 0.0000
# 2 20.0583 81.7620 51.3172 0.0000 0.0000 0.0000
# 3 35.2482 51.3172 118.2745 0.0000 0.0000 0.0000
# 4 0.0000 0.0000 0.0000 17.1976 0.0000 0.0000
# 5 0.0000 0.0000 0.0000 0.0000 27.0302 0.0000
# 6 0.0000 0.0000 0.0000 0.0000 0.0000 12.7875
#
#
#
# Elastic Compliance Matrix: (Units=1/GPa)
#
#
# Indices 1 2 3 4 5 6 
#
# 1 0.025539 -0.002045 -0.006724 0.000000 0.000000 0.000000
# 2 -0.002045 0.016972 -0.006754 0.000000 0.000000 0.000000
# 3 -0.006724 -0.006754 0.013389 0.000000 0.000000 0.000000
# 4 0.000000 0.000000 0.000000 0.058148 0.000000 0.000000
# 5 0.000000 0.000000 0.000000 0.000000 0.036996 0.000000
# 6 0.000000 0.000000 0.000000 0.000000 0.000000 0.078201
#
#
# Mechanical properties :
#
#
# Convention : Reuss Voigt Hill
#
# Bulk Modulus (GPa) = 40.23546 51.48058 45.85802
# Shear Modulus (GPa) = 18.61670 20.96666 19.79168
#
# Velocity S-wave (km/s) = 3.30583 3.50828 3.40856
# Velocity P-wave (km/s) = 6.17987 6.82871 6.51237
#
# Compressibility (1/GPa) = 0.02485370
#
# Stress axis : x y z
#
# Youngs Moduli (GPa) = 39.15511 58.92212 74.68688
#
# Poissons Ratio (x) = 0.12051 0.50218
# Poissons Ratio (y) = 0.08008 0.50444
# Poissons Ratio (z) = 0.26327 0.39797
#
# Static dielectric constant tensor:
#      x y z
#    x 3.108680 0.000000 0.000000 
#    y 0.000000 3.132020 0.000000 
#    z 0.000000 0.000000 3.271080 
# 
# 
# High freq. dielectric constant tensor:
#      x y z
#    x 1.650560 0.000000 0.000000 
#    y 0.000000 1.622740 0.000000 
#    z 0.000000 0.000000 1.654590 
# 
# From -- ./inp_files/32574.got.cif
#   From: 2010.03.12/outbox.cif.g09.slc.cpg/sg51_17_cif.got.tgz:32574.got - 2010.04.16 13:43:02.
