data_PCOD8206189
_publ_section_title
;
Structure prediction by ZEFSAII (Michael W. Deem and Ramdas Pophale) SiO2 
 PCOD8206189
Probable space group: P M M A
;
_chemical_formula_sum "Si O2"
_cell_formula_units_Z 64
_cell_length_a 29.281549
_cell_length_b 9.126533
_cell_length_c 14.982863
_cell_angle_alpha 90.000000
_cell_angle_beta 90.000000
_cell_angle_gamma 90.000000
_cell_volume 4004.005673
_symmetry_space_group_name_H-M "P M M A"
_symmetry_group_IT_number 51
_symmetry_cell_setting 'orthorhombic'
loop_
_space_group_symop_operation_xyz
x,y,z
1/2-x,-y,z
1/2+x,-y,-z
-x,y,-z
-x,-y,-z
1/2+x,y,-z
1/2-x,y,z
x,-y,z
loop_
_atom_site_type_symbol
_atom_site_label
_atom_site_fract_x
_atom_site_fract_y
_atom_site_fract_z
Si Si1 0.877410 0.328689 0.291235
Si Si2 0.532412 0.673601 0.633435
Si Si3 0.103216 0.331139 0.051467
Si Si4 0.198051 0.165612 0.801113
Si Si5 0.462083 0.174231 0.181461
Si Si6 0.945921 0.330064 0.134445
Si Si7 0.937965 0.672127 0.446772
Si Si8 0.800810 0.668103 0.016774
O O1 0.867458 0.500000 0.285938
O O2 0.830592 0.245155 0.275112
O O3 0.915312 0.283901 0.218543
O O4 0.894067 0.278528 0.389726
O O5 0.533149 0.500000 0.654912
O O6 0.546903 0.762578 0.720264
O O7 0.483103 0.733028 0.602016
O O8 0.566522 0.715935 0.551127
O O9 0.093458 0.500000 0.077288
O O10 0.081113 0.223316 0.122888
O O11 0.082427 0.295989 0.954448
O O12 0.158051 0.299470 0.052236
O O13 0.250000 0.177363 0.769903
O O14 0.190192 0.236758 0.896611
O O15 0.181285 0.000000 0.809349
O O16 0.507956 0.235993 0.136068
O O17 0.464727 0.000000 0.184858
O O18 0.960073 0.500000 0.140220
O O19 0.944508 0.500000 0.441846
O O20 0.750000 0.701707 0.975839
O O21 0.803843 0.500000 0.047915
#
# Coordination Sequence:
#
# PCOD8206189 Si02
#       8
#     8   8   8   8   8   8   8   8
#     4  10  17  30  51  74  95 121 161 201 235 279
#     4   9  16  32  52  69  91 122 156 195 236 281
#     4  10  20  34  50  69  92 127 164 197 239 285
#     4  10  20  31  44  67 100 133 159 187 232 287
#     4  12  24  33  44  67  98 133 166 201 235 273
#     4  10  19  33  50  68  93 129 166 198 234 280
#     4   8  15  28  52  75  90 115 155 195 237 279
#     4   9  17  32  53  73  91 116 157 204 244 281
#
# _framework density 15.983992000000001
#
# number of rings (size 3 to 8) (size 9 to 14) (size 15 to 20)
#    0.000    2.250    2.500    2.625    0.000    3.750 
#    0.000    1.875    0.000    0.000    0.000    0.875 
#    0.000    3.000    0.000    0.000    0.000    0.000 
#
# Total GULP energy -793341.989662 kJ/mol
# GULP energy per Si atom -12395.968588 kJ/mol
# Density = 1.594761 g / cm^3
# Si number density = 15.983992 Si / 1000 Ang^3
#
#
#
# Elastic Constant Matrix: (Units=GPa)
#
#
# Indices 1 2 3 4 5 6 
#
# 1 97.3238 46.8662 46.5279 0.0000 0.0000 0.0000
# 2 46.8662 71.3854 40.3814 0.0000 0.0000 0.0000
# 3 46.5279 40.3814 88.6648 0.0000 0.0000 0.0000
# 4 0.0000 0.0000 0.0000 7.4686 0.0000 0.0000
# 5 0.0000 0.0000 0.0000 0.0000 22.2622 0.0000
# 6 0.0000 0.0000 0.0000 0.0000 0.0000 15.2773
#
#
#
# Elastic Compliance Matrix: (Units=1/GPa)
#
#
# Indices 1 2 3 4 5 6 
#
# 1 0.016538 -0.008012 -0.005029 0.000000 0.000000 0.000000
# 2 -0.008012 0.022752 -0.006158 0.000000 0.000000 0.000000
# 3 -0.005029 -0.006158 0.016722 0.000000 0.000000 0.000000
# 4 0.000000 0.000000 0.000000 0.133893 0.000000 0.000000
# 5 0.000000 0.000000 0.000000 0.000000 0.044919 0.000000
# 6 0.000000 0.000000 0.000000 0.000000 0.000000 0.065457
#
#
# Mechanical properties :
#
#
# Convention : Reuss Voigt Hill
#
# Bulk Modulus (GPa) = 56.77516 58.32500 57.55008
# Shear Modulus (GPa) = 14.51168 17.24153 15.87661
#
# Velocity S-wave (km/s) = 3.01639 3.28788 3.15506
# Velocity P-wave (km/s) = 6.90859 7.14020 7.02535
#
# Compressibility (1/GPa) = 0.01761334
#
# Stress axis : x y z
#
# Youngs Moduli (GPa) = 60.46797 43.95211 59.80174
#
# Poissons Ratio (x) = 0.35217 0.30075
# Poissons Ratio (y) = 0.48450 0.36823
# Poissons Ratio (z) = 0.30410 0.27064
#
# Static dielectric constant tensor:
#      x y z
#    x 3.206190 0.000000 0.000000 
#    y 0.000000 2.918130 0.000000 
#    z 0.000000 0.000000 3.125850 
# 
# 
# High freq. dielectric constant tensor:
#      x y z
#    x 1.603720 0.000000 0.000000 
#    y 0.000000 1.600620 0.000000 
#    z 0.000000 0.000000 1.598200 
# 
# From -- ./inp_files/26636.got.cif
#   From: 2010.03.12/outbox.cif.g09.slc.cpg/sg51_14_cif.got.tgz:26636.got - 2010.04.16 13:43:02.
