data_PCOD8206522
_publ_section_title
;
Structure prediction by ZEFSAII (Michael W. Deem and Ramdas Pophale) SiO2 
 PCOD8206522
Probable space group: P M M A
;
_chemical_formula_sum "Si O2"
_cell_formula_units_Z 64
_cell_length_a 25.405832
_cell_length_b 9.854854
_cell_length_c 13.842248
_cell_angle_alpha 90.000000
_cell_angle_beta 90.000000
_cell_angle_gamma 90.000000
_cell_volume 3465.694223
_symmetry_space_group_name_H-M "P M M A"
_symmetry_group_IT_number 51
_symmetry_cell_setting 'orthorhombic'
loop_
_space_group_symop_operation_xyz
x,y,z
1/2-x,-y,z
1/2+x,-y,-z
-x,y,-z
-x,-y,-z
1/2+x,y,-z
1/2-x,y,z
x,-y,z
loop_
_atom_site_type_symbol
_atom_site_label
_atom_site_fract_x
_atom_site_fract_y
_atom_site_fract_z
Si Si1 0.189258 0.657978 0.854490
Si Si2 0.809260 0.645150 0.355767
Si Si3 0.342139 0.841371 0.487147
Si Si4 0.309140 0.161071 0.273223
Si Si5 0.545433 0.839881 0.434130
Si Si6 0.591450 0.157591 0.842368
Si Si7 0.479407 0.838260 0.777522
Si Si8 0.895831 0.157860 0.064164
O O1 0.250000 0.699111 0.868113
O O2 0.180305 0.500000 0.879916
O O3 0.165917 0.690675 0.746793
O O4 0.156642 0.753742 0.925790
O O5 0.750000 0.614514 0.325579
O O6 0.834019 0.500000 0.391712
O O7 0.807864 0.760388 0.436090
O O8 0.326302 0.793990 0.380634
O O9 0.401525 0.799513 0.511440
O O10 0.331460 0.000000 0.502325
O O11 0.250000 0.218362 0.250233
O O12 0.353777 0.220957 0.200303
O O13 0.306963 0.000000 0.266605
O O14 0.500000 0.774961 0.500000
O O15 0.542606 0.781948 0.324958
O O16 0.538501 0.000000 0.428126
O O17 0.538847 0.219302 0.792611
O O18 0.594029 0.000000 0.816222
O O19 0.584619 0.181764 0.955661
O O20 0.441322 0.788924 0.863650
O O21 0.481300 0.000000 0.779027
O O22 0.882419 0.000000 0.083125
#
# Coordination Sequence:
#
# PCOD8206522 Si02
#       8
#     8   8   8   8   8   8   8   8
#     4   9  19  35  51  68  96 133 165 193 237 301
#     4   9  18  32  48  66  91 124 156 184 225 287
#     4  10  18  28  46  72  97 120 153 199 240 272
#     4   9  17  28  42  64  96 131 164 198 240 292
#     4   9  16  25  40  65  96 126 154 187 233 289
#     4   9  17  29  45  66  97 133 163 197 247 301
#     4   9  16  27  43  66  97 128 159 198 246 298
#     4  10  19  30  49  76  98 120 160 214 258 286
#
# _framework density 18.466718
#
# number of rings (size 3 to 8) (size 9 to 14) (size 15 to 20)
#    0.000    2.750    0.000    3.000    0.000    7.500 
#    0.000    2.500    0.000    2.625    0.000    3.500 
#    0.000    0.000    0.000    0.000    0.000    0.000 
#
# Total GULP energy -793040.313416 kJ/mol
# GULP energy per Si atom -12391.254897 kJ/mol
# Density = 1.842469 g / cm^3
# Si number density = 18.466718 Si / 1000 Ang^3
#
#
#
# Elastic Constant Matrix: (Units=GPa)
#
#
# Indices 1 2 3 4 5 6 
#
# 1 120.6133 16.1662 40.9226 0.0000 0.0000 0.0000
# 2 16.1662 24.5278 11.8881 0.0000 0.0000 0.0000
# 3 40.9226 11.8881 70.6620 0.0000 0.0000 0.0000
# 4 0.0000 0.0000 0.0000 8.6289 0.0000 0.0000
# 5 0.0000 0.0000 0.0000 0.0000 33.5262 0.0000
# 6 0.0000 0.0000 0.0000 0.0000 0.0000 9.7995
#
#
#
# Elastic Compliance Matrix: (Units=1/GPa)
#
#
# Indices 1 2 3 4 5 6 
#
# 1 0.010742 -0.004426 -0.005477 0.000000 0.000000 0.000000
# 2 -0.004426 0.046213 -0.005212 0.000000 0.000000 0.000000
# 3 -0.005477 -0.005212 0.018200 0.000000 0.000000 0.000000
# 4 0.000000 0.000000 0.000000 0.115889 0.000000 0.000000
# 5 0.000000 0.000000 0.000000 0.000000 0.029827 0.000000
# 6 0.000000 0.000000 0.000000 0.000000 0.000000 0.102046
#
#
# Mechanical properties :
#
#
# Convention : Reuss Voigt Hill
#
# Bulk Modulus (GPa) = 22.25808 39.30633 30.78221
# Shear Modulus (GPa) = 13.58244 20.17935 16.88090
#
# Velocity S-wave (km/s) = 2.71497 3.30925 3.02673
# Velocity P-wave (km/s) = 4.68053 5.99439 5.37773
#
# Compressibility (1/GPa) = 0.04492750
#
# Stress axis : x y z
#
# Youngs Moduli (GPa) = 93.08985 21.63885 54.94391
#
# Poissons Ratio (x) = 0.09577 0.30091
# Poissons Ratio (y) = 0.41200 0.28635
# Poissons Ratio (z) = 0.50982 0.11278
#
# Static dielectric constant tensor:
#      x y z
#    x 3.670570 0.000000 0.000000 
#    y 0.000000 2.836670 0.000000 
#    z 0.000000 0.000000 3.456530 
# 
# 
# High freq. dielectric constant tensor:
#      x y z
#    x 1.726850 0.000000 0.000000 
#    y 0.000000 1.648550 0.000000 
#    z 0.000000 0.000000 1.722320 
# 
# From -- ./inp_files/26282.got.cif
#   From: 2010.03.12/outbox.cif.g09.slc.cpg/sg51_14_cif.got.tgz:26282.got - 2010.04.16 13:43:02.
