data_PCOD8206997
_publ_section_title
;
Structure prediction by ZEFSAII (Michael W. Deem and Ramdas Pophale) SiO2 
 PCOD8206997
Probable space group: P M M A
;
_chemical_formula_sum "Si O2"
_cell_formula_units_Z 64
_cell_length_a 8.875866
_cell_length_b 15.165660
_cell_length_c 24.811571
_cell_angle_alpha 90.000000
_cell_angle_beta 90.000000
_cell_angle_gamma 90.000000
_cell_volume 3339.845029
_symmetry_space_group_name_H-M "P M M A"
_symmetry_group_IT_number 51
_symmetry_cell_setting 'orthorhombic'
loop_
_space_group_symop_operation_xyz
x,y,z
1/2-x,-y,z
1/2+x,-y,-z
-x,y,-z
-x,-y,-z
1/2+x,y,-z
1/2-x,y,z
x,-y,z
loop_
_atom_site_type_symbol
_atom_site_label
_atom_site_fract_x
_atom_site_fract_y
_atom_site_fract_z
Si Si1 0.572736 0.600282 0.556154
Si Si2 0.078028 0.902563 0.897364
Si Si3 0.072654 0.265072 0.055756
Si Si4 0.080193 0.302975 0.764062
Si Si5 0.923165 0.132717 0.790468
Si Si6 0.077619 0.598399 0.866817
Si Si7 0.424619 0.276365 0.643341
Si Si8 0.424641 0.097417 0.330653
O O1 0.500000 0.629555 0.500000
O O2 0.750000 0.608649 0.550214
O O3 0.524780 0.500000 0.570856
O O4 0.518061 0.666669 0.601611
O O5 0.250000 0.869006 0.898700
O O6 0.977409 0.834187 0.930486
O O7 0.025237 0.911921 0.835658
O O8 0.063868 0.000000 0.923648
O O9 0.250000 0.266249 0.049438
O O10 0.025356 0.332074 0.102435
O O11 0.000000 0.296698 0.000000
O O12 0.250000 0.263380 0.767801
O O13 0.065662 0.389014 0.801802
O O14 0.043792 0.321521 0.701466
O O15 0.959519 0.235904 0.788327
O O16 0.750000 0.119031 0.806663
O O17 0.960605 0.090451 0.732798
O O18 0.250000 0.611805 0.885444
O O19 0.021519 0.500000 0.880193
O O20 0.250000 0.279406 0.627603
O O21 0.476559 0.173905 0.641793
O O22 0.250000 0.121599 0.339668
O O23 0.461822 0.000000 0.355242
#
# Coordination Sequence:
#
# PCOD8206997 Si02
#       8
#     8   8   8   8   8   8   8   8
#     4  10  21  38  60  85 114 151 195 244 294 344
#     4  11  23  38  58  84 114 147 183 226 277 337
#     4  12  26  44  65  85 109 143 183 234 286 340
#     4   9  18  33  54  81 118 156 189 226 275 333
#     4  10  18  30  52  81 113 149 188 231 278 328
#     4  10  21  39  63  88 116 150 187 230 280 336
#     4  10  20  33  54  86 120 156 196 239 284 338
#     4   9  18  32  50  76 115 159 199 239 282 330
#
# _framework density 19.162566000000002
#
# number of rings (size 3 to 8) (size 9 to 14) (size 15 to 20)
#    0.000    1.875    1.250    3.000    0.000    4.750 
#    0.000    1.250    0.000    0.375    0.000    0.000 
#    0.000    0.000    0.000    0.000    0.000    0.000 
#
# Total GULP energy -793508.225384 kJ/mol
# GULP energy per Si atom -12398.566022 kJ/mol
# Density = 1.911895 g / cm^3
# Si number density = 19.162566 Si / 1000 Ang^3
#
#
#
# Elastic Constant Matrix: (Units=GPa)
#
#
# Indices 1 2 3 4 5 6 
#
# 1 98.3927 44.5219 40.3073 0.0000 0.0000 0.0000
# 2 44.5219 102.1809 49.9009 0.0000 0.0000 0.0000
# 3 40.3073 49.9009 94.7471 0.0000 0.0000 0.0000
# 4 0.0000 0.0000 0.0000 -0.8196 0.0000 0.0000
# 5 0.0000 0.0000 0.0000 0.0000 31.1502 0.0000
# 6 0.0000 0.0000 0.0000 0.0000 0.0000 23.1498
#
#
#
# Elastic Compliance Matrix: (Units=1/GPa)
#
#
# Indices 1 2 3 4 5 6 
#
# 1 0.013496 -0.004142 -0.003560 0.000000 0.000000 0.000000
# 2 -0.004142 0.014446 -0.005847 0.000000 0.000000 0.000000
# 3 -0.003560 -0.005847 0.015148 0.000000 0.000000 0.000000
# 4 0.000000 0.000000 0.000000 -1.220039 0.000000 0.000000
# 5 0.000000 0.000000 0.000000 0.000000 0.032103 0.000000
# 6 0.000000 0.000000 0.000000 0.000000 0.000000 0.043197
#
#
# Mechanical properties :
#
#
# Convention : Reuss Voigt Hill
#
# Bulk Modulus (GPa) = 62.52475 62.75344 62.63910
# Shear Modulus (GPa) = -4.67630 21.40211 8.36290
#
# Velocity S-wave (km/s) = -1.56385 3.34559 2.09133
# Velocity P-wave (km/s) = 5.42573 6.90963 6.21215
#
# Compressibility (1/GPa) = 0.01599367
#
# Stress axis : x y z
#
# Youngs Moduli (GPa) = 74.09661 69.22122 66.01466
#
# Poissons Ratio (x) = 0.28670 0.23501
# Poissons Ratio (y) = 0.30689 0.38596
# Poissons Ratio (z) = 0.26379 0.40471
#
# Static dielectric constant tensor:
#      x y z
#    x 3.543630 0.000000 0.000000 
#    y 0.000000 3.538240 0.000000 
#    z 0.000000 0.000000 3.390530 
# 
# 
# High freq. dielectric constant tensor:
#      x y z
#    x 1.750860 0.000000 0.000000 
#    y 0.000000 1.743370 0.000000 
#    z 0.000000 0.000000 1.726780 
# 
# From -- ./inp_files/35000.got.cif
#   From: 2010.03.12/outbox.cif.g09.slc.cpg/sg51_18_cif.got.tgz:35000.got - 2010.04.16 13:43:02.
