data_PCOD8206398
_publ_section_title
;
Structure prediction by ZEFSAII (Michael W. Deem and Ramdas Pophale) SiO2 
 PCOD8206398
Probable space group: P M M A
;
_chemical_formula_sum "Si O2"
_cell_formula_units_Z 56
_cell_length_a 28.381319
_cell_length_b 9.008226
_cell_length_c 13.852735
_cell_angle_alpha 90.000000
_cell_angle_beta 90.000000
_cell_angle_gamma 90.000000
_cell_volume 3541.664145
_symmetry_space_group_name_H-M "P M M A"
_symmetry_group_IT_number 51
_symmetry_cell_setting 'orthorhombic'
loop_
_space_group_symop_operation_xyz
x,y,z
1/2-x,-y,z
1/2+x,-y,-z
-x,y,-z
-x,-y,-z
1/2+x,y,-z
1/2-x,y,z
x,-y,z
loop_
_atom_site_type_symbol
_atom_site_label
_atom_site_fract_x
_atom_site_fract_y
_atom_site_fract_z
Si Si1 0.512276 0.822827 0.892836
Si Si2 0.801921 0.823462 0.723496
Si Si3 0.549905 0.167472 0.606857
Si Si4 0.530073 0.328663 0.282799
Si Si5 0.301894 0.328353 0.479335
Si Si6 0.398629 0.670381 0.562023
Si Si7 0.895201 0.166029 0.799594
O O1 0.473773 0.759534 0.818181
O O2 0.564407 0.756699 0.865633
O O3 0.511504 0.000000 0.882244
O O4 0.500000 0.769331 0.000000
O O5 0.750000 0.776000 0.761488
O O6 0.811076 0.762752 0.617241
O O7 0.842431 0.761761 0.797954
O O8 0.806583 0.000000 0.716664
O O9 0.506496 0.269951 0.637763
O O10 0.571873 0.225761 0.508494
O O11 0.589519 0.169878 0.688546
O O12 0.531415 0.000000 0.590970
O O13 0.519348 0.500000 0.261530
O O14 0.582324 0.305976 0.328556
O O15 0.250000 0.289403 0.522928
O O16 0.304196 0.500000 0.450145
O O17 0.342810 0.289437 0.557059
O O18 0.406779 0.500000 0.530192
O O19 0.890899 0.000000 0.839866
#
# Coordination Sequence:
#
# PCOD8206398 Si02
#       7
#     8   8   8   8   8   8   8
#     4   9  18  33  50  65  83 108 142 183 223 266
#     4   9  15  24  39  59  84 112 141 173 209 251
#     4  10  18  28  42  61  87 119 151 179 207 247
#     4  10  20  31  43  62  88 114 142 178 218 264
#     4   9  17  28  41  58  83 116 152 183 210 244
#     4  10  19  29  41  60  88 119 148 180 217 251
#     4   8  14  25  40  61  84 107 137 172 210 252
#
# _framework density 15.811775000000001
#
# number of rings (size 3 to 8) (size 9 to 14) (size 15 to 20)
#    0.000    2.714    1.429    2.143    0.000    3.143 
#    0.000    0.000    0.000    0.000    0.000    1.000 
#    0.000    1.143    0.000    0.000    0.000    0.000 
#
# Total GULP energy -693755.217077 kJ/mol
# GULP energy per Si atom -12388.486019 kJ/mol
# Density = 1.577579 g / cm^3
# Si number density = 15.811775 Si / 1000 Ang^3
#
#
#
# Elastic Constant Matrix: (Units=GPa)
#
#
# Indices 1 2 3 4 5 6 
#
# 1 123.2273 22.5750 65.1343 0.0000 0.0000 0.0000
# 2 22.5750 35.7174 23.7640 0.0000 0.0000 0.0000
# 3 65.1343 23.7640 87.2501 0.0000 0.0000 0.0000
# 4 0.0000 0.0000 0.0000 16.1681 0.0000 0.0000
# 5 0.0000 0.0000 0.0000 0.0000 17.8037 0.0000
# 6 0.0000 0.0000 0.0000 0.0000 0.0000 15.6577
#
#
#
# Elastic Compliance Matrix: (Units=1/GPa)
#
#
# Indices 1 2 3 4 5 6 
#
# 1 0.013549 -0.002240 -0.009505 0.000000 0.000000 0.000000
# 2 -0.002240 0.034564 -0.007742 0.000000 0.000000 0.000000
# 3 -0.009505 -0.007742 0.020666 0.000000 0.000000 0.000000
# 4 0.000000 0.000000 0.000000 0.061850 0.000000 0.000000
# 5 0.000000 0.000000 0.000000 0.000000 0.056168 0.000000
# 6 0.000000 0.000000 0.000000 0.000000 0.000000 0.063866
#
#
# Mechanical properties :
#
#
# Convention : Reuss Voigt Hill
#
# Bulk Modulus (GPa) = 33.55064 52.12683 42.83873
# Shear Modulus (GPa) = 16.69043 18.90734 17.79888
#
# Velocity S-wave (km/s) = 3.25248 3.46175 3.35874
# Velocity P-wave (km/s) = 5.94724 7.00121 6.49564
#
# Compressibility (1/GPa) = 0.02980569
#
# Stress axis : x y z
#
# Youngs Moduli (GPa) = 73.80379 28.93156 48.38956
#
# Poissons Ratio (x) = 0.06480 0.45994
# Poissons Ratio (y) = 0.16531 0.37463
# Poissons Ratio (z) = 0.70150 0.22399
#
# Static dielectric constant tensor:
#      x y z
#    x 3.463030 0.000000 0.000000 
#    y 0.000000 2.954970 0.000000 
#    z 0.000000 0.000000 2.728210 
# 
# 
# High freq. dielectric constant tensor:
#      x y z
#    x 1.615600 0.000000 0.000000 
#    y 0.000000 1.598940 0.000000 
#    z 0.000000 0.000000 1.559340 
# 
# From -- ./inp_files/26471.got.cif
#   From: 2010.03.12/outbox.cif.g09.slc.cpg/sg51_14_cif.got.tgz:26471.got - 2010.04.16 13:43:02.
