data_PCOD8206838
_publ_section_title
;
Structure prediction by ZEFSAII (Michael W. Deem and Ramdas Pophale) SiO2 
 PCOD8206838
Probable space group: P M M A
;
_chemical_formula_sum "Si O2"
_cell_formula_units_Z 36
_cell_length_a 25.119283
_cell_length_b 10.674684
_cell_length_c 7.587191
_cell_angle_alpha 90.000000
_cell_angle_beta 90.000000
_cell_angle_gamma 90.000000
_cell_volume 2034.432493
_symmetry_space_group_name_H-M "P M M A"
_symmetry_group_IT_number 51
_symmetry_cell_setting 'orthorhombic'
loop_
_space_group_symop_operation_xyz
x,y,z
1/2-x,-y,z
1/2+x,-y,-z
-x,y,-z
-x,-y,-z
1/2+x,y,-z
1/2-x,y,z
x,-y,z
loop_
_atom_site_type_symbol
_atom_site_label
_atom_site_fract_x
_atom_site_fract_y
_atom_site_fract_z
Si Si1 0.391253 0.643647 0.065395
Si Si2 0.308476 0.645568 0.344574
Si Si3 0.000000 0.218547 0.000000
Si Si4 0.876095 0.642147 0.328812
Si Si5 0.455655 0.863838 0.645018
O O1 0.399470 0.500000 0.114795
O O2 0.361983 0.661415 0.876574
O O3 0.352408 0.706786 0.212472
O O4 0.450270 0.699322 0.066535
O O5 0.250000 0.707707 0.318300
O O6 0.304313 0.500000 0.297139
O O7 0.324614 0.663785 0.549242
O O8 0.981628 0.133817 0.161687
O O9 0.898689 0.500000 0.357635
O O10 0.918482 0.745196 0.387123
O O11 0.500000 0.850286 0.500000
O O12 0.426538 0.000000 0.624404
#
# Coordination Sequence:
#
# PCOD8206838 Si02
#       5
#     8   8   4   8   8
#     4   9  17  28  44  69  98 126 157 195 240 286
#     4   9  17  29  46  69  96 124 157 200 245 286
#     4  10  18  30  48  68  95 128 161 194 235 288
#     4   9  18  31  47  69  94 122 157 194 234 280
#     4  10  20  32  47  69  96 126 158 192 232 279
#
# _framework density 17.695353000000001
#
# number of rings (size 3 to 8) (size 9 to 14) (size 15 to 20)
#    0.000    2.667    0.000    2.000    0.000    2.222 
#    0.000    4.444    0.000    0.667    0.000    0.000 
#    0.000    0.000    0.000    0.000    0.000    0.000 
#
# Total GULP energy -446042.108447 kJ/mol
# GULP energy per Si atom -12390.058568 kJ/mol
# Density = 1.765508 g / cm^3
# Si number density = 17.695353 Si / 1000 Ang^3
#
#
#
# Elastic Constant Matrix: (Units=GPa)
#
#
# Indices 1 2 3 4 5 6 
#
# 1 113.6711 32.2168 41.7823 0.0000 0.0000 0.0000
# 2 32.2168 74.0007 18.9317 0.0000 0.0000 0.0000
# 3 41.7823 18.9317 70.7180 0.0000 0.0000 0.0000
# 4 0.0000 0.0000 0.0000 17.6358 0.0000 0.0000
# 5 0.0000 0.0000 0.0000 0.0000 27.6454 0.0000
# 6 0.0000 0.0000 0.0000 0.0000 0.0000 5.3413
#
#
#
# Elastic Compliance Matrix: (Units=1/GPa)
#
#
# Indices 1 2 3 4 5 6 
#
# 1 0.012111 -0.003695 -0.006166 0.000000 0.000000 0.000000
# 2 -0.003695 0.015634 -0.002002 0.000000 0.000000 0.000000
# 3 -0.006166 -0.002002 0.018320 0.000000 0.000000 0.000000
# 4 0.000000 0.000000 0.000000 0.056703 0.000000 0.000000
# 5 0.000000 0.000000 0.000000 0.000000 0.036172 0.000000
# 6 0.000000 0.000000 0.000000 0.000000 0.000000 0.187221
#
#
# Mechanical properties :
#
#
# Convention : Reuss Voigt Hill
#
# Bulk Modulus (GPa) = 44.76694 49.36128 47.06411
# Shear Modulus (GPa) = 13.99247 21.15509 17.57378
#
# Velocity S-wave (km/s) = 2.81507 3.46138 3.15481
# Velocity P-wave (km/s) = 5.99331 6.62800 6.31863
#
# Compressibility (1/GPa) = 0.02233791
#
# Stress axis : x y z
#
# Youngs Moduli (GPa) = 82.56813 63.96181 54.58518
#
# Poissons Ratio (x) = 0.23635 0.33660
# Poissons Ratio (y) = 0.30510 0.10929
# Poissons Ratio (z) = 0.50915 0.12807
#
# Static dielectric constant tensor:
#      x y z
#    x 2.443180 0.000000 0.000000 
#    y 0.000000 3.172280 0.000000 
#    z 0.000000 0.000000 4.395150 
# 
# 
# High freq. dielectric constant tensor:
#      x y z
#    x 1.662760 0.000000 0.000000 
#    y 0.000000 1.652850 0.000000 
#    z 0.000000 0.000000 1.705190 
# 
# From -- ./inp_files/10574.got.cif
#   From: 2010.03.12/outbox.cif.g09.slc.cpg/sg51_6_cif.got.tgz:10574.got - 2010.04.16 13:43:02.
