data_PCOD8206434
_publ_section_title
;
Structure prediction by ZEFSAII (Michael W. Deem and Ramdas Pophale) SiO2 
 PCOD8206434
Probable space group: P M M A
;
_chemical_formula_sum "Si O2"
_cell_formula_units_Z 48
_cell_length_a 20.787435
_cell_length_b 8.753154
_cell_length_c 15.314790
_cell_angle_alpha 90.000000
_cell_angle_beta 90.000000
_cell_angle_gamma 90.000000
_cell_volume 2786.612107
_symmetry_space_group_name_H-M "P M M A"
_symmetry_group_IT_number 51
_symmetry_cell_setting 'orthorhombic'
loop_
_space_group_symop_operation_xyz
x,y,z
1/2-x,-y,z
1/2+x,-y,-z
-x,y,-z
-x,-y,-z
1/2+x,y,-z
1/2-x,y,z
x,-y,z
loop_
_atom_site_type_symbol
_atom_site_label
_atom_site_fract_x
_atom_site_fract_y
_atom_site_fract_z
Si Si1 0.640372 0.674661 0.308264
Si Si2 0.820169 0.824070 0.477793
Si Si3 0.052369 0.180986 0.431722
Si Si4 0.012278 0.822102 0.739697
Si Si5 0.681075 0.324169 0.116925
Si Si6 0.959202 0.681700 0.081590
O O1 0.616434 0.500000 0.317190
O O2 0.682596 0.723052 0.390607
O O3 0.580351 0.788720 0.304942
O O4 0.682150 0.693572 0.221191
O O5 0.750000 0.806378 0.523342
O O6 0.876047 0.763835 0.542242
O O7 0.833398 0.000000 0.452595
O O8 0.000000 0.250424 0.500000
O O9 0.040078 0.234785 0.331847
O O10 0.045934 0.000000 0.433879
O O11 0.004370 0.731562 0.830335
O O12 0.005605 0.000000 0.760918
O O13 0.750000 0.251446 0.083602
O O14 0.681114 0.500000 0.089286
O O15 0.614584 0.251188 0.078296
O O16 0.956234 0.500000 0.081394
O O17 0.000000 0.745277 0.000000
#
# Coordination Sequence:
#
# PCOD8206434 Si02
#       6
#     8   8   8   8   8   8
#     4  10  18  28  43  66  97 125 151 187 239 290
#     4  10  19  30  45  65  90 124 165 203 235 273
#     4   9  16  29  47  66  92 123 157 195 234 275
#     4  10  18  30  50  70  91 122 161 198 233 280
#     4   8  14  25  42  63  87 116 146 175 217 278
#     4   9  18  32  49  70  96 121 149 193 243 287
#
# _framework density 17.225218999999999
#
# number of rings (size 3 to 8) (size 9 to 14) (size 15 to 20)
#    0.000    2.667    1.667    2.500    0.000    1.333 
#    0.000    2.500    0.000    5.500    0.000    0.000 
#    0.000    0.000    0.000    0.000    0.000    0.000 
#
# Total GULP energy -594668.206323 kJ/mol
# GULP energy per Si atom -12388.920965 kJ/mol
# Density = 1.718601 g / cm^3
# Si number density = 17.225219 Si / 1000 Ang^3
#
#
#
# Elastic Constant Matrix: (Units=GPa)
#
#
# Indices 1 2 3 4 5 6 
#
# 1 139.5691 13.6880 77.1814 0.0000 0.0000 0.0000
# 2 13.6880 15.9881 12.5584 0.0000 0.0000 0.0000
# 3 77.1814 12.5584 101.0828 0.0000 0.0000 0.0000
# 4 0.0000 0.0000 0.0000 20.8216 0.0000 0.0000
# 5 0.0000 0.0000 0.0000 0.0000 18.8103 0.0000
# 6 0.0000 0.0000 0.0000 0.0000 0.0000 12.8281
#
#
#
# Elastic Compliance Matrix: (Units=1/GPa)
#
#
# Indices 1 2 3 4 5 6 
#
# 1 0.012583 -0.003575 -0.009163 0.000000 0.000000 0.000000
# 2 -0.003575 0.070326 -0.006008 0.000000 0.000000 0.000000
# 3 -0.009163 -0.006008 0.017636 0.000000 0.000000 0.000000
# 4 0.000000 0.000000 0.000000 0.048027 0.000000 0.000000
# 5 0.000000 0.000000 0.000000 0.000000 0.053162 0.000000
# 6 0.000000 0.000000 0.000000 0.000000 0.000000 0.077954
#
#
# Mechanical properties :
#
#
# Convention : Reuss Voigt Hill
#
# Bulk Modulus (GPa) = 15.85967 51.49950 33.67958
# Shear Modulus (GPa) = 14.78424 20.70615 17.74519
#
# Velocity S-wave (km/s) = 2.93284 3.47087 3.21313
# Velocity P-wave (km/s) = 4.54928 6.78419 5.77586
#
# Compressibility (1/GPa) = 0.06305302
#
# Stress axis : x y z
#
# Youngs Moduli (GPa) = 79.47298 14.21946 56.70219
#
# Poissons Ratio (x) = 0.05083 0.51959
# Poissons Ratio (y) = 0.28411 0.34065
# Poissons Ratio (z) = 0.72825 0.08543
#
# Static dielectric constant tensor:
#      x y z
#    x 3.500190 0.000000 0.000000 
#    y 0.000000 2.919410 0.000000 
#    z 0.000000 0.000000 3.153540 
# 
# 
# High freq. dielectric constant tensor:
#      x y z
#    x 1.666320 0.000000 0.000000 
#    y 0.000000 1.634460 0.000000 
#    z 0.000000 0.000000 1.636620 
# 
# From -- ./inp_files/18629.got.cif
#   From: 2010.03.12/outbox.cif.g09.slc.cpg/sg51_10_cif.got.tgz:18629.got - 2010.04.16 13:43:02.
