data_PCOD8206739
_publ_section_title
;
Structure prediction by ZEFSAII (Michael W. Deem and Ramdas Pophale) SiO2 
 PCOD8206739
Probable space group: P M M A
;
_chemical_formula_sum "Si O2"
_cell_formula_units_Z 64
_cell_length_a 15.871645
_cell_length_b 9.072884
_cell_length_c 23.319892
_cell_angle_alpha 90.000000
_cell_angle_beta 90.000000
_cell_angle_gamma 90.000000
_cell_volume 3358.101619
_symmetry_space_group_name_H-M "P M M A"
_symmetry_group_IT_number 51
_symmetry_cell_setting 'orthorhombic'
loop_
_space_group_symop_operation_xyz
x,y,z
1/2-x,-y,z
1/2+x,-y,-z
-x,y,-z
-x,-y,-z
1/2+x,y,-z
1/2-x,y,z
x,-y,z
loop_
_atom_site_type_symbol
_atom_site_label
_atom_site_fract_x
_atom_site_fract_y
_atom_site_fract_z
Si Si1 0.007757 0.824025 0.138422
Si Si2 0.100300 0.665737 0.574132
Si Si3 0.080435 0.336579 0.370525
Si Si4 0.346864 0.835198 0.466560
Si Si5 0.843507 0.174974 0.072326
Si Si6 0.154990 0.168114 0.681702
Si Si7 0.156393 0.174762 0.056345
Si Si8 0.991632 0.325369 0.256844
O O1 0.917840 0.767146 0.113636
O O2 0.024055 0.748455 0.199050
O O3 0.083299 0.765466 0.097921
O O4 0.009017 0.000000 0.145120
O O5 0.137352 0.500000 0.573344
O O6 0.103417 0.732573 0.510709
O O7 0.153857 0.764477 0.617968
O O8 0.004471 0.663625 0.593076
O O9 0.120314 0.500000 0.370000
O O10 0.144159 0.225273 0.401537
O O11 0.060419 0.285585 0.305647
O O12 0.250000 0.834749 0.484103
O O13 0.384102 0.000000 0.469005
O O14 0.750000 0.226525 0.093639
O O15 0.846735 0.000000 0.070957
O O16 0.859731 0.235159 0.007972
O O17 0.250000 0.173787 0.705239
O O18 0.098910 0.260175 0.725993
O O19 0.122112 0.000000 0.678988
O O20 0.250000 0.224958 0.077354
O O21 0.151755 0.000000 0.055130
O O22 0.981571 0.500000 0.250143
#
# Coordination Sequence:
#
# PCOD8206739 Si02
#       8
#     8   8   8   8   8   8   8   8
#     4  10  18  29  50  77 102 132 172 216 259 302
#     4  10  20  34  54  79 105 133 165 199 242 304
#     4   9  20  38  55  70  92 128 172 210 247 297
#     4  11  23  35  50  77 106 128 158 204 255 304
#     4   8  14  25  44  74 109 138 166 205 252 302
#     4  10  20  34  53  77 104 133 168 211 254 297
#     4   8  14  26  46  74 105 134 168 213 262 308
#     4  10  22  38  53  71  99 135 174 212 252 304
#
# _framework density 19.058385999999999
#
# number of rings (size 3 to 8) (size 9 to 14) (size 15 to 20)
#    0.000    2.500    0.000    4.125    0.000   10.000 
#    0.000    1.875    0.000    4.125    0.000    1.750 
#    0.000    0.000    0.000    0.000    0.000    0.000 
#
# Total GULP energy -793437.301130 kJ/mol
# GULP energy per Si atom -12397.457830 kJ/mol
# Density = 1.901501 g / cm^3
# Si number density = 19.058386 Si / 1000 Ang^3
#
#
#
# Elastic Constant Matrix: (Units=GPa)
#
#
# Indices 1 2 3 4 5 6 
#
# 1 65.5438 20.0641 40.2831 0.0000 0.0000 0.0000
# 2 20.0641 75.8899 37.2057 0.0000 0.0000 0.0000
# 3 40.2831 37.2057 121.3103 0.0000 0.0000 0.0000
# 4 0.0000 0.0000 0.0000 14.8587 0.0000 0.0000
# 5 0.0000 0.0000 0.0000 0.0000 18.2652 0.0000
# 6 0.0000 0.0000 0.0000 0.0000 0.0000 12.8176
#
#
#
# Elastic Compliance Matrix: (Units=1/GPa)
#
#
# Indices 1 2 3 4 5 6 
#
# 1 0.019514 -0.002333 -0.005764 0.000000 0.000000 0.000000
# 2 -0.002333 0.015788 -0.004067 0.000000 0.000000 0.000000
# 3 -0.005764 -0.004067 0.011405 0.000000 0.000000 0.000000
# 4 0.000000 0.000000 0.000000 0.067301 0.000000 0.000000
# 5 0.000000 0.000000 0.000000 0.000000 0.054749 0.000000
# 6 0.000000 0.000000 0.000000 0.000000 0.000000 0.078018
#
#
# Mechanical properties :
#
#
# Convention : Reuss Voigt Hill
#
# Bulk Modulus (GPa) = 44.68868 50.87219 47.78044
# Shear Modulus (GPa) = 17.94927 20.20104 19.07516
#
# Velocity S-wave (km/s) = 3.07221 3.25923 3.16710
# Velocity P-wave (km/s) = 6.00698 6.39642 6.20476
#
# Compressibility (1/GPa) = 0.02237703
#
# Stress axis : x y z
#
# Youngs Moduli (GPa) = 51.24534 63.33973 87.68143
#
# Poissons Ratio (x) = 0.14778 0.50543
# Poissons Ratio (y) = 0.11956 0.35663
# Poissons Ratio (z) = 0.29540 0.25762
#
# Static dielectric constant tensor:
#      x y z
#    x 3.518000 0.000000 0.000000 
#    y 0.000000 3.330560 0.000000 
#    z 0.000000 0.000000 3.549550 
# 
# 
# High freq. dielectric constant tensor:
#      x y z
#    x 1.734260 0.000000 0.000000 
#    y 0.000000 1.716710 0.000000 
#    z 0.000000 0.000000 1.736070 
# 
# From -- ./inp_files/33923.got.cif
#   From: 2010.03.12/outbox.cif.g09.slc.cpg/sg51_17_cif.got.tgz:33923.got - 2010.04.16 13:43:02.
