data_PCOD8206981
_publ_section_title
;
Structure prediction by ZEFSAII (Michael W. Deem and Ramdas Pophale) SiO2 
 PCOD8206981
Probable space group: P M M A
;
_chemical_formula_sum "Si O2"
_cell_formula_units_Z 64
_cell_length_a 33.413482
_cell_length_b 8.981261
_cell_length_c 11.400758
_cell_angle_alpha 90.000000
_cell_angle_beta 90.000000
_cell_angle_gamma 90.000000
_cell_volume 3421.312784
_symmetry_space_group_name_H-M "P M M A"
_symmetry_group_IT_number 51
_symmetry_cell_setting 'orthorhombic'
loop_
_space_group_symop_operation_xyz
x,y,z
1/2-x,-y,z
1/2+x,-y,-z
-x,y,-z
-x,-y,-z
1/2+x,y,-z
1/2-x,y,z
x,-y,z
loop_
_atom_site_type_symbol
_atom_site_label
_atom_site_fract_x
_atom_site_fract_y
_atom_site_fract_z
Si Si1 0.934595 0.174340 0.289727
Si Si2 0.204402 0.175113 0.958570
Si Si3 0.794875 0.669510 0.795413
Si Si4 0.487376 0.671717 0.242359
Si Si5 0.911048 0.669623 0.897432
Si Si6 0.438315 0.171425 0.440090
Si Si7 0.371255 0.326801 0.858256
Si Si8 0.136726 0.170122 0.296645
O O1 0.943363 0.213162 0.424905
O O2 0.893261 0.252192 0.252122
O O3 0.972208 0.237191 0.216381
O O4 0.930164 0.000000 0.267582
O O5 0.250000 0.212895 0.918185
O O6 0.172520 0.253659 0.873291
O O7 0.196694 0.000000 0.957022
O O8 0.197284 0.233580 0.089400
O O9 0.750000 0.686026 0.748425
O O10 0.805201 0.500000 0.827765
O O11 0.823409 0.729522 0.691605
O O12 0.498933 0.500000 0.257694
O O13 0.457990 0.695805 0.130875
O O14 0.466673 0.725388 0.362583
O O15 0.899300 0.500000 0.862990
O O16 0.885642 0.785092 0.822446
O O17 0.900966 0.701190 0.032235
O O18 0.391862 0.198779 0.407396
O O19 0.450352 0.000000 0.415361
O O20 0.364614 0.500000 0.833714
O O21 0.149995 0.000000 0.287853
#
# Coordination Sequence:
#
# PCOD8206981 Si02
#       8
#     8   8   8   8   8   8   8   8
#     4  11  23  38  54  74 105 142 182 224 268 313
#     4  10  20  34  54  81 110 140 175 214 256 305
#     4  10  19  30  47  75 110 141 167 202 255 314
#     4  10  20  35  56  80 105 134 175 223 271 320
#     4   9  19  34  51  74 106 141 170 209 267 320
#     4   9  20  37  55  76 102 136 176 222 271 316
#     4  11  22  36  55  78 109 143 179 219 262 314
#     4  10  18  30  52  77 102 132 171 216 260 311
#
# _framework density 18.706271000000001
#
# number of rings (size 3 to 8) (size 9 to 14) (size 15 to 20)
#    0.000    2.000    1.250    2.625    0.000    6.000 
#    0.000    2.500    0.000    0.750    0.000    1.750 
#    0.000    0.000    0.000    0.000    0.000    0.000 
#
# Total GULP energy -793629.766795 kJ/mol
# GULP energy per Si atom -12400.465106 kJ/mol
# Density = 1.866369 g / cm^3
# Si number density = 18.706271 Si / 1000 Ang^3
#
#
#
# Elastic Constant Matrix: (Units=GPa)
#
#
# Indices 1 2 3 4 5 6 
#
# 1 119.7971 54.7000 15.9195 0.0000 0.0000 0.0000
# 2 54.7000 102.1558 21.7162 0.0000 0.0000 0.0000
# 3 15.9195 21.7162 26.7455 0.0000 0.0000 0.0000
# 4 0.0000 0.0000 0.0000 21.6820 0.0000 0.0000
# 5 0.0000 0.0000 0.0000 0.0000 24.8319 0.0000
# 6 0.0000 0.0000 0.0000 0.0000 0.0000 37.7073
#
#
#
# Elastic Compliance Matrix: (Units=1/GPa)
#
#
# Indices 1 2 3 4 5 6 
#
# 1 0.011151 -0.005511 -0.002163 0.000000 0.000000 0.000000
# 2 -0.005511 0.014555 -0.008538 0.000000 0.000000 0.000000
# 3 -0.002163 -0.008538 0.045609 0.000000 0.000000 0.000000
# 4 0.000000 0.000000 0.000000 0.046121 0.000000 0.000000
# 5 0.000000 0.000000 0.000000 0.000000 0.040271 0.000000
# 6 0.000000 0.000000 0.000000 0.000000 0.000000 0.026520
#
#
# Mechanical properties :
#
#
# Convention : Reuss Voigt Hill
#
# Bulk Modulus (GPa) = 25.71206 48.15220 36.93213
# Shear Modulus (GPa) = 21.77568 27.26842 24.52205
#
# Velocity S-wave (km/s) = 3.41557 3.82215 3.62456
# Velocity P-wave (km/s) = 5.41570 6.72871 6.10759
#
# Compressibility (1/GPa) = 0.03889225
#
# Stress axis : x y z
#
# Youngs Moduli (GPa) = 89.67540 68.70517 21.92560
#
# Poissons Ratio (x) = 0.37866 0.04742
# Poissons Ratio (y) = 0.49423 0.18719
# Poissons Ratio (z) = 0.19393 0.58657
#
# Static dielectric constant tensor:
#      x y z
#    x 3.694460 0.000000 0.000000 
#    y 0.000000 3.533160 0.000000 
#    z 0.000000 0.000000 3.099830 
# 
# 
# High freq. dielectric constant tensor:
#      x y z
#    x 1.737890 0.000000 0.000000 
#    y 0.000000 1.739370 0.000000 
#    z 0.000000 0.000000 1.684220 
# 
# From -- ./inp_files/19505.got.cif
#   From: 2010.03.12/outbox.cif.g09.slc.cpg/sg51_10_cif.got.tgz:19505.got - 2010.04.16 13:43:02.
