data_PCOD8206213
_publ_section_title
;
Structure prediction by ZEFSAII (Michael W. Deem and Ramdas Pophale) SiO2 
 PCOD8206213
Probable space group: P M M A
;
_chemical_formula_sum "Si O2"
_cell_formula_units_Z 56
_cell_length_a 13.777490
_cell_length_b 17.803924
_cell_length_c 12.092909
_cell_angle_alpha 90.000000
_cell_angle_beta 90.000000
_cell_angle_gamma 90.000000
_cell_volume 2966.310582
_symmetry_space_group_name_H-M "P M M A"
_symmetry_group_IT_number 51
_symmetry_cell_setting 'orthorhombic'
loop_
_space_group_symop_operation_xyz
x,y,z
1/2-x,-y,z
1/2+x,-y,-z
-x,y,-z
-x,-y,-z
1/2+x,y,-z
1/2-x,y,z
x,-y,z
loop_
_atom_site_type_symbol
_atom_site_label
_atom_site_fract_x
_atom_site_fract_y
_atom_site_fract_z
Si Si1 0.361410 0.144553 0.516526
Si Si2 0.138916 0.679916 0.545783
Si Si3 0.862214 0.273494 0.020933
Si Si4 0.956049 0.653889 0.676762
Si Si5 0.523876 0.784679 0.829370
Si Si6 0.516914 0.913729 0.674815
Si Si7 0.138614 0.415876 0.120143
O O1 0.250000 0.125318 0.531601
O O2 0.384010 0.231715 0.538658
O O3 0.393402 0.120525 0.393944
O O4 0.418369 0.094687 0.605432
O O5 0.250000 0.663115 0.578665
O O6 0.115734 0.642996 0.427056
O O7 0.068180 0.643694 0.638031
O O8 0.750000 0.262615 0.050117
O O9 0.887142 0.357780 0.978189
O O10 0.894720 0.215427 0.925111
O O11 0.923949 0.254951 0.129920
O O12 0.929439 0.594531 0.772330
O O13 0.938625 0.737253 0.724753
O O14 0.506942 0.869955 0.791216
O O15 0.536064 0.000000 0.703318
O O16 0.250000 0.402428 0.156849
O O17 0.122708 0.500000 0.074150
#
# Coordination Sequence:
#
# PCOD8206213 Si02
#       7
#     8   8   8   8   8   8   8
#     4  10  19  33  51  77 110 143 180 221 259 305
#     4  10  18  29  50  78 109 143 181 219 249 296
#     4   9  20  36  56  76 101 133 168 225 272 312
#     4  10  17  32  52  75 109 140 177 216 251 307
#     4  10  19  35  52  77 100 130 183 220 258 326
#     4  11  21  34  51  75 111 144 173 221 272 313
#     4   9  18  34  58  86 108 132 168 212 269 323
#
# _framework density 18.878671000000001
#
# number of rings (size 3 to 8) (size 9 to 14) (size 15 to 20)
#    0.000    2.143    2.857    2.143    0.000    3.429 
#    0.000    8.571    0.000    2.143    0.000    0.000 
#    0.000    0.000    0.000    0.000    0.000    0.000 
#
# Total GULP energy -694332.373776 kJ/mol
# GULP energy per Si atom -12398.792389 kJ/mol
# Density = 1.883570 g / cm^3
# Si number density = 18.878671 Si / 1000 Ang^3
#
#
#
# Elastic Constant Matrix: (Units=GPa)
#
#
# Indices 1 2 3 4 5 6 
#
# 1 81.6022 26.6107 4.6735 0.0000 0.0000 0.0000
# 2 26.6107 97.3760 36.7344 0.0000 0.0000 0.0000
# 3 4.6735 36.7344 58.1434 0.0000 0.0000 0.0000
# 4 0.0000 0.0000 0.0000 22.4720 0.0000 0.0000
# 5 0.0000 0.0000 0.0000 0.0000 20.7074 0.0000
# 6 0.0000 0.0000 0.0000 0.0000 0.0000 19.2821
#
#
#
# Elastic Compliance Matrix: (Units=1/GPa)
#
#
# Indices 1 2 3 4 5 6 
#
# 1 0.013572 -0.004329 0.001644 0.000000 0.000000 0.000000
# 2 -0.004329 0.014864 -0.009043 0.000000 0.000000 0.000000
# 3 0.001644 -0.009043 0.022780 0.000000 0.000000 0.000000
# 4 0.000000 0.000000 0.000000 0.044500 0.000000 0.000000
# 5 0.000000 0.000000 0.000000 0.000000 0.048292 0.000000
# 6 0.000000 0.000000 0.000000 0.000000 0.000000 0.051862
#
#
# Mechanical properties :
#
#
# Convention : Reuss Voigt Hill
#
# Bulk Modulus (GPa) = 36.02276 41.46210 38.74243
# Shear Modulus (GPa) = 21.87432 23.76583 22.82007
#
# Velocity S-wave (km/s) = 3.40763 3.55191 3.48052
# Velocity P-wave (km/s) = 5.88262 6.23149 6.05957
#
# Compressibility (1/GPa) = 0.02776022
#
# Stress axis : x y z
#
# Youngs Moduli (GPa) = 73.68011 67.27700 43.89835
#
# Poissons Ratio (x) = 0.29126 -0.07218
# Poissons Ratio (y) = 0.31898 0.39697
# Poissons Ratio (z) = -0.12115 0.60838
#
# Static dielectric constant tensor:
#      x y z
#    x 3.478400 0.000000 0.000000 
#    y 0.000000 3.246530 0.000000 
#    z 0.000000 0.000000 3.362840 
# 
# 
# High freq. dielectric constant tensor:
#      x y z
#    x 1.737480 0.000000 0.000000 
#    y 0.000000 1.706030 0.000000 
#    z 0.000000 0.000000 1.723280 
# 
# From -- ./inp_files/16660.got.cif
#   From: 2010.03.12/outbox.cif.g09.slc.cpg/sg51_9_cif.got.tgz:16660.got - 2010.04.16 13:43:02.
