data_PCOD8206099
_publ_section_title
;
Structure prediction by ZEFSAII (Michael W. Deem and Ramdas Pophale) SiO2 
 PCOD8206099
Probable space group: P M M A
;
_chemical_formula_sum "Si O2"
_cell_formula_units_Z 64
_cell_length_a 23.520301
_cell_length_b 8.860491
_cell_length_c 19.481667
_cell_angle_alpha 90.000000
_cell_angle_beta 90.000000
_cell_angle_gamma 90.000000
_cell_volume 4060.006976
_symmetry_space_group_name_H-M "P M M A"
_symmetry_group_IT_number 51
_symmetry_cell_setting 'orthorhombic'
loop_
_space_group_symop_operation_xyz
x,y,z
1/2-x,-y,z
1/2+x,-y,-z
-x,y,-z
-x,-y,-z
1/2+x,y,-z
1/2-x,y,z
x,-y,z
loop_
_atom_site_type_symbol
_atom_site_label
_atom_site_fract_x
_atom_site_fract_y
_atom_site_fract_z
Si Si1 0.133523 0.820834 0.755726
Si Si2 0.813125 0.820107 0.386429
Si Si3 0.022574 0.820482 0.395325
Si Si4 0.413190 0.820492 0.522842
Si Si5 0.978722 0.821254 0.897891
Si Si6 0.504161 0.179779 0.248645
Si Si7 0.815531 0.676125 0.109777
Si Si8 0.909252 0.821177 0.023949
O O1 0.164308 0.762837 0.686883
O O2 0.068859 0.761788 0.753778
O O3 0.166570 0.754938 0.820053
O O4 0.135407 0.000000 0.761771
O O5 0.750000 0.755631 0.399158
O O6 0.853527 0.757768 0.447813
O O7 0.813007 0.000000 0.386671
O O8 0.963499 0.762321 0.427708
O O9 0.027388 0.757496 0.317282
O O10 0.074697 0.764933 0.444305
O O11 0.021848 0.000000 0.393543
O O12 0.412660 0.000000 0.524570
O O13 0.971119 0.761740 0.819621
O O14 0.040121 0.767990 0.925529
O O15 0.979401 0.000000 0.900179
O O16 0.927096 0.767080 0.946862
O O17 0.504636 0.000000 0.250193
O O18 0.750000 0.712893 0.094223
O O19 0.826649 0.500000 0.117513
O O20 0.851533 0.738860 0.045555
O O21 0.899576 0.000000 0.027809
#
# Coordination Sequence:
#
# PCOD8206099 Si02
#       8
#     8   8   8   8   8   8   8   8
#     4  10  17  27  43  61  80 107 142 171 198 238
#     4   9  15  21  31  50  75 103 138 173 198 225
#     4   8  12  17  28  46  74 105 130 157 195 239
#     4   8  12  18  26  43  73 106 133 161 195 230
#     4   8  14  24  42  65  85 101 129 174 214 243
#     4   9  13  20  37  60  81 103 129 165 206 243
#     4  11  23  34  42  57  85 116 141 168 203 242
#     4   9  16  29  47  64  80 105 139 173 205 243
#
# _framework density 15.76352
#
# number of rings (size 3 to 8) (size 9 to 14) (size 15 to 20)
#    0.000    3.000    2.500    2.250    0.000    1.500 
#    0.000    1.250    0.000    0.000    0.000    0.875 
#    0.000    7.000    0.000    0.000    0.000    1.250 
#
# Total GULP energy -792914.562745 kJ/mol
# GULP energy per Si atom -12389.290043 kJ/mol
# Density = 1.572764 g / cm^3
# Si number density = 15.763520 Si / 1000 Ang^3
#
#
#
# Elastic Constant Matrix: (Units=GPa)
#
#
# Indices 1 2 3 4 5 6 
#
# 1 101.8235 14.7868 78.2217 0.0000 0.0000 0.0000
# 2 14.7868 13.6476 12.8538 0.0000 0.0000 0.0000
# 3 78.2217 12.8538 161.3453 0.0000 0.0000 0.0000
# 4 0.0000 0.0000 0.0000 0.9981 0.0000 0.0000
# 5 0.0000 0.0000 0.0000 0.0000 27.2177 0.0000
# 6 0.0000 0.0000 0.0000 0.0000 0.0000 8.2442
#
#
#
# Elastic Compliance Matrix: (Units=1/GPa)
#
#
# Indices 1 2 3 4 5 6 
#
# 1 0.017211 -0.011664 -0.007415 0.000000 0.000000 0.000000
# 2 -0.011664 0.087122 -0.001286 0.000000 0.000000 0.000000
# 3 -0.007415 -0.001286 0.009895 0.000000 0.000000 0.000000
# 4 0.000000 0.000000 0.000000 1.001920 0.000000 0.000000
# 5 0.000000 0.000000 0.000000 0.000000 0.036741 0.000000
# 6 0.000000 0.000000 0.000000 0.000000 0.000000 0.121298
#
#
# Mechanical properties :
#
#
# Convention : Reuss Voigt Hill
#
# Bulk Modulus (GPa) = 13.60575 54.28232 33.94404
# Shear Modulus (GPa) = 3.73298 18.68893 11.21095
#
# Velocity S-wave (km/s) = 1.54054 3.44696 2.66972
# Velocity P-wave (km/s) = 3.43718 7.09593 5.57523
#
# Compressibility (1/GPa) = 0.07349832
#
# Stress axis : x y z
#
# Youngs Moduli (GPa) = 58.10300 11.47822 101.06049
#
# Poissons Ratio (x) = 0.13388 0.74934
# Poissons Ratio (y) = 0.67771 0.12995
# Poissons Ratio (z) = 0.43082 0.01476
#
# Static dielectric constant tensor:
#      x y z
#    x 3.062580 0.000000 0.000000 
#    y 0.000000 2.439630 0.000000 
#    z 0.000000 0.000000 3.494570 
# 
# 
# High freq. dielectric constant tensor:
#      x y z
#    x 1.581780 0.000000 0.000000 
#    y 0.000000 1.546070 0.000000 
#    z 0.000000 0.000000 1.612280 
# 
# From -- ./inp_files/34055.got.cif
#   From: 2010.03.12/outbox.cif.g09.slc.cpg/sg51_18_cif.got.tgz:34055.got - 2010.04.16 13:43:02.
