data_PCOD8206360
_publ_section_title
;
Structure prediction by ZEFSAII (Michael W. Deem and Ramdas Pophale) SiO2 
 PCOD8206360
Probable space group: P M M A
;
_chemical_formula_sum "Si O2"
_cell_formula_units_Z 64
_cell_length_a 15.730313
_cell_length_b 12.624884
_cell_length_c 17.687311
_cell_angle_alpha 90.000000
_cell_angle_beta 90.000000
_cell_angle_gamma 90.000000
_cell_volume 3512.582820
_symmetry_space_group_name_H-M "P M M A"
_symmetry_group_IT_number 51
_symmetry_cell_setting 'orthorhombic'
loop_
_space_group_symop_operation_xyz
x,y,z
1/2-x,-y,z
1/2+x,-y,-z
-x,y,-z
-x,-y,-z
1/2+x,y,-z
1/2-x,y,z
x,-y,z
loop_
_atom_site_type_symbol
_atom_site_label
_atom_site_fract_x
_atom_site_fract_y
_atom_site_fract_z
Si Si1 0.497657 0.753567 0.083958
Si Si2 0.582915 0.192315 0.687900
Si Si3 0.909052 0.120493 0.385375
Si Si4 0.846179 0.876124 0.135184
Si Si5 0.841957 0.271555 0.275119
Si Si6 0.501446 0.379146 0.769682
Si Si7 0.153111 0.120971 0.157157
Si Si8 0.154858 0.119465 0.456633
O O1 0.579388 0.832018 0.081840
O O2 0.505950 0.658059 0.143433
O O3 0.410159 0.814965 0.102405
O O4 0.500000 0.703957 0.000000
O O5 0.498089 0.136482 0.657042
O O6 0.567610 0.309934 0.720968
O O7 0.623711 0.124854 0.755504
O O8 0.643842 0.198225 0.614837
O O9 0.844248 0.208346 0.353854
O O10 0.911852 0.142483 0.475686
O O11 0.877205 0.000000 0.371791
O O12 0.750000 0.852830 0.104093
O O13 0.861871 0.819743 0.214631
O O14 0.859764 0.000000 0.147317
O O15 0.750000 0.324117 0.263930
O O16 0.909125 0.366630 0.268973
O O17 0.531609 0.500000 0.766891
O O18 0.250000 0.165178 0.149597
O O19 0.150556 0.000000 0.130236
O O20 0.250000 0.133199 0.488747
O O21 0.139824 0.000000 0.426326
#
# Coordination Sequence:
#
# PCOD8206360 Si02
#       8
#     8   8   8   8   8   8   8   8
#     4  10  21  35  52  75 102 129 160 204 257 310
#     4  10  19  32  51  70  96 133 175 219 256 292
#     4  10  18  27  44  74 109 139 166 198 241 297
#     4   9  17  29  47  73 105 139 170 196 230 290
#     4   9  17  29  47  71  99 130 162 200 246 295
#     4   9  20  37  55  73  89 116 165 216 261 307
#     4  10  20  33  51  76 106 142 179 209 242 295
#     4  10  19  29  45  73 107 140 170 200 242 299
#
# _framework density 18.220210999999999
#
# number of rings (size 3 to 8) (size 9 to 14) (size 15 to 20)
#    0.000    2.375    0.000    3.750    0.000    5.250 
#    0.000    1.250    0.000   15.375    0.000    5.250 
#    0.000    0.000    0.000    0.000    0.000    0.000 
#
# Total GULP energy -793132.127458 kJ/mol
# GULP energy per Si atom -12392.689492 kJ/mol
# Density = 1.817874 g / cm^3
# Si number density = 18.220211 Si / 1000 Ang^3
#
#
#
# Elastic Constant Matrix: (Units=GPa)
#
#
# Indices 1 2 3 4 5 6 
#
# 1 91.8838 24.0781 27.9714 0.0000 0.0000 0.0000
# 2 24.0781 83.6161 30.9258 0.0000 0.0000 0.0000
# 3 27.9714 30.9258 108.4953 0.0000 0.0000 0.0000
# 4 0.0000 0.0000 0.0000 14.1568 0.0000 0.0000
# 5 0.0000 0.0000 0.0000 0.0000 19.4701 0.0000
# 6 0.0000 0.0000 0.0000 0.0000 0.0000 15.1809
#
#
#
# Elastic Compliance Matrix: (Units=1/GPa)
#
#
# Indices 1 2 3 4 5 6 
#
# 1 0.012315 -0.002651 -0.002419 0.000000 0.000000 0.000000
# 2 -0.002651 0.013940 -0.003290 0.000000 0.000000 0.000000
# 3 -0.002419 -0.003290 0.010778 0.000000 0.000000 0.000000
# 4 0.000000 0.000000 0.000000 0.070637 0.000000 0.000000
# 5 0.000000 0.000000 0.000000 0.000000 0.051361 0.000000
# 6 0.000000 0.000000 0.000000 0.000000 0.000000 0.065872
#
#
# Mechanical properties :
#
#
# Convention : Reuss Voigt Hill
#
# Bulk Modulus (GPa) = 49.23198 49.99396 49.61297
# Shear Modulus (GPa) = 20.12929 23.16290 21.64610
#
# Velocity S-wave (km/s) = 3.32743 3.56936 3.45052
# Velocity P-wave (km/s) = 6.46850 6.66974 6.56989
#
# Compressibility (1/GPa) = 0.02031200
#
# Stress axis : x y z
#
# Youngs Moduli (GPa) = 81.20497 71.73774 92.77817
#
# Poissons Ratio (x) = 0.19020 0.22444
# Poissons Ratio (y) = 0.21530 0.30523
# Poissons Ratio (z) = 0.19644 0.23601
#
# Static dielectric constant tensor:
#      x y z
#    x 3.581690 0.000000 0.000000 
#    y 0.000000 2.904800 0.000000 
#    z 0.000000 0.000000 3.376690 
# 
# 
# High freq. dielectric constant tensor:
#      x y z
#    x 1.717060 0.000000 0.000000 
#    y 0.000000 1.657430 0.000000 
#    z 0.000000 0.000000 1.705590 
# 
# From -- ./inp_files/30286.got.cif
#   From: 2010.03.12/outbox.cif.g09.slc.cpg/sg51_16_cif.got.tgz:30286.got - 2010.04.16 13:43:02.
