data_PCOD8206012
_publ_section_title
;
Structure prediction by ZEFSAII (Michael W. Deem and Ramdas Pophale) SiO2 
 PCOD8206012
Probable space group: P M M A
;
_chemical_formula_sum "Si O2"
_cell_formula_units_Z 56
_cell_length_a 21.569882
_cell_length_b 9.596298
_cell_length_c 17.339874
_cell_angle_alpha 90.000000
_cell_angle_beta 90.000000
_cell_angle_gamma 90.000000
_cell_volume 3589.198128
_symmetry_space_group_name_H-M "P M M A"
_symmetry_group_IT_number 51
_symmetry_cell_setting 'orthorhombic'
loop_
_space_group_symop_operation_xyz
x,y,z
1/2-x,-y,z
1/2+x,-y,-z
-x,y,-z
-x,-y,-z
1/2+x,y,-z
1/2-x,y,z
x,-y,z
loop_
_atom_site_type_symbol
_atom_site_label
_atom_site_fract_x
_atom_site_fract_y
_atom_site_fract_z
Si Si1 0.415490 0.844173 0.567647
Si Si2 0.459277 0.338710 0.261179
Si Si3 0.560508 0.842929 0.600262
Si Si4 0.539103 0.160263 0.884273
Si Si5 0.906759 0.159597 0.047091
Si Si6 0.103279 0.659262 0.704400
Si Si7 0.822056 0.337262 0.147732
O O1 0.487851 0.839394 0.584944
O O2 0.404241 0.797977 0.478662
O O3 0.379912 0.743405 0.626760
O O4 0.389960 0.000000 0.580133
O O5 0.439768 0.500000 0.257589
O O6 0.422949 0.266084 0.332249
O O7 0.438212 0.262029 0.183239
O O8 0.532575 0.319801 0.270484
O O9 0.580178 0.000000 0.624309
O O10 0.469821 0.201392 0.909454
O O11 0.540725 0.000000 0.855916
O O12 0.585441 0.181963 0.955742
O O13 0.851116 0.256550 0.075508
O O14 0.889976 0.000000 0.065053
O O15 0.118248 0.500000 0.685516
O O16 0.146502 0.715228 0.773154
O O17 0.750000 0.302156 0.151955
O O18 0.835100 0.500000 0.135327
#
# Coordination Sequence:
#
# PCOD8206012 Si02
#       7
#     8   8   8   8   8   8   8
#     4   8  14  24  38  54  74 106 142 170 200 241
#     4  10  17  24  38  61  85 111 143 174 207 253
#     4   8  14  24  36  53  79 109 138 167 202 243
#     4   9  17  29  44  62  85 112 140 177 222 264
#     4   9  18  31  46  63  82 108 145 182 219 262
#     4   9  17  27  38  56  81 109 142 176 211 247
#     4  10  20  33  46  61  86 117 147 180 219 259
#
# _framework density 15.602371
#
# number of rings (size 3 to 8) (size 9 to 14) (size 15 to 20)
#    0.000    3.000    1.429    2.143    0.000    2.571 
#    0.000    4.286    0.000    0.000    0.000    0.000 
#    0.000    1.143    0.000    8.571    0.000    4.571 
#
# Total GULP energy -694212.091554 kJ/mol
# GULP energy per Si atom -12396.644492 kJ/mol
# Density = 1.556686 g / cm^3
# Si number density = 15.602371 Si / 1000 Ang^3
#
#
#
# Elastic Constant Matrix: (Units=GPa)
#
#
# Indices 1 2 3 4 5 6 
#
# 1 35.3160 22.2284 24.2490 0.0000 0.0000 0.0000
# 2 22.2284 87.2285 71.6329 0.0000 0.0000 0.0000
# 3 24.2490 71.6329 121.9553 0.0000 0.0000 0.0000
# 4 0.0000 0.0000 0.0000 31.3285 0.0000 0.0000
# 5 0.0000 0.0000 0.0000 0.0000 12.3950 0.0000
# 6 0.0000 0.0000 0.0000 0.0000 0.0000 14.6681
#
#
#
# Elastic Compliance Matrix: (Units=1/GPa)
#
#
# Indices 1 2 3 4 5 6 
#
# 1 0.034385 -0.006081 -0.003265 0.000000 0.000000 0.000000
# 2 -0.006081 0.023222 -0.012431 0.000000 0.000000 0.000000
# 3 -0.003265 -0.012431 0.016150 0.000000 0.000000 0.000000
# 4 0.000000 0.000000 0.000000 0.031920 0.000000 0.000000
# 5 0.000000 0.000000 0.000000 0.000000 0.080677 0.000000
# 6 0.000000 0.000000 0.000000 0.000000 0.000000 0.068175
#
#
# Mechanical properties :
#
#
# Convention : Reuss Voigt Hill
#
# Bulk Modulus (GPa) = 33.10844 53.41337 43.26091
# Shear Modulus (GPa) = 16.22574 20.10429 18.16502
#
# Velocity S-wave (km/s) = 3.22833 3.59352 3.41581
# Velocity P-wave (km/s) = 5.92979 7.17818 6.58364
#
# Compressibility (1/GPa) = 0.03020378
#
# Stress axis : x y z
#
# Youngs Moduli (GPa) = 29.08223 43.06243 61.91760
#
# Poissons Ratio (x) = 0.26186 0.20218
# Poissons Ratio (y) = 0.17685 0.76969
# Poissons Ratio (z) = 0.09496 0.53530
#
# Static dielectric constant tensor:
#      x y z
#    x 2.449420 0.000000 0.000000 
#    y 0.000000 3.039040 0.000000 
#    z 0.000000 0.000000 3.185560 
# 
# 
# High freq. dielectric constant tensor:
#      x y z
#    x 1.528580 0.000000 0.000000 
#    y 0.000000 1.602970 0.000000 
#    z 0.000000 0.000000 1.609250 
# 
# From -- ./inp_files/30743.got.cif
#   From: 2010.03.12/outbox.cif.g09.slc.cpg/sg51_16_cif.got.tgz:30743.got - 2010.04.16 13:43:02.
