data_PCOD8206594
_publ_section_title
;
Structure prediction by ZEFSAII (Michael W. Deem and Ramdas Pophale) SiO2 
 PCOD8206594
Probable space group: P M M A
;
_chemical_formula_sum "Si O2"
_cell_formula_units_Z 64
_cell_length_a 28.548281
_cell_length_b 9.096385
_cell_length_c 15.355293
_cell_angle_alpha 90.000000
_cell_angle_beta 90.000000
_cell_angle_gamma 90.000000
_cell_volume 3987.556999
_symmetry_space_group_name_H-M "P M M A"
_symmetry_group_IT_number 51
_symmetry_cell_setting 'orthorhombic'
loop_
_space_group_symop_operation_xyz
x,y,z
1/2-x,-y,z
1/2+x,-y,-z
-x,y,-z
-x,-y,-z
1/2+x,y,-z
1/2-x,y,z
x,-y,z
loop_
_atom_site_type_symbol
_atom_site_label
_atom_site_fract_x
_atom_site_fract_y
_atom_site_fract_z
Si Si1 0.392541 0.673764 0.345165
Si Si2 0.302986 0.172131 0.392347
Si Si3 0.053452 0.830074 0.498578
Si Si4 0.199094 0.174371 0.589401
Si Si5 0.944371 0.834216 0.995470
Si Si6 0.106192 0.170609 0.676689
Si Si7 0.949595 0.671782 0.824570
Si Si8 0.557558 0.672493 0.167253
O O1 0.389530 0.500000 0.352906
O O2 0.340266 0.739173 0.334170
O O3 0.417347 0.735114 0.430849
O O4 0.422242 0.722601 0.261237
O O5 0.250000 0.203890 0.359545
O O6 0.309005 0.230550 0.491159
O O7 0.314408 0.000000 0.385784
O O8 0.072941 0.803961 0.594599
O O9 0.000000 0.776224 0.500000
O O10 0.057633 0.000000 0.470609
O O11 0.250000 0.228963 0.623854
O O12 0.158272 0.229177 0.653165
O O13 0.197923 0.000000 0.584513
O O14 0.927459 0.756994 0.906667
O O15 0.925014 0.000000 0.997170
O O16 0.924340 0.747284 0.078444
O O17 0.000000 0.830021 0.000000
O O18 0.089391 0.269869 0.755235
O O19 0.106229 0.000000 0.704694
O O20 0.943893 0.500000 0.843258
O O21 0.003907 0.714321 0.811797
O O22 0.564242 0.500000 0.156939
#
# Coordination Sequence:
#
# PCOD8206594 Si02
#       8
#     8   8   8   8   8   8   8   8
#     4  11  21  31  46  69  98 128 159 196 237 286
#     4   9  17  32  52  69  89 121 161 202 243 285
#     4  10  20  32  45  63  92 130 168 201 232 271
#     4   8  14  27  47  66  85 114 153 198 242 277
#     4   9  17  30  49  71  91 115 153 199 237 268
#     4  10  18  29  45  66  91 120 158 198 233 274
#     4   9  19  33  46  65  95 130 159 186 228 280
#     4  10  19  31  47  66  94 128 158 188 229 282
#
# _framework density 16.049927
#
# number of rings (size 3 to 8) (size 9 to 14) (size 15 to 20)
#    0.000    2.500    1.250    2.625    0.000    4.000 
#    0.000    0.000    0.000    0.375    0.000    0.875 
#    0.000    5.000    0.000    0.000    0.000    0.000 
#
# Total GULP energy -793541.489380 kJ/mol
# GULP energy per Si atom -12399.085772 kJ/mol
# Density = 1.601340 g / cm^3
# Si number density = 16.049927 Si / 1000 Ang^3
#
#
#
# Elastic Constant Matrix: (Units=GPa)
#
#
# Indices 1 2 3 4 5 6 
#
# 1 89.7503 24.9402 29.0659 0.0000 0.0000 0.0000
# 2 24.9402 52.2421 29.5213 0.0000 0.0000 0.0000
# 3 29.0659 29.5213 69.9084 0.0000 0.0000 0.0000
# 4 0.0000 0.0000 0.0000 29.4799 0.0000 0.0000
# 5 0.0000 0.0000 0.0000 0.0000 8.4687 0.0000
# 6 0.0000 0.0000 0.0000 0.0000 0.0000 18.4743
#
#
#
# Elastic Compliance Matrix: (Units=1/GPa)
#
#
# Indices 1 2 3 4 5 6 
#
# 1 0.013581 -0.004325 -0.003820 0.000000 0.000000 0.000000
# 2 -0.004325 0.026518 -0.009400 0.000000 0.000000 0.000000
# 3 -0.003820 -0.009400 0.019862 0.000000 0.000000 0.000000
# 4 0.000000 0.000000 0.000000 0.033921 0.000000 0.000000
# 5 0.000000 0.000000 0.000000 0.000000 0.118081 0.000000
# 6 0.000000 0.000000 0.000000 0.000000 0.000000 0.054129
#
#
# Mechanical properties :
#
#
# Convention : Reuss Voigt Hill
#
# Bulk Modulus (GPa) = 40.20721 42.10617 41.15669
# Shear Modulus (GPa) = 16.15642 19.84281 17.99962
#
# Velocity S-wave (km/s) = 3.17619 3.51995 3.35248
# Velocity P-wave (km/s) = 6.20940 6.54305 6.37841
#
# Compressibility (1/GPa) = 0.02487116
#
# Stress axis : x y z
#
# Youngs Moduli (GPa) = 73.63216 37.70999 50.34651
#
# Poissons Ratio (x) = 0.16309 0.19234
# Poissons Ratio (y) = 0.31844 0.47326
# Poissons Ratio (z) = 0.28130 0.35448
#
# Static dielectric constant tensor:
#      x y z
#    x 3.224160 0.000000 0.000000 
#    y 0.000000 2.947910 0.000000 
#    z 0.000000 0.000000 2.993700 
# 
# 
# High freq. dielectric constant tensor:
#      x y z
#    x 1.602160 0.000000 0.000000 
#    y 0.000000 1.610320 0.000000 
#    z 0.000000 0.000000 1.604260 
# 
# From -- ./inp_files/26659.got.cif
#   From: 2010.03.12/outbox.cif.g09.slc.cpg/sg51_14_cif.got.tgz:26659.got - 2010.04.16 13:43:02.
