data_PCOD8206670
_publ_section_title
;
Structure prediction by ZEFSAII (Michael W. Deem and Ramdas Pophale) SiO2 
 PCOD8206670
Probable space group: P M M A
;
_chemical_formula_sum "Si O2"
_cell_formula_units_Z 64
_cell_length_a 9.364152
_cell_length_b 22.531054
_cell_length_c 16.268644
_cell_angle_alpha 90.000000
_cell_angle_beta 90.000000
_cell_angle_gamma 90.000000
_cell_volume 3432.427073
_symmetry_space_group_name_H-M "P M M A"
_symmetry_group_IT_number 51
_symmetry_cell_setting 'orthorhombic'
loop_
_space_group_symop_operation_xyz
x,y,z
1/2-x,-y,z
1/2+x,-y,-z
-x,y,-z
-x,-y,-z
1/2+x,y,-z
1/2-x,y,z
x,-y,z
loop_
_atom_site_type_symbol
_atom_site_label
_atom_site_fract_x
_atom_site_fract_y
_atom_site_fract_z
Si Si1 0.409631 0.433339 0.781079
Si Si2 0.410486 0.721285 0.575240
Si Si3 0.907887 0.253549 0.830988
Si Si4 0.581128 0.853945 0.238404
Si Si5 0.912393 0.661506 0.074999
Si Si6 0.590443 0.137762 0.421931
Si Si7 0.415754 0.068360 0.920309
Si Si8 0.094769 0.652540 0.302189
O O1 0.250000 0.432227 0.743491
O O2 0.451043 0.500000 0.808564
O O3 0.417022 0.388936 0.856769
O O4 0.521928 0.411599 0.711913
O O5 0.500000 0.695527 0.500000
O O6 0.250000 0.697642 0.568597
O O7 0.415245 0.791699 0.578118
O O8 0.483596 0.695382 0.654509
O O9 0.750000 0.230464 0.860619
O O10 0.879086 0.314054 0.782579
O O11 0.986295 0.204119 0.775966
O O12 0.013697 0.274756 0.903434
O O13 0.750000 0.837501 0.239318
O O14 0.539988 0.881488 0.329123
O O15 0.543228 0.899245 0.164841
O O16 0.750000 0.676168 0.050055
O O17 0.000000 0.633565 0.000000
O O18 0.500000 0.112491 0.500000
O O19 0.750000 0.114105 0.437272
O O20 0.250000 0.076703 0.940055
O O21 0.457490 0.000000 0.906982
O O22 0.500000 0.094211 0.000000
O O23 0.250000 0.644305 0.346316
#
# Coordination Sequence:
#
# PCOD8206670 Si02
#       8
#     8   8   8   8   8   8   8   8
#     4   9  19  35  53  71  91 122 163 203 247 300
#     4  10  18  29  47  71 100 132 166 201 244 298
#     4  10  20  32  48  72 101 131 166 203 247 302
#     4  10  19  33  53  77 106 142 179 216 264 318
#     4  10  20  34  51  70  97 129 161 202 253 305
#     4   9  18  30  47  73 106 141 175 211 255 306
#     4   9  19  36  57  79 104 136 178 226 270 313
#     4  10  19  31  48  71  99 128 160 201 245 293
#
# _framework density 18.645697999999999
#
# number of rings (size 3 to 8) (size 9 to 14) (size 15 to 20)
#    0.000    2.375    1.250    1.500    0.000    4.000 
#    0.000    1.250    0.000    0.750    0.000    0.000 
#    0.000    0.000    0.000    0.000    0.000    0.000 
#
# Total GULP energy -792911.057594 kJ/mol
# GULP energy per Si atom -12389.235275 kJ/mol
# Density = 1.860326 g / cm^3
# Si number density = 18.645698 Si / 1000 Ang^3
#
#
#
# Elastic Constant Matrix: (Units=GPa)
#
#
# Indices 1 2 3 4 5 6 
#
# 1 125.0017 27.4506 46.5811 0.0000 0.0000 0.0000
# 2 27.4506 45.3315 24.3605 0.0000 0.0000 0.0000
# 3 46.5811 24.3605 82.2690 0.0000 0.0000 0.0000
# 4 0.0000 0.0000 0.0000 9.6380 0.0000 0.0000
# 5 0.0000 0.0000 0.0000 0.0000 33.7930 0.0000
# 6 0.0000 0.0000 0.0000 0.0000 0.0000 14.3878
#
#
#
# Elastic Compliance Matrix: (Units=1/GPa)
#
#
# Indices 1 2 3 4 5 6 
#
# 1 0.010669 -0.003822 -0.004909 0.000000 0.000000 0.000000
# 2 -0.003822 0.027604 -0.006009 0.000000 0.000000 0.000000
# 3 -0.004909 -0.006009 0.016714 0.000000 0.000000 0.000000
# 4 0.000000 0.000000 0.000000 0.103756 0.000000 0.000000
# 5 0.000000 0.000000 0.000000 0.000000 0.029592 0.000000
# 6 0.000000 0.000000 0.000000 0.000000 0.000000 0.069503
#
#
# Mechanical properties :
#
#
# Convention : Reuss Voigt Hill
#
# Bulk Modulus (GPa) = 39.20774 49.93183 44.56978
# Shear Modulus (GPa) = 16.90213 21.84441 19.37327
#
# Velocity S-wave (km/s) = 3.01406 3.42651 3.22688
# Velocity P-wave (km/s) = 5.76074 6.51859 6.15135
#
# Compressibility (1/GPa) = 0.02550517
#
# Stress axis : x y z
#
# Youngs Moduli (GPa) = 93.73376 36.22695 59.83010
#
# Poissons Ratio (x) = 0.13848 0.29369
# Poissons Ratio (y) = 0.35830 0.35954
# Poissons Ratio (z) = 0.46011 0.21770
#
# Static dielectric constant tensor:
#      x y z
#    x 3.863770 0.000000 0.000000 
#    y 0.000000 3.111040 0.000000 
#    z 0.000000 0.000000 3.550490 
# 
# 
# High freq. dielectric constant tensor:
#      x y z
#    x 1.737500 0.000000 0.000000 
#    y 0.000000 1.684390 0.000000 
#    z 0.000000 0.000000 1.716660 
# 
# From -- ./inp_files/28628.got.cif
#   From: 2010.03.12/outbox.cif.g09.slc.cpg/sg51_15_cif.got.tgz:28628.got - 2010.04.16 13:43:02.
