data_PCOD8206969
_publ_section_title
;
Structure prediction by ZEFSAII (Michael W. Deem and Ramdas Pophale) SiO2 
 PCOD8206969
Probable space group: P M M A
;
_chemical_formula_sum "Si O2"
_cell_formula_units_Z 64
_cell_length_a 29.294810
_cell_length_b 9.112681
_cell_length_c 12.400164
_cell_angle_alpha 90.000000
_cell_angle_beta 90.000000
_cell_angle_gamma 90.000000
_cell_volume 3310.276586
_symmetry_space_group_name_H-M "P M M A"
_symmetry_group_IT_number 51
_symmetry_cell_setting 'orthorhombic'
loop_
_space_group_symop_operation_xyz
x,y,z
1/2-x,-y,z
1/2+x,-y,-z
-x,y,-z
-x,-y,-z
1/2+x,y,-z
1/2-x,y,z
x,-y,z
loop_
_atom_site_type_symbol
_atom_site_label
_atom_site_fract_x
_atom_site_fract_y
_atom_site_fract_z
Si Si1 0.047166 0.671956 0.750061
Si Si2 0.298366 0.170806 0.657112
Si Si3 0.650807 0.674649 0.773860
Si Si4 0.949012 0.668064 0.720898
Si Si5 0.335863 0.168409 0.435790
Si Si6 0.196949 0.170918 0.027019
Si Si7 0.367330 0.172249 0.826818
Si Si8 0.921009 0.333060 0.487604
O O1 0.050701 0.500000 0.773480
O O2 0.083180 0.750796 0.829331
O O3 0.054807 0.706480 0.624006
O O4 0.995599 0.732640 0.774243
O O5 0.250000 0.237260 0.698010
O O6 0.298435 0.192627 0.528491
O O7 0.340970 0.239376 0.722030
O O8 0.299651 0.000000 0.687662
O O9 0.651886 0.500000 0.775562
O O10 0.598325 0.737551 0.767372
O O11 0.676359 0.730610 0.666219
O O12 0.678464 0.735394 0.874026
O O13 0.946749 0.500000 0.754315
O O14 0.954304 0.682910 0.591044
O O15 0.382154 0.213947 0.494677
O O16 0.338625 0.000000 0.397779
O O17 0.250000 0.210849 0.002601
O O18 0.192586 0.000000 0.055325
O O19 0.164501 0.213613 0.927597
O O20 0.376525 0.000000 0.820833
O O21 0.901348 0.500000 0.485201
#
# Coordination Sequence:
#
# PCOD8206969 Si02
#       8
#     8   8   8   8   8   8   8   8
#     4  10  18  30  52  79 110 147 187 225 268 322
#     4   9  17  30  50  75 104 139 175 213 264 327
#     4  10  21  38  59  81 110 143 182 232 279 322
#     4   8  16  31  51  77 108 148 189 222 263 322
#     4  10  18  30  51  79 111 144 179 219 269 328
#     4  10  22  41  64  84 103 137 185 231 277 333
#     4  10  20  36  56  80 109 139 179 229 276 324
#     4   9  16  28  48  74 108 147 186 223 261 309
#
# _framework density 19.333732000000001
#
# number of rings (size 3 to 8) (size 9 to 14) (size 15 to 20)
#    0.000    2.500    1.250    2.250    0.000    4.250 
#    0.000    5.000    0.000   11.250    0.000    0.000 
#    0.000    0.000    0.000    0.000    0.000    0.000 
#
# Total GULP energy -792911.592474 kJ/mol
# GULP energy per Si atom -12389.243632 kJ/mol
# Density = 1.928973 g / cm^3
# Si number density = 19.333732 Si / 1000 Ang^3
#
#
#
# Elastic Constant Matrix: (Units=GPa)
#
#
# Indices 1 2 3 4 5 6 
#
# 1 77.2513 22.3213 26.8908 0.0000 0.0000 0.0000
# 2 22.3213 42.6278 33.4512 0.0000 0.0000 0.0000
# 3 26.8908 33.4512 73.8828 0.0000 0.0000 0.0000
# 4 0.0000 0.0000 0.0000 23.5187 0.0000 0.0000
# 5 0.0000 0.0000 0.0000 0.0000 20.5275 0.0000
# 6 0.0000 0.0000 0.0000 0.0000 0.0000 23.1729
#
#
#
# Elastic Compliance Matrix: (Units=1/GPa)
#
#
# Indices 1 2 3 4 5 6 
#
# 1 0.015694 -0.005794 -0.003089 0.000000 0.000000 0.000000
# 2 -0.005794 0.038526 -0.015334 0.000000 0.000000 0.000000
# 3 -0.003089 -0.015334 0.021602 0.000000 0.000000 0.000000
# 4 0.000000 0.000000 0.000000 0.042519 0.000000 0.000000
# 5 0.000000 0.000000 0.000000 0.000000 0.048715 0.000000
# 6 0.000000 0.000000 0.000000 0.000000 0.000000 0.043154
#
#
# Mechanical properties :
#
#
# Convention : Reuss Voigt Hill
#
# Bulk Modulus (GPa) = 36.51254 39.89872 38.20563
# Shear Modulus (GPa) = 18.67248 20.85039 19.76144
#
# Velocity S-wave (km/s) = 3.11110 3.28753 3.20053
# Velocity P-wave (km/s) = 5.64196 5.92386 5.78463
#
# Compressibility (1/GPa) = 0.02738785
#
# Stress axis : x y z
#
# Youngs Moduli (GPa) = 63.71805 25.95651 46.29229
#
# Poissons Ratio (x) = 0.15039 0.14299
# Poissons Ratio (y) = 0.36919 0.70985
# Poissons Ratio (z) = 0.19681 0.39802
#
# Static dielectric constant tensor:
#      x y z
#    x 3.790440 0.000000 0.000000 
#    y 0.000000 3.248710 0.000000 
#    z 0.000000 0.000000 3.477220 
# 
# 
# High freq. dielectric constant tensor:
#      x y z
#    x 1.759930 0.000000 0.000000 
#    y 0.000000 1.719780 0.000000 
#    z 0.000000 0.000000 1.738870 
# 
# From -- ./inp_files/19461.got.cif
#   From: 2010.03.12/outbox.cif.g09.slc.cpg/sg51_10_cif.got.tgz:19461.got - 2010.04.16 13:43:02.
