data_PCOD8206829
_publ_section_title
;
Structure prediction by ZEFSAII (Michael W. Deem and Ramdas Pophale) SiO2 
 PCOD8206829
Probable space group: P M M A
;
_chemical_formula_sum "Si O2"
_cell_formula_units_Z 64
_cell_length_a 8.809468
_cell_length_b 23.670680
_cell_length_c 19.069042
_cell_angle_alpha 90.000000
_cell_angle_beta 90.000000
_cell_angle_gamma 90.000000
_cell_volume 3976.392921
_symmetry_space_group_name_H-M "P M M A"
_symmetry_group_IT_number 51
_symmetry_cell_setting 'orthorhombic'
loop_
_space_group_symop_operation_xyz
x,y,z
1/2-x,-y,z
1/2+x,-y,-z
-x,y,-z
-x,-y,-z
1/2+x,y,-z
1/2-x,y,z
x,-y,z
loop_
_atom_site_type_symbol
_atom_site_label
_atom_site_fract_x
_atom_site_fract_y
_atom_site_fract_z
Si Si1 0.929120 0.331448 0.839521
Si Si2 0.427457 0.563037 0.072161
Si Si3 0.070917 0.245543 0.427261
Si Si4 0.569457 0.723788 0.287891
Si Si5 0.069917 0.231430 0.925589
Si Si6 0.928570 0.833386 0.206899
Si Si7 0.571433 0.936507 0.293795
Si Si8 0.571652 0.115529 0.572154
O O1 0.750000 0.320554 0.834914
O O2 0.969331 0.394639 0.864848
O O3 0.004421 0.324794 0.762996
O O4 0.000332 0.289019 0.896186
O O5 0.250000 0.562783 0.058960
O O6 0.486304 0.500000 0.091694
O O7 0.500000 0.584796 0.000000
O O8 0.250000 0.254049 0.429530
O O9 0.024047 0.180429 0.414439
O O10 0.000000 0.267304 0.500000
O O11 0.999669 0.283281 0.365286
O O12 0.750000 0.719226 0.290741
O O13 0.510259 0.783571 0.257022
O O14 0.250000 0.239031 0.931314
O O15 0.024870 0.179732 0.873345
O O16 0.000000 0.215685 0.000000
O O17 0.750000 0.833409 0.213294
O O18 0.991514 0.893857 0.233540
O O19 0.750000 0.928519 0.305494
O O20 0.490086 0.923759 0.366542
O O21 0.531839 0.000000 0.269574
O O22 0.500000 0.093444 0.500000
O O23 0.750000 0.108738 0.566931
#
# Coordination Sequence:
#
# PCOD8206829 Si02
#       8
#     8   8   8   8   8   8   8   8
#     4  10  19  30  46  69  97 125 158 196 229 271
#     4   9  18  31  46  65  93 131 168 200 232 266
#     4  10  19  30  46  68  92 122 155 187 228 277
#     4  10  18  30  48  67  93 123 152 190 232 276
#     4  10  19  31  47  68  92 118 147 185 232 279
#     4   8  16  30  46  64  86 111 142 179 224 274
#     4  10  19  32  50  67  84 111 148 188 228 273
#     4  10  20  32  47  66  89 117 148 184 222 267
#
# _framework density 16.094989000000002
#
# number of rings (size 3 to 8) (size 9 to 14) (size 15 to 20)
#    0.000    2.375    1.250    3.000    0.000    3.500 
#    0.000    0.625    0.000    0.375    0.000    0.000 
#    0.000    0.500    0.000    1.375    0.000    2.500 
#
# Total GULP energy -793500.577428 kJ/mol
# GULP energy per Si atom -12398.446522 kJ/mol
# Density = 1.605836 g / cm^3
# Si number density = 16.094989 Si / 1000 Ang^3
#
#
#
# Elastic Constant Matrix: (Units=GPa)
#
#
# Indices 1 2 3 4 5 6 
#
# 1 65.6633 33.3245 46.0443 0.0000 0.0000 0.0000
# 2 33.3245 84.7132 59.7758 0.0000 0.0000 0.0000
# 3 46.0443 59.7758 136.6153 0.0000 0.0000 0.0000
# 4 0.0000 0.0000 0.0000 18.6104 0.0000 0.0000
# 5 0.0000 0.0000 0.0000 0.0000 29.4149 0.0000
# 6 0.0000 0.0000 0.0000 0.0000 0.0000 17.0642
#
#
#
# Elastic Compliance Matrix: (Units=1/GPa)
#
#
# Indices 1 2 3 4 5 6 
#
# 1 0.021196 -0.004770 -0.005057 0.000000 0.000000 0.000000
# 2 -0.004770 0.018150 -0.006334 0.000000 0.000000 0.000000
# 3 -0.005057 -0.006334 0.011796 0.000000 0.000000 0.000000
# 4 0.000000 0.000000 0.000000 0.053733 0.000000 0.000000
# 5 0.000000 0.000000 0.000000 0.000000 0.033996 0.000000
# 6 0.000000 0.000000 0.000000 0.000000 0.000000 0.058602
#
#
# Mechanical properties :
#
#
# Convention : Reuss Voigt Hill
#
# Bulk Modulus (GPa) = 53.13353 62.80899 57.97126
# Shear Modulus (GPa) = 21.18029 22.87438 22.02733
#
# Velocity S-wave (km/s) = 3.63155 3.77399 3.70345
# Velocity P-wave (km/s) = 7.11817 7.62229 7.37454
#
# Compressibility (1/GPa) = 0.01882051
#
# Stress axis : x y z
#
# Youngs Moduli (GPa) = 47.17917 55.09534 84.77758
#
# Poissons Ratio (x) = 0.26280 0.42870
# Poissons Ratio (y) = 0.22504 0.53699
# Poissons Ratio (z) = 0.23857 0.34898
#
# Static dielectric constant tensor:
#      x y z
#    x 3.013410 0.000000 0.000000 
#    y 0.000000 3.083540 0.000000 
#    z 0.000000 0.000000 4.092110 
# 
# 
# High freq. dielectric constant tensor:
#      x y z
#    x 1.622530 0.000000 0.000000 
#    y 0.000000 1.586000 0.000000 
#    z 0.000000 0.000000 1.617430 
# 
# From -- ./inp_files/28580.got.cif
#   From: 2010.03.12/outbox.cif.g09.slc.cpg/sg51_15_cif.got.tgz:28580.got - 2010.04.16 13:43:02.
