data_PCOD8206272
_publ_section_title
;
Structure prediction by ZEFSAII (Michael W. Deem and Ramdas Pophale) SiO2 
 PCOD8206272
Probable space group: P M M A
;
_chemical_formula_sum "Si O2"
_cell_formula_units_Z 64
_cell_length_a 9.155800
_cell_length_b 18.443827
_cell_length_c 26.383799
_cell_angle_alpha 90.000000
_cell_angle_beta 90.000000
_cell_angle_gamma 90.000000
_cell_volume 4455.379139
_symmetry_space_group_name_H-M "P M M A"
_symmetry_group_IT_number 51
_symmetry_cell_setting 'orthorhombic'
loop_
_space_group_symop_operation_xyz
x,y,z
1/2-x,-y,z
1/2+x,-y,-z
-x,y,-z
-x,-y,-z
1/2+x,y,-z
1/2-x,y,z
x,-y,z
loop_
_atom_site_type_symbol
_atom_site_label
_atom_site_fract_x
_atom_site_fract_y
_atom_site_fract_z
Si Si1 0.923970 0.919287 0.848994
Si Si2 0.586890 0.214808 0.789590
Si Si3 0.923216 0.839711 0.948723
Si Si4 0.088851 0.300270 0.105805
Si Si5 0.078625 0.662966 0.741196
Si Si6 0.579512 0.581029 0.155777
Si Si7 0.584850 0.586126 0.451187
Si Si8 0.078408 0.584485 0.349993
O O1 0.750000 0.918183 0.850384
O O2 0.974338 0.865732 0.803264
O O3 0.980812 0.891730 0.903657
O O4 0.985320 0.000000 0.838570
O O5 0.750000 0.211176 0.765597
O O6 0.594952 0.257879 0.841703
O O7 0.477179 0.254936 0.750987
O O8 0.750000 0.846021 0.954814
O O9 0.968682 0.756258 0.936477
O O10 0.000000 0.865408 0.000000
O O11 0.250000 0.328067 0.091353
O O12 0.986725 0.370575 0.110556
O O13 0.250000 0.664334 0.729048
O O14 0.041242 0.613168 0.789342
O O15 0.990886 0.630528 0.694685
O O16 0.750000 0.580046 0.146635
O O17 0.514062 0.500000 0.152970
O O18 0.500000 0.617754 0.500000
O O19 0.750000 0.617162 0.449716
O O20 0.589503 0.500000 0.454380
O O21 0.497182 0.611182 0.401607
O O22 0.250000 0.599943 0.353764
O O23 0.046308 0.500000 0.339990
#
# Coordination Sequence:
#
# PCOD8206272 Si02
#       8
#     8   8   8   8   8   8   8   8
#     4   8  14  26  44  63  82 104 128 153 181 216
#     4   8  14  26  42  57  74  98 128 156 181 218
#     4   9  17  28  42  60  80 100 123 150 180 217
#     4   8  15  27  40  54  72  95 122 149 178 217
#     4  10  18  27  39  55  78 104 127 155 195 239
#     4   9  17  27  39  56  75  93 116 150 191 231
#     4   9  16  26  39  53  71  98 133 172 212 250
#     4  10  19  28  38  54  76 102 135 174 210 241
#
# _framework density 14.364659
#
# number of rings (size 3 to 8) (size 9 to 14) (size 15 to 20)
#    0.000    3.125    0.000    3.000    0.000    4.250 
#    0.000    1.875    0.000    1.500    0.000    0.000 
#    0.000    0.000    0.000    0.000    0.000    0.625 
#
# Total GULP energy -793228.795234 kJ/mol
# GULP energy per Si atom -12394.199926 kJ/mol
# Density = 1.433196 g / cm^3
# Si number density = 14.364659 Si / 1000 Ang^3
#
#
#
# Elastic Constant Matrix: (Units=GPa)
#
#
# Indices 1 2 3 4 5 6 
#
# 1 59.4890 33.3142 33.0076 0.0000 0.0000 0.0000
# 2 33.3142 96.4494 35.8877 0.0000 0.0000 0.0000
# 3 33.0076 35.8877 55.4428 0.0000 0.0000 0.0000
# 4 0.0000 0.0000 0.0000 9.0882 0.0000 0.0000
# 5 0.0000 0.0000 0.0000 0.0000 24.9740 0.0000
# 6 0.0000 0.0000 0.0000 0.0000 0.0000 12.8758
#
#
#
# Elastic Compliance Matrix: (Units=1/GPa)
#
#
# Indices 1 2 3 4 5 6 
#
# 1 0.026393 -0.004307 -0.012925 0.000000 0.000000 0.000000
# 2 -0.004307 0.014360 -0.006731 0.000000 0.000000 0.000000
# 3 -0.012925 -0.006731 0.030089 0.000000 0.000000 0.000000
# 4 0.000000 0.000000 0.000000 0.110033 0.000000 0.000000
# 5 0.000000 0.000000 0.000000 0.000000 0.040042 0.000000
# 6 0.000000 0.000000 0.000000 0.000000 0.000000 0.077665
#
#
# Mechanical properties :
#
#
# Convention : Reuss Voigt Hill
#
# Bulk Modulus (GPa) = 43.63874 46.20003 44.91938
# Shear Modulus (GPa) = 14.11837 16.66569 15.39203
#
# Velocity S-wave (km/s) = 3.13845 3.40985 3.27696
# Velocity P-wave (km/s) = 6.60139 6.90904 6.75697
#
# Compressibility (1/GPa) = 0.02291542
#
# Stress axis : x y z
#
# Youngs Moduli (GPa) = 37.88818 69.63583 33.23514
#
# Poissons Ratio (x) = 0.29993 0.42957
# Poissons Ratio (y) = 0.16319 0.22371
# Poissons Ratio (z) = 0.48971 0.46873
#
# Static dielectric constant tensor:
#      x y z
#    x 2.819220 0.000000 0.000000 
#    y 0.000000 2.958920 0.000000 
#    z 0.000000 0.000000 2.681610 
# 
# 
# High freq. dielectric constant tensor:
#      x y z
#    x 1.546820 0.000000 0.000000 
#    y 0.000000 1.522250 0.000000 
#    z 0.000000 0.000000 1.522430 
# 
# From -- ./inp_files/36454.got.cif
#   From: 2010.03.12/outbox.cif.g09.slc.cpg/sg51_19_cif.got.tgz:36454.got - 2010.04.16 13:43:02.
