data_PCOD8206553
_publ_section_title
;
Structure prediction by ZEFSAII (Michael W. Deem and Ramdas Pophale) SiO2 
 PCOD8206553
Probable space group: P M M A
;
_chemical_formula_sum "Si O2"
_cell_formula_units_Z 64
_cell_length_a 29.649629
_cell_length_b 9.245244
_cell_length_c 15.138688
_cell_angle_alpha 90.000000
_cell_angle_beta 90.000000
_cell_angle_gamma 90.000000
_cell_volume 4149.787704
_symmetry_space_group_name_H-M "P M M A"
_symmetry_group_IT_number 51
_symmetry_cell_setting 'orthorhombic'
loop_
_space_group_symop_operation_xyz
x,y,z
1/2-x,-y,z
1/2+x,-y,-z
-x,y,-z
-x,-y,-z
1/2+x,y,-z
1/2-x,y,z
x,-y,z
loop_
_atom_site_type_symbol
_atom_site_label
_atom_site_fract_x
_atom_site_fract_y
_atom_site_fract_z
Si Si1 0.880298 0.169820 0.212381
Si Si2 0.700919 0.671697 0.483770
Si Si3 0.198976 0.335737 0.717794
Si Si4 0.559896 0.669853 0.354882
Si Si5 0.033784 0.171118 0.130220
Si Si6 0.604949 0.671857 0.536280
Si Si7 0.940026 0.168564 0.056260
Si Si8 0.958198 0.669945 0.691672
O O1 0.830224 0.231939 0.220435
O O2 0.914094 0.244989 0.279600
O O3 0.895514 0.206042 0.112019
O O4 0.880813 0.000000 0.231157
O O5 0.750000 0.731052 0.518878
O O6 0.702567 0.500000 0.487725
O O7 0.694553 0.719552 0.382489
O O8 0.657159 0.729866 0.537396
O O9 0.250000 0.324802 0.751507
O O10 0.181151 0.500000 0.725120
O O11 0.568861 0.500000 0.342072
O O12 0.578494 0.724924 0.449114
O O13 0.507134 0.707411 0.348223
O O14 0.051893 0.251050 0.216593
O O15 0.983587 0.230289 0.108206
O O16 0.035753 0.000000 0.148401
O O17 0.064327 0.220500 0.045559
O O18 0.604840 0.500000 0.536205
O O19 0.579043 0.729337 0.622517
O O20 0.949839 0.000000 0.051240
O O21 0.953120 0.500000 0.707266
#
# Coordination Sequence:
#
# PCOD8206553 Si02
#       8
#     8   8   8   8   8   8   8   8
#     4  11  19  28  45  68  91 114 148 188 222 255
#     4   8  13  23  42  64  82 107 146 182 208 249
#     4   9  17  30  47  66  89 118 150 179 215 268
#     4  10  18  29  42  59  88 125 155 175 209 263
#     4   9  16  31  48  60  82 116 149 179 216 264
#     4   9  16  27  42  60  87 120 150 179 215 264
#     4   8  16  29  46  63  82 115 150 176 213 266
#     4  10  19  28  42  65  89 115 150 191 224 252
#
# _framework density 15.422476
#
# number of rings (size 3 to 8) (size 9 to 14) (size 15 to 20)
#    0.000    2.750    2.500    2.250    0.000    1.750 
#    0.000    3.125    0.000    1.500    0.000    0.875 
#    0.000    3.000    0.000    0.000    0.000    0.000 
#
# Total GULP energy -793095.001416 kJ/mol
# GULP energy per Si atom -12392.109397 kJ/mol
# Density = 1.538737 g / cm^3
# Si number density = 15.422476 Si / 1000 Ang^3
#
#
#
# Elastic Constant Matrix: (Units=GPa)
#
#
# Indices 1 2 3 4 5 6 
#
# 1 116.0726 28.6902 65.1127 0.0000 0.0000 0.0000
# 2 28.6902 32.4283 31.1475 0.0000 0.0000 0.0000
# 3 65.1127 31.1475 112.7345 0.0000 0.0000 0.0000
# 4 0.0000 0.0000 0.0000 -430.9673 0.0000 0.0000
# 5 0.0000 0.0000 0.0000 0.0000 20.1555 0.0000
# 6 0.0000 0.0000 0.0000 0.0000 0.0000 13.1763
#
#
#
# Elastic Compliance Matrix: (Units=1/GPa)
#
#
# Indices 1 2 3 4 5 6 
#
# 1 0.013576 -0.006098 -0.006156 0.000000 0.000000 0.000000
# 2 -0.006098 0.044716 -0.008833 0.000000 0.000000 0.000000
# 3 -0.006156 -0.008833 0.014867 0.000000 0.000000 0.000000
# 4 0.000000 0.000000 0.000000 -0.002320 0.000000 0.000000
# 5 0.000000 0.000000 0.000000 0.000000 0.049614 0.000000
# 6 0.000000 0.000000 0.000000 0.000000 0.000000 0.075894
#
#
# Mechanical properties :
#
#
# Convention : Reuss Voigt Hill
#
# Bulk Modulus (GPa) = 32.27388 56.79293 44.53340
# Shear Modulus (GPa) = 20.09251 -70.44145 -25.17447
#
# Velocity S-wave (km/s) = 3.61336 -6.76563 -4.04459
# Velocity P-wave (km/s) = 6.19519 4.91191 2.66960
#
# Compressibility (1/GPa) = 0.03098481
#
# Stress axis : x y z
#
# Youngs Moduli (GPa) = 73.65894 22.36333 67.26493
#
# Poissons Ratio (x) = 0.13637 0.41411
# Poissons Ratio (y) = 0.44916 0.59413
# Poissons Ratio (z) = 0.45348 0.19753
#
# Static dielectric constant tensor:
#      x y z
#    x 3.191550 0.000000 0.000000 
#    y 0.000000 2.650380 0.000000 
#    z 0.000000 0.000000 3.014660 
# 
# 
# High freq. dielectric constant tensor:
#      x y z
#    x 1.586070 0.000000 0.000000 
#    y 0.000000 1.558930 0.000000 
#    z 0.000000 0.000000 1.576410 
# 
# From -- ./inp_files/26639.got.cif
#   From: 2010.03.12/outbox.cif.g09.slc.cpg/sg51_14_cif.got.tgz:26639.got - 2010.04.16 13:43:02.
