data_PCOD8206900
_publ_section_title
;
Structure prediction by ZEFSAII (Michael W. Deem and Ramdas Pophale) SiO2 
 PCOD8206900
Probable space group: P M M A
;
_chemical_formula_sum "Si O2"
_cell_formula_units_Z 40
_cell_length_a 8.746040
_cell_length_b 12.690701
_cell_length_c 20.130392
_cell_angle_alpha 90.000000
_cell_angle_beta 90.000000
_cell_angle_gamma 90.000000
_cell_volume 2234.340220
_symmetry_space_group_name_H-M "P M M A"
_symmetry_group_IT_number 51
_symmetry_cell_setting 'orthorhombic'
loop_
_space_group_symop_operation_xyz
x,y,z
1/2-x,-y,z
1/2+x,-y,-z
-x,y,-z
-x,-y,-z
1/2+x,y,-z
1/2-x,y,z
x,-y,z
loop_
_atom_site_type_symbol
_atom_site_label
_atom_site_fract_x
_atom_site_fract_y
_atom_site_fract_z
Si Si1 0.073938 0.727305 0.679845
Si Si2 0.071731 0.122565 0.069633
Si Si3 0.431515 0.283628 0.830304
Si Si4 0.572129 0.500000 0.830691
Si Si5 0.569047 0.880071 0.430753
Si Si6 0.075685 0.500000 0.692854
O O1 0.250000 0.758783 0.683778
O O2 0.007471 0.733865 0.754652
O O3 0.996535 0.808850 0.628464
O O4 0.051558 0.607591 0.651128
O O5 0.250000 0.148880 0.068333
O O6 0.990766 0.185567 0.128067
O O7 0.039740 0.000000 0.083109
O O8 0.000000 0.158246 0.000000
O O9 0.250000 0.289097 0.832806
O O10 0.496934 0.393300 0.860375
O O11 0.750000 0.500000 0.848061
O O12 0.544879 0.500000 0.752121
O O13 0.500000 0.840262 0.500000
O O14 0.750000 0.867641 0.435394
O O15 0.519891 0.000000 0.416232
O O16 0.250000 0.500000 0.722704
#
# Coordination Sequence:
#
# PCOD8206900 Si02
#       6
#     8   8   8   4   8   4
#     4   8  15  28  48  70  91 120 158 198 238 286
#     4  10  21  37  55  76 104 137 170 205 249 299
#     4  10  19  33  54  78 102 131 169 209 250 297
#     4  10  18  30  49  74 105 136 164 200 250 300
#     4   9  17  30  46  64  89 122 158 195 238 288
#     4   8  14  28  47  66  90 122 159 196 239 290
#
# _framework density 17.902376
#
# number of rings (size 3 to 8) (size 9 to 14) (size 15 to 20)
#    0.000    2.800    0.000    3.300    0.000    2.000 
#    0.000    8.000    0.000    2.400    0.000    0.000 
#    0.000    0.000    0.000    0.000    0.000    0.000 
#
# Total GULP energy -495738.259483 kJ/mol
# GULP energy per Si atom -12393.456487 kJ/mol
# Density = 1.786163 g / cm^3
# Si number density = 17.902376 Si / 1000 Ang^3
#
#
#
# Elastic Constant Matrix: (Units=GPa)
#
#
# Indices 1 2 3 4 5 6 
#
# 1 66.7736 37.0284 31.0606 0.0000 0.0000 0.0000
# 2 37.0284 116.4639 77.1828 0.0000 0.0000 0.0000
# 3 31.0606 77.1828 103.8936 0.0000 0.0000 0.0000
# 4 0.0000 0.0000 0.0000 15.2956 0.0000 0.0000
# 5 0.0000 0.0000 0.0000 0.0000 23.9786 0.0000
# 6 0.0000 0.0000 0.0000 0.0000 0.0000 26.2636
#
#
#
# Elastic Compliance Matrix: (Units=1/GPa)
#
#
# Indices 1 2 3 4 5 6 
#
# 1 0.018452 -0.004355 -0.002281 0.000000 0.000000 0.000000
# 2 -0.004355 0.017941 -0.012027 0.000000 0.000000 0.000000
# 3 -0.002281 -0.012027 0.019242 0.000000 0.000000 0.000000
# 4 0.000000 0.000000 0.000000 0.065378 0.000000 0.000000
# 5 0.000000 0.000000 0.000000 0.000000 0.041704 0.000000
# 6 0.000000 0.000000 0.000000 0.000000 0.000000 0.038076
#
#
# Mechanical properties :
#
#
# Convention : Reuss Voigt Hill
#
# Bulk Modulus (GPa) = 54.61601 64.18607 59.40104
# Shear Modulus (GPa) = 20.47322 22.56484 21.51903
#
# Velocity S-wave (km/s) = 3.38539 3.55412 3.47078
# Velocity P-wave (km/s) = 6.77164 7.26454 7.02241
#
# Compressibility (1/GPa) = 0.01830965
#
# Stress axis : x y z
#
# Youngs Moduli (GPa) = 54.19460 55.73781 51.96988
#
# Poissons Ratio (x) = 0.24272 0.11856
# Poissons Ratio (y) = 0.23600 0.62502
# Poissons Ratio (z) = 0.12364 0.67034
#
# Static dielectric constant tensor:
#      x y z
#    x 3.127020 0.000000 0.000000 
#    y 0.000000 3.630270 0.000000 
#    z 0.000000 0.000000 3.257150 
# 
# 
# High freq. dielectric constant tensor:
#      x y z
#    x 1.677450 0.000000 0.000000 
#    y 0.000000 1.706750 0.000000 
#    z 0.000000 0.000000 1.666060 
# 
# From -- ./inp_files/31474.got.cif
#   From: 2010.03.12/outbox.cif.g09.slc.cpg/sg51_16_cif.got.tgz:31474.got - 2010.04.16 13:43:02.
