data_PCOD8206385
_publ_section_title
;
Structure prediction by ZEFSAII (Michael W. Deem and Ramdas Pophale) SiO2 
 PCOD8206385
Probable space group: P M M A
;
_chemical_formula_sum "Si O2"
_cell_formula_units_Z 64
_cell_length_a 9.088160
_cell_length_b 18.342576
_cell_length_c 26.030518
_cell_angle_alpha 90.000000
_cell_angle_beta 90.000000
_cell_angle_gamma 90.000000
_cell_volume 4339.294262
_symmetry_space_group_name_H-M "P M M A"
_symmetry_group_IT_number 51
_symmetry_cell_setting 'orthorhombic'
loop_
_space_group_symop_operation_xyz
x,y,z
1/2-x,-y,z
1/2+x,-y,-z
-x,y,-z
-x,-y,-z
1/2+x,y,-z
1/2-x,y,z
x,-y,z
loop_
_atom_site_type_symbol
_atom_site_label
_atom_site_fract_x
_atom_site_fract_y
_atom_site_fract_z
Si Si1 0.922576 0.415939 0.052411
Si Si2 0.077646 0.082962 0.448946
Si Si3 0.578614 0.083086 0.255654
Si Si4 0.086910 0.214934 0.806967
Si Si5 0.575979 0.835969 0.653721
Si Si6 0.078750 0.662239 0.144727
Si Si7 0.578541 0.416679 0.749548
Si Si8 0.085140 0.294004 0.698247
O O1 0.750000 0.402148 0.046948
O O2 0.958725 0.500000 0.064628
O O3 0.985833 0.367122 0.097585
O O4 0.000000 0.391327 0.000000
O O5 0.250000 0.087100 0.458200
O O6 0.029318 0.132874 0.401429
O O7 0.000000 0.113421 0.500000
O O8 0.027356 0.000000 0.437645
O O9 0.750000 0.093888 0.270274
O O10 0.541402 0.131022 0.204572
O O11 0.481967 0.107952 0.303703
O O12 0.540719 0.000000 0.242038
O O13 0.250000 0.219751 0.831725
O O14 0.086913 0.253424 0.752125
O O15 0.970691 0.254310 0.844355
O O16 0.750000 0.829210 0.660261
O O17 0.505180 0.755675 0.658314
O O18 0.250000 0.661016 0.130823
O O19 0.041467 0.612221 0.193606
O O20 0.750000 0.407646 0.738120
O O21 0.526728 0.500000 0.746456
O O22 0.492096 0.372281 0.705726
O O23 0.250000 0.306230 0.677251
#
# Coordination Sequence:
#
# PCOD8206385 Si02
#       8
#     8   8   8   8   8   8   8   8
#     4  10  20  32  45  61  82 108 138 172 207 241
#     4   9  18  30  42  58  80 106 137 172 207 242
#     4   9  17  28  42  61  84 110 140 172 206 245
#     4   8  15  27  40  56  80 108 137 168 201 239
#     4  10  18  28  42  59  81 109 140 172 207 246
#     4  10  18  28  43  61  82 109 140 171 203 240
#     4   9  17  28  42  61  85 112 140 170 205 244
#     4   9  17  28  41  58  80 107 139 172 205 242
#
# _framework density 14.748941
#
# number of rings (size 3 to 8) (size 9 to 14) (size 15 to 20)
#    0.000    2.750    0.000    3.000    0.000    6.750 
#    0.000    1.250    0.000    0.000    0.000    0.000 
#    0.000    1.000    0.000    3.000    0.000    4.000 
#
# Total GULP energy -793501.732578 kJ/mol
# GULP energy per Si atom -12398.464572 kJ/mol
# Density = 1.471537 g / cm^3
# Si number density = 14.748941 Si / 1000 Ang^3
#
#
#
# Elastic Constant Matrix: (Units=GPa)
#
#
# Indices 1 2 3 4 5 6 
#
# 1 73.6155 47.0298 45.2838 0.0000 0.0000 0.0000
# 2 47.0298 111.7699 52.2621 0.0000 0.0000 0.0000
# 3 45.2838 52.2621 74.3311 0.0000 0.0000 0.0000
# 4 0.0000 0.0000 0.0000 21.7626 0.0000 0.0000
# 5 0.0000 0.0000 0.0000 0.0000 23.9031 0.0000
# 6 0.0000 0.0000 0.0000 0.0000 0.0000 23.2542
#
#
#
# Elastic Compliance Matrix: (Units=1/GPa)
#
#
# Indices 1 2 3 4 5 6 
#
# 1 0.023282 -0.004714 -0.010869 0.000000 0.000000 0.000000
# 2 -0.004714 0.014283 -0.007171 0.000000 0.000000 0.000000
# 3 -0.010869 -0.007171 0.025117 0.000000 0.000000 0.000000
# 4 0.000000 0.000000 0.000000 0.045950 0.000000 0.000000
# 5 0.000000 0.000000 0.000000 0.000000 0.041836 0.000000
# 6 0.000000 0.000000 0.000000 0.000000 0.000000 0.043003
#
#
# Mechanical properties :
#
#
# Convention : Reuss Voigt Hill
#
# Bulk Modulus (GPa) = 58.22785 60.98533 59.60659
# Shear Modulus (GPa) = 20.43285 21.46002 20.94644
#
# Velocity S-wave (km/s) = 3.72610 3.81861 3.77264
# Velocity P-wave (km/s) = 7.62082 7.80264 7.71226
#
# Compressibility (1/GPa) = 0.01717391
#
# Stress axis : x y z
#
# Youngs Moduli (GPa) = 42.95206 70.01105 39.81393
#
# Poissons Ratio (x) = 0.33003 0.43275
# Poissons Ratio (y) = 0.20248 0.28550
# Poissons Ratio (z) = 0.46686 0.50204
#
# Static dielectric constant tensor:
#      x y z
#    x 2.967110 0.000000 0.000000 
#    y 0.000000 3.032730 0.000000 
#    z 0.000000 0.000000 2.638880 
# 
# 
# High freq. dielectric constant tensor:
#      x y z
#    x 1.576050 0.000000 0.000000 
#    y 0.000000 1.555880 0.000000 
#    z 0.000000 0.000000 1.527540 
# 
# From -- ./inp_files/35134.got.cif
#   From: 2010.03.12/outbox.cif.g09.slc.cpg/sg51_18_cif.got.tgz:35134.got - 2010.04.16 13:43:02.
