data_PCOD8206647
_publ_section_title
;
Structure prediction by ZEFSAII (Michael W. Deem and Ramdas Pophale) SiO2 
 PCOD8206647
Probable space group: P M M A
;
_chemical_formula_sum "Si O2"
_cell_formula_units_Z 48
_cell_length_a 17.140943
_cell_length_b 16.763512
_cell_length_c 9.287973
_cell_angle_alpha 90.000000
_cell_angle_beta 90.000000
_cell_angle_gamma 90.000000
_cell_volume 2668.828487
_symmetry_space_group_name_H-M "P M M A"
_symmetry_group_IT_number 51
_symmetry_cell_setting 'orthorhombic'
loop_
_space_group_symop_operation_xyz
x,y,z
1/2-x,-y,z
1/2+x,-y,-z
-x,y,-z
-x,-y,-z
1/2+x,y,-z
1/2-x,y,z
x,-y,z
loop_
_atom_site_type_symbol
_atom_site_label
_atom_site_fract_x
_atom_site_fract_y
_atom_site_fract_z
Si Si1 0.160247 0.683225 0.700365
Si Si2 0.341602 0.089288 0.786266
Si Si3 0.590223 0.410301 0.526754
Si Si4 0.157889 0.267864 0.291272
Si Si5 0.589539 0.175162 0.465965
Si Si6 0.340140 0.766723 0.977921
O O1 0.250000 0.704515 0.661911
O O2 0.136054 0.599628 0.627218
O O3 0.101495 0.745654 0.627748
O O4 0.148192 0.689622 0.872691
O O5 0.250000 0.103367 0.768483
O O6 0.378318 0.101162 0.627206
O O7 0.361227 0.000000 0.840027
O O8 0.375340 0.153285 0.902235
O O9 0.500000 0.394347 0.500000
O O10 0.605628 0.500000 0.582080
O O11 0.620532 0.348719 0.646429
O O12 0.250000 0.280432 0.287158
O O13 0.136243 0.189464 0.384785
O O14 0.121349 0.252916 0.131863
O O15 0.500000 0.159649 0.500000
O O16 0.250000 0.783696 0.007206
#
# Coordination Sequence:
#
# PCOD8206647 Si02
#       6
#     8   8   8   8   8   8
#     4   9  16  30  50  68  90 124 166 200 229 280
#     4   9  17  32  52  70  93 128 165 199 239 289
#     4  10  20  33  48  70  99 126 155 193 236 282
#     4  10  18  31  52  74  96 122 157 200 240 278
#     4  10  18  29  46  70  98 126 160 196 235 281
#     4   8  16  30  49  73  95 119 157 202 241 280
#
# _framework density 17.985420000000001
#
# number of rings (size 3 to 8) (size 9 to 14) (size 15 to 20)
#    0.000    2.667    0.000    6.000    0.000    1.667 
#    0.000    9.167    0.000    9.000    0.000    0.000 
#    0.000    0.000    0.000    0.000    0.000    0.000 
#
# Total GULP energy -594692.051127 kJ/mol
# GULP energy per Si atom -12389.417732 kJ/mol
# Density = 1.794448 g / cm^3
# Si number density = 17.985420 Si / 1000 Ang^3
#
#
#
# Elastic Constant Matrix: (Units=GPa)
#
#
# Indices 1 2 3 4 5 6 
#
# 1 58.3336 37.5966 35.7525 0.0000 0.0000 0.0000
# 2 37.5966 93.5369 60.5803 0.0000 0.0000 0.0000
# 3 35.7525 60.5803 158.8973 0.0000 0.0000 0.0000
# 4 0.0000 0.0000 0.0000 20.1197 0.0000 0.0000
# 5 0.0000 0.0000 0.0000 0.0000 7.5394 0.0000
# 6 0.0000 0.0000 0.0000 0.0000 0.0000 -7.4502
#
#
#
# Elastic Compliance Matrix: (Units=1/GPa)
#
#
# Indices 1 2 3 4 5 6 
#
# 1 0.023733 -0.008075 -0.002262 0.000000 0.000000 0.000000
# 2 -0.008075 0.016944 -0.004643 0.000000 0.000000 0.000000
# 3 -0.002262 -0.004643 0.008572 0.000000 0.000000 0.000000
# 4 0.000000 0.000000 0.000000 0.049703 0.000000 0.000000
# 5 0.000000 0.000000 0.000000 0.000000 0.132636 0.000000
# 6 0.000000 0.000000 0.000000 0.000000 0.000000 -0.134224
#
#
# Mechanical properties :
#
#
# Convention : Reuss Voigt Hill
#
# Bulk Modulus (GPa) = 51.83843 64.29185 58.06514
# Shear Modulus (GPa) = 37.38254 15.83100 26.60677
#
# Velocity S-wave (km/s) = 4.56399 2.97006 3.85041
# Velocity P-wave (km/s) = 7.52718 6.89825 7.21957
#
# Compressibility (1/GPa) = 0.01929071
#
# Stress axis : x y z
#
# Youngs Moduli (GPa) = 42.13530 59.01927 116.65351
#
# Poissons Ratio (x) = 0.47656 0.26382
# Poissons Ratio (y) = 0.34023 0.54162
# Poissons Ratio (z) = 0.09529 0.27403
#
# Static dielectric constant tensor:
#      x y z
#    x 3.296120 0.000000 0.000000 
#    y 0.000000 3.321390 0.000000 
#    z 0.000000 0.000000 3.702780 
# 
# 
# High freq. dielectric constant tensor:
#      x y z
#    x 1.685920 0.000000 0.000000 
#    y 0.000000 1.671960 0.000000 
#    z 0.000000 0.000000 1.695430 
# 
# From -- ./inp_files/8253.got.cif
#   From: 2010.03.12/outbox.cif.g09.slc.cpg/sg51_5_cif.got.tgz:8253.got - 2010.04.16 13:43:02.
