data_PCOD8206577
_publ_section_title
;
Structure prediction by ZEFSAII (Michael W. Deem and Ramdas Pophale) SiO2 
 PCOD8206577
Probable space group: P M M A
;
_chemical_formula_sum "Si O2"
_cell_formula_units_Z 60
_cell_length_a 9.022128
_cell_length_b 23.682660
_cell_length_c 18.333334
_cell_angle_alpha 90.000000
_cell_angle_beta 90.000000
_cell_angle_gamma 90.000000
_cell_volume 3917.246624
_symmetry_space_group_name_H-M "P M M A"
_symmetry_group_IT_number 51
_symmetry_cell_setting 'orthorhombic'
loop_
_space_group_symop_operation_xyz
x,y,z
1/2-x,-y,z
1/2+x,-y,-z
-x,y,-z
-x,-y,-z
1/2+x,y,-z
1/2-x,y,z
x,-y,z
loop_
_atom_site_type_symbol
_atom_site_label
_atom_site_fract_x
_atom_site_fract_y
_atom_site_fract_z
Si Si1 0.416335 0.268225 0.718444
Si Si2 0.924551 0.888499 0.339283
Si Si3 0.923121 0.564693 0.924318
Si Si4 0.920838 0.662455 0.149161
Si Si5 0.925567 0.769635 0.924304
Si Si6 0.582125 0.221263 0.426903
Si Si7 0.920049 0.167379 0.783725
Si Si8 0.573914 0.000000 0.421466
O O1 0.250000 0.242683 0.733096
O O2 0.432222 0.326392 0.763325
O O3 0.435566 0.273477 0.630725
O O4 0.542341 0.226628 0.746304
O O5 0.750000 0.889220 0.331354
O O6 0.979197 0.836166 0.389433
O O7 0.982126 0.945688 0.376477
O O8 0.988806 0.882389 0.256750
O O9 0.750000 0.577252 0.931547
O O10 0.954312 0.500000 0.902768
O O11 0.995156 0.603621 0.862490
O O12 0.000000 0.580683 0.000000
O O13 0.750000 0.657893 0.124075
O O14 0.997790 0.712325 0.103670
O O15 0.750000 0.758563 0.932723
O O16 0.955652 0.822685 0.869573
O O17 0.000000 0.787611 0.000000
O O18 0.500000 0.238045 0.500000
O O19 0.750000 0.210992 0.449819
O O20 0.750000 0.152731 0.771567
O O21 0.500000 0.000000 0.500000
O O22 0.750000 0.000000 0.431787
#
# Coordination Sequence:
#
# PCOD8206577 Si02
#       8
#     8   8   8   8   8   8   8   4
#     4   8  16  29  42  58  82 111 139 168 206 250
#     4   9  18  31  44  59  84 115 143 171 206 248
#     4  10  20  32  44  59  82 112 145 179 211 244
#     4  10  18  29  45  61  82 113 144 175 210 247
#     4  10  19  29  42  63  88 111 138 172 210 253
#     4   9  16  26  40  59  83 110 138 166 199 241
#     4   9  17  28  43  62  82 106 139 174 206 245
#     4  10  20  32  46  66  89 114 145 178 209 244
#
# _framework density 15.316881
#
# number of rings (size 3 to 8) (size 9 to 14) (size 15 to 20)
#    0.000    2.667    0.000    3.200    0.000    5.600 
#    0.000    0.000    0.000    0.000    0.000    0.467 
#    0.000    0.533    0.000    1.200    0.000    2.133 
#
# Total GULP energy -743500.934504 kJ/mol
# GULP energy per Si atom -12391.682242 kJ/mol
# Density = 1.528202 g / cm^3
# Si number density = 15.316881 Si / 1000 Ang^3
#
#
#
# Elastic Constant Matrix: (Units=GPa)
#
#
# Indices 1 2 3 4 5 6 
#
# 1 67.4814 35.5202 51.5827 0.0000 0.0000 0.0000
# 2 35.5202 75.7552 56.8276 0.0000 0.0000 0.0000
# 3 51.5827 56.8276 122.3500 0.0000 0.0000 0.0000
# 4 0.0000 0.0000 0.0000 24.2360 0.0000 0.0000
# 5 0.0000 0.0000 0.0000 0.0000 27.2669 0.0000
# 6 0.0000 0.0000 0.0000 0.0000 0.0000 20.0972
#
#
#
# Elastic Compliance Matrix: (Units=1/GPa)
#
#
# Indices 1 2 3 4 5 6 
#
# 1 0.023242 -0.005444 -0.007270 0.000000 0.000000 0.000000
# 2 -0.005444 0.021534 -0.007707 0.000000 0.000000 0.000000
# 3 -0.007270 -0.007707 0.014818 0.000000 0.000000 0.000000
# 4 0.000000 0.000000 0.000000 0.041261 0.000000 0.000000
# 5 0.000000 0.000000 0.000000 0.000000 0.036674 0.000000
# 6 0.000000 0.000000 0.000000 0.000000 0.000000 0.049758
#
#
# Mechanical properties :
#
#
# Convention : Reuss Voigt Hill
#
# Bulk Modulus (GPa) = 53.32735 61.49416 57.41076
# Shear Modulus (GPa) = 21.33289 22.43043 21.88166
#
# Velocity S-wave (km/s) = 3.73603 3.83093 3.78378
# Velocity P-wave (km/s) = 7.31452 7.73325 7.52680
#
# Compressibility (1/GPa) = 0.01875210
#
# Stress axis : x y z
#
# Youngs Moduli (GPa) = 43.02608 46.43777 67.48583
#
# Poissons Ratio (x) = 0.25280 0.49063
# Poissons Ratio (y) = 0.23423 0.52010
# Poissons Ratio (z) = 0.31281 0.35789
#
# Static dielectric constant tensor:
#      x y z
#    x 3.017580 0.000000 0.000000 
#    y 0.000000 2.811790 0.000000 
#    z 0.000000 0.000000 3.111930 
# 
# 
# High freq. dielectric constant tensor:
#      x y z
#    x 1.598800 0.000000 0.000000 
#    y 0.000000 1.546740 0.000000 
#    z 0.000000 0.000000 1.583290 
# 
# From -- ./inp_files/28643.got.cif
#   From: 2010.03.12/outbox.cif.g09.slc.cpg/sg51_15_cif.got.tgz:28643.got - 2010.04.16 13:43:02.
