data_PCOD8206466
_publ_section_title
;
Structure prediction by ZEFSAII (Michael W. Deem and Ramdas Pophale) SiO2 
 PCOD8206466
Probable space group: P M M A
;
_chemical_formula_sum "Si O2"
_cell_formula_units_Z 56
_cell_length_a 8.839786
_cell_length_b 18.594260
_cell_length_c 21.335142
_cell_angle_alpha 90.000000
_cell_angle_beta 90.000000
_cell_angle_gamma 90.000000
_cell_volume 3506.841913
_symmetry_space_group_name_H-M "P M M A"
_symmetry_group_IT_number 51
_symmetry_cell_setting 'orthorhombic'
loop_
_space_group_symop_operation_xyz
x,y,z
1/2-x,-y,z
1/2+x,-y,-z
-x,y,-z
-x,-y,-z
1/2+x,y,-z
1/2-x,y,z
x,-y,z
loop_
_atom_site_type_symbol
_atom_site_label
_atom_site_fract_x
_atom_site_fract_y
_atom_site_fract_z
Si Si1 0.577459 0.653635 0.563927
Si Si2 0.070493 0.833805 0.179214
Si Si3 0.428873 0.582179 0.307923
Si Si4 0.075881 0.217513 0.358532
Si Si5 0.573617 0.921679 0.699740
Si Si6 0.927041 0.708313 0.244986
Si Si7 0.927646 0.082426 0.066252
O O1 0.500000 0.629668 0.500000
O O2 0.750000 0.633324 0.554451
O O3 0.513971 0.609619 0.623687
O O4 0.554877 0.740185 0.575840
O O5 0.250000 0.831533 0.173931
O O6 0.014116 0.883948 0.236880
O O7 0.008091 0.752736 0.189176
O O8 0.001299 0.865087 0.116351
O O9 0.250000 0.592943 0.302950
O O10 0.478231 0.500000 0.299410
O O11 0.506775 0.627506 0.251927
O O12 0.250000 0.229174 0.334510
O O13 0.041293 0.131507 0.360048
O O14 0.960224 0.251868 0.309982
O O15 0.750000 0.934483 0.707073
O O16 0.494757 0.000000 0.689660
O O17 0.750000 0.704710 0.231226
O O18 0.750000 0.096252 0.062824
O O19 0.964589 0.000000 0.084405
O O20 0.000000 0.102204 0.000000
#
# Coordination Sequence:
#
# PCOD8206466 Si02
#       7
#     8   8   8   8   8   8   8
#     4   9  17  28  42  60  81 109 144 177 210 254
#     4  10  18  29  45  64  89 120 154 188 222 265
#     4   9  18  33  49  64  87 116 141 170 214 266
#     4   8  15  28  42  57  80 108 138 174 218 266
#     4   8  13  22  40  63  80  99 135 181 222 259
#     4  10  18  28  44  66  89 112 142 179 218 261
#     4  10  20  32  45  64  93 128 164 200 236 270
#
# _framework density 15.968783999999999
#
# number of rings (size 3 to 8) (size 9 to 14) (size 15 to 20)
#    0.000    2.857    0.000    4.286    0.000    4.286 
#    0.000    0.000    0.000    4.286    0.000    0.000 
#    0.000    0.571    0.000    2.143    0.000    4.429 
#
# Total GULP energy -693832.168669 kJ/mol
# GULP energy per Si atom -12389.860155 kJ/mol
# Density = 1.593244 g / cm^3
# Si number density = 15.968784 Si / 1000 Ang^3
#
#
#
# Elastic Constant Matrix: (Units=GPa)
#
#
# Indices 1 2 3 4 5 6 
#
# 1 62.5269 36.4687 31.0869 0.0000 0.0000 0.0000
# 2 36.4687 135.6290 44.8158 0.0000 0.0000 0.0000
# 3 31.0869 44.8158 57.8772 0.0000 0.0000 0.0000
# 4 0.0000 0.0000 0.0000 22.4191 0.0000 0.0000
# 5 0.0000 0.0000 0.0000 0.0000 22.6864 0.0000
# 6 0.0000 0.0000 0.0000 0.0000 0.0000 18.1840
#
#
#
# Elastic Compliance Matrix: (Units=1/GPa)
#
#
# Indices 1 2 3 4 5 6 
#
# 1 0.022570 -0.002772 -0.009976 0.000000 0.000000 0.000000
# 2 -0.002772 0.010249 -0.006447 0.000000 0.000000 0.000000
# 3 -0.009976 -0.006447 0.027628 0.000000 0.000000 0.000000
# 4 0.000000 0.000000 0.000000 0.044605 0.000000 0.000000
# 5 0.000000 0.000000 0.000000 0.000000 0.044079 0.000000
# 6 0.000000 0.000000 0.000000 0.000000 0.000000 0.054993
#
#
# Mechanical properties :
#
#
# Convention : Reuss Voigt Hill
#
# Bulk Modulus (GPa) = 45.33801 53.41954 49.37878
# Shear Modulus (GPa) = 20.01069 22.23536 21.12302
#
# Velocity S-wave (km/s) = 3.54377 3.73557 3.64094
# Velocity P-wave (km/s) = 6.72293 7.22019 6.97599
#
# Compressibility (1/GPa) = 0.02205655
#
# Stress axis : x y z
#
# Youngs Moduli (GPa) = 44.30677 97.57332 36.19498
#
# Poissons Ratio (x) = 0.27051 0.36108
# Poissons Ratio (y) = 0.12284 0.23334
# Poissons Ratio (z) = 0.44200 0.62903
#
# Static dielectric constant tensor:
#      x y z
#    x 2.882470 0.000000 0.000000 
#    y 0.000000 3.364170 0.000000 
#    z 0.000000 0.000000 2.808070 
# 
# 
# High freq. dielectric constant tensor:
#      x y z
#    x 1.605150 0.000000 0.000000 
#    y 0.000000 1.613420 0.000000 
#    z 0.000000 0.000000 1.573120 
# 
# From -- ./inp_files/32500.got.cif
#   From: 2010.03.12/outbox.cif.g09.slc.cpg/sg51_17_cif.got.tgz:32500.got - 2010.04.16 13:43:02.
