data_PCOD8206957
_publ_section_title
;
Structure prediction by ZEFSAII (Michael W. Deem and Ramdas Pophale) SiO2 
 PCOD8206957
Probable space group: P M M A
;
_chemical_formula_sum "Si O2"
_cell_formula_units_Z 56
_cell_length_a 8.843024
_cell_length_b 15.405796
_cell_length_c 20.556363
_cell_angle_alpha 90.000000
_cell_angle_beta 90.000000
_cell_angle_gamma 90.000000
_cell_volume 2800.471934
_symmetry_space_group_name_H-M "P M M A"
_symmetry_group_IT_number 51
_symmetry_cell_setting 'orthorhombic'
loop_
_space_group_symop_operation_xyz
x,y,z
1/2-x,-y,z
1/2+x,-y,-z
-x,y,-z
-x,-y,-z
1/2+x,y,-z
1/2-x,y,z
x,-y,z
loop_
_atom_site_type_symbol
_atom_site_label
_atom_site_fract_x
_atom_site_fract_y
_atom_site_fract_z
Si Si1 0.423941 0.596131 0.105579
Si Si2 0.577069 0.404639 0.632256
Si Si3 0.419665 0.176057 0.798525
Si Si4 0.429568 0.767706 0.934836
Si Si5 0.571272 0.901778 0.329822
Si Si6 0.927839 0.771798 0.568039
Si Si7 0.420554 0.371546 0.764297
O O1 0.250000 0.625519 0.100120
O O2 0.447401 0.500000 0.075032
O O3 0.526476 0.666046 0.068009
O O4 0.469891 0.590616 0.180978
O O5 0.750000 0.387318 0.653563
O O6 0.561078 0.500000 0.598371
O O7 0.524696 0.327644 0.584133
O O8 0.472997 0.406506 0.695304
O O9 0.250000 0.145642 0.812558
O O10 0.496585 0.182314 0.870609
O O11 0.490808 0.110749 0.744944
O O12 0.426752 0.268164 0.763209
O O13 0.250000 0.773783 0.937160
O O14 0.500000 0.810077 0.000000
O O15 0.750000 0.881138 0.331820
O O16 0.485881 0.837007 0.377194
O O17 0.536720 0.000000 0.351487
O O18 0.750000 0.782463 0.562163
O O19 0.000000 0.799053 0.500000
O O20 0.250000 0.403745 0.777920
#
# Coordination Sequence:
#
# PCOD8206957 Si02
#       7
#     8   8   8   8   8   8   8
#     4  10  20  32  46  68 102 142 186 237 288 339
#     4  10  21  36  54  79 112 151 195 240 287 337
#     4   8  16  32  54  81 111 141 180 228 277 332
#     4  10  20  34  52  75 105 144 188 233 281 341
#     4  10  20  38  66  94 118 147 186 235 290 349
#     4  11  24  41  61  85 118 157 193 238 289 341
#     4  10  18  30  51  77 108 144 186 235 284 337
#
# _framework density 19.996628999999999
#
# number of rings (size 3 to 8) (size 9 to 14) (size 15 to 20)
#    0.000    2.143    1.429    3.000    0.000    4.857 
#    0.000    0.714    0.000    0.429    0.000    0.000 
#    0.000    0.000    0.000    0.000    0.000    0.571 
#
# Total GULP energy -694024.881746 kJ/mol
# GULP energy per Si atom -12393.301460 kJ/mol
# Density = 1.995112 g / cm^3
# Si number density = 19.996629 Si / 1000 Ang^3
#
#
#
# Elastic Constant Matrix: (Units=GPa)
#
#
# Indices 1 2 3 4 5 6 
#
# 1 65.3324 30.0048 34.2778 0.0000 0.0000 0.0000
# 2 30.0048 87.6767 47.8266 0.0000 0.0000 0.0000
# 3 34.2778 47.8266 136.3492 0.0000 0.0000 0.0000
# 4 0.0000 0.0000 0.0000 6.1281 0.0000 0.0000
# 5 0.0000 0.0000 0.0000 0.0000 29.3790 0.0000
# 6 0.0000 0.0000 0.0000 0.0000 0.0000 18.1122
#
#
#
# Elastic Compliance Matrix: (Units=1/GPa)
#
#
# Indices 1 2 3 4 5 6 
#
# 1 0.019174 -0.004863 -0.003115 0.000000 0.000000 0.000000
# 2 -0.004863 0.015337 -0.004157 0.000000 0.000000 0.000000
# 3 -0.003115 -0.004157 0.009575 0.000000 0.000000 0.000000
# 4 0.000000 0.000000 0.000000 0.163182 0.000000 0.000000
# 5 0.000000 0.000000 0.000000 0.000000 0.034038 0.000000
# 6 0.000000 0.000000 0.000000 0.000000 0.000000 0.055211
#
#
# Mechanical properties :
#
#
# Convention : Reuss Voigt Hill
#
# Bulk Modulus (GPa) = 50.46101 57.06405 53.76253
# Shear Modulus (GPa) = 15.27218 22.54047 18.90633
#
# Velocity S-wave (km/s) = 2.76658 3.36104 3.07819
# Velocity P-wave (km/s) = 5.95775 6.60764 6.29109
#
# Compressibility (1/GPa) = 0.01981728
#
# Stress axis : x y z
#
# Youngs Moduli (GPa) = 52.15480 65.19987 104.43472
#
# Poissons Ratio (x) = 0.31705 0.32527
# Poissons Ratio (y) = 0.25361 0.43418
# Poissons Ratio (z) = 0.16244 0.27106
#
# Static dielectric constant tensor:
#      x y z
#    x 3.533400 0.000000 0.000000 
#    y 0.000000 3.600300 0.000000 
#    z 0.000000 0.000000 3.723040 
# 
# 
# High freq. dielectric constant tensor:
#      x y z
#    x 1.765290 0.000000 0.000000 
#    y 0.000000 1.762960 0.000000 
#    z 0.000000 0.000000 1.779460 
# 
# From -- ./inp_files/31913.got.cif
#   From: 2010.03.12/outbox.cif.g09.slc.cpg/sg51_16_cif.got.tgz:31913.got - 2010.04.16 13:43:02.
