data_PCOD8206503
_publ_section_title
;
Structure prediction by ZEFSAII (Michael W. Deem and Ramdas Pophale) SiO2 
 PCOD8206503
Probable space group: P M M A
;
_chemical_formula_sum "Si O2"
_cell_formula_units_Z 52
_cell_length_a 24.884122
_cell_length_b 8.937281
_cell_length_c 12.948517
_cell_angle_alpha 90.000000
_cell_angle_beta 90.000000
_cell_angle_gamma 90.000000
_cell_volume 2879.703446
_symmetry_space_group_name_H-M "P M M A"
_symmetry_group_IT_number 51
_symmetry_cell_setting 'orthorhombic'
loop_
_space_group_symop_operation_xyz
x,y,z
1/2-x,-y,z
1/2+x,-y,-z
-x,y,-z
-x,-y,-z
1/2+x,y,-z
1/2-x,y,z
x,-y,z
loop_
_atom_site_type_symbol
_atom_site_label
_atom_site_fract_x
_atom_site_fract_y
_atom_site_fract_z
Si Si1 0.608080 0.678441 0.273556
Si Si2 0.498003 0.166637 0.276793
Si Si3 0.688247 0.673457 0.094644
Si Si4 0.615587 0.661370 0.496612
Si Si5 0.612359 0.678922 0.720883
Si Si6 0.686959 0.827955 0.884163
Si Si7 0.500000 0.743271 0.500000
O O1 0.601147 0.500000 0.281714
O O2 0.551354 0.747749 0.237627
O O3 0.652881 0.725799 0.191442
O O4 0.628291 0.742811 0.386603
O O5 0.444709 0.255577 0.241148
O O6 0.499152 0.150491 0.400252
O O7 0.496819 0.000000 0.228694
O O8 0.750000 0.704637 0.123597
O O9 0.678634 0.500000 0.068004
O O10 0.669862 0.770222 0.996803
O O11 0.644486 0.500000 0.495754
O O12 0.629844 0.742292 0.605834
O O13 0.551351 0.635712 0.498278
O O14 0.607738 0.500000 0.717008
O O15 0.658221 0.728676 0.798585
O O16 0.750000 0.805797 0.867491
O O17 0.669550 0.000000 0.873148
#
# Coordination Sequence:
#
# PCOD8206503 Si02
#       7
#     8   8   8   8   8   8   4
#     4   9  17  31  50  74 104 134 165 201 244 294
#     4  10  18  28  45  71 103 136 168 202 242 289
#     4   9  18  34  56  77  96 124 164 207 248 293
#     4   8  14  25  44  71 101 132 163 198 240 285
#     4  10  19  32  51  75 103 134 168 204 243 290
#     4  10  21  37  56  75  96 125 163 208 253 295
#     4   8  14  24  40  64  95 134 173 202 231 278
#
# _framework density 18.057414000000001
#
# number of rings (size 3 to 8) (size 9 to 14) (size 15 to 20)
#    0.000    2.769    0.000    1.846    0.000    5.231 
#    0.000    2.308    0.000    7.385    0.000    2.154 
#    0.000    0.000    0.000    0.000    0.000    0.000 
#
# Total GULP energy -644250.461163 kJ/mol
# GULP energy per Si atom -12389.431945 kJ/mol
# Density = 1.801631 g / cm^3
# Si number density = 18.057414 Si / 1000 Ang^3
#
#
#
# Elastic Constant Matrix: (Units=GPa)
#
#
# Indices 1 2 3 4 5 6 
#
# 1 67.7423 30.3218 61.8354 0.0000 0.0000 0.0000
# 2 30.3218 73.1071 33.7090 0.0000 0.0000 0.0000
# 3 61.8354 33.7090 120.6580 0.0000 0.0000 0.0000
# 4 0.0000 0.0000 0.0000 15.5603 0.0000 0.0000
# 5 0.0000 0.0000 0.0000 0.0000 32.7211 0.0000
# 6 0.0000 0.0000 0.0000 0.0000 0.0000 23.2227
#
#
#
# Elastic Compliance Matrix: (Units=1/GPa)
#
#
# Indices 1 2 3 4 5 6 
#
# 1 0.029958 -0.006137 -0.013639 0.000000 0.000000 0.000000
# 2 -0.006137 0.016958 -0.001593 0.000000 0.000000 0.000000
# 3 -0.013639 -0.001593 0.015722 0.000000 0.000000 0.000000
# 4 0.000000 0.000000 0.000000 0.064266 0.000000 0.000000
# 5 0.000000 0.000000 0.000000 0.000000 0.030561 0.000000
# 6 0.000000 0.000000 0.000000 0.000000 0.000000 0.043061
#
#
# Mechanical properties :
#
#
# Convention : Reuss Voigt Hill
#
# Bulk Modulus (GPa) = 50.24478 57.02665 53.63571
# Shear Modulus (GPa) = 20.00817 23.34355 21.67586
#
# Velocity S-wave (km/s) = 3.33232 3.59937 3.46842
# Velocity P-wave (km/s) = 6.53385 6.99452 6.76810
#
# Compressibility (1/GPa) = 0.01990257
#
# Stress axis : x y z
#
# Youngs Moduli (GPa) = 33.38002 58.96838 63.60337
#
# Poissons Ratio (x) = 0.36187 0.86746
# Poissons Ratio (y) = 0.20484 0.10130
# Poissons Ratio (z) = 0.45526 0.09392
#
# Static dielectric constant tensor:
#      x y z
#    x 3.161050 0.000000 0.000000 
#    y 0.000000 3.119680 0.000000 
#    z 0.000000 0.000000 3.443760 
# 
# 
# High freq. dielectric constant tensor:
#      x y z
#    x 1.678810 0.000000 0.000000 
#    y 0.000000 1.684520 0.000000 
#    z 0.000000 0.000000 1.695430 
# 
# From -- ./inp_files/19059.got.cif
#   From: 2010.03.12/outbox.cif.g09.slc.cpg/sg51_10_cif.got.tgz:19059.got - 2010.04.16 13:43:02.
