data_PCOD8206532
_publ_section_title
;
Structure prediction by ZEFSAII (Michael W. Deem and Ramdas Pophale) SiO2 
 PCOD8206532
Probable space group: P M M A
;
_chemical_formula_sum "Si O2"
_cell_formula_units_Z 40
_cell_length_a 9.145588
_cell_length_b 12.592110
_cell_length_c 19.794402
_cell_angle_alpha 90.000000
_cell_angle_beta 90.000000
_cell_angle_gamma 90.000000
_cell_volume 2279.567874
_symmetry_space_group_name_H-M "P M M A"
_symmetry_group_IT_number 51
_symmetry_cell_setting 'orthorhombic'
loop_
_space_group_symop_operation_xyz
x,y,z
1/2-x,-y,z
1/2+x,-y,-z
-x,y,-z
-x,-y,-z
1/2+x,y,-z
1/2-x,y,z
x,-y,z
loop_
_atom_site_type_symbol
_atom_site_label
_atom_site_fract_x
_atom_site_fract_y
_atom_site_fract_z
Si Si1 0.079909 0.791766 0.825143
Si Si2 0.079329 0.622187 0.432082
Si Si3 0.584366 0.000000 0.317548
Si Si4 0.577725 0.000000 0.818735
Si Si5 0.078667 0.379574 0.932755
Si Si6 0.915571 0.230810 0.331984
O O1 0.250000 0.817036 0.834819
O O2 0.029683 0.691305 0.869276
O O3 0.044986 0.766000 0.747158
O O4 0.990133 0.893822 0.851744
O O5 0.250000 0.639903 0.442592
O O6 0.041137 0.500000 0.416212
O O7 0.000000 0.660639 0.500000
O O8 0.026122 0.692150 0.369660
O O9 0.462948 0.000000 0.259957
O O10 0.565588 0.890883 0.360034
O O11 0.750000 0.000000 0.285521
O O12 0.750000 0.000000 0.829275
O O13 0.250000 0.371596 0.945723
O O14 0.030376 0.500000 0.916341
O O15 0.000000 0.337385 0.000000
O O16 0.750000 0.270551 0.344353
#
# Coordination Sequence:
#
# PCOD8206532 Si02
#       6
#     8   8   4   4   8   8
#     4   9  18  33  52  73 100 133 165 198 241 295
#     4  10  21  36  52  71  98 131 165 202 245 291
#     4   8  16  32  51  72 101 134 162 192 240 296
#     4  10  18  28  47  74 101 128 162 204 246 286
#     4   9  18  33  52  73  98 130 166 203 246 295
#     4   9  17  31  53  77  99 126 162 202 241 287
#
# _framework density 17.547186
#
# number of rings (size 3 to 8) (size 9 to 14) (size 15 to 20)
#    0.000    2.800    0.000    2.700    0.000    6.000 
#    0.000    3.000    0.000    2.400    0.000    0.000 
#    0.000    0.000    0.000    0.000    0.000    0.000 
#
# Total GULP energy -495879.759066 kJ/mol
# GULP energy per Si atom -12396.993977 kJ/mol
# Density = 1.750725 g / cm^3
# Si number density = 17.547186 Si / 1000 Ang^3
#
#
#
# Elastic Constant Matrix: (Units=GPa)
#
#
# Indices 1 2 3 4 5 6 
#
# 1 74.8331 55.4372 43.1528 0.0000 0.0000 0.0000
# 2 55.4372 118.4686 66.5713 0.0000 0.0000 0.0000
# 3 43.1528 66.5713 81.9265 0.0000 0.0000 0.0000
# 4 0.0000 0.0000 0.0000 10.0699 0.0000 0.0000
# 5 0.0000 0.0000 0.0000 0.0000 28.6923 0.0000
# 6 0.0000 0.0000 0.0000 0.0000 0.0000 29.0875
#
#
#
# Elastic Compliance Matrix: (Units=1/GPa)
#
#
# Indices 1 2 3 4 5 6 
#
# 1 0.021903 -0.006932 -0.005904 0.000000 0.000000 0.000000
# 2 -0.006932 0.017728 -0.010754 0.000000 0.000000 0.000000
# 3 -0.005904 -0.010754 0.024055 0.000000 0.000000 0.000000
# 4 0.000000 0.000000 0.000000 0.099305 0.000000 0.000000
# 5 0.000000 0.000000 0.000000 0.000000 0.034853 0.000000
# 6 0.000000 0.000000 0.000000 0.000000 0.000000 0.034379
#
#
# Mechanical properties :
#
#
# Convention : Reuss Voigt Hill
#
# Bulk Modulus (GPa) = 60.58738 67.28342 63.93540
# Shear Modulus (GPa) = 17.54980 20.90776 19.22878
#
# Velocity S-wave (km/s) = 3.16594 3.45558 3.31393
# Velocity P-wave (km/s) = 6.92586 7.37217 7.15250
#
# Compressibility (1/GPa) = 0.01650509
#
# Stress axis : x y z
#
# Youngs Moduli (GPa) = 45.65629 56.40892 41.57226
#
# Poissons Ratio (x) = 0.39100 0.24546
# Poissons Ratio (y) = 0.31647 0.44707
# Poissons Ratio (z) = 0.26957 0.60662
#
# Static dielectric constant tensor:
#      x y z
#    x 3.153230 0.000000 0.000000 
#    y 0.000000 3.549900 0.000000 
#    z 0.000000 0.000000 3.034540 
# 
# 
# High freq. dielectric constant tensor:
#      x y z
#    x 1.675040 0.000000 0.000000 
#    y 0.000000 1.689380 0.000000 
#    z 0.000000 0.000000 1.647920 
# 
# From -- ./inp_files/31451.got.cif
#   From: 2010.03.12/outbox.cif.g09.slc.cpg/sg51_16_cif.got.tgz:31451.got - 2010.04.16 13:43:02.
