data_PCOD8206916
_publ_section_title
;
Structure prediction by ZEFSAII (Michael W. Deem and Ramdas Pophale) SiO2 
 PCOD8206916
Probable space group: P M M A
;
_chemical_formula_sum "Si O2"
_cell_formula_units_Z 40
_cell_length_a 19.914366
_cell_length_b 7.781224
_cell_length_c 14.223287
_cell_angle_alpha 90.000000
_cell_angle_beta 90.000000
_cell_angle_gamma 90.000000
_cell_volume 2204.014136
_symmetry_space_group_name_H-M "P M M A"
_symmetry_group_IT_number 51
_symmetry_cell_setting 'orthorhombic'
loop_
_space_group_symop_operation_xyz
x,y,z
1/2-x,-y,z
1/2+x,-y,-z
-x,y,-z
-x,-y,-z
1/2+x,y,-z
1/2-x,y,z
x,-y,z
loop_
_atom_site_type_symbol
_atom_site_label
_atom_site_fract_x
_atom_site_fract_y
_atom_site_fract_z
Si Si1 0.065047 0.694992 0.551988
Si Si2 0.090047 0.500000 0.086880
Si Si3 0.896806 0.196307 0.782032
Si Si4 0.567701 0.500000 0.120733
Si Si5 0.947826 0.190549 0.246993
Si Si6 0.326555 0.799523 0.409660
O O1 0.048326 0.500000 0.580669
O O2 0.080739 0.797200 0.647472
O O3 0.129555 0.698084 0.485162
O O4 0.000000 0.776580 0.500000
O O5 0.120393 0.327105 0.133436
O O6 0.010546 0.500000 0.098500
O O7 0.109227 0.500000 0.976652
O O8 0.849047 0.246002 0.695709
O O9 0.972696 0.223394 0.747559
O O10 0.884513 0.000000 0.816190
O O11 0.587430 0.670620 0.179165
O O12 0.931925 0.000000 0.207426
O O13 0.250000 0.740686 0.422089
O O14 0.336437 0.000000 0.428872
#
# Coordination Sequence:
#
# PCOD8206916 Si02
#       6
#     8   4   8   4   8   8
#     4  11  21  31  51  77 105 142 182 220 261 315
#     4   9  18  30  50  67 101 134 162 210 262 310
#     4   9  18  31  49  73 100 136 174 208 257 315
#     4   9  18  32  44  74 102 127 168 216 260 305
#     4  10  18  30  50  73 103 138 173 212 258 309
#     4  10  21  35  50  74 109 142 176 219 261 312
#
# _framework density 18.148703999999999
#
# number of rings (size 3 to 8) (size 9 to 14) (size 15 to 20)
#    0.000    2.200    3.000    0.600    1.400    2.000 
#    0.000    4.000    0.000    0.000    0.000    2.800 
#    0.000    3.200    0.000    0.000    0.000    0.000 
#
# Total GULP energy -496035.905754 kJ/mol
# GULP energy per Si atom -12400.897644 kJ/mol
# Density = 1.810740 g / cm^3
# Si number density = 18.148704 Si / 1000 Ang^3
#
#
#
# Elastic Constant Matrix: (Units=GPa)
#
#
# Indices 1 2 3 4 5 6 
#
# 1 60.9340 21.1781 35.1220 0.0000 0.0000 0.0000
# 2 21.1781 113.4949 65.3102 0.0000 0.0000 0.0000
# 3 35.1220 65.3102 138.1493 0.0000 0.0000 0.0000
# 4 0.0000 0.0000 0.0000 25.1097 0.0000 0.0000
# 5 0.0000 0.0000 0.0000 0.0000 16.5520 0.0000
# 6 0.0000 0.0000 0.0000 0.0000 0.0000 11.8196
#
#
#
# Elastic Compliance Matrix: (Units=1/GPa)
#
#
# Indices 1 2 3 4 5 6 
#
# 1 0.019323 -0.001070 -0.004407 0.000000 0.000000 0.000000
# 2 -0.001070 0.012163 -0.005478 0.000000 0.000000 0.000000
# 3 -0.004407 -0.005478 0.010949 0.000000 0.000000 0.000000
# 4 0.000000 0.000000 0.000000 0.039825 0.000000 0.000000
# 5 0.000000 0.000000 0.000000 0.000000 0.060416 0.000000
# 6 0.000000 0.000000 0.000000 0.000000 0.000000 0.084605
#
#
# Mechanical properties :
#
#
# Convention : Reuss Voigt Hill
#
# Bulk Modulus (GPa) = 48.72028 61.75542 55.23785
# Shear Modulus (GPa) = 19.52882 23.42745 21.47813
#
# Velocity S-wave (km/s) = 3.28387 3.59675 3.44387
# Velocity P-wave (km/s) = 6.42509 7.16590 6.80558
#
# Compressibility (1/GPa) = 0.02052533
#
# Stress axis : x y z
#
# Youngs Moduli (GPa) = 51.75160 82.21720 91.33555
#
# Poissons Ratio (x) = 0.08796 0.40250
# Poissons Ratio (y) = 0.05536 0.50034
# Poissons Ratio (z) = 0.22806 0.45039
#
# Static dielectric constant tensor:
#      x y z
#    x 2.906460 0.000000 0.000000 
#    y 0.000000 3.455310 0.000000 
#    z 0.000000 0.000000 3.366050 
# 
# 
# High freq. dielectric constant tensor:
#      x y z
#    x 1.647630 0.000000 0.000000 
#    y 0.000000 1.716590 0.000000 
#    z 0.000000 0.000000 1.696690 
# 
# From -- ./inp_files/17960.got.cif
#   From: 2010.03.12/outbox.cif.g09.slc.cpg/sg51_9_cif.got.tgz:17960.got - 2010.04.16 13:43:02.
