data_PCOD8206193
_publ_section_title
;
Structure prediction by ZEFSAII (Michael W. Deem and Ramdas Pophale) SiO2 
 PCOD8206193
Probable space group: P M M A
;
_chemical_formula_sum "Si O2"
_cell_formula_units_Z 64
_cell_length_a 14.940471
_cell_length_b 14.124773
_cell_length_c 18.401765
_cell_angle_alpha 90.000000
_cell_angle_beta 90.000000
_cell_angle_gamma 90.000000
_cell_volume 3883.338479
_symmetry_space_group_name_H-M "P M M A"
_symmetry_group_IT_number 51
_symmetry_cell_setting 'orthorhombic'
loop_
_space_group_symop_operation_xyz
x,y,z
1/2-x,-y,z
1/2+x,-y,-z
-x,y,-z
-x,-y,-z
1/2+x,y,-z
1/2-x,y,z
x,-y,z
loop_
_atom_site_type_symbol
_atom_site_label
_atom_site_fract_x
_atom_site_fract_y
_atom_site_fract_z
Si Si1 0.350301 0.112060 0.942350
Si Si2 0.521457 0.112554 0.183041
Si Si3 0.962855 0.213772 0.331316
Si Si4 0.649544 0.393180 0.349740
Si Si5 0.348701 0.112537 0.103682
Si Si6 0.400763 0.606277 0.488797
Si Si7 0.652935 0.773976 0.599477
Si Si8 0.902263 0.895117 0.468633
O O1 0.250000 0.143683 0.922060
O O2 0.416381 0.153131 0.881499
O O3 0.359136 0.000000 0.942460
O O4 0.375089 0.150247 0.023022
O O5 0.553986 0.158083 0.257444
O O6 0.420613 0.145962 0.163313
O O7 0.528302 0.000000 0.191169
O O8 0.925618 0.320501 0.320243
O O9 0.903973 0.164747 0.394202
O O10 0.069352 0.207333 0.347421
O O11 0.750000 0.367487 0.322027
O O12 0.623415 0.500000 0.324377
O O13 0.653335 0.390169 0.436822
O O14 0.250000 0.150301 0.126007
O O15 0.347327 0.000000 0.099897
O O16 0.500000 0.651470 0.500000
O O17 0.410290 0.500000 0.458376
O O18 0.350951 0.666011 0.427670
O O19 0.750000 0.788389 0.639007
O O20 0.655577 0.841649 0.528968
O O21 0.000000 0.906314 0.500000
O O22 0.862008 0.000000 0.453580
#
# Coordination Sequence:
#
# PCOD8206193 Si02
#       8
#     8   8   8   8   8   8   8   8
#     4   8  14  26  44  66  91 119 152 188 224 263
#     4  10  19  29  44  66  95 129 158 183 220 267
#     4  11  21  33  46  67  93 120 151 191 232 276
#     4  10  20  34  52  70  87 110 143 188 243 292
#     4   8  14  26  45  67  92 123 157 190 221 257
#     4  10  17  30  52  73  89 105 135 189 247 290
#     4  11  21  33  47  64  87 118 156 195 232 274
#     4   9  18  33  47  57  78 116 159 197 228 257
#
# _framework density 16.480664000000001
#
# number of rings (size 3 to 8) (size 9 to 14) (size 15 to 20)
#    0.000    2.375    2.500    2.250    0.000    4.000 
#    0.000    0.000    0.000    2.250    0.000    0.000 
#    0.000    2.000    0.000    2.750    0.000    0.250 
#
# Total GULP energy -793162.819788 kJ/mol
# GULP energy per Si atom -12393.169059 kJ/mol
# Density = 1.644315 g / cm^3
# Si number density = 16.480664 Si / 1000 Ang^3
#
#
#
# Elastic Constant Matrix: (Units=GPa)
#
#
# Indices 1 2 3 4 5 6 
#
# 1 79.7904 21.9542 18.0478 0.0000 0.0000 0.0000
# 2 21.9542 66.5578 18.7733 0.0000 0.0000 0.0000
# 3 18.0478 18.7733 55.8536 0.0000 0.0000 0.0000
# 4 0.0000 0.0000 0.0000 7.1988 0.0000 0.0000
# 5 0.0000 0.0000 0.0000 0.0000 14.9529 0.0000
# 6 0.0000 0.0000 0.0000 0.0000 0.0000 9.2703
#
#
#
# Elastic Compliance Matrix: (Units=1/GPa)
#
#
# Indices 1 2 3 4 5 6 
#
# 1 0.014333 -0.003780 -0.003361 0.000000 0.000000 0.000000
# 2 -0.003780 0.017595 -0.004693 0.000000 0.000000 0.000000
# 3 -0.003361 -0.004693 0.020567 0.000000 0.000000 0.000000
# 4 0.000000 0.000000 0.000000 0.138912 0.000000 0.000000
# 5 0.000000 0.000000 0.000000 0.000000 0.066877 0.000000
# 6 0.000000 0.000000 0.000000 0.000000 0.000000 0.107871
#
#
# Mechanical properties :
#
#
# Convention : Reuss Voigt Hill
#
# Bulk Modulus (GPa) = 34.68788 35.52807 35.10797
# Shear Modulus (GPa) = 12.51781 15.84618 14.18199
#
# Velocity S-wave (km/s) = 2.75897 3.10417 2.93665
# Velocity P-wave (km/s) = 5.58951 5.86959 5.73126
#
# Compressibility (1/GPa) = 0.02882851
#
# Stress axis : x y z
#
# Youngs Moduli (GPa) = 69.76883 56.83470 48.62109
#
# Poissons Ratio (x) = 0.21482 0.16341
# Poissons Ratio (y) = 0.26371 0.22816
# Poissons Ratio (z) = 0.23449 0.26670
#
# Static dielectric constant tensor:
#      x y z
#    x 3.351420 0.000000 0.000000 
#    y 0.000000 2.979650 0.000000 
#    z 0.000000 0.000000 2.901340 
# 
# 
# High freq. dielectric constant tensor:
#      x y z
#    x 1.646230 0.000000 0.000000 
#    y 0.000000 1.599020 0.000000 
#    z 0.000000 0.000000 1.599170 
# 
# From -- ./inp_files/29961.got.cif
#   From: 2010.03.12/outbox.cif.g09.slc.cpg/sg51_15_cif.got.tgz:29961.got - 2010.04.16 13:43:02.
