data_PCOD8206691
_publ_section_title
;
Structure prediction by ZEFSAII (Michael W. Deem and Ramdas Pophale) SiO2 
 PCOD8206691
Probable space group: P M M A
;
_chemical_formula_sum "Si O2"
_cell_formula_units_Z 64
_cell_length_a 9.006799
_cell_length_b 19.873654
_cell_length_c 19.670071
_cell_angle_alpha 90.000000
_cell_angle_beta 90.000000
_cell_angle_gamma 90.000000
_cell_volume 3520.903506
_symmetry_space_group_name_H-M "P M M A"
_symmetry_group_IT_number 51
_symmetry_cell_setting 'orthorhombic'
loop_
_space_group_symop_operation_xyz
x,y,z
1/2-x,-y,z
1/2+x,-y,-z
-x,y,-z
-x,-y,-z
1/2+x,y,-z
1/2-x,y,z
x,-y,z
loop_
_atom_site_type_symbol
_atom_site_label
_atom_site_fract_x
_atom_site_fract_y
_atom_site_fract_z
Si Si1 0.578236 0.078666 0.430611
Si Si2 0.424764 0.691149 0.428372
Si Si3 0.916437 0.382717 0.933709
Si Si4 0.925155 0.818174 0.663294
Si Si5 0.418493 0.777666 0.066662
Si Si6 0.578458 0.576903 0.346713
Si Si7 0.921983 0.778295 0.201847
Si Si8 0.079888 0.380092 0.799945
O O1 0.500000 0.101280 0.500000
O O2 0.750000 0.099105 0.435547
O O3 0.500198 0.116845 0.369358
O O4 0.557092 0.000000 0.416976
O O5 0.500000 0.706329 0.500000
O O6 0.250000 0.685633 0.439225
O O7 0.469003 0.751304 0.377994
O O8 0.482313 0.621222 0.397811
O O9 0.750000 0.410472 0.936080
O O10 0.920797 0.302558 0.934660
O O11 0.990267 0.409276 0.864149
O O12 0.000000 0.411534 0.000000
O O13 0.750000 0.828595 0.665840
O O14 0.988339 0.814084 0.738717
O O15 0.250000 0.804561 0.068932
O O16 0.508691 0.804684 0.131481
O O17 0.500000 0.806444 0.000000
O O18 0.750000 0.599929 0.351202
O O19 0.558305 0.500000 0.369467
O O20 0.521977 0.585228 0.269135
O O21 0.750000 0.798809 0.205079
O O22 0.944085 0.698945 0.208719
O O23 0.250000 0.398379 0.813746
#
# Coordination Sequence:
#
# PCOD8206691 Si02
#       8
#     8   8   8   8   8   8   8   8
#     4  10  21  37  57  81 110 145 182 218 258 307
#     4  11  24  39  57  79 104 132 168 211 260 313
#     4   9  16  25  41  65  93 125 160 202 248 300
#     4  11  22  35  54  81 110 142 177 217 260 308
#     4   9  16  26  40  63  97 134 172 212 256 310
#     4  10  21  38  58  77  98 128 167 212 264 320
#     4  10  18  29  48  72 101 137 172 214 264 311
#     4   9  17  30  48  70  96 127 162 205 256 310
#
# _framework density 18.177152
#
# number of rings (size 3 to 8) (size 9 to 14) (size 15 to 20)
#    0.000    2.125    1.250    2.625    0.000    7.750 
#    0.000    0.000    0.000    0.375    0.000    0.000 
#    0.000    0.500    0.000    1.875    0.000    2.875 
#
# Total GULP energy -793794.796984 kJ/mol
# GULP energy per Si atom -12403.043703 kJ/mol
# Density = 1.813578 g / cm^3
# Si number density = 18.177152 Si / 1000 Ang^3
#
#
#
# Elastic Constant Matrix: (Units=GPa)
#
#
# Indices 1 2 3 4 5 6 
#
# 1 118.4871 33.2275 65.5625 0.0000 0.0000 0.0000
# 2 33.2275 39.3591 34.3133 0.0000 0.0000 0.0000
# 3 65.5625 34.3133 138.2268 0.0000 0.0000 0.0000
# 4 0.0000 0.0000 0.0000 14.1340 0.0000 0.0000
# 5 0.0000 0.0000 0.0000 0.0000 41.3254 0.0000
# 6 0.0000 0.0000 0.0000 0.0000 0.0000 19.0499
#
#
#
# Elastic Compliance Matrix: (Units=1/GPa)
#
#
# Indices 1 2 3 4 5 6 
#
# 1 0.012809 -0.007041 -0.004328 0.000000 0.000000 0.000000
# 2 -0.007041 0.036294 -0.005670 0.000000 0.000000 0.000000
# 3 -0.004328 -0.005670 0.010695 0.000000 0.000000 0.000000
# 4 0.000000 0.000000 0.000000 0.070751 0.000000 0.000000
# 5 0.000000 0.000000 0.000000 0.000000 0.024198 0.000000
# 6 0.000000 0.000000 0.000000 0.000000 0.000000 0.052494
#
#
# Mechanical properties :
#
#
# Convention : Reuss Voigt Hill
#
# Bulk Modulus (GPa) = 38.87898 62.47553 50.67726
# Shear Modulus (GPa) = 20.00873 25.76650 22.88762
#
# Velocity S-wave (km/s) = 3.32137 3.76908 3.55229
# Velocity P-wave (km/s) = 6.01199 7.30659 6.69068
#
# Compressibility (1/GPa) = 0.02572084
#
# Stress axis : x y z
#
# Youngs Moduli (GPa) = 78.07193 27.55272 93.50442
#
# Poissons Ratio (x) = 0.19398 0.40465
# Poissons Ratio (y) = 0.54967 0.53019
# Poissons Ratio (z) = 0.33786 0.15623
#
# Static dielectric constant tensor:
#      x y z
#    x 3.485290 0.000000 0.000000 
#    y 0.000000 2.927170 0.000000 
#    z 0.000000 0.000000 3.448060 
# 
# 
# High freq. dielectric constant tensor:
#      x y z
#    x 1.716840 0.000000 0.000000 
#    y 0.000000 1.655360 0.000000 
#    z 0.000000 0.000000 1.716640 
# 
# From -- ./inp_files/28324.got.cif
#   From: 2010.03.12/outbox.cif.g09.slc.cpg/sg51_15_cif.got.tgz:28324.got - 2010.04.16 13:43:02.
