data_PCOD8206931
_publ_section_title
;
Structure prediction by ZEFSAII (Michael W. Deem and Ramdas Pophale) SiO2 
 PCOD8206931
Probable space group: P M M A
;
_chemical_formula_sum "Si O2"
_cell_formula_units_Z 48
_cell_length_a 15.099078
_cell_length_b 9.319913
_cell_length_c 19.142392
_cell_angle_alpha 90.000000
_cell_angle_beta 90.000000
_cell_angle_gamma 90.000000
_cell_volume 2693.757474
_symmetry_space_group_name_H-M "P M M A"
_symmetry_group_IT_number 51
_symmetry_cell_setting 'orthorhombic'
loop_
_space_group_symop_operation_xyz
x,y,z
1/2-x,-y,z
1/2+x,-y,-z
-x,y,-z
-x,-y,-z
1/2+x,y,-z
1/2-x,y,z
x,-y,z
loop_
_atom_site_type_symbol
_atom_site_label
_atom_site_fract_x
_atom_site_fract_y
_atom_site_fract_z
Si Si1 0.850214 0.835095 0.180440
Si Si2 0.250000 0.329884 0.576954
Si Si3 0.250000 0.671597 0.420838
Si Si4 0.492477 0.168150 0.079583
Si Si5 0.600760 0.330202 0.318882
Si Si6 0.098390 0.669773 0.320610
Si Si7 0.647754 0.333335 0.832126
O O1 0.750000 0.810241 0.153492
O O2 0.867520 0.738881 0.247452
O O3 0.916741 0.789151 0.118844
O O4 0.865565 0.000000 0.201869
O O5 0.250000 0.500000 0.572120
O O6 0.250000 0.263963 0.499107
O O7 0.337193 0.276768 0.617956
O O8 0.250000 0.500000 0.423150
O O9 0.163212 0.730541 0.380530
O O10 0.409131 0.248400 0.111920
O O11 0.473582 0.000000 0.084715
O O12 0.500000 0.219196 0.000000
O O13 0.607209 0.500000 0.308379
O O14 0.501360 0.281403 0.337805
O O15 0.107820 0.500000 0.319217
O O16 0.127111 0.729164 0.244955
O O17 0.750000 0.308712 0.850228
O O18 0.621652 0.500000 0.835888
#
# Coordination Sequence:
#
# PCOD8206931 Si02
#       7
#     8   4   4   8   8   8   8
#     4  10  20  34  53  76 100 133 174 212 255 313
#     4   9  18  28  43  73 108 133 166 214 259 305
#     4   9  16  28  44  71 110 139 162 206 263 309
#     4  10  22  38  55  78 107 137 171 216 267 313
#     4  10  18  30  50  76 101 130 170 214 255 300
#     4   9  16  27  47  72 101 136 168 204 253 303
#     4  10  19  33  55  81 106 138 178 215 256 311
#
# _framework density 17.818974999999998
#
# number of rings (size 3 to 8) (size 9 to 14) (size 15 to 20)
#    0.000    2.333    3.333    0.000    0.000    2.000 
#    0.000    5.000    0.000    0.000    0.000    5.833 
#    0.000    0.000    0.000    0.000    0.000    0.000 
#
# Total GULP energy -595185.402912 kJ/mol
# GULP energy per Si atom -12399.695894 kJ/mol
# Density = 1.777842 g / cm^3
# Si number density = 17.818975 Si / 1000 Ang^3
#
#
#
# Elastic Constant Matrix: (Units=GPa)
#
#
# Indices 1 2 3 4 5 6 
#
# 1 155.1292 30.8922 87.8101 0.0000 0.0000 0.0000
# 2 30.8922 23.6823 33.0758 0.0000 0.0000 0.0000
# 3 87.8101 33.0758 171.2475 0.0000 0.0000 0.0000
# 4 0.0000 0.0000 0.0000 12.2035 0.0000 0.0000
# 5 0.0000 0.0000 0.0000 0.0000 35.9627 0.0000
# 6 0.0000 0.0000 0.0000 0.0000 0.0000 19.1736
#
#
#
# Elastic Compliance Matrix: (Units=1/GPa)
#
#
# Indices 1 2 3 4 5 6 
#
# 1 0.010113 -0.008147 -0.003612 0.000000 0.000000 0.000000
# 2 -0.008147 0.064388 -0.008259 0.000000 0.000000 0.000000
# 3 -0.003612 -0.008259 0.009287 0.000000 0.000000 0.000000
# 4 0.000000 0.000000 0.000000 0.081944 0.000000 0.000000
# 5 0.000000 0.000000 0.000000 0.000000 0.027807 0.000000
# 6 0.000000 0.000000 0.000000 0.000000 0.000000 0.052155
#
#
# Mechanical properties :
#
#
# Convention : Reuss Voigt Hill
#
# Bulk Modulus (GPa) = 22.85624 72.62391 47.74008
# Shear Modulus (GPa) = 16.64928 26.68668 21.66798
#
# Velocity S-wave (km/s) = 3.06004 3.87415 3.49091
# Velocity P-wave (km/s) = 5.03387 7.80109 6.56494
#
# Compressibility (1/GPa) = 0.04375172
#
# Stress axis : x y z
#
# Youngs Moduli (GPa) = 98.87932 15.53091 107.67971
#
# Poissons Ratio (x) = 0.12654 0.38896
# Poissons Ratio (y) = 0.80561 0.88928
# Poissons Ratio (z) = 0.35717 0.12826
#
# Static dielectric constant tensor:
#      x y z
#    x 3.688890 0.000000 0.000000 
#    y 0.000000 2.922550 0.000000 
#    z 0.000000 0.000000 3.435210 
# 
# 
# High freq. dielectric constant tensor:
#      x y z
#    x 1.708780 0.000000 0.000000 
#    y 0.000000 1.644800 0.000000 
#    z 0.000000 0.000000 1.689190 
# 
# From -- ./inp_files/29556.got.cif
#   From: 2010.03.12/outbox.cif.g09.slc.cpg/sg51_15_cif.got.tgz:29556.got - 2010.04.16 13:43:02.
