data_PCOD8206695
_publ_section_title
;
Structure prediction by ZEFSAII (Michael W. Deem and Ramdas Pophale) SiO2 
 PCOD8206695
Probable space group: P M M A
;
_chemical_formula_sum "Si O2"
_cell_formula_units_Z 40
_cell_length_a 24.559562
_cell_length_b 9.075388
_cell_length_c 10.397706
_cell_angle_alpha 90.000000
_cell_angle_beta 90.000000
_cell_angle_gamma 90.000000
_cell_volume 2317.519260
_symmetry_space_group_name_H-M "P M M A"
_symmetry_group_IT_number 51
_symmetry_cell_setting 'orthorhombic'
loop_
_space_group_symop_operation_xyz
x,y,z
1/2-x,-y,z
1/2+x,-y,-z
-x,y,-z
-x,-y,-z
1/2+x,y,-z
1/2-x,y,z
x,-y,z
loop_
_atom_site_type_symbol
_atom_site_label
_atom_site_fract_x
_atom_site_fract_y
_atom_site_fract_z
Si Si1 0.020635 0.672816 0.635890
Si Si2 0.750000 0.664323 0.974897
Si Si3 0.750000 0.338669 0.281434
Si Si4 0.134536 0.324998 0.743756
Si Si5 0.643836 0.169259 0.991360
Si Si6 0.469683 0.168370 0.125853
O O1 0.010499 0.500000 0.643362
O O2 0.084786 0.710788 0.648875
O O3 0.000000 0.737044 0.500000
O O4 0.985688 0.742124 0.748937
O O5 0.750000 0.500000 0.914900
O O6 0.803902 0.750639 0.929008
O O7 0.750000 0.655575 0.127690
O O8 0.750000 0.500000 0.344161
O O9 0.808109 0.263713 0.319487
O O10 0.140308 0.500000 0.770680
O O11 0.123228 0.245017 0.877882
O O12 0.595225 0.181622 0.889087
O O13 0.658638 0.000000 0.021103
O O14 0.488422 0.000000 0.144960
O O15 0.500000 0.233583 0.000000
#
# Coordination Sequence:
#
# PCOD8206695 Si02
#       6
#     8   4   4   8   8   8
#     4  10  21  34  49  72 102 136 175 216 258 309
#     4   9  17  29  45  70 103 132 162 200 252 308
#     4   7  12  23  41  64  87 116 154 196 242 294
#     4   9  16  28  46  68  96 128 163 207 259 305
#     4  10  18  29  48  73 101 129 166 211 252 297
#     4  10  20  34  51  74 102 133 170 211 254 304
#
# _framework density 17.259836
#
# number of rings (size 3 to 8) (size 9 to 14) (size 15 to 20)
#    0.000    2.600    2.000    2.100    0.000    2.400 
#    0.000    0.000    0.000    1.200    0.000    2.800 
#    0.000    0.000    0.000    0.000    0.000    0.000 
#
# Total GULP energy -495722.820282 kJ/mol
# GULP energy per Si atom -12393.070507 kJ/mol
# Density = 1.722055 g / cm^3
# Si number density = 17.259836 Si / 1000 Ang^3
#
#
#
# Elastic Constant Matrix: (Units=GPa)
#
#
# Indices 1 2 3 4 5 6 
#
# 1 147.3492 45.1405 55.7631 0.0000 0.0000 0.0000
# 2 45.1405 61.8921 29.6157 0.0000 0.0000 0.0000
# 3 55.7631 29.6157 90.1908 0.0000 0.0000 0.0000
# 4 0.0000 0.0000 0.0000 14.5021 0.0000 0.0000
# 5 0.0000 0.0000 0.0000 0.0000 17.8375 0.0000
# 6 0.0000 0.0000 0.0000 0.0000 0.0000 26.0751
#
#
#
# Elastic Compliance Matrix: (Units=1/GPa)
#
#
# Indices 1 2 3 4 5 6 
#
# 1 0.010094 -0.005191 -0.004536 0.000000 0.000000 0.000000
# 2 -0.005191 0.021839 -0.003962 0.000000 0.000000 0.000000
# 3 -0.004536 -0.003962 0.015193 0.000000 0.000000 0.000000
# 4 0.000000 0.000000 0.000000 0.068956 0.000000 0.000000
# 5 0.000000 0.000000 0.000000 0.000000 0.056062 0.000000
# 6 0.000000 0.000000 0.000000 0.000000 0.000000 0.038351
#
#
# Mechanical properties :
#
#
# Convention : Reuss Voigt Hill
#
# Bulk Modulus (GPa) = 50.63827 62.27450 56.45639
# Shear Modulus (GPa) = 20.45378 22.94379 21.69879
#
# Velocity S-wave (km/s) = 3.44619 3.64994 3.54953
# Velocity P-wave (km/s) = 6.72588 7.34313 7.04127
#
# Compressibility (1/GPa) = 0.01974791
#
# Stress axis : x y z
#
# Youngs Moduli (GPa) = 99.07347 45.78991 65.81981
#
# Poissons Ratio (x) = 0.23770 0.29856
# Poissons Ratio (y) = 0.51430 0.26075
# Poissons Ratio (z) = 0.44940 0.18140
#
# Static dielectric constant tensor:
#      x y z
#    x 3.744460 0.000000 0.000000 
#    y 0.000000 3.187750 0.000000 
#    z 0.000000 0.000000 2.795990 
# 
# 
# High freq. dielectric constant tensor:
#      x y z
#    x 1.693560 0.000000 0.000000 
#    y 0.000000 1.657730 0.000000 
#    z 0.000000 0.000000 1.607990 
# 
# From -- ./inp_files/12135.got.cif
#   From: 2010.03.12/outbox.cif.g09.slc.cpg/sg51_7_cif.got.tgz:12135.got - 2010.04.16 13:43:02.
