data_PCOD8206643
_publ_section_title
;
Structure prediction by ZEFSAII (Michael W. Deem and Ramdas Pophale) SiO2 
 PCOD8206643
Probable space group: P M M A
;
_chemical_formula_sum "Si O2"
_cell_formula_units_Z 44
_cell_length_a 8.955682
_cell_length_b 21.522557
_cell_length_c 13.454512
_cell_angle_alpha 90.000000
_cell_angle_beta 90.000000
_cell_angle_gamma 90.000000
_cell_volume 2593.346106
_symmetry_space_group_name_H-M "P M M A"
_symmetry_group_IT_number 51
_symmetry_cell_setting 'orthorhombic'
loop_
_space_group_symop_operation_xyz
x,y,z
1/2-x,-y,z
1/2+x,-y,-z
-x,y,-z
-x,-y,-z
1/2+x,y,-z
1/2-x,y,z
x,-y,z
loop_
_atom_site_type_symbol
_atom_site_label
_atom_site_fract_x
_atom_site_fract_y
_atom_site_fract_z
Si Si1 0.575791 0.181642 0.900094
Si Si2 0.426315 0.634817 0.608431
Si Si3 0.423502 0.929255 0.799615
Si Si4 0.424632 0.138487 0.599018
Si Si5 0.574135 0.251035 0.700569
Si Si6 0.920637 0.500000 0.397256
O O1 0.750000 0.176507 0.918204
O O2 0.516212 0.112950 0.875111
O O3 0.535873 0.229404 0.812227
O O4 0.500000 0.207238 0.000000
O O5 0.500000 0.642051 0.500000
O O6 0.250000 0.648348 0.599457
O O7 0.502380 0.681556 0.685695
O O8 0.458336 0.565757 0.656344
O O9 0.250000 0.919935 0.823909
O O10 0.457524 0.910431 0.686181
O O11 0.474548 0.000000 0.814945
O O12 0.500000 0.110804 0.500000
O O13 0.250000 0.148989 0.582116
O O14 0.500136 0.204485 0.622072
O O15 0.750000 0.252918 0.681127
O O16 0.750000 0.500000 0.426381
O O17 0.000000 0.500000 0.500000
#
# Coordination Sequence:
#
# PCOD8206643 Si02
#       6
#     8   8   8   8   8   4
#     4  10  21  36  54  73  93 117 148 190 238 285
#     4  10  18  29  46  69  99 133 164 194 227 265
#     4   9  19  35  52  70  93 121 154 190 229 277
#     4  10  19  31  47  67  93 125 158 192 230 271
#     4  10  20  33  48  69  94 121 156 194 232 276
#     4   8  16  28  42  64  95 130 165 194 223 262
#
# _framework density 16.966498000000001
#
# number of rings (size 3 to 8) (size 9 to 14) (size 15 to 20)
#    0.000    2.364    0.000    2.727    0.000    4.727 
#    0.000    0.000    0.000    0.000    0.000    0.636 
#    0.000    0.000    0.000    0.000    0.000    0.000 
#
# Total GULP energy -545496.605910 kJ/mol
# GULP energy per Si atom -12397.650134 kJ/mol
# Density = 1.692788 g / cm^3
# Si number density = 16.966498 Si / 1000 Ang^3
#
#
#
# Elastic Constant Matrix: (Units=GPa)
#
#
# Indices 1 2 3 4 5 6 
#
# 1 84.5931 46.6680 42.2006 0.0000 0.0000 0.0000
# 2 46.6680 120.1394 35.7526 0.0000 0.0000 0.0000
# 3 42.2006 35.7526 83.5283 0.0000 0.0000 0.0000
# 4 0.0000 0.0000 0.0000 14.2170 0.0000 0.0000
# 5 0.0000 0.0000 0.0000 0.0000 30.0967 0.0000
# 6 0.0000 0.0000 0.0000 0.0000 0.0000 25.0530
#
#
#
# Elastic Compliance Matrix: (Units=1/GPa)
#
#
# Indices 1 2 3 4 5 6 
#
# 1 0.018029 -0.004919 -0.007003 0.000000 0.000000 0.000000
# 2 -0.004919 0.010881 -0.002172 0.000000 0.000000 0.000000
# 3 -0.007003 -0.002172 0.016440 0.000000 0.000000 0.000000
# 4 0.000000 0.000000 0.000000 0.070338 0.000000 0.000000
# 5 0.000000 0.000000 0.000000 0.000000 0.033226 0.000000
# 6 0.000000 0.000000 0.000000 0.000000 0.000000 0.039915
#
#
# Mechanical properties :
#
#
# Convention : Reuss Voigt Hill
#
# Bulk Modulus (GPa) = 58.27199 59.72259 58.99729
# Shear Modulus (GPa) = 22.44794 24.78265 23.61530
#
# Velocity S-wave (km/s) = 3.64135 3.82603 3.73484
# Velocity P-wave (km/s) = 7.21798 7.40235 7.31074
#
# Compressibility (1/GPa) = 0.01716090
#
# Stress axis : x y z
#
# Youngs Moduli (GPa) = 55.46742 91.90410 60.82814
#
# Poissons Ratio (x) = 0.45209 0.42598
# Poissons Ratio (y) = 0.27285 0.13212
# Poissons Ratio (z) = 0.38844 0.19962
#
# Static dielectric constant tensor:
#      x y z
#    x 3.271160 0.000000 0.000000 
#    y 0.000000 3.703610 0.000000 
#    z 0.000000 0.000000 3.014740 
# 
# 
# High freq. dielectric constant tensor:
#      x y z
#    x 1.670390 0.000000 0.000000 
#    y 0.000000 1.651830 0.000000 
#    z 0.000000 0.000000 1.629480 
# 
# From -- ./inp_files/21372.got.cif
#   From: 2010.03.12/outbox.cif.g09.slc.cpg/sg51_11_cif.got.tgz:21372.got - 2010.04.16 13:43:02.
