data_PCOD8206960
_publ_section_title
;
Structure prediction by ZEFSAII (Michael W. Deem and Ramdas Pophale) SiO2 
 PCOD8206960
Probable space group: P M M A
;
_chemical_formula_sum "Si O2"
_cell_formula_units_Z 28
_cell_length_a 8.740092
_cell_length_b 18.060485
_cell_length_c 9.431218
_cell_angle_alpha 90.000000
_cell_angle_beta 90.000000
_cell_angle_gamma 90.000000
_cell_volume 1488.720595
_symmetry_space_group_name_H-M "P M M A"
_symmetry_group_IT_number 51
_symmetry_cell_setting 'orthorhombic'
loop_
_space_group_symop_operation_xyz
x,y,z
1/2-x,-y,z
1/2+x,-y,-z
-x,y,-z
-x,-y,-z
1/2+x,y,-z
1/2-x,y,z
x,-y,z
loop_
_atom_site_type_symbol
_atom_site_label
_atom_site_fract_x
_atom_site_fract_y
_atom_site_fract_z
Si Si1 0.567634 0.500000 0.156890
Si Si2 0.069842 0.213331 0.346317
Si Si3 0.431498 0.648970 0.155169
Si Si4 0.069323 0.916658 0.148992
O O1 0.750000 0.500000 0.157705
O O2 0.502813 0.574984 0.228559
O O3 0.500000 0.500000 0.000000
O O4 0.250000 0.210892 0.361975
O O5 0.017982 0.283257 0.253551
O O6 0.009195 0.138485 0.270795
O O7 0.000000 0.219944 0.500000
O O8 0.250000 0.640617 0.142550
O O9 0.500000 0.662973 0.000000
O O10 0.250000 0.911411 0.133682
O O11 0.016250 0.000000 0.188170
O O12 0.000000 0.891052 0.000000
#
# Coordination Sequence:
#
# PCOD8206960 Si02
#       4
#     4   8   8   8
#     4  10  18  30  51  78 103 130 166 208 256 304
#     4  10  22  36  51  74 105 139 173 210 252 301
#     4  10  19  33  53  77 103 132 169 212 256 301
#     4   9  18  34  55  79 105 133 169 212 255 300
#
# _framework density 18.808095999999999
#
# number of rings (size 3 to 8) (size 9 to 14) (size 15 to 20)
#    0.000    2.286    0.000    4.714    0.000    4.000 
#    0.000    0.714    0.000    0.000    0.000    0.000 
#    0.000    0.000    0.000    0.000    0.000    0.000 
#
# Total GULP energy -347156.542223 kJ/mol
# GULP energy per Si atom -12398.447937 kJ/mol
# Density = 1.876529 g / cm^3
# Si number density = 18.808096 Si / 1000 Ang^3
#
#
#
# Elastic Constant Matrix: (Units=GPa)
#
#
# Indices 1 2 3 4 5 6 
#
# 1 61.1799 49.2001 36.9774 0.0000 0.0000 0.0000
# 2 49.2001 177.0571 94.1258 0.0000 0.0000 0.0000
# 3 36.9774 94.1258 125.8938 0.0000 0.0000 0.0000
# 4 0.0000 0.0000 0.0000 -119.7170 0.0000 0.0000
# 5 0.0000 0.0000 0.0000 0.0000 31.0993 0.0000
# 6 0.0000 0.0000 0.0000 0.0000 0.0000 23.7814
#
#
#
# Elastic Compliance Matrix: (Units=1/GPa)
#
#
# Indices 1 2 3 4 5 6 
#
# 1 0.021756 -0.004395 -0.003104 0.000000 0.000000 0.000000
# 2 -0.004395 0.010262 -0.006381 0.000000 0.000000 0.000000
# 3 -0.003104 -0.006381 0.013626 0.000000 0.000000 0.000000
# 4 0.000000 0.000000 0.000000 -0.008353 0.000000 0.000000
# 5 0.000000 0.000000 0.000000 0.000000 0.032155 0.000000
# 6 0.000000 0.000000 0.000000 0.000000 0.000000 0.042050
#
#
# Mechanical properties :
#
#
# Convention : Reuss Voigt Hill
#
# Bulk Modulus (GPa) = 55.92070 80.52638 68.22354
# Shear Modulus (GPa) = 34.43127 -0.71211 16.85958
#
# Velocity S-wave (km/s) = 4.28327 -0.61599 2.99724
# Velocity P-wave (km/s) = 7.36604 6.51166 6.95199
#
# Compressibility (1/GPa) = 0.01788246
#
# Stress axis : x y z
#
# Youngs Moduli (GPa) = 45.96439 97.45073 73.39018
#
# Poissons Ratio (x) = 0.42834 0.22779
# Poissons Ratio (y) = 0.20203 0.46831
# Poissons Ratio (z) = 0.14267 0.62185
#
# Static dielectric constant tensor:
#      x y z
#    x 3.381090 0.000000 0.000000 
#    y 0.000000 4.248940 0.000000 
#    z 0.000000 0.000000 3.036260 
# 
# 
# High freq. dielectric constant tensor:
#      x y z
#    x 1.730020 0.000000 0.000000 
#    y 0.000000 1.755940 0.000000 
#    z 0.000000 0.000000 1.702450 
# 
# From -- ./inp_files/4648.got.cif
#   From: 2010.03.12/outbox.cif.g09.slc.cpg/sg51_3_cif.got.tgz:4648.got - 2010.04.16 13:43:02.
