data_PCOD8206759
_publ_section_title
;
Structure prediction by ZEFSAII (Michael W. Deem and Ramdas Pophale) SiO2 
 PCOD8206759
Probable space group: P M M A
;
_chemical_formula_sum "Si O2"
_cell_formula_units_Z 40
_cell_length_a 9.755999
_cell_length_b 10.315494
_cell_length_c 24.536317
_cell_angle_alpha 90.000000
_cell_angle_beta 90.000000
_cell_angle_gamma 90.000000
_cell_volume 2469.284623
_symmetry_space_group_name_H-M "P M M A"
_symmetry_group_IT_number 51
_symmetry_cell_setting 'orthorhombic'
loop_
_space_group_symop_operation_xyz
x,y,z
1/2-x,-y,z
1/2+x,-y,-z
-x,y,-z
-x,-y,-z
1/2+x,y,-z
1/2-x,y,z
x,-y,z
loop_
_atom_site_type_symbol
_atom_site_label
_atom_site_fract_x
_atom_site_fract_y
_atom_site_fract_z
Si Si1 0.414249 0.000000 0.444250
Si Si2 0.096348 0.346004 0.832722
Si Si3 0.088358 0.253105 0.379180
Si Si4 0.412942 0.500000 0.446326
Si Si5 0.596251 0.345719 0.046750
Si Si6 0.590998 0.652629 0.735479
O O1 0.500000 0.000000 0.500000
O O2 0.462005 0.877464 0.408371
O O3 0.250000 0.000000 0.456299
O O4 0.250000 0.295694 0.820212
O O5 0.094822 0.500000 0.831658
O O6 0.049228 0.298527 0.892961
O O7 0.992634 0.292661 0.787186
O O8 0.250000 0.256192 0.376491
O O9 0.036989 0.374645 0.413679
O O10 0.035334 0.267942 0.317076
O O11 0.250000 0.500000 0.458141
O O12 0.500000 0.500000 0.500000
O O13 0.750000 0.297445 0.035188
O O14 0.590065 0.500000 0.044473
O O15 0.500000 0.284330 0.000000
O O16 0.750000 0.680377 0.747003
O O17 0.566698 0.500000 0.725041
#
# Coordination Sequence:
#
# PCOD8206759 Si02
#       6
#     4   8   8   4   8   8
#     4  10  20  34  50  66  86 112 139 168 207 254
#     4   8  14  23  33  49  75 103 130 168 213 245
#     4   9  17  30  47  64  84 110 137 169 208 247
#     4  10  18  30  46  64  86 108 133 168 205 242
#     4   8  13  20  29  42  65  98 134 168 201 237
#     4   9  15  25  41  58  75 100 135 169 201 242
#
# _framework density 16.199023
#
# number of rings (size 3 to 8) (size 9 to 14) (size 15 to 20)
#    0.000    3.200    1.000    1.800    0.000    0.800 
#    0.000    6.000    0.000    0.000    0.000    0.000 
#    0.000    0.000    0.000    0.900    0.000    9.800 
#
# Total GULP energy -495670.889509 kJ/mol
# GULP energy per Si atom -12391.772238 kJ/mol
# Density = 1.616215 g / cm^3
# Si number density = 16.199023 Si / 1000 Ang^3
#
#
#
# Elastic Constant Matrix: (Units=GPa)
#
#
# Indices 1 2 3 4 5 6 
#
# 1 66.6525 22.3075 80.9005 0.0000 0.0000 0.0000
# 2 22.3075 64.8828 46.8299 0.0000 0.0000 0.0000
# 3 80.9005 46.8299 189.1107 0.0000 0.0000 0.0000
# 4 0.0000 0.0000 0.0000 8.8978 0.0000 0.0000
# 5 0.0000 0.0000 0.0000 0.0000 36.3651 0.0000
# 6 0.0000 0.0000 0.0000 0.0000 0.0000 4.0582
#
#
#
# Elastic Compliance Matrix: (Units=1/GPa)
#
#
# Indices 1 2 3 4 5 6 
#
# 1 0.031302 -0.001336 -0.013060 0.000000 0.000000 0.000000
# 2 -0.001336 0.018824 -0.004090 0.000000 0.000000 0.000000
# 3 -0.013060 -0.004090 0.011888 0.000000 0.000000 0.000000
# 4 0.000000 0.000000 0.000000 0.112387 0.000000 0.000000
# 5 0.000000 0.000000 0.000000 0.000000 0.027499 0.000000
# 6 0.000000 0.000000 0.000000 0.000000 0.000000 0.246414
#
#
# Mechanical properties :
#
#
# Convention : Reuss Voigt Hill
#
# Bulk Modulus (GPa) = 39.93298 68.96910 54.45104
# Shear Modulus (GPa) = 10.12899 21.23809 15.68354
#
# Velocity S-wave (km/s) = 2.50328 3.62480 3.11493
# Velocity P-wave (km/s) = 5.74980 7.75806 6.82816
#
# Compressibility (1/GPa) = 0.02504196
#
# Stress axis : x y z
#
# Youngs Moduli (GPa) = 31.94659 53.12485 84.12007
#
# Poissons Ratio (x) = 0.07096 1.09862
# Poissons Ratio (y) = 0.04267 0.34404
# Poissons Ratio (z) = 0.41723 0.21728
#
# Static dielectric constant tensor:
#      x y z
#    x 3.085300 0.000000 0.000000 
#    y 0.000000 2.488450 0.000000 
#    z 0.000000 0.000000 3.484350 
# 
# 
# High freq. dielectric constant tensor:
#      x y z
#    x 1.604120 0.000000 0.000000 
#    y 0.000000 1.565060 0.000000 
#    z 0.000000 0.000000 1.641240 
# 
# From -- ./inp_files/32859.got.cif
#   From: 2010.03.12/outbox.cif.g09.slc.cpg/sg51_17_cif.got.tgz:32859.got - 2010.04.16 13:43:02.
