data_PCOD8206945
_publ_section_title
;
Structure prediction by ZEFSAII (Michael W. Deem and Ramdas Pophale) SiO2 
 PCOD8206945
Probable space group: P M M A
;
_chemical_formula_sum "Si O2"
_cell_formula_units_Z 44
_cell_length_a 8.758423
_cell_length_b 28.327405
_cell_length_c 9.797207
_cell_angle_alpha 90.000000
_cell_angle_beta 90.000000
_cell_angle_gamma 90.000000
_cell_volume 2430.720323
_symmetry_space_group_name_H-M "P M M A"
_symmetry_group_IT_number 51
_symmetry_cell_setting 'orthorhombic'
loop_
_space_group_symop_operation_xyz
x,y,z
1/2-x,-y,z
1/2+x,-y,-z
-x,y,-z
-x,-y,-z
1/2+x,y,-z
1/2-x,y,z
x,-y,z
loop_
_atom_site_type_symbol
_atom_site_label
_atom_site_fract_x
_atom_site_fract_y
_atom_site_fract_z
Si Si1 0.072697 0.228115 0.352762
Si Si2 0.929594 0.678827 0.350283
Si Si3 0.429273 0.053947 0.858806
Si Si4 0.431005 0.404894 0.850745
Si Si5 0.432135 0.500000 0.150628
Si Si6 0.572065 0.124450 0.648360
O O1 0.250000 0.240161 0.365194
O O2 0.046901 0.176668 0.283574
O O3 0.000000 0.224432 0.500000
O O4 0.990085 0.272393 0.279503
O O5 0.750000 0.681631 0.366634
O O6 0.978982 0.637126 0.249557
O O7 0.000000 0.670574 0.500000
O O8 0.250000 0.059785 0.868719
O O9 0.491743 0.085418 0.738073
O O10 0.477648 0.000000 0.829865
O O11 0.500000 0.071996 0.000000
O O12 0.250000 0.410624 0.864584
O O13 0.502845 0.452150 0.781301
O O14 0.500000 0.394821 0.000000
O O15 0.250000 0.500000 0.151839
O O16 0.500000 0.500000 0.000000
O O17 0.500000 0.121894 0.500000
O O18 0.750000 0.112884 0.636336
#
# Coordination Sequence:
#
# PCOD8206945 Si02
#       6
#     8   8   8   8   4   8
#     4   9  17  30  50  74 101 133 168 205 248 298
#     4  10  20  33  52  76 102 134 169 205 249 299
#     4  10  21  37  56  77 103 137 173 210 256 309
#     4  10  20  34  52  75 101 130 166 207 249 295
#     4  10  18  30  51  74  97 130 166 202 248 298
#     4  10  20  34  54  80 106 135 172 214 257 300
#
# _framework density 18.101631000000001
#
# number of rings (size 3 to 8) (size 9 to 14) (size 15 to 20)
#    0.000    2.182    0.000    5.727    0.000    6.545 
#    0.000    1.364    0.000    2.182    0.000    0.000 
#    0.000    0.000    0.000    0.000    0.000    0.000 
#
# Total GULP energy -545346.334399 kJ/mol
# GULP energy per Si atom -12394.234873 kJ/mol
# Density = 1.806043 g / cm^3
# Si number density = 18.101631 Si / 1000 Ang^3
#
#
#
# Elastic Constant Matrix: (Units=GPa)
#
#
# Indices 1 2 3 4 5 6 
#
# 1 95.1667 57.0201 33.8441 0.0000 0.0000 0.0000
# 2 57.0201 146.1391 63.7723 0.0000 0.0000 0.0000
# 3 33.8441 63.7723 70.4643 0.0000 0.0000 0.0000
# 4 0.0000 0.0000 0.0000 -31.7453 0.0000 0.0000
# 5 0.0000 0.0000 0.0000 0.0000 28.0354 0.0000
# 6 0.0000 0.0000 0.0000 0.0000 0.0000 165.3733
#
#
#
# Elastic Compliance Matrix: (Units=1/GPa)
#
#
# Indices 1 2 3 4 5 6 
#
# 1 0.014078 -0.004201 -0.002959 0.000000 0.000000 0.000000
# 2 -0.004201 0.012563 -0.009352 0.000000 0.000000 0.000000
# 3 -0.002959 -0.009352 0.024077 0.000000 0.000000 0.000000
# 4 0.000000 0.000000 0.000000 -0.031501 0.000000 0.000000
# 5 0.000000 0.000000 0.000000 0.000000 0.035669 0.000000
# 6 0.000000 0.000000 0.000000 0.000000 0.000000 0.006047
#
#
# Mechanical properties :
#
#
# Convention : Reuss Voigt Hill
#
# Bulk Modulus (GPa) = 56.52171 69.00482 62.76326
# Shear Modulus (GPa) = 50.07240 42.80825 46.44033
#
# Velocity S-wave (km/s) = 5.26516 4.86828 5.07060
# Velocity P-wave (km/s) = 8.26165 8.35486 8.30839
#
# Compressibility (1/GPa) = 0.01769232
#
# Stress axis : x y z
#
# Youngs Moduli (GPa) = 71.03511 79.59758 41.53391
#
# Poissons Ratio (x) = 0.33443 0.12290
# Poissons Ratio (y) = 0.29845 0.38843
# Poissons Ratio (z) = 0.21019 0.74440
#
# Static dielectric constant tensor:
#      x y z
#    x 3.506260 0.000000 0.000000 
#    y 0.000000 4.218360 0.000000 
#    z 0.000000 0.000000 3.028020 
# 
# 
# High freq. dielectric constant tensor:
#      x y z
#    x 1.722910 0.000000 0.000000 
#    y 0.000000 1.724220 0.000000 
#    z 0.000000 0.000000 1.659030 
# 
# From -- ./inp_files/5715.got.cif
#   From: 2010.03.12/outbox.cif.g09.slc.cpg/sg51_3_cif.got.tgz:5715.got - 2010.04.16 13:43:02.
