data_PCOD8206904
_publ_section_title
;
Structure prediction by ZEFSAII (Michael W. Deem and Ramdas Pophale) SiO2 
 PCOD8206904
Probable space group: P M M A
;
_chemical_formula_sum "Si O2"
_cell_formula_units_Z 48
_cell_length_a 14.237151
_cell_length_b 18.085139
_cell_length_c 9.428833
_cell_angle_alpha 90.000000
_cell_angle_beta 90.000000
_cell_angle_gamma 90.000000
_cell_volume 2427.743981
_symmetry_space_group_name_H-M "P M M A"
_symmetry_group_IT_number 51
_symmetry_cell_setting 'orthorhombic'
loop_
_space_group_symop_operation_xyz
x,y,z
1/2-x,-y,z
1/2+x,-y,-z
-x,y,-z
-x,-y,-z
1/2+x,y,-z
1/2-x,y,z
x,-y,z
loop_
_atom_site_type_symbol
_atom_site_label
_atom_site_fract_x
_atom_site_fract_y
_atom_site_fract_z
Si Si1 0.856829 0.821331 0.648229
Si Si2 0.479204 0.143413 0.845431
Si Si3 0.642429 0.714538 0.094531
Si Si4 0.526185 0.418774 0.163068
Si Si5 0.854592 0.330151 0.772661
Si Si6 0.142684 0.082369 0.612724
O O1 0.750000 0.847506 0.676668
O O2 0.863162 0.731860 0.649300
O O3 0.892446 0.855559 0.499184
O O4 0.919574 0.852176 0.773792
O O5 0.426812 0.222303 0.850367
O O6 0.415237 0.087287 0.757582
O O7 0.500000 0.110411 0.000000
O O8 0.750000 0.732042 0.135567
O O9 0.612177 0.638909 0.175391
O O10 0.629658 0.708786 0.925381
O O11 0.556006 0.500000 0.221074
O O12 0.434191 0.391945 0.251152
O O13 0.500000 0.425573 0.000000
O O14 0.750000 0.366192 0.768312
O O15 0.250000 0.097191 0.652657
O O16 0.128819 0.000000 0.548203
#
# Coordination Sequence:
#
# PCOD8206904 Si02
#       6
#     8   8   8   8   8   8
#     4  10  20  36  58  81 111 152 196 238 283 341
#     4  12  21  35  60  87 116 148 191 238 292 343
#     4  10  18  30  49  76 110 149 192 240 289 336
#     4   9  16  27  43  71 111 150 189 237 296 349
#     4   9  16  29  49  75 107 146 195 242 285 337
#     4  10  24  44  62  85 117 150 187 235 288 347
#
# _framework density 19.771440999999999
#
# number of rings (size 3 to 8) (size 9 to 14) (size 15 to 20)
#    0.000    2.000    3.333    1.500    0.000    3.000 
#    0.000    3.333    0.000    2.000    0.000    2.333 
#    0.000    4.000    0.000    0.000    0.000    0.000 
#
# Total GULP energy -595026.929321 kJ/mol
# GULP energy per Si atom -12396.394361 kJ/mol
# Density = 1.972644 g / cm^3
# Si number density = 19.771441 Si / 1000 Ang^3
#
#
#
# Elastic Constant Matrix: (Units=GPa)
#
#
# Indices 1 2 3 4 5 6 
#
# 1 98.5928 33.1870 44.7266 0.0000 0.0000 0.0000
# 2 33.1870 91.4425 36.1321 0.0000 0.0000 0.0000
# 3 44.7266 36.1321 81.4991 0.0000 0.0000 0.0000
# 4 0.0000 0.0000 0.0000 16.9376 0.0000 0.0000
# 5 0.0000 0.0000 0.0000 0.0000 27.5562 0.0000
# 6 0.0000 0.0000 0.0000 0.0000 0.0000 25.8958
#
#
#
# Elastic Compliance Matrix: (Units=1/GPa)
#
#
# Indices 1 2 3 4 5 6 
#
# 1 0.013951 -0.002471 -0.006561 0.000000 0.000000 0.000000
# 2 -0.002471 0.013696 -0.004716 0.000000 0.000000 0.000000
# 3 -0.006561 -0.004716 0.017961 0.000000 0.000000 0.000000
# 4 0.000000 0.000000 0.000000 0.059040 0.000000 0.000000
# 5 0.000000 0.000000 0.000000 0.000000 0.036289 0.000000
# 6 0.000000 0.000000 0.000000 0.000000 0.000000 0.038616
#
#
# Mechanical properties :
#
#
# Convention : Reuss Voigt Hill
#
# Bulk Modulus (GPa) = 55.20891 55.51397 55.36144
# Shear Modulus (GPa) = 23.46461 24.57717 24.02089
#
# Velocity S-wave (km/s) = 3.44872 3.52954 3.48936
# Velocity P-wave (km/s) = 6.62136 6.68947 6.65550
#
# Compressibility (1/GPa) = 0.01811302
#
# Stress axis : x y z
#
# Youngs Moduli (GPa) = 71.68124 73.01390 55.67481
#
# Poissons Ratio (x) = 0.18040 0.36527
# Poissons Ratio (y) = 0.17710 0.26257
# Poissons Ratio (z) = 0.47028 0.34434
#
# Static dielectric constant tensor:
#      x y z
#    x 3.802450 0.000000 0.000000 
#    y 0.000000 3.679410 0.000000 
#    z 0.000000 0.000000 3.314320 
# 
# 
# High freq. dielectric constant tensor:
#      x y z
#    x 1.788520 0.000000 0.000000 
#    y 0.000000 1.755010 0.000000 
#    z 0.000000 0.000000 1.728030 
# 
# From -- ./inp_files/8262.got.cif
#   From: 2010.03.12/outbox.cif.g09.slc.cpg/sg51_5_cif.got.tgz:8262.got - 2010.04.16 13:43:02.
