data_PCOD8206992
_publ_section_title
;
Structure prediction by ZEFSAII (Michael W. Deem and Ramdas Pophale) SiO2 
 PCOD8206992
Probable space group: P M M A
;
_chemical_formula_sum "Si O2"
_cell_formula_units_Z 64
_cell_length_a 8.731191
_cell_length_b 15.230565
_cell_length_c 25.115901
_cell_angle_alpha 90.000000
_cell_angle_beta 90.000000
_cell_angle_gamma 90.000000
_cell_volume 3339.936929
_symmetry_space_group_name_H-M "P M M A"
_symmetry_group_IT_number 51
_symmetry_cell_setting 'orthorhombic'
loop_
_space_group_symop_operation_xyz
x,y,z
1/2-x,-y,z
1/2+x,-y,-z
-x,y,-z
-x,-y,-z
1/2+x,y,-z
1/2-x,y,z
x,-y,z
loop_
_atom_site_type_symbol
_atom_site_label
_atom_site_fract_x
_atom_site_fract_y
_atom_site_fract_z
Si Si1 0.574403 0.650541 0.211051
Si Si2 0.929742 0.774202 0.944187
Si Si3 0.570715 0.826926 0.759836
Si Si4 0.570565 0.100741 0.556910
Si Si5 0.425902 0.595931 0.107343
Si Si6 0.567512 0.215045 0.350414
Si Si7 0.072975 0.406181 0.672794
Si Si8 0.925718 0.901179 0.141944
O O1 0.750000 0.682669 0.207135
O O2 0.463469 0.734124 0.212567
O O3 0.529470 0.593924 0.160069
O O4 0.550329 0.593196 0.263730
O O5 0.750000 0.785215 0.948227
O O6 0.978767 0.673325 0.932293
O O7 0.988672 0.836425 0.897751
O O8 0.000000 0.803880 0.000000
O O9 0.750000 0.842128 0.752625
O O10 0.492846 0.834217 0.701982
O O11 0.501533 0.899652 0.799375
O O12 0.500000 0.123093 0.500000
O O13 0.750000 0.119773 0.555432
O O14 0.490744 0.164732 0.598316
O O15 0.536035 0.000000 0.572707
O O16 0.250000 0.611281 0.124131
O O17 0.446893 0.500000 0.079777
O O18 0.750000 0.215068 0.348320
O O19 0.502842 0.316265 0.352077
O O20 0.250000 0.406972 0.657525
O O21 0.000366 0.500000 0.652188
O O22 0.750000 0.871485 0.146198
O O23 0.940215 0.000000 0.119913
#
# Coordination Sequence:
#
# PCOD8206992 Si02
#       8
#     8   8   8   8   8   8   8   8
#     4  10  18  30  52  80 111 148 190 231 276 332
#     4  11  24  42  63  84 111 147 185 233 283 337
#     4  11  21  35  56  83 118 155 188 228 281 339
#     4  10  21  38  60  85 114 150 193 242 294 347
#     4  10  21  36  55  82 114 147 184 228 280 336
#     4  10  20  34  56  86 119 156 195 239 284 335
#     4   8  15  28  47  76 113 150 189 230 273 323
#     4  11  24  42  64  88 113 143 183 233 286 344
#
# _framework density 19.162040000000001
#
# number of rings (size 3 to 8) (size 9 to 14) (size 15 to 20)
#    0.000    1.875    1.250    4.125    0.000    4.000 
#    0.000    0.000    0.000    7.875    0.000    0.000 
#    0.000    0.000    0.000    0.000    0.000    0.000 
#
# Total GULP energy -793398.127013 kJ/mol
# GULP energy per Si atom -12396.845735 kJ/mol
# Density = 1.911843 g / cm^3
# Si number density = 19.162040 Si / 1000 Ang^3
#
#
#
# Elastic Constant Matrix: (Units=GPa)
#
#
# Indices 1 2 3 4 5 6 
#
# 1 92.2848 41.4841 45.2146 0.0000 0.0000 0.0000
# 2 41.4841 106.8244 55.1859 0.0000 0.0000 0.0000
# 3 45.2146 55.1859 104.1340 0.0000 0.0000 0.0000
# 4 0.0000 0.0000 0.0000 14.9033 0.0000 0.0000
# 5 0.0000 0.0000 0.0000 0.0000 33.9669 0.0000
# 6 0.0000 0.0000 0.0000 0.0000 0.0000 22.8918
#
#
#
# Elastic Compliance Matrix: (Units=1/GPa)
#
#
# Indices 1 2 3 4 5 6 
#
# 1 0.014557 -0.003288 -0.004578 0.000000 0.000000 0.000000
# 2 -0.003288 0.013633 -0.005797 0.000000 0.000000 0.000000
# 3 -0.004578 -0.005797 0.014663 0.000000 0.000000 0.000000
# 4 0.000000 0.000000 0.000000 0.067099 0.000000 0.000000
# 5 0.000000 0.000000 0.000000 0.000000 0.029440 0.000000
# 6 0.000000 0.000000 0.000000 0.000000 0.000000 0.043684
#
#
# Mechanical properties :
#
#
# Convention : Reuss Voigt Hill
#
# Bulk Modulus (GPa) = 64.40633 65.22362 64.81497
# Shear Modulus (GPa) = 23.19342 25.10963 24.15152
#
# Velocity S-wave (km/s) = 3.48283 3.62385 3.55404
# Velocity P-wave (km/s) = 7.06101 7.18481 7.12318
#
# Compressibility (1/GPa) = 0.01552642
#
# Stress axis : x y z
#
# Youngs Moduli (GPa) = 68.69493 73.35244 68.19887
#
# Poissons Ratio (x) = 0.24118 0.31223
# Poissons Ratio (y) = 0.22587 0.39535
# Poissons Ratio (z) = 0.31450 0.42523
#
# Static dielectric constant tensor:
#      x y z
#    x 3.473360 0.000000 0.000000 
#    y 0.000000 3.717560 0.000000 
#    z 0.000000 0.000000 3.370260 
# 
# 
# High freq. dielectric constant tensor:
#      x y z
#    x 1.743360 0.000000 0.000000 
#    y 0.000000 1.752930 0.000000 
#    z 0.000000 0.000000 1.723500 
# 
# From -- ./inp_files/35002.got.cif
#   From: 2010.03.12/outbox.cif.g09.slc.cpg/sg51_18_cif.got.tgz:35002.got - 2010.04.16 13:43:02.
