data_PCOD8206802
_publ_section_title
;
Structure prediction by ZEFSAII (Michael W. Deem and Ramdas Pophale) SiO2 
 PCOD8206802
Probable space group: P M M A
;
_chemical_formula_sum "Si O2"
_cell_formula_units_Z 48
_cell_length_a 17.840721
_cell_length_b 13.796479
_cell_length_c 11.605412
_cell_angle_alpha 90.000000
_cell_angle_beta 90.000000
_cell_angle_gamma 90.000000
_cell_volume 2856.546043
_symmetry_space_group_name_H-M "P M M A"
_symmetry_group_IT_number 51
_symmetry_cell_setting 'orthorhombic'
loop_
_space_group_symop_operation_xyz
x,y,z
1/2-x,-y,z
1/2+x,-y,-z
-x,y,-z
-x,-y,-z
1/2+x,y,-z
1/2-x,y,z
x,-y,z
loop_
_atom_site_type_symbol
_atom_site_label
_atom_site_fract_x
_atom_site_fract_y
_atom_site_fract_z
Si Si1 0.085842 0.113730 0.858577
Si Si2 0.572563 0.110086 0.578507
Si Si3 0.667967 0.885560 0.368805
Si Si4 0.162167 0.740595 0.006851
Si Si5 0.453163 0.766098 0.198753
Si Si6 0.449638 0.608150 0.886888
O O1 0.110785 0.148081 0.730359
O O2 0.145615 0.154907 0.949844
O O3 0.002466 0.157369 0.876473
O O4 0.082530 0.000000 0.874954
O O5 0.500000 0.111544 0.500000
O O6 0.640564 0.143264 0.496321
O O7 0.568528 0.188556 0.679180
O O8 0.583557 0.000000 0.627549
O O9 0.750000 0.838565 0.348889
O O10 0.673697 0.000000 0.359845
O O11 0.250000 0.723082 0.023755
O O12 0.129003 0.658243 0.921482
O O13 0.123131 0.739496 0.132092
O O14 0.505263 0.669495 0.210531
O O15 0.434178 0.500000 0.839582
O O16 0.500000 0.605843 0.000000
#
# Coordination Sequence:
#
# PCOD8206802 Si02
#       6
#     8   8   8   8   8   8
#     4  10  18  31  48  66  94 133 172 204 239 290
#     4  10  18  30  47  68  95 132 175 209 239 287
#     4   9  17  28  44  66  90 122 170 217 245 274
#     4  10  21  32  45  73 104 127 156 197 254 312
#     4  10  19  31  50  72  96 127 165 208 248 296
#     4   8  16  33  54  73  94 122 159 200 242 297
#
# _framework density 16.803509999999999
#
# number of rings (size 3 to 8) (size 9 to 14) (size 15 to 20)
#    0.000    2.500    1.667    2.500    0.000    4.000 
#    0.000    0.000    0.000    0.500    0.000    0.000 
#    0.000    0.000    0.000    0.000    0.000    0.000 
#
# Total GULP energy -594906.965122 kJ/mol
# GULP energy per Si atom -12393.895107 kJ/mol
# Density = 1.676526 g / cm^3
# Si number density = 16.803510 Si / 1000 Ang^3
#
#
#
# Elastic Constant Matrix: (Units=GPa)
#
#
# Indices 1 2 3 4 5 6 
#
# 1 109.3257 28.9423 16.5522 0.0000 0.0000 0.0000
# 2 28.9423 100.7846 25.2586 0.0000 0.0000 0.0000
# 3 16.5522 25.2586 55.5510 0.0000 0.0000 0.0000
# 4 0.0000 0.0000 0.0000 17.5601 0.0000 0.0000
# 5 0.0000 0.0000 0.0000 0.0000 16.0298 0.0000
# 6 0.0000 0.0000 0.0000 0.0000 0.0000 13.7029
#
#
#
# Elastic Compliance Matrix: (Units=1/GPa)
#
#
# Indices 1 2 3 4 5 6 
#
# 1 0.010075 -0.002416 -0.001903 0.000000 0.000000 0.000000
# 2 -0.002416 0.011778 -0.004635 0.000000 0.000000 0.000000
# 3 -0.001903 -0.004635 0.020676 0.000000 0.000000 0.000000
# 4 0.000000 0.000000 0.000000 0.056947 0.000000 0.000000
# 5 0.000000 0.000000 0.000000 0.000000 0.062384 0.000000
# 6 0.000000 0.000000 0.000000 0.000000 0.000000 0.072977
#
#
# Mechanical properties :
#
#
# Convention : Reuss Voigt Hill
#
# Bulk Modulus (GPa) = 40.61876 45.24084 42.92980
# Shear Modulus (GPa) = 19.16054 22.45243 20.80648
#
# Velocity S-wave (km/s) = 3.38045 3.65934 3.52266
# Velocity P-wave (km/s) = 6.28187 6.69599 6.49223
#
# Compressibility (1/GPa) = 0.02461917
#
# Stress axis : x y z
#
# Youngs Moduli (GPa) = 99.25760 84.90619 48.36470
#
# Poissons Ratio (x) = 0.20515 0.09205
# Poissons Ratio (y) = 0.23982 0.22419
# Poissons Ratio (z) = 0.18892 0.39357
#
# Static dielectric constant tensor:
#      x y z
#    x 3.338310 0.000000 0.000000 
#    y 0.000000 3.181130 0.000000 
#    z 0.000000 0.000000 3.114600 
# 
# 
# High freq. dielectric constant tensor:
#      x y z
#    x 1.648290 0.000000 0.000000 
#    y 0.000000 1.620680 0.000000 
#    z 0.000000 0.000000 1.629560 
# 
# From -- ./inp_files/17371.got.cif
#   From: 2010.03.12/outbox.cif.g09.slc.cpg/sg51_9_cif.got.tgz:17371.got - 2010.04.16 13:43:02.
