data_PCOD8206740
_publ_section_title
;
Structure prediction by ZEFSAII (Michael W. Deem and Ramdas Pophale) SiO2 
 PCOD8206740
Probable space group: P M M A
;
_chemical_formula_sum "Si O2"
_cell_formula_units_Z 56
_cell_length_a 9.156485
_cell_length_b 14.454291
_cell_length_c 23.339780
_cell_angle_alpha 90.000000
_cell_angle_beta 90.000000
_cell_angle_gamma 90.000000
_cell_volume 3089.031523
_symmetry_space_group_name_H-M "P M M A"
_symmetry_group_IT_number 51
_symmetry_cell_setting 'orthorhombic'
loop_
_space_group_symop_operation_xyz
x,y,z
1/2-x,-y,z
1/2+x,-y,-z
-x,y,-z
-x,-y,-z
1/2+x,y,-z
1/2-x,y,z
x,-y,z
loop_
_atom_site_type_symbol
_atom_site_label
_atom_site_fract_x
_atom_site_fract_y
_atom_site_fract_z
Si Si1 0.079956 0.284132 0.557614
Si Si2 0.577119 0.398622 0.783420
Si Si3 0.081641 0.893324 0.268366
Si Si4 0.921205 0.105607 0.059585
Si Si5 0.081022 0.896841 0.619102
Si Si6 0.415967 0.608759 0.344698
Si Si7 0.922605 0.216170 0.842747
O O1 0.250000 0.305490 0.550400
O O2 0.050380 0.174610 0.567753
O O3 0.000000 0.315624 0.500000
O O4 0.021829 0.341642 0.611029
O O5 0.750000 0.405524 0.779623
O O6 0.513048 0.500000 0.800540
O O7 0.525293 0.369134 0.719609
O O8 0.532795 0.323236 0.831375
O O9 0.250000 0.872496 0.279505
O O10 0.025860 0.839208 0.213095
O O11 0.999022 0.858463 0.324601
O O12 0.048824 0.000000 0.256565
O O13 0.750000 0.124394 0.052188
O O14 0.987159 0.178117 0.104115
O O15 0.950789 0.000000 0.079864
O O16 0.000000 0.124850 0.000000
O O17 0.250000 0.900251 0.634755
O O18 0.024535 0.000000 0.601818
O O19 0.250000 0.644965 0.352836
O O20 0.422602 0.500000 0.356115
O O21 0.750000 0.203920 0.854395
#
# Coordination Sequence:
#
# PCOD8206740 Si02
#       7
#     8   8   8   8   8   8   8
#     4  11  23  36  51  71  95 125 162 205 250 297
#     4   8  15  29  51  79 106 132 164 201 244 294
#     4   9  17  28  45  72 101 128 161 200 244 296
#     4  10  21  36  53  74 103 139 176 212 249 290
#     4   9  19  35  51  68  94 127 162 202 248 295
#     4   9  18  35  58  79 100 128 161 199 245 297
#     4  10  18  29  50  77 105 136 168 205 245 288
#
# _framework density 18.128658999999999
#
# number of rings (size 3 to 8) (size 9 to 14) (size 15 to 20)
#    0.000    2.571    0.000    3.000    0.000    5.143 
#    0.000    2.143    0.000    1.714    0.000    0.000 
#    0.000    0.000    0.000    0.000    0.000    0.000 
#
# Total GULP energy -694281.363526 kJ/mol
# GULP energy per Si atom -12397.881492 kJ/mol
# Density = 1.808740 g / cm^3
# Si number density = 18.128659 Si / 1000 Ang^3
#
#
#
# Elastic Constant Matrix: (Units=GPa)
#
#
# Indices 1 2 3 4 5 6 
#
# 1 68.9901 42.3325 49.4279 0.0000 0.0000 0.0000
# 2 42.3325 86.4435 65.6558 0.0000 0.0000 0.0000
# 3 49.4279 65.6558 102.9603 0.0000 0.0000 0.0000
# 4 0.0000 0.0000 0.0000 24.6759 0.0000 0.0000
# 5 0.0000 0.0000 0.0000 0.0000 31.9521 0.0000
# 6 0.0000 0.0000 0.0000 0.0000 0.0000 21.7249
#
#
#
# Elastic Compliance Matrix: (Units=1/GPa)
#
#
# Indices 1 2 3 4 5 6 
#
# 1 0.023453 -0.005689 -0.007631 0.000000 0.000000 0.000000
# 2 -0.005689 0.023814 -0.012454 0.000000 0.000000 0.000000
# 3 -0.007631 -0.012454 0.021318 0.000000 0.000000 0.000000
# 4 0.000000 0.000000 0.000000 0.040525 0.000000 0.000000
# 5 0.000000 0.000000 0.000000 0.000000 0.031297 0.000000
# 6 0.000000 0.000000 0.000000 0.000000 0.000000 0.046030
#
#
# Mechanical properties :
#
#
# Convention : Reuss Voigt Hill
#
# Bulk Modulus (GPa) = 58.70201 63.69183 61.19692
# Shear Modulus (GPa) = 20.52001 22.40244 21.46123
#
# Velocity S-wave (km/s) = 3.36804 3.51913 3.44441
# Velocity P-wave (km/s) = 6.89753 7.19179 7.04620
#
# Compressibility (1/GPa) = 0.01703519
#
# Stress axis : x y z
#
# Youngs Moduli (GPa) = 42.63826 41.99268 46.90919
#
# Poissons Ratio (x) = 0.23891 0.35797
# Poissons Ratio (y) = 0.24258 0.58422
# Poissons Ratio (z) = 0.32538 0.52299
#
# Static dielectric constant tensor:
#      x y z
#    x 3.194160 0.000000 0.000000 
#    y 0.000000 3.710990 0.000000 
#    z 0.000000 0.000000 3.299140 
# 
# 
# High freq. dielectric constant tensor:
#      x y z
#    x 1.685300 0.000000 0.000000 
#    y 0.000000 1.709260 0.000000 
#    z 0.000000 0.000000 1.687170 
# 
# From -- ./inp_files/31939.got.cif
#   From: 2010.03.12/outbox.cif.g09.slc.cpg/sg51_16_cif.got.tgz:31939.got - 2010.04.16 13:43:02.
