data_PCOD8206286
_publ_section_title
;
Structure prediction by ZEFSAII (Michael W. Deem and Ramdas Pophale) SiO2 
 PCOD8206286
Probable space group: P M M A
;
_chemical_formula_sum "Si O2"
_cell_formula_units_Z 64
_cell_length_a 9.032405
_cell_length_b 26.324981
_cell_length_c 18.306361
_cell_angle_alpha 90.000000
_cell_angle_beta 90.000000
_cell_angle_gamma 90.000000
_cell_volume 4352.847892
_symmetry_space_group_name_H-M "P M M A"
_symmetry_group_IT_number 51
_symmetry_cell_setting 'orthorhombic'
loop_
_space_group_symop_operation_xyz
x,y,z
1/2-x,-y,z
1/2+x,-y,-z
-x,y,-z
-x,-y,-z
1/2+x,y,-z
1/2-x,y,z
x,-y,z
loop_
_atom_site_type_symbol
_atom_site_label
_atom_site_fract_x
_atom_site_fract_y
_atom_site_fract_z
Si Si1 0.917533 0.696644 0.297831
Si Si2 0.073312 0.738312 0.923170
Si Si3 0.922885 0.150222 0.668086
Si Si4 0.913001 0.800874 0.210057
Si Si5 0.924312 0.349078 0.832090
Si Si6 0.423911 0.942953 0.424155
Si Si7 0.925744 0.750529 0.578339
Si Si8 0.921659 0.443134 0.926928
O O1 0.750000 0.678094 0.314517
O O2 0.914503 0.748639 0.253903
O O3 0.002942 0.655424 0.248137
O O4 0.007420 0.704836 0.372951
O O5 0.250000 0.730113 0.929117
O O6 0.035393 0.787119 0.871990
O O7 0.000316 0.687948 0.890423
O O8 0.000000 0.750917 0.000000
O O9 0.750000 0.148597 0.677334
O O10 0.982657 0.096856 0.636125
O O11 0.970243 0.195449 0.613740
O O12 0.984636 0.158029 0.749813
O O13 0.750000 0.824749 0.209005
O O14 0.750000 0.336480 0.827404
O O15 0.955713 0.406285 0.859040
O O16 0.500000 0.929430 0.500000
O O17 0.250000 0.936599 0.436469
O O18 0.464675 0.000000 0.398294
O O19 0.750000 0.743932 0.572056
O O20 0.000000 0.747543 0.500000
O O21 0.750000 0.442848 0.945561
O O22 0.976487 0.500000 0.906282
O O23 0.000000 0.422943 0.000000
#
# Coordination Sequence:
#
# PCOD8206286 Si02
#       8
#     8   8   8   8   8   8   8   8
#     4   9  17  29  42  57  79 105 134 167 202 239
#     4  10  19  29  41  59  82 107 135 165 199 238
#     4   9  17  27  40  57  77 105 137 166 197 234
#     4   8  16  28  40  55  76 102 130 162 197 234
#     4  10  18  28  43  60  80 108 139 169 202 238
#     4   9  17  28  40  56  79 105 134 167 199 230
#     4  10  18  27  40  59  82 107 137 168 200 238
#     4   9  18  30  42  58  81 108 138 171 203 234
#
# _framework density 14.703016999999999
#
# number of rings (size 3 to 8) (size 9 to 14) (size 15 to 20)
#    0.000    2.750    0.000    3.000    0.000    6.500 
#    0.000    0.000    0.000    0.000    0.000    0.000 
#    0.000    1.000    0.000    2.500    0.000    3.750 
#
# Total GULP energy -793342.191451 kJ/mol
# GULP energy per Si atom -12395.971741 kJ/mol
# Density = 1.466955 g / cm^3
# Si number density = 14.703017 Si / 1000 Ang^3
#
#
#
# Elastic Constant Matrix: (Units=GPa)
#
#
# Indices 1 2 3 4 5 6 
#
# 1 67.6698 36.5230 50.2043 0.0000 0.0000 0.0000
# 2 36.5230 72.9206 50.9718 0.0000 0.0000 0.0000
# 3 50.2043 50.9718 107.6226 0.0000 0.0000 0.0000
# 4 0.0000 0.0000 0.0000 22.5532 0.0000 0.0000
# 5 0.0000 0.0000 0.0000 0.0000 29.5935 0.0000
# 6 0.0000 0.0000 0.0000 0.0000 0.0000 16.0889
#
#
#
# Elastic Compliance Matrix: (Units=1/GPa)
#
#
# Indices 1 2 3 4 5 6 
#
# 1 0.024438 -0.006385 -0.008376 0.000000 0.000000 0.000000
# 2 -0.006385 0.022169 -0.007521 0.000000 0.000000 0.000000
# 3 -0.008376 -0.007521 0.016761 0.000000 0.000000 0.000000
# 4 0.000000 0.000000 0.000000 0.044340 0.000000 0.000000
# 5 0.000000 0.000000 0.000000 0.000000 0.033791 0.000000
# 6 0.000000 0.000000 0.000000 0.000000 0.000000 0.062154
#
#
# Mechanical properties :
#
#
# Convention : Reuss Voigt Hill
#
# Bulk Modulus (GPa) = 53.18073 58.17904 55.67989
# Shear Modulus (GPa) = 19.64756 21.01472 20.33114
#
# Velocity S-wave (km/s) = 3.65950 3.78468 3.72262
# Velocity P-wave (km/s) = 7.35557 7.66510 7.51193
#
# Compressibility (1/GPa) = 0.01880380
#
# Stress axis : x y z
#
# Youngs Moduli (GPa) = 40.92003 45.10847 59.66283
#
# Poissons Ratio (x) = 0.28803 0.49972
# Poissons Ratio (y) = 0.26129 0.44871
# Poissons Ratio (z) = 0.34273 0.33925
#
# Static dielectric constant tensor:
#      x y z
#    x 3.011790 0.000000 0.000000 
#    y 0.000000 2.834480 0.000000 
#    z 0.000000 0.000000 2.942400 
# 
# 
# High freq. dielectric constant tensor:
#      x y z
#    x 1.574810 0.000000 0.000000 
#    y 0.000000 1.527990 0.000000 
#    z 0.000000 0.000000 1.551930 
# 
# From -- ./inp_files/28687.got.cif
#   From: 2010.03.12/outbox.cif.g09.slc.cpg/sg51_15_cif.got.tgz:28687.got - 2010.04.16 13:43:02.
