data_PCOD8206020
_publ_section_title
;
Structure prediction by ZEFSAII (Michael W. Deem and Ramdas Pophale) SiO2 
 PCOD8206020
Probable space group: P M M A
;
_chemical_formula_sum "Si O2"
_cell_formula_units_Z 64
_cell_length_a 23.508013
_cell_length_b 9.162522
_cell_length_c 20.096301
_cell_angle_alpha 90.000000
_cell_angle_beta 90.000000
_cell_angle_gamma 90.000000
_cell_volume 4328.596257
_symmetry_space_group_name_H-M "P M M A"
_symmetry_group_IT_number 51
_symmetry_cell_setting 'orthorhombic'
loop_
_space_group_symop_operation_xyz
x,y,z
1/2-x,-y,z
1/2+x,-y,-z
-x,y,-z
-x,-y,-z
1/2+x,y,-z
1/2-x,y,z
x,-y,z
loop_
_atom_site_type_symbol
_atom_site_label
_atom_site_fract_x
_atom_site_fract_y
_atom_site_fract_z
Si Si1 0.020717 0.329672 0.284635
Si Si2 0.938563 0.338808 0.966585
Si Si3 0.686661 0.326940 0.210464
Si Si4 0.918718 0.163585 0.450471
Si Si5 0.892418 0.669549 0.327050
Si Si6 0.950920 0.165159 0.591389
Si Si7 0.517997 0.826533 0.848985
Si Si8 0.904497 0.671420 0.105897
O O1 0.032462 0.500000 0.273849
O O2 0.058943 0.273038 0.346489
O O3 0.040294 0.239921 0.220095
O O4 0.954525 0.296600 0.297731
O O5 0.923633 0.500000 0.938381
O O6 0.937510 0.222492 0.906695
O O7 0.895687 0.295750 0.026979
O O8 0.000000 0.342365 0.000000
O O9 0.750000 0.259004 0.207783
O O10 0.689806 0.500000 0.215525
O O11 0.653447 0.265761 0.275080
O O12 0.653150 0.282276 0.143414
O O13 0.882004 0.260160 0.399558
O O14 0.914055 0.218851 0.527268
O O15 0.983694 0.168899 0.428741
O O16 0.895012 0.000000 0.446132
O O17 0.883372 0.500000 0.337398
O O18 0.933629 0.000000 0.611118
O O19 0.455632 0.764963 0.863887
O O20 0.516325 0.000000 0.845116
O O21 0.919037 0.500000 0.117614
#
# Coordination Sequence:
#
# PCOD8206020 Si02
#       8
#     8   8   8   8   8   8   8   8
#     4  10  17  25  37  53  76 102 129 159 191 226
#     4   8  15  26  40  54  72  97 124 158 194 232
#     4   9  16  27  43  60  77  99 131 170 204 232
#     4   8  14  24  37  50  70  97 124 155 190 226
#     4   9  16  25  38  54  71  95 130 165 193 227
#     4   8  14  24  35  51  72  96 126 155 185 222
#     4  11  19  25  37  56  77 101 129 160 193 233
#     4   9  16  29  43  55  73  98 129 162 199 237
#
# _framework density 14.785392999999999
#
# number of rings (size 3 to 8) (size 9 to 14) (size 15 to 20)
#    0.000    3.000    1.250    3.000    0.000    3.250 
#    0.000    2.500    0.000    1.500    0.000    0.000 
#    0.000    0.000    0.000    1.125    0.000   22.000 
#
# Total GULP energy -793068.704486 kJ/mol
# GULP energy per Si atom -12391.698508 kJ/mol
# Density = 1.475174 g / cm^3
# Si number density = 14.785393 Si / 1000 Ang^3
#
#
#
# Elastic Constant Matrix: (Units=GPa)
#
#
# Indices 1 2 3 4 5 6 
#
# 1 40.7954 15.8780 42.5414 0.0000 0.0000 0.0000
# 2 15.8780 72.1660 62.0724 0.0000 0.0000 0.0000
# 3 42.5414 62.0724 145.6763 0.0000 0.0000 0.0000
# 4 0.0000 0.0000 0.0000 25.9858 0.0000 0.0000
# 5 0.0000 0.0000 0.0000 0.0000 13.8125 0.0000
# 6 0.0000 0.0000 0.0000 0.0000 0.0000 6.4118
#
#
#
# Elastic Compliance Matrix: (Units=1/GPa)
#
#
# Indices 1 2 3 4 5 6 
#
# 1 0.035384 0.001740 -0.011075 0.000000 0.000000 0.000000
# 2 0.001740 0.021959 -0.009865 0.000000 0.000000 0.000000
# 3 -0.011075 -0.009865 0.014302 0.000000 0.000000 0.000000
# 4 0.000000 0.000000 0.000000 0.038483 0.000000 0.000000
# 5 0.000000 0.000000 0.000000 0.000000 0.072398 0.000000
# 6 0.000000 0.000000 0.000000 0.000000 0.000000 0.155963
#
#
# Mechanical properties :
#
#
# Convention : Reuss Voigt Hill
#
# Bulk Modulus (GPa) = 30.07817 55.51349 42.79583
# Shear Modulus (GPa) = 12.88762 18.45175 15.66969
#
# Velocity S-wave (km/s) = 2.95557 3.53650 3.25900
# Velocity P-wave (km/s) = 5.65990 7.36909 6.57031
#
# Compressibility (1/GPa) = 0.03324670
#
# Stress axis : x y z
#
# Youngs Moduli (GPa) = 28.26159 45.53879 69.91967
#
# Poissons Ratio (x) = -0.07926 0.77433
# Poissons Ratio (y) = -0.04919 0.68976
# Poissons Ratio (z) = 0.31299 0.44924
#
# Static dielectric constant tensor:
#      x y z
#    x 2.498090 0.000000 0.000000 
#    y 0.000000 2.794360 0.000000 
#    z 0.000000 0.000000 3.352360 
# 
# 
# High freq. dielectric constant tensor:
#      x y z
#    x 1.487810 0.000000 0.000000 
#    y 0.000000 1.555810 0.000000 
#    z 0.000000 0.000000 1.582850 
# 
# From -- ./inp_files/34227.got.cif
#   From: 2010.03.12/outbox.cif.g09.slc.cpg/sg51_18_cif.got.tgz:34227.got - 2010.04.16 13:43:02.
