data_PCOD8206014
_publ_section_title
;
Structure prediction by ZEFSAII (Michael W. Deem and Ramdas Pophale) SiO2 
 PCOD8206014
Probable space group: P M M A
;
_chemical_formula_sum "Si O2"
_cell_formula_units_Z 64
_cell_length_a 18.429509
_cell_length_b 9.041405
_cell_length_c 20.910562
_cell_angle_alpha 90.000000
_cell_angle_beta 90.000000
_cell_angle_gamma 90.000000
_cell_volume 3484.298818
_symmetry_space_group_name_H-M "P M M A"
_symmetry_group_IT_number 51
_symmetry_cell_setting 'orthorhombic'
loop_
_space_group_symop_operation_xyz
x,y,z
1/2-x,-y,z
1/2+x,-y,-z
-x,y,-z
-x,-y,-z
1/2+x,y,-z
1/2-x,y,z
x,-y,z
loop_
_atom_site_type_symbol
_atom_site_label
_atom_site_fract_x
_atom_site_fract_y
_atom_site_fract_z
Si Si1 0.586626 0.835993 0.492297
Si Si2 0.163676 0.833128 0.999298
Si Si3 0.088705 0.171307 0.756750
Si Si4 0.931063 0.170363 0.627937
Si Si5 0.417542 0.166512 0.233121
Si Si6 0.833570 0.672410 0.874271
Si Si7 0.836075 0.669104 0.126621
Si Si8 0.919482 0.326970 0.370122
O O1 0.500000 0.825272 0.500000
O O2 0.617780 0.799872 0.564112
O O3 0.616412 0.725741 0.437580
O O4 0.610356 0.000000 0.471255
O O5 0.250000 0.830100 0.999304
O O6 0.134056 0.743502 0.938353
O O7 0.133664 0.000000 0.996074
O O8 0.134824 0.757284 0.064055
O O9 0.130872 0.245843 0.814160
O O10 0.116272 0.245924 0.690828
O O11 0.003271 0.195909 0.766623
O O12 0.109299 0.000000 0.754415
O O13 0.886997 0.190352 0.694302
O O14 0.996152 0.286815 0.627761
O O15 0.961790 0.000000 0.625727
O O16 0.378919 0.283016 0.187717
O O17 0.400246 0.000000 0.209561
O O18 0.750000 0.714605 0.862050
O O19 0.843071 0.500000 0.887294
O O20 0.750000 0.681361 0.130409
O O21 0.862196 0.500000 0.127356
O O22 0.907371 0.500000 0.362434
#
# Coordination Sequence:
#
# PCOD8206014 Si02
#       8
#     8   8   8   8   8   8   8   8
#     4   8  13  23  38  56  83 119 155 192 234 279
#     4   9  17  31  52  74  95 123 159 196 233 275
#     4  10  20  34  50  69  97 131 164 196 234 283
#     4   8  15  27  41  59  87 122 157 193 236 283
#     4   9  18  32  49  70  96 127 162 199 238 280
#     4  10  20  33  50  73  99 126 157 195 239 285
#     4  10  20  34  53  77 102 125 153 193 238 282
#     4  10  17  24  38  62  91 121 155 195 238 281
#
# _framework density 18.368115
#
# number of rings (size 3 to 8) (size 9 to 14) (size 15 to 20)
#    0.000    2.750    0.000    4.125    0.000    7.750 
#    0.000    0.625    0.000    3.750    0.000    0.875 
#    0.000    5.000    0.000    0.000    0.000    0.000 
#
# Total GULP energy -793202.348578 kJ/mol
# GULP energy per Si atom -12393.786697 kJ/mol
# Density = 1.832631 g / cm^3
# Si number density = 18.368115 Si / 1000 Ang^3
#
#
#
# Elastic Constant Matrix: (Units=GPa)
#
#
# Indices 1 2 3 4 5 6 
#
# 1 11.1847 19.5595 19.9601 0.0000 0.0000 0.0000
# 2 19.5595 137.2074 81.7092 0.0000 0.0000 0.0000
# 3 19.9601 81.7092 179.2876 0.0000 0.0000 0.0000
# 4 0.0000 0.0000 0.0000 31.5542 0.0000 0.0000
# 5 0.0000 0.0000 0.0000 0.0000 -137.9495 0.0000
# 6 0.0000 0.0000 0.0000 0.0000 0.0000 19.1733
#
#
#
# Elastic Compliance Matrix: (Units=1/GPa)
#
#
# Indices 1 2 3 4 5 6 
#
# 1 0.127106 -0.013303 -0.008088 0.000000 0.000000 0.000000
# 2 -0.013303 0.011395 -0.003712 0.000000 0.000000 0.000000
# 3 -0.008088 -0.003712 0.008170 0.000000 0.000000 0.000000
# 4 0.000000 0.000000 0.000000 0.031692 0.000000 0.000000
# 5 0.000000 0.000000 0.000000 0.000000 -0.007249 0.000000
# 6 0.000000 0.000000 0.000000 0.000000 0.000000 0.052156
#
#
# Mechanical properties :
#
#
# Convention : Reuss Voigt Hill
#
# Bulk Modulus (GPa) = 10.36650 63.34860 36.85755
# Shear Modulus (GPa) = 16.35960 -3.68101 6.33930
#
# Velocity S-wave (km/s) = 2.98762 -1.41717 1.85977
# Velocity P-wave (km/s) = 4.19012 5.64672 4.97205
#
# Compressibility (1/GPa) = 0.09646459
#
# Stress axis : x y z
#
# Youngs Moduli (GPa) = 7.86746 87.75470 122.39975
#
# Poissons Ratio (x) = 1.16740 0.98997
# Poissons Ratio (y) = 0.10466 0.45439
# Poissons Ratio (z) = 0.06363 0.32578
#
# Static dielectric constant tensor:
#      x y z
#    x 2.729570 0.000000 0.000000 
#    y 0.000000 3.412100 0.000000 
#    z 0.000000 0.000000 3.974450 
# 
# 
# High freq. dielectric constant tensor:
#      x y z
#    x 1.633810 0.000000 0.000000 
#    y 0.000000 1.718070 0.000000 
#    z 0.000000 0.000000 1.742520 
# 
# From -- ./inp_files/34072.got.cif
#   From: 2010.03.12/outbox.cif.g09.slc.cpg/sg51_18_cif.got.tgz:34072.got - 2010.04.16 13:43:02.
