data_PCOD8206253
_publ_section_title
;
Structure prediction by ZEFSAII (Michael W. Deem and Ramdas Pophale) SiO2 
 PCOD8206253
Probable space group: P M M A
;
_chemical_formula_sum "Si O2"
_cell_formula_units_Z 56
_cell_length_a 9.354720
_cell_length_b 29.303758
_cell_length_c 13.670402
_cell_angle_alpha 90.000000
_cell_angle_beta 90.000000
_cell_angle_gamma 90.000000
_cell_volume 3747.446125
_symmetry_space_group_name_H-M "P M M A"
_symmetry_group_IT_number 51
_symmetry_cell_setting 'orthorhombic'
loop_
_space_group_symop_operation_xyz
x,y,z
1/2-x,-y,z
1/2+x,-y,-z
-x,y,-z
-x,-y,-z
1/2+x,y,-z
1/2-x,y,z
x,-y,z
loop_
_atom_site_type_symbol
_atom_site_label
_atom_site_fract_x
_atom_site_fract_y
_atom_site_fract_z
Si Si1 0.083664 0.725104 0.903881
Si Si2 0.580840 0.361518 0.210266
Si Si3 0.918482 0.147459 0.602949
Si Si4 0.913721 0.048175 0.598299
Si Si5 0.416598 0.551043 0.901449
Si Si6 0.084346 0.315794 0.597666
Si Si7 0.086753 0.223035 0.707582
O O1 0.250000 0.722588 0.930104
O O2 0.024836 0.675586 0.868418
O O3 0.055209 0.761643 0.818339
O O4 0.000000 0.740916 0.000000
O O5 0.750000 0.355425 0.214260
O O6 0.533265 0.412531 0.180011
O O7 0.523722 0.350224 0.318856
O O8 0.750000 0.156621 0.586487
O O9 0.947677 0.096714 0.650185
O O10 0.000000 0.153570 0.500000
O O11 0.979244 0.182439 0.682153
O O12 0.750000 0.049165 0.566583
O O13 0.000000 0.046403 0.500000
O O14 0.945219 0.000000 0.657800
O O15 0.250000 0.556970 0.925043
O O16 0.450407 0.500000 0.862476
O O17 0.500000 0.561531 0.000000
O O18 0.250000 0.324722 0.576581
O O19 0.058311 0.264268 0.632742
O O20 0.000000 0.326540 0.500000
O O21 0.250000 0.206210 0.697557
#
# Coordination Sequence:
#
# PCOD8206253 Si02
#       7
#     8   8   8   8   8   8   8
#     4   9  17  29  44  60  80 106 132 161 197 235
#     4   8  15  28  43  59  81 107 132 158 192 235
#     4  10  18  26  39  58  80 108 138 167 198 232
#     4   8  14  24  36  51  73 101 132 163 194 229
#     4   9  16  26  42  63  84 105 128 156 193 236
#     4   9  17  29  43  57  76 104 136 167 196 227
#     4   9  18  30  41  56  80 107 133 163 199 236
#
# _framework density 14.943511000000001
#
# number of rings (size 3 to 8) (size 9 to 14) (size 15 to 20)
#    0.000    3.143    0.000    3.000    0.000    2.857 
#    0.000    2.857    0.000    0.429    0.000    0.000 
#    0.000    0.571    0.000    1.286    0.000    2.286 
#
# Total GULP energy -693774.761486 kJ/mol
# GULP energy per Si atom -12388.835027 kJ/mol
# Density = 1.490950 g / cm^3
# Si number density = 14.943511 Si / 1000 Ang^3
#
#
#
# Elastic Constant Matrix: (Units=GPa)
#
#
# Indices 1 2 3 4 5 6 
#
# 1 51.0734 46.7151 39.7570 0.0000 0.0000 0.0000
# 2 46.7151 123.7701 56.1474 0.0000 0.0000 0.0000
# 3 39.7570 56.1474 92.3888 0.0000 0.0000 0.0000
# 4 0.0000 0.0000 0.0000 13.1743 0.0000 0.0000
# 5 0.0000 0.0000 0.0000 0.0000 24.6723 0.0000
# 6 0.0000 0.0000 0.0000 0.0000 0.0000 16.0644
#
#
#
# Elastic Compliance Matrix: (Units=1/GPa)
#
#
# Indices 1 2 3 4 5 6 
#
# 1 0.035347 -0.008893 -0.009806 0.000000 0.000000 0.000000
# 2 -0.008893 0.013392 -0.004312 0.000000 0.000000 0.000000
# 3 -0.009806 -0.004312 0.017664 0.000000 0.000000 0.000000
# 4 0.000000 0.000000 0.000000 0.075906 0.000000 0.000000
# 5 0.000000 0.000000 0.000000 0.000000 0.040531 0.000000
# 6 0.000000 0.000000 0.000000 0.000000 0.000000 0.062250
#
#
# Mechanical properties :
#
#
# Convention : Reuss Voigt Hill
#
# Bulk Modulus (GPa) = 49.06453 61.38570 55.22511
# Shear Modulus (GPa) = 16.78387 19.08971 17.93679
#
# Velocity S-wave (km/s) = 3.35499 3.57803 3.46830
# Velocity P-wave (km/s) = 6.92189 7.63134 7.28526
#
# Compressibility (1/GPa) = 0.02038132
#
# Stress axis : x y z
#
# Youngs Moduli (GPa) = 28.29106 74.67163 56.61162
#
# Poissons Ratio (x) = 0.66402 0.55515
# Poissons Ratio (y) = 0.25158 0.24411
# Poissons Ratio (z) = 0.27743 0.32199
#
# Static dielectric constant tensor:
#      x y z
#    x 2.784210 0.000000 0.000000 
#    y 0.000000 3.278120 0.000000 
#    z 0.000000 0.000000 2.619580 
# 
# 
# High freq. dielectric constant tensor:
#      x y z
#    x 1.566180 0.000000 0.000000 
#    y 0.000000 1.577260 0.000000 
#    z 0.000000 0.000000 1.537440 
# 
# From -- ./inp_files/22549.got.cif
#   From: 2010.03.12/outbox.cif.g09.slc.cpg/sg51_12_cif.got.tgz:22549.got - 2010.04.16 13:43:02.
