data_PCOD8206814
_publ_section_title
;
Structure prediction by ZEFSAII (Michael W. Deem and Ramdas Pophale) SiO2 
 PCOD8206814
Probable space group: P M M A
;
_chemical_formula_sum "Si O2"
_cell_formula_units_Z 48
_cell_length_a 20.388742
_cell_length_b 9.210140
_cell_length_c 15.127276
_cell_angle_alpha 90.000000
_cell_angle_beta 90.000000
_cell_angle_gamma 90.000000
_cell_volume 2840.647814
_symmetry_space_group_name_H-M "P M M A"
_symmetry_group_IT_number 51
_symmetry_cell_setting 'orthorhombic'
loop_
_space_group_symop_operation_xyz
x,y,z
1/2-x,-y,z
1/2+x,-y,-z
-x,y,-z
-x,-y,-z
1/2+x,y,-z
1/2-x,y,z
x,-y,z
loop_
_atom_site_type_symbol
_atom_site_label
_atom_site_fract_x
_atom_site_fract_y
_atom_site_fract_z
Si Si1 0.178984 0.665842 0.635696
Si Si2 0.177126 0.666458 0.982890
Si Si3 0.558366 0.829112 0.935611
Si Si4 0.492097 0.162886 0.758280
Si Si5 0.654344 0.164978 0.191392
Si Si6 0.462613 0.670007 0.584917
O O1 0.250000 0.681821 0.585396
O O2 0.169681 0.500000 0.668325
O O3 0.182710 0.771563 0.718474
O O4 0.115430 0.707719 0.576206
O O5 0.250000 0.676383 0.025450
O O6 0.154891 0.500000 0.972180
O O7 0.181407 0.739148 0.887356
O O8 0.125959 0.748554 0.044816
O O9 0.544413 0.791825 0.832851
O O10 0.568483 0.000000 0.950681
O O11 0.500000 0.773560 0.000000
O O12 0.423756 0.172047 0.809628
O O13 0.494673 0.266389 0.673653
O O14 0.504829 0.000000 0.723811
O O15 0.679140 0.000000 0.181040
O O16 0.500000 0.736559 0.500000
O O17 0.475090 0.500000 0.589570
#
# Coordination Sequence:
#
# PCOD8206814 Si02
#       6
#     8   8   8   8   8   8
#     4   9  17  29  45  67  96 125 154 194 242 293
#     4  11  23  34  45  68 102 136 171 209 248 293
#     4  10  19  35  54  73  98 129 170 211 246 293
#     4   9  18  32  51  74  98 125 160 205 249 291
#     4  10  18  30  47  69  98 130 162 197 242 296
#     4   9  18  32  50  72  97 126 162 199 240 296
#
# _framework density 16.897555000000001
#
# number of rings (size 3 to 8) (size 9 to 14) (size 15 to 20)
#    0.000    2.333    1.667    1.500    0.000    5.667 
#    0.000    0.000    0.000    1.000    0.000    2.333 
#    0.000    0.000    0.000    0.000    0.000    0.000 
#
# Total GULP energy -594948.844185 kJ/mol
# GULP energy per Si atom -12394.767587 kJ/mol
# Density = 1.685909 g / cm^3
# Si number density = 16.897555 Si / 1000 Ang^3
#
#
#
# Elastic Constant Matrix: (Units=GPa)
#
#
# Indices 1 2 3 4 5 6 
#
# 1 119.2478 44.7817 62.9059 0.0000 0.0000 0.0000
# 2 44.7817 66.3061 38.9973 0.0000 0.0000 0.0000
# 3 62.9059 38.9973 84.4436 0.0000 0.0000 0.0000
# 4 0.0000 0.0000 0.0000 23.3694 0.0000 0.0000
# 5 0.0000 0.0000 0.0000 0.0000 16.3065 0.0000
# 6 0.0000 0.0000 0.0000 0.0000 0.0000 19.8125
#
#
#
# Elastic Compliance Matrix: (Units=1/GPa)
#
#
# Indices 1 2 3 4 5 6 
#
# 1 0.014867 -0.004842 -0.008839 0.000000 0.000000 0.000000
# 2 -0.004842 0.022283 -0.006683 0.000000 0.000000 0.000000
# 3 -0.008839 -0.006683 0.021513 0.000000 0.000000 0.000000
# 4 0.000000 0.000000 0.000000 0.042791 0.000000 0.000000
# 5 0.000000 0.000000 0.000000 0.000000 0.061325 0.000000
# 6 0.000000 0.000000 0.000000 0.000000 0.000000 0.050473
#
#
# Mechanical properties :
#
#
# Convention : Reuss Voigt Hill
#
# Bulk Modulus (GPa) = 55.76008 62.59638 59.17823
# Shear Modulus (GPa) = 19.23379 20.11851 19.67615
#
# Velocity S-wave (km/s) = 3.37747 3.45427 3.41609
# Velocity P-wave (km/s) = 6.94840 7.28247 7.11740
#
# Compressibility (1/GPa) = 0.01793398
#
# Stress axis : x y z
#
# Youngs Moduli (GPa) = 67.26261 44.87800 46.48333
#
# Poissons Ratio (x) = 0.21732 0.41086
# Poissons Ratio (y) = 0.32571 0.31065
# Poissons Ratio (z) = 0.59453 0.29993
#
# Static dielectric constant tensor:
#      x y z
#    x 3.402940 0.000000 0.000000 
#    y 0.000000 3.200270 0.000000 
#    z 0.000000 0.000000 2.946440 
# 
# 
# High freq. dielectric constant tensor:
#      x y z
#    x 1.655480 0.000000 0.000000 
#    y 0.000000 1.655530 0.000000 
#    z 0.000000 0.000000 1.616200 
# 
# From -- ./inp_files/25437.got.cif
#   From: 2010.03.12/outbox.cif.g09.slc.cpg/sg51_13_cif.got.tgz:25437.got - 2010.04.16 13:43:02.
