data_PCOD8206897
_publ_section_title
;
Structure prediction by ZEFSAII (Michael W. Deem and Ramdas Pophale) SiO2 
 PCOD8206897
Probable space group: P M M A
;
_chemical_formula_sum "Si O2"
_cell_formula_units_Z 40
_cell_length_a 8.598338
_cell_length_b 25.429154
_cell_length_c 9.928494
_cell_angle_alpha 90.000000
_cell_angle_beta 90.000000
_cell_angle_gamma 90.000000
_cell_volume 2170.849935
_symmetry_space_group_name_H-M "P M M A"
_symmetry_group_IT_number 51
_symmetry_cell_setting 'orthorhombic'
loop_
_space_group_symop_operation_xyz
x,y,z
1/2-x,-y,z
1/2+x,-y,-z
-x,y,-z
-x,-y,-z
1/2+x,y,-z
1/2-x,y,z
x,-y,z
loop_
_atom_site_type_symbol
_atom_site_label
_atom_site_fract_x
_atom_site_fract_y
_atom_site_fract_z
Si Si1 0.934499 0.000000 0.350243
Si Si2 0.065639 0.687820 0.143044
Si Si3 0.932635 0.192263 0.859775
Si Si4 0.566058 0.393014 0.350917
Si Si5 0.434588 0.500000 0.350233
Si Si6 0.434416 0.892981 0.351485
O O1 0.000000 0.000000 0.500000
O O2 0.999217 0.946553 0.282679
O O3 0.750000 0.000000 0.348457
O O4 0.250000 0.680050 0.146834
O O5 0.014344 0.748031 0.168106
O O6 0.985454 0.655591 0.261086
O O7 0.000000 0.668084 0.000000
O O8 0.750000 0.188816 0.871254
O O9 0.993257 0.155498 0.739219
O O10 0.000000 0.171195 0.000000
O O11 0.500000 0.384434 0.500000
O O12 0.750000 0.396840 0.359142
O O13 0.498961 0.446603 0.282051
O O14 0.250000 0.500000 0.347707
O O15 0.500000 0.500000 0.500000
O O16 0.500000 0.883655 0.500000
O O17 0.250000 0.896796 0.358967
#
# Coordination Sequence:
#
# PCOD8206897 Si02
#       6
#     4   8   8   8   4   8
#     4  10  18  30  49  74 101 134 168 206 254 306
#     4  10  20  37  56  78 106 140 177 216 262 315
#     4   9  20  36  55  76 103 136 173 212 257 307
#     4  11  21  35  55  81 109 141 177 218 261 309
#     4  10  18  32  53  78 107 140 173 214 262 312
#     4  10  19  33  52  77 104 134 169 211 255 303
#
# _framework density 18.425962999999999
#
# number of rings (size 3 to 8) (size 9 to 14) (size 15 to 20)
#    0.000    2.000    0.000    7.200    0.000    3.200 
#    0.000    3.000    0.000    0.000    0.000    0.000 
#    0.000    0.000    0.000    0.000    0.000    0.000 
#
# Total GULP energy -495949.367299 kJ/mol
# GULP energy per Si atom -12398.734182 kJ/mol
# Density = 1.838402 g / cm^3
# Si number density = 18.425963 Si / 1000 Ang^3
#
#
#
# Elastic Constant Matrix: (Units=GPa)
#
#
# Indices 1 2 3 4 5 6 
#
# 1 123.6972 53.5842 42.9013 0.0000 0.0000 0.0000
# 2 53.5842 135.3974 77.7600 0.0000 0.0000 0.0000
# 3 42.9013 77.7600 98.2028 0.0000 0.0000 0.0000
# 4 0.0000 0.0000 0.0000 13.4642 0.0000 0.0000
# 5 0.0000 0.0000 0.0000 0.0000 29.6728 0.0000
# 6 0.0000 0.0000 0.0000 0.0000 0.0000 30.0825
#
#
#
# Elastic Compliance Matrix: (Units=1/GPa)
#
#
# Indices 1 2 3 4 5 6 
#
# 1 0.010026 -0.002664 -0.002271 0.000000 0.000000 0.000000
# 2 -0.002664 0.014253 -0.010123 0.000000 0.000000 0.000000
# 3 -0.002271 -0.010123 0.019190 0.000000 0.000000 0.000000
# 4 0.000000 0.000000 0.000000 0.074271 0.000000 0.000000
# 5 0.000000 0.000000 0.000000 0.000000 0.033701 0.000000
# 6 0.000000 0.000000 0.000000 0.000000 0.000000 0.033242
#
#
# Mechanical properties :
#
#
# Convention : Reuss Voigt Hill
#
# Bulk Modulus (GPa) = 74.87538 78.42093 76.64816
# Shear Modulus (GPa) = 22.80515 26.84736 24.82626
#
# Velocity S-wave (km/s) = 3.52186 3.82126 3.67461
# Velocity P-wave (km/s) = 7.56717 7.88174 7.72605
#
# Compressibility (1/GPa) = 0.01335552
#
# Stress axis : x y z
#
# Youngs Moduli (GPa) = 99.74419 70.15928 52.10951
#
# Poissons Ratio (x) = 0.18688 0.11833
# Poissons Ratio (y) = 0.26568 0.52748
# Poissons Ratio (z) = 0.22649 0.71019
#
# Static dielectric constant tensor:
#      x y z
#    x 3.447710 0.000000 0.000000 
#    y 0.000000 4.211880 0.000000 
#    z 0.000000 0.000000 2.529070 
# 
# 
# High freq. dielectric constant tensor:
#      x y z
#    x 1.730700 0.000000 0.000000 
#    y 0.000000 1.730950 0.000000 
#    z 0.000000 0.000000 1.686020 
# 
# From -- ./inp_files/5584.got.cif
#   From: 2010.03.12/outbox.cif.g09.slc.cpg/sg51_3_cif.got.tgz:5584.got - 2010.04.16 13:43:02.
