data_PCOD8206358
_publ_section_title
;
Structure prediction by ZEFSAII (Michael W. Deem and Ramdas Pophale) SiO2 
 PCOD8206358
Probable space group: P M M A
;
_chemical_formula_sum "Si O2"
_cell_formula_units_Z 64
_cell_length_a 17.736428
_cell_length_b 17.553720
_cell_length_c 12.369538
_cell_angle_alpha 90.000000
_cell_angle_beta 90.000000
_cell_angle_gamma 90.000000
_cell_volume 3851.135559
_symmetry_space_group_name_H-M "P M M A"
_symmetry_group_IT_number 51
_symmetry_cell_setting 'orthorhombic'
loop_
_space_group_symop_operation_xyz
x,y,z
1/2-x,-y,z
1/2+x,-y,-z
-x,y,-z
-x,-y,-z
1/2+x,y,-z
1/2-x,y,z
x,-y,z
loop_
_atom_site_type_symbol
_atom_site_label
_atom_site_fract_x
_atom_site_fract_y
_atom_site_fract_z
Si Si1 0.526253 0.233295 0.378967
Si Si2 0.550214 0.685954 0.812587
Si Si3 0.836688 0.857725 0.118253
Si Si4 0.025233 0.085534 0.749539
Si Si5 0.165568 0.586396 0.098657
Si Si6 0.093082 0.588077 0.865914
Si Si7 0.334328 0.713148 0.738250
Si Si8 0.432570 0.157596 0.076907
O O1 0.500000 0.245938 0.500000
O O2 0.468246 0.280215 0.304520
O O3 0.527573 0.143590 0.351001
O O4 0.609874 0.267423 0.360678
O O5 0.627099 0.637309 0.808007
O O6 0.486251 0.630020 0.856803
O O7 0.563142 0.753785 0.896283
O O8 0.750000 0.885620 0.134789
O O9 0.896338 0.909932 0.182742
O O10 0.848198 0.771919 0.162692
O O11 0.855277 0.859656 0.989054
O O12 0.949052 0.105418 0.817969
O O13 0.017277 0.000000 0.704755
O O14 0.250000 0.616068 0.079974
O O15 0.165182 0.500000 0.139524
O O16 0.120419 0.595222 0.987915
O O17 0.085389 0.500000 0.831090
O O18 0.151887 0.628663 0.784807
O O19 0.250000 0.719122 0.692119
O O20 0.500000 0.135059 0.000000
#
# Coordination Sequence:
#
# PCOD8206358 Si02
#       8
#     8   8   8   8   8   8   8   8
#     4   9  19  35  53  70  85 110 154 198 235 277
#     4  10  18  30  46  64  90 124 160 197 232 266
#     4   9  17  28  44  68  96 126 156 183 217 266
#     4   9  18  31  47  69  95 118 144 184 230 274
#     4  10  19  28  41  67 101 131 156 182 217 267
#     4  10  18  27  44  70  98 127 156 185 223 273
#     4   9  17  30  48  69  94 119 148 194 239 269
#     4   9  16  26  42  64  91 124 154 176 209 264
#
# _framework density 16.618475
#
# number of rings (size 3 to 8) (size 9 to 14) (size 15 to 20)
#    0.000    2.625    0.000    4.875    0.000    6.000 
#    0.000    0.625    0.000   10.125    0.000    0.000 
#    0.000    0.000    0.000    0.000    0.000    0.000 
#
# Total GULP energy -793200.650709 kJ/mol
# GULP energy per Si atom -12393.760167 kJ/mol
# Density = 1.658065 g / cm^3
# Si number density = 16.618475 Si / 1000 Ang^3
#
#
#
# Elastic Constant Matrix: (Units=GPa)
#
#
# Indices 1 2 3 4 5 6 
#
# 1 72.7084 37.0990 42.0850 0.0000 0.0000 0.0000
# 2 37.0990 106.0058 29.8214 0.0000 0.0000 0.0000
# 3 42.0850 29.8214 71.7720 0.0000 0.0000 0.0000
# 4 0.0000 0.0000 0.0000 12.0371 0.0000 0.0000
# 5 0.0000 0.0000 0.0000 0.0000 15.2678 0.0000
# 6 0.0000 0.0000 0.0000 0.0000 0.0000 16.5133
#
#
#
# Elastic Compliance Matrix: (Units=1/GPa)
#
#
# Indices 1 2 3 4 5 6 
#
# 1 0.022768 -0.004770 -0.011368 0.000000 0.000000 0.000000
# 2 -0.004770 0.011681 -0.002057 0.000000 0.000000 0.000000
# 3 -0.011368 -0.002057 0.021454 0.000000 0.000000 0.000000
# 4 0.000000 0.000000 0.000000 0.083076 0.000000 0.000000
# 5 0.000000 0.000000 0.000000 0.000000 0.065497 0.000000
# 6 0.000000 0.000000 0.000000 0.000000 0.000000 0.060557
#
#
# Mechanical properties :
#
#
# Convention : Reuss Voigt Hill
#
# Bulk Modulus (GPa) = 51.24866 52.05523 51.65195
# Shear Modulus (GPa) = 16.23757 18.19570 17.21664
#
# Velocity S-wave (km/s) = 3.12922 3.31253 3.22218
# Velocity P-wave (km/s) = 6.63033 6.78396 6.70759
#
# Compressibility (1/GPa) = 0.01951270
#
# Stress axis : x y z
#
# Youngs Moduli (GPa) = 43.92212 85.60655 46.61215
#
# Poissons Ratio (x) = 0.40833 0.52990
# Poissons Ratio (y) = 0.20950 0.09587
# Poissons Ratio (z) = 0.49932 0.17607
#
# Static dielectric constant tensor:
#      x y z
#    x 3.292070 0.000000 0.000000 
#    y 0.000000 3.203430 0.000000 
#    z 0.000000 0.000000 2.743250 
# 
# 
# High freq. dielectric constant tensor:
#      x y z
#    x 1.638710 0.000000 0.000000 
#    y 0.000000 1.644070 0.000000 
#    z 0.000000 0.000000 1.592800 
# 
# From -- ./inp_files/17724.got.cif
#   From: 2010.03.12/outbox.cif.g09.slc.cpg/sg51_9_cif.got.tgz:17724.got - 2010.04.16 13:43:02.
