data_PCOD8206323
_publ_section_title
;
Structure prediction by ZEFSAII (Michael W. Deem and Ramdas Pophale) SiO2 
 PCOD8206323
Probable space group: P M M A
;
_chemical_formula_sum "Si O2"
_cell_formula_units_Z 48
_cell_length_a 8.902975
_cell_length_b 24.306236
_cell_length_c 13.609020
_cell_angle_alpha 90.000000
_cell_angle_beta 90.000000
_cell_angle_gamma 90.000000
_cell_volume 2944.962144
_symmetry_space_group_name_H-M "P M M A"
_symmetry_group_IT_number 51
_symmetry_cell_setting 'orthorhombic'
loop_
_space_group_symop_operation_xyz
x,y,z
1/2-x,-y,z
1/2+x,-y,-z
-x,y,-z
-x,-y,-z
1/2+x,y,-z
1/2-x,y,z
x,-y,z
loop_
_atom_site_type_symbol
_atom_site_label
_atom_site_fract_x
_atom_site_fract_y
_atom_site_fract_z
Si Si1 0.924724 0.437908 0.778934
Si Si2 0.073999 0.940333 0.606226
Si Si3 0.074799 0.279993 0.299395
Si Si4 0.923778 0.665118 0.899355
Si Si5 0.427585 0.619329 0.602057
Si Si6 0.926503 0.166229 0.606202
O O1 0.750000 0.428678 0.752545
O O2 0.957359 0.500000 0.814016
O O3 0.972605 0.396471 0.866224
O O4 0.021062 0.424945 0.682651
O O5 0.250000 0.928766 0.596077
O O6 0.000000 0.942655 0.500000
O O7 0.995252 0.888397 0.660009
O O8 0.045926 0.000000 0.658747
O O9 0.250000 0.292827 0.317329
O O10 0.030941 0.291871 0.186242
O O11 0.034313 0.217211 0.323466
O O12 0.981252 0.319338 0.370859
O O13 0.750000 0.667390 0.921296
O O14 0.000000 0.682919 0.000000
O O15 0.500000 0.600774 0.500000
O O16 0.250000 0.618844 0.592577
O O17 0.750000 0.158751 0.592290
O O18 0.000000 0.176094 0.500000
#
# Coordination Sequence:
#
# PCOD8206323 Si02
#       6
#     8   8   8   8   8   8
#     4   9  19  36  53  68  90 118 146 179 218 260
#     4   9  16  25  37  55  83 119 155 188 219 252
#     4   9  19  34  48  65  91 119 149 186 224 264
#     4   9  18  33  51  70  91 114 141 176 222 271
#     4  11  21  32  48  68  91 120 151 183 219 260
#     4  10  18  27  42  63  88 120 154 187 220 254
#
# _framework density 16.299019999999999
#
# number of rings (size 3 to 8) (size 9 to 14) (size 15 to 20)
#    0.000    2.500    0.000    5.000    0.000    7.333 
#    0.000    0.000    0.000    0.000    0.000    0.000 
#    0.000    0.667    0.000    1.500    0.000    3.000 
#
# Total GULP energy -594967.460772 kJ/mol
# GULP energy per Si atom -12395.155433 kJ/mol
# Density = 1.626192 g / cm^3
# Si number density = 16.299020 Si / 1000 Ang^3
#
#
#
# Elastic Constant Matrix: (Units=GPa)
#
#
# Indices 1 2 3 4 5 6 
#
# 1 79.9564 38.0934 30.9424 0.0000 0.0000 0.0000
# 2 38.0934 135.5059 34.7198 0.0000 0.0000 0.0000
# 3 30.9424 34.7198 77.7413 0.0000 0.0000 0.0000
# 4 0.0000 0.0000 0.0000 13.4298 0.0000 0.0000
# 5 0.0000 0.0000 0.0000 0.0000 23.5312 0.0000
# 6 0.0000 0.0000 0.0000 0.0000 0.0000 23.1629
#
#
#
# Elastic Compliance Matrix: (Units=1/GPa)
#
#
# Indices 1 2 3 4 5 6 
#
# 1 0.015941 -0.003225 -0.004905 0.000000 0.000000 0.000000
# 2 -0.003225 0.008986 -0.002730 0.000000 0.000000 0.000000
# 3 -0.004905 -0.002730 0.016034 0.000000 0.000000 0.000000
# 4 0.000000 0.000000 0.000000 0.074461 0.000000 0.000000
# 5 0.000000 0.000000 0.000000 0.000000 0.042497 0.000000
# 6 0.000000 0.000000 0.000000 0.000000 0.000000 0.043173
#
#
# Mechanical properties :
#
#
# Convention : Reuss Voigt Hill
#
# Bulk Modulus (GPa) = 51.96612 55.63497 53.80054
# Shear Modulus (GPa) = 21.81272 24.65465 23.23368
#
# Velocity S-wave (km/s) = 3.66223 3.89349 3.77963
# Velocity P-wave (km/s) = 7.05937 7.37702 7.21994
#
# Compressibility (1/GPa) = 0.01924331
#
# Stress axis : x y z
#
# Youngs Moduli (GPa) = 62.73047 111.28843 62.36602
#
# Poissons Ratio (x) = 0.35887 0.30589
# Poissons Ratio (y) = 0.20229 0.17023
# Poissons Ratio (z) = 0.30767 0.30377
#
# Static dielectric constant tensor:
#      x y z
#    x 3.025530 0.000000 0.000000 
#    y 0.000000 3.597680 0.000000 
#    z 0.000000 0.000000 2.808830 
# 
# 
# High freq. dielectric constant tensor:
#      x y z
#    x 1.635460 0.000000 0.000000 
#    y 0.000000 1.633440 0.000000 
#    z 0.000000 0.000000 1.583860 
# 
# From -- ./inp_files/14539.got.cif
#   From: 2010.03.12/outbox.cif.g09.slc.cpg/sg51_8_cif.got.tgz:14539.got - 2010.04.16 13:43:02.
