data_PCOD8206706
_publ_section_title
;
Structure prediction by ZEFSAII (Michael W. Deem and Ramdas Pophale) SiO2 
 PCOD8206706
Probable space group: P M M A
;
_chemical_formula_sum "Si O2"
_cell_formula_units_Z 48
_cell_length_a 13.876979
_cell_length_b 8.726357
_cell_length_c 23.993035
_cell_angle_alpha 90.000000
_cell_angle_beta 90.000000
_cell_angle_gamma 90.000000
_cell_volume 2905.447918
_symmetry_space_group_name_H-M "P M M A"
_symmetry_group_IT_number 51
_symmetry_cell_setting 'orthorhombic'
loop_
_space_group_symop_operation_xyz
x,y,z
1/2-x,-y,z
1/2+x,-y,-z
-x,y,-z
-x,-y,-z
1/2+x,y,-z
1/2-x,y,z
x,-y,z
loop_
_atom_site_type_symbol
_atom_site_label
_atom_site_fract_x
_atom_site_fract_y
_atom_site_fract_z
Si Si1 0.855985 0.182236 0.022317
Si Si2 0.358654 0.319116 0.188798
Si Si3 0.027549 0.681897 0.418193
Si Si4 0.860868 0.820336 0.480995
Si Si5 0.961877 0.181061 0.913149
Si Si6 0.357082 0.681873 0.312888
O O1 0.750000 0.249781 0.035298
O O2 0.930239 0.236323 0.070216
O O3 0.854414 0.000000 0.020925
O O4 0.889725 0.240372 0.961431
O O5 0.250000 0.261844 0.175437
O O6 0.362906 0.500000 0.184545
O O7 0.434713 0.250335 0.146026
O O8 0.388650 0.264459 0.250998
O O9 0.013260 0.500000 0.419790
O O10 0.105625 0.728703 0.464520
O O11 0.066720 0.741413 0.358537
O O12 0.925138 0.764068 0.428782
O O13 0.750000 0.781746 0.468028
O O14 0.877080 0.000000 0.491061
O O15 0.957021 0.000000 0.908250
O O16 0.250000 0.746407 0.326415
O O17 0.352514 0.500000 0.314996
#
# Coordination Sequence:
#
# PCOD8206706 Si02
#       6
#     8   8   8   8   8   8
#     4   8  14  25  41  61  86 113 138 169 212 255
#     4   9  17  29  44  62  87 116 139 166 213 263
#     4  10  18  29  49  71  88 111 148 189 217 247
#     4  10  20  32  45  64  94 125 145 170 217 269
#     4   9  16  26  43  65  84 107 142 178 208 244
#     4   8  15  28  45  65  88 113 140 171 212 259
#
# _framework density 16.520688
#
# number of rings (size 3 to 8) (size 9 to 14) (size 15 to 20)
#    0.000    3.000    0.000    5.000    0.000    3.000 
#    0.000    3.333    0.000    4.500    0.000    4.667 
#    0.000    0.000    0.000    0.000    0.000    0.000 
#
# Total GULP energy -594906.689749 kJ/mol
# GULP energy per Si atom -12393.889370 kJ/mol
# Density = 1.648309 g / cm^3
# Si number density = 16.520688 Si / 1000 Ang^3
#
#
#
# Elastic Constant Matrix: (Units=GPa)
#
#
# Indices 1 2 3 4 5 6 
#
# 1 143.0579 20.7077 76.4953 0.0000 0.0000 0.0000
# 2 20.7077 25.5486 15.7712 0.0000 0.0000 0.0000
# 3 76.4953 15.7712 129.3343 0.0000 0.0000 0.0000
# 4 0.0000 0.0000 0.0000 -39.7318 0.0000 0.0000
# 5 0.0000 0.0000 0.0000 0.0000 29.2619 0.0000
# 6 0.0000 0.0000 0.0000 0.0000 0.0000 21.1795
#
#
#
# Elastic Compliance Matrix: (Units=1/GPa)
#
#
# Indices 1 2 3 4 5 6 
#
# 1 0.010830 -0.005217 -0.005770 0.000000 0.000000 0.000000
# 2 -0.005217 0.044840 -0.002382 0.000000 0.000000 0.000000
# 3 -0.005770 -0.002382 0.011435 0.000000 0.000000 0.000000
# 4 0.000000 0.000000 0.000000 -0.025169 0.000000 0.000000
# 5 0.000000 0.000000 0.000000 0.000000 0.034174 0.000000
# 6 0.000000 0.000000 0.000000 0.000000 0.000000 0.047215
#
#
# Mechanical properties :
#
#
# Convention : Reuss Voigt Hill
#
# Bulk Modulus (GPa) = 24.77212 58.20990 41.49101
# Shear Modulus (GPa) = 30.57743 14.47303 22.52523
#
# Velocity S-wave (km/s) = 4.30683 2.96303 3.69651
# Velocity P-wave (km/s) = 6.30546 6.85690 6.58696
#
# Compressibility (1/GPa) = 0.04036797
#
# Stress axis : x y z
#
# Youngs Moduli (GPa) = 92.33311 22.30148 87.45215
#
# Poissons Ratio (x) = 0.11634 0.50456
# Poissons Ratio (y) = 0.48167 0.20835
# Poissons Ratio (z) = 0.53272 0.05313
#
# Static dielectric constant tensor:
#      x y z
#    x 3.383480 0.000000 0.000000 
#    y 0.000000 2.815910 0.000000 
#    z 0.000000 0.000000 3.326380 
# 
# 
# High freq. dielectric constant tensor:
#      x y z
#    x 1.631280 0.000000 0.000000 
#    y 0.000000 1.611680 0.000000 
#    z 0.000000 0.000000 1.627970 
# 
# From -- ./inp_files/35485.got.cif
#   From: 2010.03.12/outbox.cif.g09.slc.cpg/sg51_18_cif.got.tgz:35485.got - 2010.04.16 13:43:02.
