data_PCOD8206684
_publ_section_title
;
Structure prediction by ZEFSAII (Michael W. Deem and Ramdas Pophale) SiO2 
 PCOD8206684
Probable space group: P M M A
;
_chemical_formula_sum "Si O2"
_cell_formula_units_Z 64
_cell_length_a 27.279010
_cell_length_b 21.806082
_cell_length_c 6.822781
_cell_angle_alpha 90.000000
_cell_angle_beta 90.000000
_cell_angle_gamma 90.000000
_cell_volume 4058.519877
_symmetry_space_group_name_H-M "P M M A"
_symmetry_group_IT_number 51
_symmetry_cell_setting 'orthorhombic'
loop_
_space_group_symop_operation_xyz
x,y,z
1/2-x,-y,z
1/2+x,-y,-z
-x,y,-z
-x,-y,-z
1/2+x,y,-z
1/2-x,y,z
x,-y,z
loop_
_atom_site_type_symbol
_atom_site_label
_atom_site_fract_x
_atom_site_fract_y
_atom_site_fract_z
Si Si1 0.146466 0.668408 0.128011
Si Si2 0.396910 0.163882 0.793878
Si Si3 0.947689 0.740004 0.930723
Si Si4 0.694818 0.339214 0.469566
Si Si5 0.551440 0.161640 0.601663
Si Si6 0.443835 0.929311 0.057037
Si Si7 0.306721 0.429422 0.868746
Si Si8 0.805510 0.237586 0.146183
O O1 0.159482 0.603782 0.028789
O O2 0.180004 0.723357 0.045077
O O3 0.089319 0.683066 0.091093
O O4 0.155512 0.663214 0.358538
O O5 0.406606 0.166429 0.562239
O O6 0.409734 0.097468 0.883610
O O7 0.339722 0.178034 0.832186
O O8 0.430617 0.214190 0.899265
O O9 0.951348 0.775515 0.724272
O O10 0.000000 0.713427 0.000000
O O11 0.750000 0.341203 0.554920
O O12 0.684321 0.400339 0.344412
O O13 0.687485 0.279806 0.335705
O O14 0.500000 0.147072 0.500000
O O15 0.566660 0.105165 0.739901
O O16 0.430372 0.000000 0.084618
O O17 0.500000 0.918820 0.000000
O O18 0.250000 0.420735 0.930518
O O19 0.322191 0.500000 0.860367
O O20 0.750000 0.214463 0.122620
#
# Coordination Sequence:
#
# PCOD8206684 Si02
#       8
#     8   8   8   8   8   8   8   8
#     4  10  18  29  48  69  94 123 151 182 229 275
#     4  10  18  31  47  66  93 123 148 185 229 269
#     4  10  19  30  44  70  97 119 151 188 221 272
#     4   9  16  28  44  67  94 116 143 183 227 270
#     4  11  17  29  48  67  94 126 149 179 232 282
#     4  10  20  31  44  68  95 118 152 192 227 272
#     4   9  18  31  46  67  93 119 150 186 224 269
#     4   9  18  30  46  69  94 118 150 186 224 274
#
# _framework density 15.769296000000001
#
# number of rings (size 3 to 8) (size 9 to 14) (size 15 to 20)
#    0.000    2.250    2.500    3.375    0.000    1.250 
#    0.000    1.250    0.000    0.750    0.000    0.875 
#    0.000    0.000    0.000    0.000    0.000    0.000 
#
# Total GULP energy -793710.525064 kJ/mol
# GULP energy per Si atom -12401.726954 kJ/mol
# Density = 1.573340 g / cm^3
# Si number density = 15.769296 Si / 1000 Ang^3
#
#
#
# Elastic Constant Matrix: (Units=GPa)
#
#
# Indices 1 2 3 4 5 6 
#
# 1 102.5725 47.9317 34.7506 0.0000 0.0000 0.0000
# 2 47.9317 87.2330 33.8378 0.0000 0.0000 0.0000
# 3 34.7506 33.8378 92.2702 0.0000 0.0000 0.0000
# 4 0.0000 0.0000 0.0000 11.1133 0.0000 0.0000
# 5 0.0000 0.0000 0.0000 0.0000 17.6604 0.0000
# 6 0.0000 0.0000 0.0000 0.0000 0.0000 22.8247
#
#
#
# Elastic Compliance Matrix: (Units=1/GPa)
#
#
# Indices 1 2 3 4 5 6 
#
# 1 0.013710 -0.006448 -0.002799 0.000000 0.000000 0.000000
# 2 -0.006448 0.016397 -0.003585 0.000000 0.000000 0.000000
# 3 -0.002799 -0.003585 0.013207 0.000000 0.000000 0.000000
# 4 0.000000 0.000000 0.000000 0.089982 0.000000 0.000000
# 5 0.000000 0.000000 0.000000 0.000000 0.056624 0.000000
# 6 0.000000 0.000000 0.000000 0.000000 0.000000 0.043812
#
#
# Mechanical properties :
#
#
# Convention : Reuss Voigt Hill
#
# Bulk Modulus (GPa) = 56.65486 57.23509 56.94498
# Shear Modulus (GPa) = 18.84806 21.35671 20.10239
#
# Velocity S-wave (km/s) = 3.46097 3.68410 3.57428
# Velocity P-wave (km/s) = 7.20947 7.38044 7.29545
#
# Compressibility (1/GPa) = 0.01765073
#
# Stress axis : x y z
#
# Youngs Moduli (GPa) = 72.93685 60.98707 75.71984
#
# Poissons Ratio (x) = 0.39323 0.21195
# Poissons Ratio (y) = 0.47027 0.27144
# Poissons Ratio (z) = 0.20416 0.21863
#
# Static dielectric constant tensor:
#      x y z
#    x 2.951450 0.000000 0.000000 
#    y 0.000000 2.860550 0.000000 
#    z 0.000000 0.000000 3.061860 
# 
# 
# High freq. dielectric constant tensor:
#      x y z
#    x 1.589290 0.000000 0.000000 
#    y 0.000000 1.580190 0.000000 
#    z 0.000000 0.000000 1.616460 
# 
# From -- ./inp_files/3196.got.cif
#   From: 2010.03.12/outbox.cif.g09.slc.cpg/sg51_2_cif.got.tgz:3196.got - 2010.04.16 13:43:02.
