data_PCOD8206431
_publ_section_title
;
Structure prediction by ZEFSAII (Michael W. Deem and Ramdas Pophale) SiO2 
 PCOD8206431
Probable space group: P M M A
;
_chemical_formula_sum "Si O2"
_cell_formula_units_Z 48
_cell_length_a 20.817575
_cell_length_b 9.267625
_cell_length_c 14.966835
_cell_angle_alpha 90.000000
_cell_angle_beta 90.000000
_cell_angle_gamma 90.000000
_cell_volume 2887.543671
_symmetry_space_group_name_H-M "P M M A"
_symmetry_group_IT_number 51
_symmetry_cell_setting 'orthorhombic'
loop_
_space_group_symop_operation_xyz
x,y,z
1/2-x,-y,z
1/2+x,-y,-z
-x,y,-z
-x,-y,-z
1/2+x,y,-z
1/2-x,y,z
x,-y,z
loop_
_atom_site_type_symbol
_atom_site_label
_atom_site_fract_x
_atom_site_fract_y
_atom_site_fract_z
Si Si1 0.975124 0.666450 0.771854
Si Si2 0.551161 0.331234 0.572110
Si Si3 0.680984 0.333926 0.978510
Si Si4 0.678260 0.167928 0.609735
Si Si5 0.945692 0.668790 0.065835
Si Si6 0.352002 0.168457 0.188972
O O1 0.953956 0.500000 0.783929
O O2 0.982476 0.702858 0.667278
O O3 0.923260 0.769045 0.816609
O O4 0.039642 0.699313 0.829076
O O5 0.500000 0.271942 0.500000
O O6 0.563769 0.500000 0.558111
O O7 0.620829 0.255368 0.561334
O O8 0.750000 0.319408 0.028469
O O9 0.666713 0.500000 0.954308
O O10 0.688780 0.246396 0.886752
O O11 0.624579 0.267829 0.041102
O O12 0.750000 0.210022 0.573498
O O13 0.678553 0.202712 0.714869
O O14 0.664568 0.000000 0.592485
O O15 0.943606 0.500000 0.048225
O O16 0.000000 0.736211 0.000000
O O17 0.353280 0.000000 0.169184
#
# Coordination Sequence:
#
# PCOD8206431 Si02
#       6
#     8   8   8   8   8   8
#     4   9  16  29  48  65  87 120 152 182 220 263
#     4   9  18  31  48  71  95 118 149 188 232 277
#     4  10  19  29  42  61  85 115 152 188 219 260
#     4   9  18  31  46  66  93 123 152 182 221 274
#     4   9  15  26  45  64  84 113 151 185 214 252
#     4  10  18  28  43  65  94 120 145 179 223 267
#
# _framework density 16.623125000000002
#
# number of rings (size 3 to 8) (size 9 to 14) (size 15 to 20)
#    0.000    2.667    1.667    1.000    0.000    2.333 
#    0.000    1.667    0.000    1.000    0.000    4.667 
#    0.000    0.000    0.000    0.000    0.000    0.000 
#
# Total GULP energy -594750.337722 kJ/mol
# GULP energy per Si atom -12390.632036 kJ/mol
# Density = 1.658529 g / cm^3
# Si number density = 16.623125 Si / 1000 Ang^3
#
#
#
# Elastic Constant Matrix: (Units=GPa)
#
#
# Indices 1 2 3 4 5 6 
#
# 1 150.5264 36.9890 62.4839 0.0000 0.0000 0.0000
# 2 36.9890 41.4752 19.8893 0.0000 0.0000 0.0000
# 3 62.4839 19.8893 71.0931 0.0000 0.0000 0.0000
# 4 0.0000 0.0000 0.0000 14.2312 0.0000 0.0000
# 5 0.0000 0.0000 0.0000 0.0000 22.2271 0.0000
# 6 0.0000 0.0000 0.0000 0.0000 0.0000 15.5352
#
#
#
# Elastic Compliance Matrix: (Units=1/GPa)
#
#
# Indices 1 2 3 4 5 6 
#
# 1 0.011763 -0.006390 -0.008551 0.000000 0.000000 0.000000
# 2 -0.006390 0.031318 -0.003145 0.000000 0.000000 0.000000
# 3 -0.008551 -0.003145 0.022461 0.000000 0.000000 0.000000
# 4 0.000000 0.000000 0.000000 0.070268 0.000000 0.000000
# 5 0.000000 0.000000 0.000000 0.000000 0.044990 0.000000
# 6 0.000000 0.000000 0.000000 0.000000 0.000000 0.064370
#
#
# Mechanical properties :
#
#
# Convention : Reuss Voigt Hill
#
# Bulk Modulus (GPa) = 34.04851 55.75768 44.90310
# Shear Modulus (GPa) = 17.17424 19.98086 18.57755
#
# Velocity S-wave (km/s) = 3.21776 3.47074 3.34664
# Velocity P-wave (km/s) = 5.85938 7.04815 6.48108
#
# Compressibility (1/GPa) = 0.02936986
#
# Stress axis : x y z
#
# Youngs Moduli (GPa) = 85.01133 31.93038 44.52080
#
# Poissons Ratio (x) = 0.20404 0.38069
# Poissons Ratio (y) = 0.54324 0.14003
# Poissons Ratio (z) = 0.72692 0.10043
#
# Static dielectric constant tensor:
#      x y z
#    x 3.354980 0.000000 0.000000 
#    y 0.000000 2.976070 0.000000 
#    z 0.000000 0.000000 3.013070 
# 
# 
# High freq. dielectric constant tensor:
#      x y z
#    x 1.642350 0.000000 0.000000 
#    y 0.000000 1.620470 0.000000 
#    z 0.000000 0.000000 1.609860 
# 
# From -- ./inp_files/25469.got.cif
#   From: 2010.03.12/outbox.cif.g09.slc.cpg/sg51_13_cif.got.tgz:25469.got - 2010.04.16 13:43:02.
