data_PCOD8206948
_publ_section_title
;
Structure prediction by ZEFSAII (Michael W. Deem and Ramdas Pophale) SiO2 
 PCOD8206948
Probable space group: P M M A
;
_chemical_formula_sum "Si O2"
_cell_formula_units_Z 64
_cell_length_a 19.367244
_cell_length_b 9.969869
_cell_length_c 18.802730
_cell_angle_alpha 90.000000
_cell_angle_beta 90.000000
_cell_angle_gamma 90.000000
_cell_volume 3630.598181
_symmetry_space_group_name_H-M "P M M A"
_symmetry_group_IT_number 51
_symmetry_cell_setting 'orthorhombic'
loop_
_space_group_symop_operation_xyz
x,y,z
1/2-x,-y,z
1/2+x,-y,-z
-x,y,-z
-x,-y,-z
1/2+x,y,-z
1/2-x,y,z
x,-y,z
loop_
_atom_site_type_symbol
_atom_site_label
_atom_site_fract_x
_atom_site_fract_y
_atom_site_fract_z
Si Si1 0.170859 0.652468 0.485740
Si Si2 0.380334 0.649785 0.332478
Si Si3 0.826580 0.649287 0.816365
Si Si4 0.503537 0.153567 0.299801
Si Si5 0.564482 0.151997 0.451873
Si Si6 0.555427 0.843697 0.149294
Si Si7 0.671266 0.159725 0.048301
Si Si8 0.590505 0.843922 0.907945
O O1 0.250000 0.673273 0.505753
O O2 0.147439 0.500000 0.501025
O O3 0.159832 0.689905 0.403538
O O4 0.128438 0.751840 0.535135
O O5 0.412850 0.500000 0.339134
O O6 0.325350 0.653593 0.268946
O O7 0.438671 0.756957 0.317491
O O8 0.750000 0.682751 0.844333
O O9 0.848827 0.500000 0.842463
O O10 0.879335 0.760453 0.842824
O O11 0.553062 0.160303 0.367599
O O12 0.541105 0.212747 0.228781
O O13 0.479461 0.000000 0.285782
O O14 0.500000 0.201914 0.500000
O O15 0.582633 0.000000 0.474697
O O16 0.626510 0.784174 0.115425
O O17 0.491994 0.817056 0.094056
O O18 0.567617 0.000000 0.157078
O O19 0.750000 0.217753 0.049303
O O20 0.674439 0.000000 0.049223
O O21 0.628290 0.207361 0.979144
O O22 0.606200 0.000000 0.894787
#
# Coordination Sequence:
#
# PCOD8206948 Si02
#       8
#     8   8   8   8   8   8   8   8
#     4  10  21  36  54  77 104 135 174 215 255 306
#     4  10  19  32  51  73 101 135 170 206 249 301
#     4  10  20  32  46  69 105 141 167 197 245 302
#     4  10  19  33  52  76 102 132 171 211 252 304
#     4  10  20  34  53  76 106 137 169 211 259 308
#     4   9  17  30  49  72 101 133 166 208 254 296
#     4   9  17  29  47  74 103 130 166 212 257 299
#     4  10  18  30  51  76 100 128 166 209 252 300
#
# _framework density 17.627949000000001
#
# number of rings (size 3 to 8) (size 9 to 14) (size 15 to 20)
#    0.000    2.250    2.500    1.125    0.000    4.750 
#    0.000    0.625    0.000    6.750    0.000    0.000 
#    0.000    0.000    0.000    0.000    0.000    0.000 
#
# Total GULP energy -793228.790520 kJ/mol
# GULP energy per Si atom -12394.199852 kJ/mol
# Density = 1.758783 g / cm^3
# Si number density = 17.627949 Si / 1000 Ang^3
#
#
#
# Elastic Constant Matrix: (Units=GPa)
#
#
# Indices 1 2 3 4 5 6 
#
# 1 100.9939 41.3314 39.7341 0.0000 0.0000 0.0000
# 2 41.3314 53.6857 26.2697 0.0000 0.0000 0.0000
# 3 39.7341 26.2697 75.3558 0.0000 0.0000 0.0000
# 4 0.0000 0.0000 0.0000 14.5431 0.0000 0.0000
# 5 0.0000 0.0000 0.0000 0.0000 27.5505 0.0000
# 6 0.0000 0.0000 0.0000 0.0000 0.0000 23.0055
#
#
#
# Elastic Compliance Matrix: (Units=1/GPa)
#
#
# Indices 1 2 3 4 5 6 
#
# 1 0.015852 -0.009783 -0.004948 0.000000 0.000000 0.000000
# 2 -0.009783 0.028495 -0.004775 0.000000 0.000000 0.000000
# 3 -0.004948 -0.004775 0.017544 0.000000 0.000000 0.000000
# 4 0.000000 0.000000 0.000000 0.068761 0.000000 0.000000
# 5 0.000000 0.000000 0.000000 0.000000 0.036297 0.000000
# 6 0.000000 0.000000 0.000000 0.000000 0.000000 0.043468
#
#
# Mechanical properties :
#
#
# Convention : Reuss Voigt Hill
#
# Bulk Modulus (GPa) = 43.70870 49.41178 46.56024
# Shear Modulus (GPa) = 19.45103 21.19985 20.32544
#
# Velocity S-wave (km/s) = 3.32538 3.47165 3.39930
# Velocity P-wave (km/s) = 6.29231 6.64538 6.47125
#
# Compressibility (1/GPa) = 0.02287874
#
# Stress axis : x y z
#
# Youngs Moduli (GPa) = 63.08388 35.09366 56.99896
#
# Poissons Ratio (x) = 0.34331 0.28204
# Poissons Ratio (y) = 0.61714 0.27219
# Poissons Ratio (z) = 0.31215 0.16758
#
# Static dielectric constant tensor:
#      x y z
#    x 3.298210 0.000000 0.000000 
#    y 0.000000 3.089800 0.000000 
#    z 0.000000 0.000000 3.523280 
# 
# 
# High freq. dielectric constant tensor:
#      x y z
#    x 1.672240 0.000000 0.000000 
#    y 0.000000 1.654710 0.000000 
#    z 0.000000 0.000000 1.684550 
# 
# From -- ./inp_files/30595.got.cif
#   From: 2010.03.12/outbox.cif.g09.slc.cpg/sg51_16_cif.got.tgz:30595.got - 2010.04.16 13:43:02.
