data_PCOD8206555
_publ_section_title
;
Structure prediction by ZEFSAII (Michael W. Deem and Ramdas Pophale) SiO2 
 PCOD8206555
Probable space group: P M M A
;
_chemical_formula_sum "Si O2"
_cell_formula_units_Z 64
_cell_length_a 22.060070
_cell_length_b 9.199131
_cell_length_c 20.218446
_cell_angle_alpha 90.000000
_cell_angle_beta 90.000000
_cell_angle_gamma 90.000000
_cell_volume 4102.999482
_symmetry_space_group_name_H-M "P M M A"
_symmetry_group_IT_number 51
_symmetry_cell_setting 'orthorhombic'
loop_
_space_group_symop_operation_xyz
x,y,z
1/2-x,-y,z
1/2+x,-y,-z
-x,y,-z
-x,-y,-z
1/2+x,y,-z
1/2-x,y,z
x,-y,z
loop_
_atom_site_type_symbol
_atom_site_label
_atom_site_fract_x
_atom_site_fract_y
_atom_site_fract_z
Si Si1 0.033058 0.332994 0.643364
Si Si2 0.024443 0.668952 0.791238
Si Si3 0.430848 0.835888 0.522326
Si Si4 0.395761 0.669157 0.398831
Si Si5 0.554784 0.836931 0.088030
Si Si6 0.821504 0.166341 0.709941
Si Si7 0.387446 0.671457 0.176806
Si Si8 0.585638 0.164963 0.947117
O O1 0.050155 0.500000 0.629746
O O2 0.047909 0.286712 0.718546
O O3 0.073671 0.234004 0.595257
O O4 0.961922 0.309399 0.631965
O O5 0.030626 0.500000 0.803483
O O6 0.067259 0.743036 0.846332
O O7 0.954255 0.714487 0.797785
O O8 0.500000 0.833499 0.500000
O O9 0.391539 0.740371 0.471552
O O10 0.405459 0.000000 0.524470
O O11 0.378484 0.500000 0.403966
O O12 0.348343 0.750505 0.352773
O O13 0.484515 0.829087 0.070870
O O14 0.574657 0.000000 0.104675
O O15 0.592840 0.782370 0.023679
O O16 0.750000 0.171280 0.703177
O O17 0.839636 0.247021 0.777257
O O18 0.845194 0.000000 0.711262
O O19 0.375582 0.500000 0.179847
O O20 0.377758 0.727824 0.101552
O O21 0.609798 0.000000 0.938996
#
# Coordination Sequence:
#
# PCOD8206555 Si02
#       8
#     8   8   8   8   8   8   8   8
#     4   9  16  27  40  58  83 110 138 169 206 247
#     4   9  16  25  37  56  82 108 137 170 204 240
#     4   9  17  27  40  61  82 103 135 169 203 246
#     4  10  18  31  47  60  78 105 136 172 212 252
#     4   8  14  23  35  53  76 104 136 165 197 236
#     4  11  23  35  46  61  81 106 138 178 220 256
#     4  10  18  29  43  59  76 102 138 173 211 250
#     4   8  14  25  38  53  75 102 133 168 202 238
#
# _framework density 15.598345
#
# number of rings (size 3 to 8) (size 9 to 14) (size 15 to 20)
#    0.000    2.750    1.250    2.250    0.000    4.500 
#    0.000    2.500    0.000    0.000    0.000    0.000 
#    0.000    0.000    0.000    1.125    0.000   19.250 
#
# Total GULP energy -793321.977593 kJ/mol
# GULP energy per Si atom -12395.655900 kJ/mol
# Density = 1.556284 g / cm^3
# Si number density = 15.598345 Si / 1000 Ang^3
#
#
#
# Elastic Constant Matrix: (Units=GPa)
#
#
# Indices 1 2 3 4 5 6 
#
# 1 22.1730 26.7017 27.7913 0.0000 0.0000 0.0000
# 2 26.7017 105.0155 71.3453 0.0000 0.0000 0.0000
# 3 27.7913 71.3453 145.0611 0.0000 0.0000 0.0000
# 4 0.0000 0.0000 0.0000 35.6177 0.0000 0.0000
# 5 0.0000 0.0000 0.0000 0.0000 11.3041 0.0000
# 6 0.0000 0.0000 0.0000 0.0000 0.0000 13.4231
#
#
#
# Elastic Compliance Matrix: (Units=1/GPa)
#
#
# Indices 1 2 3 4 5 6 
#
# 1 0.069351 -0.012926 -0.006929 0.000000 0.000000 0.000000
# 2 -0.012926 0.016710 -0.005742 0.000000 0.000000 0.000000
# 3 -0.006929 -0.005742 0.011045 0.000000 0.000000 0.000000
# 4 0.000000 0.000000 0.000000 0.028076 0.000000 0.000000
# 5 0.000000 0.000000 0.000000 0.000000 0.088464 0.000000
# 6 0.000000 0.000000 0.000000 0.000000 0.000000 0.074498
#
#
# Mechanical properties :
#
#
# Convention : Reuss Voigt Hill
#
# Bulk Modulus (GPa) = 21.78084 58.21401 39.99743
# Shear Modulus (GPa) = 14.09870 21.82972 17.96421
#
# Velocity S-wave (km/s) = 3.00969 3.74503 3.39731
# Velocity P-wave (km/s) = 5.10602 7.49013 6.40989
#
# Compressibility (1/GPa) = 0.04591190
#
# Stress axis : x y z
#
# Youngs Moduli (GPa) = 14.41941 59.84403 90.53641
#
# Poissons Ratio (x) = 0.77355 0.62733
# Poissons Ratio (y) = 0.18639 0.51987
# Poissons Ratio (z) = 0.09991 0.34363
#
# Static dielectric constant tensor:
#      x y z
#    x 2.368250 0.000000 0.000000 
#    y 0.000000 3.127170 0.000000 
#    z 0.000000 0.000000 3.365530 
# 
# 
# High freq. dielectric constant tensor:
#      x y z
#    x 1.515980 0.000000 0.000000 
#    y 0.000000 1.609280 0.000000 
#    z 0.000000 0.000000 1.614640 
# 
# From -- ./inp_files/34097.got.cif
#   From: 2010.03.12/outbox.cif.g09.slc.cpg/sg51_18_cif.got.tgz:34097.got - 2010.04.16 13:43:02.
