data_PCOD8206727
_publ_section_title
;
Structure prediction by ZEFSAII (Michael W. Deem and Ramdas Pophale) SiO2 
 PCOD8206727
Probable space group: P M M A
;
_chemical_formula_sum "Si O2"
_cell_formula_units_Z 56
_cell_length_a 17.610192
_cell_length_b 14.179590
_cell_length_c 13.868273
_cell_angle_alpha 90.000000
_cell_angle_beta 90.000000
_cell_angle_gamma 90.000000
_cell_volume 3462.981303
_symmetry_space_group_name_H-M "P M M A"
_symmetry_group_IT_number 51
_symmetry_cell_setting 'orthorhombic'
loop_
_space_group_symop_operation_xyz
x,y,z
1/2-x,-y,z
1/2+x,-y,-z
-x,y,-z
-x,-y,-z
1/2+x,y,-z
1/2-x,y,z
x,-y,z
loop_
_atom_site_type_symbol
_atom_site_label
_atom_site_fract_x
_atom_site_fract_y
_atom_site_fract_z
Si Si1 0.912221 0.107778 0.505295
Si Si2 0.335305 0.707909 0.197344
Si Si3 0.449065 0.391904 0.703704
Si Si4 0.968622 0.389842 0.896734
Si Si5 0.339575 0.716515 0.576056
Si Si6 0.110192 0.390510 0.385233
Si Si7 0.663000 0.895215 0.706673
O O1 0.863714 0.174347 0.434747
O O2 0.888911 0.125604 0.615115
O O3 0.000000 0.134999 0.500000
O O4 0.897082 0.000000 0.473354
O O5 0.250000 0.696328 0.158368
O O6 0.390498 0.666141 0.116942
O O7 0.341838 0.654179 0.298797
O O8 0.355725 0.818562 0.211520
O O9 0.421938 0.500000 0.699529
O O10 0.471513 0.363465 0.813015
O O11 0.379870 0.326092 0.670696
O O12 0.520734 0.376279 0.633290
O O13 0.949093 0.500000 0.891143
O O14 0.000000 0.359521 0.000000
O O15 0.250000 0.708742 0.590502
O O16 0.366949 0.658320 0.483914
O O17 0.131264 0.500000 0.391955
O O18 0.750000 0.884858 0.672137
O O19 0.647244 0.000000 0.748480
#
# Coordination Sequence:
#
# PCOD8206727 Si02
#       7
#     8   8   8   8   8   8   8
#     4  10  20  32  47  67  94 133 176 208 234 276
#     4  10  18  29  49  77  99 123 159 203 250 292
#     4   9  19  34  50  67  92 127 165 203 239 287
#     4   9  19  36  55  73  95 126 160 201 256 301
#     4  12  22  30  44  68 100 137 166 194 233 282
#     4  10  19  30  45  67  98 132 163 197 238 282
#     4   9  17  30  47  70 101 130 158 200 251 292
#
# _framework density 16.171037999999999
#
# number of rings (size 3 to 8) (size 9 to 14) (size 15 to 20)
#    0.000    2.143    1.429    3.857    2.000    4.857 
#    0.000    0.714    0.000    3.000    0.000    0.000 
#    0.000    2.286    0.000    0.000    0.000    0.000 
#
# Total GULP energy -694476.819612 kJ/mol
# GULP energy per Si atom -12401.371779 kJ/mol
# Density = 1.613423 g / cm^3
# Si number density = 16.171038 Si / 1000 Ang^3
#
#
#
# Elastic Constant Matrix: (Units=GPa)
#
#
# Indices 1 2 3 4 5 6 
#
# 1 108.9876 57.4620 59.8623 0.0000 0.0000 0.0000
# 2 57.4620 99.6579 45.8694 0.0000 0.0000 0.0000
# 3 59.8623 45.8694 87.2150 0.0000 0.0000 0.0000
# 4 0.0000 0.0000 0.0000 16.4171 0.0000 0.0000
# 5 0.0000 0.0000 0.0000 0.0000 19.0514 0.0000
# 6 0.0000 0.0000 0.0000 0.0000 0.0000 23.4844
#
#
#
# Elastic Compliance Matrix: (Units=1/GPa)
#
#
# Indices 1 2 3 4 5 6 
#
# 1 0.016959 -0.005833 -0.008573 0.000000 0.000000 0.000000
# 2 -0.005833 0.015245 -0.004015 0.000000 0.000000 0.000000
# 3 -0.008573 -0.004015 0.019461 0.000000 0.000000 0.000000
# 4 0.000000 0.000000 0.000000 0.060912 0.000000 0.000000
# 5 0.000000 0.000000 0.000000 0.000000 0.052490 0.000000
# 6 0.000000 0.000000 0.000000 0.000000 0.000000 0.042581
#
#
# Mechanical properties :
#
#
# Convention : Reuss Voigt Hill
#
# Bulk Modulus (GPa) = 67.45005 69.13865 68.29435
# Shear Modulus (GPa) = 20.04562 20.63504 20.34033
#
# Velocity S-wave (km/s) = 3.52462 3.57606 3.55043
# Velocity P-wave (km/s) = 7.63969 7.73940 7.68971
#
# Compressibility (1/GPa) = 0.01482579
#
# Stress axis : x y z
#
# Youngs Moduli (GPa) = 58.96485 65.59427 51.38370
#
# Poissons Ratio (x) = 0.38260 0.44050
# Poissons Ratio (y) = 0.34393 0.20628
# Poissons Ratio (z) = 0.50549 0.26333
#
# Static dielectric constant tensor:
#      x y z
#    x 3.066880 0.000000 0.000000 
#    y 0.000000 3.321380 0.000000 
#    z 0.000000 0.000000 2.792800 
# 
# 
# High freq. dielectric constant tensor:
#      x y z
#    x 1.622120 0.000000 0.000000 
#    y 0.000000 1.633280 0.000000 
#    z 0.000000 0.000000 1.580290 
# 
# From -- ./inp_files/24264.got.cif
#   From: 2010.03.12/outbox.cif.g09.slc.cpg/sg51_13_cif.got.tgz:24264.got - 2010.04.16 13:43:02.
