data_PCOD8206369
_publ_section_title
;
Structure prediction by ZEFSAII (Michael W. Deem and Ramdas Pophale) SiO2 
 PCOD8206369
Probable space group: P M M A
;
_chemical_formula_sum "Si O2"
_cell_formula_units_Z 52
_cell_length_a 9.500927
_cell_length_b 12.730087
_cell_length_c 30.135245
_cell_angle_alpha 90.000000
_cell_angle_beta 90.000000
_cell_angle_gamma 90.000000
_cell_volume 3644.786381
_symmetry_space_group_name_H-M "P M M A"
_symmetry_group_IT_number 51
_symmetry_cell_setting 'orthorhombic'
loop_
_space_group_symop_operation_xyz
x,y,z
1/2-x,-y,z
1/2+x,-y,-z
-x,y,-z
-x,-y,-z
1/2+x,y,-z
1/2-x,y,z
x,-y,z
loop_
_atom_site_type_symbol
_atom_site_label
_atom_site_fract_x
_atom_site_fract_y
_atom_site_fract_z
Si Si1 0.415926 0.693797 0.104314
Si Si2 0.407824 0.375248 0.720738
Si Si3 0.091569 0.624993 0.622614
Si Si4 0.409431 0.625281 0.458451
Si Si5 0.917611 0.500000 0.954518
Si Si6 0.912272 0.375999 0.801988
Si Si7 0.413855 0.880497 0.043444
O O1 0.250000 0.682113 0.108244
O O2 0.470117 0.601802 0.072344
O O3 0.476210 0.680501 0.154146
O O4 0.461025 0.806299 0.084145
O O5 0.250000 0.335916 0.730223
O O6 0.414273 0.500000 0.721799
O O7 0.456112 0.336479 0.671736
O O8 0.507983 0.329575 0.759044
O O9 0.250000 0.665043 0.612115
O O10 0.091694 0.500000 0.620959
O O11 0.982672 0.669529 0.586280
O O12 0.500000 0.667010 0.500000
O O13 0.250000 0.668871 0.461322
O O14 0.407452 0.500000 0.458293
O O15 0.750000 0.500000 0.962931
O O16 0.000000 0.500000 0.000000
O O17 0.750000 0.348305 0.794798
O O18 0.934885 0.500000 0.808001
O O19 0.250000 0.864276 0.032209
O O20 0.446826 0.000000 0.057571
O O21 0.500000 0.847888 0.000000
#
# Coordination Sequence:
#
# PCOD8206369 Si02
#       7
#     8   8   8   8   4   8   8
#     4   9  16  27  41  55  73  95 116 139 170 207
#     4   8  14  23  33  45  62  82 102 130 166 200
#     4   8  13  21  30  38  51  72  96 122 158 200
#     4   9  15  20  26  36  50  68  93 127 166 205
#     4  10  18  28  40  54  74  96 116 138 167 204
#     4   9  15  24  37  50  64  86 112 133 159 199
#     4   9  17  29  44  59  74  93 117 144 172 203
#
# _framework density 14.266954999999999
#
# number of rings (size 3 to 8) (size 9 to 14) (size 15 to 20)
#    0.000    3.231    0.769    1.846    0.000    2.462 
#    0.000    4.615    0.000    0.000    0.000    0.000 
#    0.000    0.000    0.000    0.000    0.000    0.000 
#
# Total GULP energy -644440.416908 kJ/mol
# GULP energy per Si atom -12393.084941 kJ/mol
# Density = 1.423448 g / cm^3
# Si number density = 14.266955 Si / 1000 Ang^3
#
#
#
# Elastic Constant Matrix: (Units=GPa)
#
#
# Indices 1 2 3 4 5 6 
#
# 1 72.0999 17.1796 70.4218 0.0000 0.0000 0.0000
# 2 17.1796 33.3260 30.9474 0.0000 0.0000 0.0000
# 3 70.4218 30.9474 156.7863 0.0000 0.0000 0.0000
# 4 0.0000 0.0000 0.0000 7.3650 0.0000 0.0000
# 5 0.0000 0.0000 0.0000 0.0000 29.5961 0.0000
# 6 0.0000 0.0000 0.0000 0.0000 0.0000 5.8551
#
#
#
# Elastic Compliance Matrix: (Units=1/GPa)
#
#
# Indices 1 2 3 4 5 6 
#
# 1 0.024954 -0.003007 -0.010615 0.000000 0.000000 0.000000
# 2 -0.003007 0.037103 -0.005973 0.000000 0.000000 0.000000
# 3 -0.010615 -0.005973 0.012325 0.000000 0.000000 0.000000
# 4 0.000000 0.000000 0.000000 0.135778 0.000000 0.000000
# 5 0.000000 0.000000 0.000000 0.000000 0.033788 0.000000
# 6 0.000000 0.000000 0.000000 0.000000 0.000000 0.170793
#
#
# Mechanical properties :
#
#
# Convention : Reuss Voigt Hill
#
# Bulk Modulus (GPa) = 28.41483 55.47886 41.94684
# Shear Modulus (GPa) = 10.73744 18.14079 14.43911
#
# Velocity S-wave (km/s) = 2.74635 3.56971 3.18475
# Velocity P-wave (km/s) = 5.47872 7.48072 6.55658
#
# Compressibility (1/GPa) = 0.03519290
#
# Stress axis : x y z
#
# Youngs Moduli (GPa) = 40.07429 26.95166 81.13710
#
# Poissons Ratio (x) = 0.08103 0.86124
# Poissons Ratio (y) = 0.12049 0.48466
# Poissons Ratio (z) = 0.42538 0.16099
#
# Static dielectric constant tensor:
#      x y z
#    x 2.813770 0.000000 0.000000 
#    y 0.000000 2.329110 0.000000 
#    z 0.000000 0.000000 3.134840 
# 
# 
# High freq. dielectric constant tensor:
#      x y z
#    x 1.537920 0.000000 0.000000 
#    y 0.000000 1.469440 0.000000 
#    z 0.000000 0.000000 1.558550 
# 
# From -- ./inp_files/37361.got.cif
#   From: 2010.03.12/outbox.cif.g09.slc.cpg/sg51_19_cif.got.tgz:37361.got - 2010.04.16 13:43:02.
