data_PCOD8206729
_publ_section_title
;
Structure prediction by ZEFSAII (Michael W. Deem and Ramdas Pophale) SiO2 
 PCOD8206729
Probable space group: P M M A
;
_chemical_formula_sum "Si O2"
_cell_formula_units_Z 64
_cell_length_a 28.222610
_cell_length_b 9.095075
_cell_length_c 12.518525
_cell_angle_alpha 90.000000
_cell_angle_beta 90.000000
_cell_angle_gamma 90.000000
_cell_volume 3213.339555
_symmetry_space_group_name_H-M "P M M A"
_symmetry_group_IT_number 51
_symmetry_cell_setting 'orthorhombic'
loop_
_space_group_symop_operation_xyz
x,y,z
1/2-x,-y,z
1/2+x,-y,-z
-x,y,-z
-x,-y,-z
1/2+x,y,-z
1/2-x,y,z
x,-y,z
loop_
_atom_site_type_symbol
_atom_site_label
_atom_site_fract_x
_atom_site_fract_y
_atom_site_fract_z
Si Si1 0.304791 0.826283 0.042241
Si Si2 0.847107 0.326931 0.752345
Si Si3 0.802714 0.166933 0.320229
Si Si4 0.934784 0.837331 0.481277
Si Si5 0.172521 0.837294 0.449295
Si Si6 0.141582 0.329320 0.853274
Si Si7 0.448255 0.332529 0.733345
Si Si8 0.950279 0.668839 0.684184
O O1 0.250000 0.782150 0.022174
O O2 0.323264 0.754851 0.149953
O O3 0.310545 0.000000 0.049869
O O4 0.337850 0.769418 0.947147
O O5 0.841894 0.500000 0.769275
O O6 0.818532 0.277879 0.646252
O O7 0.902492 0.276870 0.743485
O O8 0.750000 0.170890 0.271673
O O9 0.800022 0.213956 0.444494
O O10 0.834036 0.284168 0.257649
O O11 0.823517 0.000000 0.310211
O O12 0.882263 0.842200 0.524792
O O13 0.933225 0.764763 0.366185
O O14 0.964065 0.751789 0.573516
O O15 0.956298 0.000000 0.470020
O O16 0.190020 0.000000 0.413629
O O17 0.151590 0.500000 0.878619
O O18 0.085109 0.298403 0.836286
O O19 0.439536 0.500000 0.697969
O O20 0.504071 0.308283 0.761902
O O21 0.942599 0.500000 0.652346
#
# Coordination Sequence:
#
# PCOD8206729 Si02
#       8
#     8   8   8   8   8   8   8   8
#     4  11  25  45  67  86 108 145 189 234 292 357
#     4  10  21  38  62  88 115 146 188 242 289 331
#     4  10  20  35  55  79 112 153 190 228 286 354
#     4  10  18  29  49  79 115 154 196 238 273 317
#     4   9  18  33  52  79 117 155 188 227 281 343
#     4  11  23  38  59  86 115 147 191 242 286 331
#     4  10  20  34  53  79 115 158 195 227 276 340
#     4   9  19  35  54  80 117 157 192 228 278 339
#
# _framework density 19.916974
#
# number of rings (size 3 to 8) (size 9 to 14) (size 15 to 20)
#    0.000    2.000    1.250    2.250    0.000    7.250 
#    0.000    1.875    0.000    3.750    0.000    0.000 
#    0.000    0.000    0.000    0.000    0.000    0.000 
#
# Total GULP energy -793358.730018 kJ/mol
# GULP energy per Si atom -12396.230157 kJ/mol
# Density = 1.987164 g / cm^3
# Si number density = 19.916974 Si / 1000 Ang^3
#
#
#
# Elastic Constant Matrix: (Units=GPa)
#
#
# Indices 1 2 3 4 5 6 
#
# 1 40.3792 25.3773 24.3016 0.0000 0.0000 0.0000
# 2 25.3773 85.0306 38.5863 0.0000 0.0000 0.0000
# 3 24.3016 38.5863 80.2783 0.0000 0.0000 0.0000
# 4 0.0000 0.0000 0.0000 32.3541 0.0000 0.0000
# 5 0.0000 0.0000 0.0000 0.0000 23.5647 0.0000
# 6 0.0000 0.0000 0.0000 0.0000 0.0000 20.1698
#
#
#
# Elastic Compliance Matrix: (Units=1/GPa)
#
#
# Indices 1 2 3 4 5 6 
#
# 1 0.033111 -0.006821 -0.006745 0.000000 0.000000 0.000000
# 2 -0.006821 0.016447 -0.005840 0.000000 0.000000 0.000000
# 3 -0.006745 -0.005840 0.017305 0.000000 0.000000 0.000000
# 4 0.000000 0.000000 0.000000 0.030908 0.000000 0.000000
# 5 0.000000 0.000000 0.000000 0.000000 0.042436 0.000000
# 6 0.000000 0.000000 0.000000 0.000000 0.000000 0.049579
#
#
# Mechanical properties :
#
#
# Convention : Reuss Voigt Hill
#
# Bulk Modulus (GPa) = 35.64931 42.46872 39.05902
# Shear Modulus (GPa) = 21.01286 23.04593 22.02940
#
# Velocity S-wave (km/s) = 3.25164 3.40531 3.32936
# Velocity P-wave (km/s) = 5.65998 6.06883 5.86796
#
# Compressibility (1/GPa) = 0.02805103
#
# Stress axis : x y z
#
# Youngs Moduli (GPa) = 30.20107 60.80301 57.78516
#
# Poissons Ratio (x) = 0.41476 0.38974
# Poissons Ratio (y) = 0.20601 0.33748
# Poissons Ratio (z) = 0.20369 0.35510
#
# Static dielectric constant tensor:
#      x y z
#    x 3.995770 0.000000 0.000000 
#    y 0.000000 3.803380 0.000000 
#    z 0.000000 0.000000 3.496920 
# 
# 
# High freq. dielectric constant tensor:
#      x y z
#    x 1.788620 0.000000 0.000000 
#    y 0.000000 1.777660 0.000000 
#    z 0.000000 0.000000 1.753650 
# 
# From -- ./inp_files/19618.got.cif
#   From: 2010.03.12/outbox.cif.g09.slc.cpg/sg51_10_cif.got.tgz:19618.got - 2010.04.16 13:43:02.
