data_PCOD8206427
_publ_section_title
;
Structure prediction by ZEFSAII (Michael W. Deem and Ramdas Pophale) SiO2 
 PCOD8206427
Probable space group: P M M A
;
_chemical_formula_sum "Si O2"
_cell_formula_units_Z 64
_cell_length_a 28.441721
_cell_length_b 9.489313
_cell_length_c 15.538960
_cell_angle_alpha 90.000000
_cell_angle_beta 90.000000
_cell_angle_gamma 90.000000
_cell_volume 4193.847096
_symmetry_space_group_name_H-M "P M M A"
_symmetry_group_IT_number 51
_symmetry_cell_setting 'orthorhombic'
loop_
_space_group_symop_operation_xyz
x,y,z
1/2-x,-y,z
1/2+x,-y,-z
-x,y,-z
-x,-y,-z
1/2+x,y,-z
1/2-x,y,z
x,-y,z
loop_
_atom_site_type_symbol
_atom_site_label
_atom_site_fract_x
_atom_site_fract_y
_atom_site_fract_z
Si Si1 0.651652 0.167092 0.346395
Si Si2 0.447006 0.165785 0.588574
Si Si3 0.695702 0.338195 0.498307
Si Si4 0.302282 0.332339 0.178725
Si Si5 0.693998 0.656782 0.009815
Si Si6 0.804773 0.163025 0.167997
Si Si7 0.635193 0.666371 0.664176
Si Si8 0.550157 0.166977 0.605753
O O1 0.597293 0.216243 0.354999
O O2 0.683536 0.241132 0.417557
O O3 0.668361 0.216492 0.252687
O O4 0.657689 0.000000 0.358600
O O5 0.496628 0.211829 0.631212
O O6 0.441252 0.222013 0.491491
O O7 0.448285 0.000000 0.580008
O O8 0.750000 0.316704 0.523222
O O9 0.685463 0.500000 0.473492
O O10 0.665020 0.291906 0.580154
O O11 0.250000 0.270022 0.195089
O O12 0.299078 0.500000 0.181140
O O13 0.336946 0.277186 0.252460
O O14 0.321627 0.285710 0.084376
O O15 0.750000 0.654110 0.011401
O O16 0.674001 0.500000 0.025763
O O17 0.674351 0.756057 0.085387
O O18 0.750000 0.195187 0.181856
O O19 0.814283 0.000000 0.151169
O O20 0.626003 0.500000 0.668689
O O21 0.585764 0.747998 0.666117
O O22 0.558650 0.000000 0.616331
#
# Coordination Sequence:
#
# PCOD8206427 Si02
#       8
#     8   8   8   8   8   8   8   8
#     4  10  18  30  46  62  81 112 149 176 203 249
#     4   8  15  28  46  62  79 108 144 179 213 249
#     4  10  20  30  39  57  88 120 144 168 202 241
#     4   8  14  26  44  63  84 113 146 173 201 248
#     4   8  14  26  44  62  79 106 143 175 203 242
#     4   9  17  27  40  61  87 110 133 168 212 248
#     4  10  18  28  43  64  87 112 141 174 210 246
#     4   9  16  29  46  62  81 108 142 179 216 252
#
# _framework density 15.260452000000001
#
# number of rings (size 3 to 8) (size 9 to 14) (size 15 to 20)
#    0.000    3.000    1.250    2.250    0.000    2.750 
#    0.000    3.750    0.000    1.875    0.000    0.875 
#    0.000    7.000    0.000    0.000    0.000    0.000 
#
# Total GULP energy -793269.705145 kJ/mol
# GULP energy per Si atom -12394.839143 kJ/mol
# Density = 1.522572 g / cm^3
# Si number density = 15.260452 Si / 1000 Ang^3
#
#
#
# Elastic Constant Matrix: (Units=GPa)
#
#
# Indices 1 2 3 4 5 6 
#
# 1 78.2825 24.6099 43.7145 0.0000 0.0000 0.0000
# 2 24.6099 33.2591 34.4689 0.0000 0.0000 0.0000
# 3 43.7145 34.4689 113.1522 0.0000 0.0000 0.0000
# 4 0.0000 0.0000 0.0000 18.8187 0.0000 0.0000
# 5 0.0000 0.0000 0.0000 0.0000 12.1961 0.0000
# 6 0.0000 0.0000 0.0000 0.0000 0.0000 20.5616
#
#
#
# Elastic Compliance Matrix: (Units=1/GPa)
#
#
# Indices 1 2 3 4 5 6 
#
# 1 0.017924 -0.008894 -0.004215 0.000000 0.000000 0.000000
# 2 -0.008894 0.048352 -0.011293 0.000000 0.000000 0.000000
# 3 -0.004215 -0.011293 0.013906 0.000000 0.000000 0.000000
# 4 0.000000 0.000000 0.000000 0.053139 0.000000 0.000000
# 5 0.000000 0.000000 0.000000 0.000000 0.081993 0.000000
# 6 0.000000 0.000000 0.000000 0.000000 0.000000 0.048634
#
#
# Mechanical properties :
#
#
# Convention : Reuss Voigt Hill
#
# Bulk Modulus (GPa) = 31.87014 47.80893 39.83954
# Shear Modulus (GPa) = 15.46964 18.44197 16.95580
#
# Velocity S-wave (km/s) = 3.18733 3.48009 3.33692
# Velocity P-wave (km/s) = 5.87153 6.89527 6.40389
#
# Compressibility (1/GPa) = 0.03137734
#
# Stress axis : x y z
#
# Youngs Moduli (GPa) = 55.79015 20.68161 71.90966
#
# Poissons Ratio (x) = 0.18395 0.30312
# Poissons Ratio (y) = 0.49621 0.81208
# Poissons Ratio (z) = 0.23518 0.23356
#
# Static dielectric constant tensor:
#      x y z
#    x 3.043400 0.000000 0.000000 
#    y 0.000000 2.739410 0.000000 
#    z 0.000000 0.000000 3.072100 
# 
# 
# High freq. dielectric constant tensor:
#      x y z
#    x 1.569430 0.000000 0.000000 
#    y 0.000000 1.562270 0.000000 
#    z 0.000000 0.000000 1.575460 
# 
# From -- ./inp_files/26710.got.cif
#   From: 2010.03.12/outbox.cif.g09.slc.cpg/sg51_14_cif.got.tgz:26710.got - 2010.04.16 13:43:02.
