data_PCOD8206164
_publ_section_title
;
Structure prediction by ZEFSAII (Michael W. Deem and Ramdas Pophale) SiO2 
 PCOD8206164
Probable space group: P M M A
;
_chemical_formula_sum "Si O2"
_cell_formula_units_Z 56
_cell_length_a 18.388459
_cell_length_b 9.186048
_cell_length_c 19.190665
_cell_angle_alpha 90.000000
_cell_angle_beta 90.000000
_cell_angle_gamma 90.000000
_cell_volume 3241.634684
_symmetry_space_group_name_H-M "P M M A"
_symmetry_group_IT_number 51
_symmetry_cell_setting 'orthorhombic'
loop_
_space_group_symop_operation_xyz
x,y,z
1/2-x,-y,z
1/2+x,-y,-z
-x,y,-z
-x,-y,-z
1/2+x,y,-z
1/2-x,y,z
x,-y,z
loop_
_atom_site_type_symbol
_atom_site_label
_atom_site_fract_x
_atom_site_fract_y
_atom_site_fract_z
Si Si1 0.570429 0.829398 0.580616
Si Si2 0.592314 0.827810 0.429177
Si Si3 0.668429 0.668765 0.307946
Si Si4 0.528120 0.330982 0.928472
Si Si5 0.464287 0.331612 0.784665
Si Si6 0.398115 0.171398 0.269505
Si Si7 0.330835 0.670252 0.147780
O O1 0.609942 0.778516 0.509320
O O2 0.488475 0.766992 0.588007
O O3 0.617739 0.790254 0.649151
O O4 0.558573 0.000000 0.574299
O O5 0.649637 0.754053 0.378120
O O6 0.599583 0.000000 0.419103
O O7 0.750000 0.710068 0.284455
O O8 0.661492 0.500000 0.326062
O O9 0.615554 0.709759 0.243421
O O10 0.539503 0.500000 0.943730
O O11 0.468564 0.303548 0.867942
O O12 0.607447 0.268397 0.905055
O O13 0.500000 0.254820 0.000000
O O14 0.484071 0.500000 0.768972
O O15 0.521319 0.227668 0.747017
O O16 0.338164 0.250226 0.222181
O O17 0.394742 0.000000 0.255538
O O18 0.250000 0.700438 0.117653
O O19 0.343857 0.500000 0.161368
#
# Coordination Sequence:
#
# PCOD8206164 Si02
#       7
#     8   8   8   8   8   8   8
#     4   8  15  27  46  69  90 112 147 200 245 276
#     4   9  16  30  48  65  87 117 155 197 240 283
#     4  10  20  32  44  63  95 129 159 195 237 280
#     4   8  14  27  49  73  93 117 154 195 226 263
#     4   9  17  30  47  67  94 126 156 189 233 282
#     4  10  17  28  49  73  93 117 154 199 236 274
#     4   9  18  32  48  69  99 131 157 186 232 286
#
# _framework density 17.275234999999999
#
# number of rings (size 3 to 8) (size 9 to 14) (size 15 to 20)
#    0.000    3.000    1.429    2.143    0.000    0.571 
#    0.000    4.286    0.000   15.429    0.000    0.000 
#    0.000    4.571    0.000    0.000    0.000    0.000 
#
# Total GULP energy -693898.053207 kJ/mol
# GULP energy per Si atom -12391.036664 kJ/mol
# Density = 1.723592 g / cm^3
# Si number density = 17.275235 Si / 1000 Ang^3
#
#
#
# Elastic Constant Matrix: (Units=GPa)
#
#
# Indices 1 2 3 4 5 6 
#
# 1 108.3885 22.0577 60.0344 0.0000 0.0000 0.0000
# 2 22.0577 32.8327 28.0934 0.0000 0.0000 0.0000
# 3 60.0344 28.0934 134.4342 0.0000 0.0000 0.0000
# 4 0.0000 0.0000 0.0000 15.0036 0.0000 0.0000
# 5 0.0000 0.0000 0.0000 0.0000 22.0349 0.0000
# 6 0.0000 0.0000 0.0000 0.0000 0.0000 17.6378
#
#
#
# Elastic Compliance Matrix: (Units=1/GPa)
#
#
# Indices 1 2 3 4 5 6 
#
# 1 0.012784 -0.004510 -0.004766 0.000000 0.000000 0.000000
# 2 -0.004510 0.038681 -0.006069 0.000000 0.000000 0.000000
# 3 -0.004766 -0.006069 0.010835 0.000000 0.000000 0.000000
# 4 0.000000 0.000000 0.000000 0.066651 0.000000 0.000000
# 5 0.000000 0.000000 0.000000 0.000000 0.045383 0.000000
# 6 0.000000 0.000000 0.000000 0.000000 0.000000 0.056697
#
#
# Mechanical properties :
#
#
# Convention : Reuss Voigt Hill
#
# Bulk Modulus (GPa) = 31.63711 55.11406 43.37558
# Shear Modulus (GPa) = 18.36498 21.96658 20.16578
#
# Velocity S-wave (km/s) = 3.26403 3.56977 3.42032
# Velocity P-wave (km/s) = 5.70601 6.99741 6.38445
#
# Compressibility (1/GPa) = 0.03160845
#
# Stress axis : x y z
#
# Youngs Moduli (GPa) = 78.22304 25.85281 92.28971
#
# Poissons Ratio (x) = 0.11660 0.43989
# Poissons Ratio (y) = 0.35279 0.56012
# Poissons Ratio (z) = 0.37285 0.15691
#
# Static dielectric constant tensor:
#      x y z
#    x 3.178000 0.000000 0.000000 
#    y 0.000000 2.942810 0.000000 
#    z 0.000000 0.000000 3.528680 
# 
# 
# High freq. dielectric constant tensor:
#      x y z
#    x 1.648150 0.000000 0.000000 
#    y 0.000000 1.636620 0.000000 
#    z 0.000000 0.000000 1.667930 
# 
# From -- ./inp_files/33662.got.cif
#   From: 2010.03.12/outbox.cif.g09.slc.cpg/sg51_17_cif.got.tgz:33662.got - 2010.04.16 13:43:02.
