data_PCOD8206100
_publ_section_title
;
Structure prediction by ZEFSAII (Michael W. Deem and Ramdas Pophale) SiO2 
 PCOD8206100
Probable space group: P M M A
;
_chemical_formula_sum "Si O2"
_cell_formula_units_Z 28
_cell_length_a 10.394528
_cell_length_b 14.147130
_cell_length_c 13.059829
_cell_angle_alpha 90.000000
_cell_angle_beta 90.000000
_cell_angle_gamma 90.000000
_cell_volume 1920.483624
_symmetry_space_group_name_H-M "P M M A"
_symmetry_group_IT_number 51
_symmetry_cell_setting 'orthorhombic'
loop_
_space_group_symop_operation_xyz
x,y,z
1/2-x,-y,z
1/2+x,-y,-z
-x,y,-z
-x,-y,-z
1/2+x,y,-z
1/2-x,y,z
x,-y,z
loop_
_atom_site_type_symbol
_atom_site_label
_atom_site_fract_x
_atom_site_fract_y
_atom_site_fract_z
Si Si1 0.250000 0.105554 0.379807
Si Si2 0.104533 0.603828 0.283378
Si Si3 0.250000 0.106566 0.623069
Si Si4 0.000666 0.217297 0.378451
Si Si5 0.393761 0.500000 0.086736
O O1 0.250000 0.101201 0.501570
O O2 0.123292 0.158270 0.340041
O O3 0.250000 0.000000 0.334207
O O4 0.250000 0.635976 0.311251
O O5 0.077630 0.500000 0.333440
O O6 0.003620 0.679284 0.327050
O O7 0.090355 0.592820 0.159691
O O8 0.375211 0.162616 0.661722
O O9 0.250000 0.000000 0.668229
O O10 0.000000 0.230025 0.500000
O O11 0.250000 0.500000 0.037956
O O12 0.500000 0.500000 0.000000
#
# Coordination Sequence:
#
# PCOD8206100 Si02
#       5
#     4   8   4   8   4
#     4   9  16  26  43  59  77 118 163 189 210 251
#     4   8  16  30  46  63  88 119 143 180 211 261
#     4   9  18  28  37  59  91 118 149 191 226 235
#     4  10  17  27  43  61  89 123 153 181 212 253
#     4   8  16  32  51  66  86 110 135 180 225 260
#
# _framework density 14.579661
#
# number of rings (size 3 to 8) (size 9 to 14) (size 15 to 20)
#    0.857    2.286    1.429    0.857    0.000    4.000 
#    2.571    0.714    0.000    0.000    0.000    0.000 
#    0.000    6.857    0.000    0.000    0.000    0.000 
#
# Total GULP energy -346917.386152 kJ/mol
# GULP energy per Si atom -12389.906648 kJ/mol
# Density = 1.454648 g / cm^3
# Si number density = 14.579661 Si / 1000 Ang^3
#
#
#
# Elastic Constant Matrix: (Units=GPa)
#
#
# Indices 1 2 3 4 5 6 
#
# 1 126.5189 68.7055 28.4519 0.0000 0.0000 0.0000
# 2 68.7055 119.8820 28.0396 0.0000 0.0000 0.0000
# 3 28.4519 28.0396 28.5057 0.0000 0.0000 0.0000
# 4 0.0000 0.0000 0.0000 1.6634 0.0000 0.0000
# 5 0.0000 0.0000 0.0000 0.0000 15.7545 0.0000
# 6 0.0000 0.0000 0.0000 0.0000 0.0000 30.5684
#
#
#
# Elastic Compliance Matrix: (Units=1/GPa)
#
#
# Indices 1 2 3 4 5 6 
#
# 1 0.012475 -0.005504 -0.007038 0.000000 0.000000 0.000000
# 2 -0.005504 0.013262 -0.007552 0.000000 0.000000 0.000000
# 3 -0.007038 -0.007552 0.049534 0.000000 0.000000 0.000000
# 4 0.000000 0.000000 0.000000 0.601168 0.000000 0.000000
# 5 0.000000 0.000000 0.000000 0.000000 0.063474 0.000000
# 6 0.000000 0.000000 0.000000 0.000000 0.000000 0.032713
#
#
# Mechanical properties :
#
#
# Convention : Reuss Voigt Hill
#
# Bulk Modulus (GPa) = 28.50307 58.36674 43.43490
# Shear Modulus (GPa) = 6.06421 19.57791 12.82106
#
# Velocity S-wave (km/s) = 2.04166 3.66843 2.96865
# Velocity P-wave (km/s) = 5.01500 7.61991 6.45032
#
# Compressibility (1/GPa) = 0.03508394
#
# Stress axis : x y z
#
# Youngs Moduli (GPa) = 80.15743 75.40312 20.18804
#
# Poissons Ratio (x) = 0.41499 0.14209
# Poissons Ratio (y) = 0.44115 0.15246
# Poissons Ratio (z) = 0.56417 0.56945
#
# Static dielectric constant tensor:
#      x y z
#    x 2.863140 0.000000 0.000000 
#    y 0.000000 2.850890 0.000000 
#    z 0.000000 0.000000 2.293730 
# 
# 
# High freq. dielectric constant tensor:
#      x y z
#    x 1.563690 0.000000 0.000000 
#    y 0.000000 1.561410 0.000000 
#    z 0.000000 0.000000 1.493220 
# 
# From -- ./inp_files/13909.got.cif
#   From: 2010.03.12/outbox.cif.g09.slc.cpg/sg51_7_cif.got.tgz:13909.got - 2010.04.16 13:43:02.
