data_PCOD8206219
_publ_section_title
;
Structure prediction by ZEFSAII (Michael W. Deem and Ramdas Pophale) SiO2 
 PCOD8206219
Probable space group: P M M A
;
_chemical_formula_sum "Si O2"
_cell_formula_units_Z 64
_cell_length_a 8.928918
_cell_length_b 15.501357
_cell_length_c 23.904748
_cell_angle_alpha 90.000000
_cell_angle_beta 90.000000
_cell_angle_gamma 90.000000
_cell_volume 3308.664431
_symmetry_space_group_name_H-M "P M M A"
_symmetry_group_IT_number 51
_symmetry_cell_setting 'orthorhombic'
loop_
_space_group_symop_operation_xyz
x,y,z
1/2-x,-y,z
1/2+x,-y,-z
-x,y,-z
-x,-y,-z
1/2+x,y,-z
1/2-x,y,z
x,-y,z
loop_
_atom_site_type_symbol
_atom_site_label
_atom_site_fract_x
_atom_site_fract_y
_atom_site_fract_z
Si Si1 0.921384 0.096334 0.142180
Si Si2 0.422129 0.842544 0.248891
Si Si3 0.071987 0.595233 0.631059
Si Si4 0.427067 0.246790 0.940114
Si Si5 0.927645 0.339438 0.251323
Si Si6 0.579082 0.902543 0.628669
Si Si7 0.073006 0.755844 0.559932
Si Si8 0.928028 0.595357 0.133454
O O1 0.750000 0.117647 0.158693
O O2 0.978153 0.164460 0.096192
O O3 0.023082 0.100400 0.197128
O O4 0.935591 0.000000 0.116911
O O5 0.250000 0.816412 0.240166
O O6 0.522343 0.758399 0.252719
O O7 0.445075 0.897582 0.304906
O O8 0.250000 0.599646 0.632145
O O9 0.017269 0.500000 0.611625
O O10 0.009843 0.612394 0.693610
O O11 0.010608 0.668168 0.588837
O O12 0.250000 0.249744 0.947322
O O13 0.488559 0.333572 0.910099
O O14 0.500000 0.238538 0.000000
O O15 0.750000 0.341685 0.251055
O O16 0.990936 0.385406 0.195629
O O17 0.750000 0.878499 0.613113
O O18 0.468592 0.837968 0.597267
O O19 0.541799 0.000000 0.609574
O O20 0.250000 0.752696 0.553260
O O21 0.000000 0.765307 0.500000
O O22 0.750000 0.599956 0.135136
O O23 0.982839 0.500000 0.114836
#
# Coordination Sequence:
#
# PCOD8206219 Si02
#       8
#     8   8   8   8   8   8   8   8
#     4  10  21  38  59  82 109 144 186 229 271 326
#     4  11  21  34  57  87 120 149 177 220 281 339
#     4   9  18  33  57  88 116 145 186 232 276 329
#     4  10  21  37  55  78 108 143 187 232 275 324
#     4  10  17  32  58  85 113 146 185 226 274 330
#     4  10  22  40  60  83 114 150 186 227 279 337
#     4  11  23  39  60  84 113 149 192 237 281 328
#     4   9  17  31  55  83 109 141 181 225 274 328
#
# _framework density 19.343152
#
# number of rings (size 3 to 8) (size 9 to 14) (size 15 to 20)
#    0.000    2.000    2.500    1.500    0.000    4.500 
#    0.000    0.000    0.000    4.875    0.000    0.000 
#    0.000    0.000    0.000    0.000    0.000    0.000 
#
# Total GULP energy -793593.572834 kJ/mol
# GULP energy per Si atom -12399.899576 kJ/mol
# Density = 1.929913 g / cm^3
# Si number density = 19.343152 Si / 1000 Ang^3
#
#
#
# Elastic Constant Matrix: (Units=GPa)
#
#
# Indices 1 2 3 4 5 6 
#
# 1 26.7052 19.9192 36.8886 0.0000 0.0000 0.0000
# 2 19.9192 148.3190 57.6582 0.0000 0.0000 0.0000
# 3 36.8886 57.6582 131.7986 0.0000 0.0000 0.0000
# 4 0.0000 0.0000 0.0000 14.7806 0.0000 0.0000
# 5 0.0000 0.0000 0.0000 0.0000 24.6425 0.0000
# 6 0.0000 0.0000 0.0000 0.0000 0.0000 15.1672
#
#
#
# Elastic Compliance Matrix: (Units=1/GPa)
#
#
# Indices 1 2 3 4 5 6 
#
# 1 0.061484 -0.001889 -0.016382 0.000000 0.000000 0.000000
# 2 -0.001889 0.008182 -0.003051 0.000000 0.000000 0.000000
# 3 -0.016382 -0.003051 0.013507 0.000000 0.000000 0.000000
# 4 0.000000 0.000000 0.000000 0.067656 0.000000 0.000000
# 5 0.000000 0.000000 0.000000 0.000000 0.040580 0.000000
# 6 0.000000 0.000000 0.000000 0.000000 0.000000 0.065932
#
#
# Mechanical properties :
#
#
# Convention : Reuss Voigt Hill
#
# Bulk Modulus (GPa) = 24.67338 59.52834 42.10086
# Shear Modulus (GPa) = 15.94925 23.74185 19.84555
#
# Velocity S-wave (km/s) = 2.87460 3.50723 3.20656
# Velocity P-wave (km/s) = 4.87863 6.87333 5.96002
#
# Compressibility (1/GPa) = 0.04052952
#
# Stress axis : x y z
#
# Youngs Moduli (GPa) = 16.26439 122.22219 74.03520
#
# Poissons Ratio (x) = 0.23085 1.21286
# Poissons Ratio (y) = 0.03072 0.22586
# Poissons Ratio (z) = 0.26645 0.37286
#
# Static dielectric constant tensor:
#      x y z
#    x 3.241300 0.000000 0.000000 
#    y 0.000000 3.756650 0.000000 
#    z 0.000000 0.000000 3.609890 
# 
# 
# High freq. dielectric constant tensor:
#      x y z
#    x 1.718780 0.000000 0.000000 
#    y 0.000000 1.768510 0.000000 
#    z 0.000000 0.000000 1.751750 
# 
# From -- ./inp_files/34938.got.cif
#   From: 2010.03.12/outbox.cif.g09.slc.cpg/sg51_18_cif.got.tgz:34938.got - 2010.04.16 13:43:02.
