data_PCOD8206634
_publ_section_title
;
Structure prediction by ZEFSAII (Michael W. Deem and Ramdas Pophale) SiO2 
 PCOD8206634
Probable space group: P M M A
;
_chemical_formula_sum "Si O2"
_cell_formula_units_Z 64
_cell_length_a 9.296194
_cell_length_b 19.792404
_cell_length_c 19.709573
_cell_angle_alpha 90.000000
_cell_angle_beta 90.000000
_cell_angle_gamma 90.000000
_cell_volume 3626.443713
_symmetry_space_group_name_H-M "P M M A"
_symmetry_group_IT_number 51
_symmetry_cell_setting 'orthorhombic'
loop_
_space_group_symop_operation_xyz
x,y,z
1/2-x,-y,z
1/2+x,-y,-z
-x,y,-z
-x,-y,-z
1/2+x,y,-z
1/2-x,y,z
x,-y,z
loop_
_atom_site_type_symbol
_atom_site_label
_atom_site_fract_x
_atom_site_fract_y
_atom_site_fract_z
Si Si1 0.913427 0.395381 0.257601
Si Si2 0.583304 0.713391 0.934077
Si Si3 0.413766 0.426997 0.384992
Si Si4 0.083017 0.923587 0.933657
Si Si5 0.912458 0.245441 0.304972
Si Si6 0.419688 0.282461 0.433717
Si Si7 0.082822 0.194455 0.835097
Si Si8 0.088268 0.574418 0.126539
O O1 0.750000 0.419217 0.259494
O O2 0.929109 0.315488 0.265481
O O3 0.992641 0.433316 0.318025
O O4 0.977688 0.418957 0.187235
O O5 0.750000 0.733300 0.940799
O O6 0.517048 0.748292 0.867808
O O7 0.560351 0.632583 0.928872
O O8 0.500000 0.740352 0.000000
O O9 0.250000 0.414897 0.362451
O O10 0.429964 0.500000 0.423732
O O11 0.461224 0.362339 0.429528
O O12 0.250000 0.919736 0.951654
O O13 0.045173 0.877711 0.868605
O O14 0.035358 0.000000 0.915759
O O15 0.000000 0.896686 0.000000
O O16 0.750000 0.236339 0.333208
O O17 0.948290 0.190106 0.246310
O O18 0.022306 0.241710 0.368040
O O19 0.500000 0.253675 0.500000
O O20 0.250000 0.270092 0.440314
O O21 0.250000 0.213963 0.846968
O O22 0.250000 0.583017 0.155594
O O23 0.068944 0.500000 0.092859
#
# Coordination Sequence:
#
# PCOD8206634 Si02
#       8
#     8   8   8   8   8   8   8   8
#     4  10  18  29  46  68  90 113 148 196 246 295
#     4  11  23  36  51  69  92 122 161 206 253 303
#     4   9  18  31  45  62  87 119 153 190 238 298
#     4   9  18  32  51  77 110 146 178 205 239 286
#     4   9  18  32  50  71  96 124 157 200 244 287
#     4  10  20  33  49  68  93 125 159 198 246 299
#     4  10  19  34  55  77 103 133 167 207 246 286
#     4  10  21  35  48  62  84 116 153 198 254 309
#
# _framework density 17.648143000000001
#
# number of rings (size 3 to 8) (size 9 to 14) (size 15 to 20)
#    0.000    2.250    1.250    1.875    0.000    6.000 
#    0.000    0.000    0.000    0.000    0.000    0.000 
#    0.000    0.500    0.000    0.875    0.000    1.250 
#
# Total GULP energy -793365.299108 kJ/mol
# GULP energy per Si atom -12396.332799 kJ/mol
# Density = 1.760797 g / cm^3
# Si number density = 17.648143 Si / 1000 Ang^3
#
#
#
# Elastic Constant Matrix: (Units=GPa)
#
#
# Indices 1 2 3 4 5 6 
#
# 1 84.0874 25.0378 53.5888 0.0000 0.0000 0.0000
# 2 25.0378 62.0911 34.0610 0.0000 0.0000 0.0000
# 3 53.5888 34.0610 105.3412 0.0000 0.0000 0.0000
# 4 0.0000 0.0000 0.0000 15.4560 0.0000 0.0000
# 5 0.0000 0.0000 0.0000 0.0000 27.3154 0.0000
# 6 0.0000 0.0000 0.0000 0.0000 0.0000 14.4705
#
#
#
# Elastic Compliance Matrix: (Units=1/GPa)
#
#
# Indices 1 2 3 4 5 6 
#
# 1 0.017966 -0.002712 -0.008263 0.000000 0.000000 0.000000
# 2 -0.002712 0.019987 -0.005083 0.000000 0.000000 0.000000
# 3 -0.008263 -0.005083 0.015340 0.000000 0.000000 0.000000
# 4 0.000000 0.000000 0.000000 0.064700 0.000000 0.000000
# 5 0.000000 0.000000 0.000000 0.000000 0.036609 0.000000
# 6 0.000000 0.000000 0.000000 0.000000 0.000000 0.069106
#
#
# Mechanical properties :
#
#
# Convention : Reuss Voigt Hill
#
# Bulk Modulus (GPa) = 47.21963 52.98831 50.10397
# Shear Modulus (GPa) = 19.01991 20.70384 19.86187
#
# Velocity S-wave (km/s) = 3.28644 3.42884 3.35839
# Velocity P-wave (km/s) = 6.41990 6.76505 6.59474
#
# Compressibility (1/GPa) = 0.02117763
#
# Stress axis : x y z
#
# Youngs Moduli (GPa) = 55.66196 50.03162 65.18993
#
# Poissons Ratio (x) = 0.13568 0.53863
# Poissons Ratio (y) = 0.15095 0.33137
# Poissons Ratio (z) = 0.45991 0.25432
#
# Static dielectric constant tensor:
#      x y z
#    x 3.335280 0.000000 0.000000 
#    y 0.000000 3.205710 0.000000 
#    z 0.000000 0.000000 3.107420 
# 
# 
# High freq. dielectric constant tensor:
#      x y z
#    x 1.690470 0.000000 0.000000 
#    y 0.000000 1.648440 0.000000 
#    z 0.000000 0.000000 1.665290 
# 
# From -- ./inp_files/32589.got.cif
#   From: 2010.03.12/outbox.cif.g09.slc.cpg/sg51_17_cif.got.tgz:32589.got - 2010.04.16 13:43:02.
