data_PCOD8206665
_publ_section_title
;
Structure prediction by ZEFSAII (Michael W. Deem and Ramdas Pophale) SiO2 
 PCOD8206665
Probable space group: P M M A
;
_chemical_formula_sum "Si O2"
_cell_formula_units_Z 64
_cell_length_a 14.305426
_cell_length_b 17.858034
_cell_length_c 14.001292
_cell_angle_alpha 90.000000
_cell_angle_beta 90.000000
_cell_angle_gamma 90.000000
_cell_volume 3576.865038
_symmetry_space_group_name_H-M "P M M A"
_symmetry_group_IT_number 51
_symmetry_cell_setting 'orthorhombic'
loop_
_space_group_symop_operation_xyz
x,y,z
1/2-x,-y,z
1/2+x,-y,-z
-x,y,-z
-x,-y,-z
1/2+x,y,-z
1/2-x,y,z
x,-y,z
loop_
_atom_site_type_symbol
_atom_site_label
_atom_site_fract_x
_atom_site_fract_y
_atom_site_fract_z
Si Si1 0.467250 0.915591 0.147677
Si Si2 0.356259 0.651846 0.346239
Si Si3 0.355809 0.210986 0.227206
Si Si4 0.855263 0.415404 0.091079
Si Si5 0.894665 0.721657 0.971564
Si Si6 0.145765 0.124996 0.959685
Si Si7 0.033167 0.412914 0.729569
Si Si8 0.642032 0.413829 0.452502
O O1 0.427360 0.858899 0.228128
O O2 0.575899 0.896160 0.126625
O O3 0.461334 0.000000 0.186873
O O4 0.400967 0.907730 0.055488
O O5 0.250000 0.625370 0.325879
O O6 0.368233 0.740394 0.323929
O O7 0.423471 0.604681 0.276158
O O8 0.383368 0.636199 0.455744
O O9 0.250000 0.180343 0.218295
O O10 0.377781 0.268176 0.140764
O O11 0.750000 0.415863 0.131254
O O12 0.884886 0.500000 0.060852
O O13 0.922969 0.380449 0.172572
O O14 0.862151 0.361860 0.999059
O O15 0.839562 0.785685 0.030058
O O16 0.000000 0.736636 0.000000
O O17 0.250000 0.090533 0.942851
O O18 0.054700 0.500000 0.732121
O O19 0.084439 0.379538 0.636077
O O20 0.750000 0.407904 0.425344
O O21 0.614072 0.500000 0.475215
#
# Coordination Sequence:
#
# PCOD8206665 Si02
#       8
#     8   8   8   8   8   8   8   8
#     4  10  19  31  47  70  95 121 153 191 235 284
#     4  10  20  32  47  67  95 127 159 195 236 284
#     4  10  20  34  48  66  93 129 163 194 234 276
#     4  10  21  34  47  67  93 124 165 210 247 282
#     4  11  18  32  50  64  91 128 167 202 237 279
#     4  10  18  29  47  70  93 121 154 192 240 286
#     4  10  19  31  50  72  94 122 157 199 250 298
#     4   9  17  31  51  74  98 123 153 196 251 301
#
# _framework density 17.892764
#
# number of rings (size 3 to 8) (size 9 to 14) (size 15 to 20)
#    0.000    2.000    2.500    4.875    0.000    5.250 
#    0.000    1.250    0.000    3.000    0.000    0.000 
#    0.000    2.000    0.000    0.500    0.000    2.750 
#
# Total GULP energy -793352.404550 kJ/mol
# GULP energy per Si atom -12396.131321 kJ/mol
# Density = 1.785204 g / cm^3
# Si number density = 17.892764 Si / 1000 Ang^3
#
#
#
# Elastic Constant Matrix: (Units=GPa)
#
#
# Indices 1 2 3 4 5 6 
#
# 1 93.3446 18.3110 10.5799 0.0000 0.0000 0.0000
# 2 18.3110 96.0519 42.0575 0.0000 0.0000 0.0000
# 3 10.5799 42.0575 46.4697 0.0000 0.0000 0.0000
# 4 0.0000 0.0000 0.0000 12.4145 0.0000 0.0000
# 5 0.0000 0.0000 0.0000 0.0000 11.0429 0.0000
# 6 0.0000 0.0000 0.0000 0.0000 0.0000 8.8448
#
#
#
# Elastic Compliance Matrix: (Units=1/GPa)
#
#
# Indices 1 2 3 4 5 6 
#
# 1 0.011158 -0.001681 -0.001019 0.000000 0.000000 0.000000
# 2 -0.001681 0.017498 -0.015454 0.000000 0.000000 0.000000
# 3 -0.001019 -0.015454 0.035738 0.000000 0.000000 0.000000
# 4 0.000000 0.000000 0.000000 0.080551 0.000000 0.000000
# 5 0.000000 0.000000 0.000000 0.000000 0.090556 0.000000
# 6 0.000000 0.000000 0.000000 0.000000 0.000000 0.113061
#
#
# Mechanical properties :
#
#
# Convention : Reuss Voigt Hill
#
# Bulk Modulus (GPa) = 35.60446 41.97369 38.78908
# Shear Modulus (GPa) = 12.68285 17.45496 15.06891
#
# Velocity S-wave (km/s) = 2.66527 3.12674 2.90518
# Velocity P-wave (km/s) = 5.42342 6.04522 5.74275
#
# Compressibility (1/GPa) = 0.02808637
#
# Stress axis : x y z
#
# Youngs Moduli (GPa) = 89.61986 57.14851 27.98124
#
# Poissons Ratio (x) = 0.09606 0.02852
# Poissons Ratio (y) = 0.15065 0.43243
# Poissons Ratio (z) = 0.09133 0.88318
#
# Static dielectric constant tensor:
#      x y z
#    x 3.526350 0.000000 0.000000 
#    y 0.000000 3.290640 0.000000 
#    z 0.000000 0.000000 3.074260 
# 
# 
# High freq. dielectric constant tensor:
#      x y z
#    x 1.714120 0.000000 0.000000 
#    y 0.000000 1.670690 0.000000 
#    z 0.000000 0.000000 1.646710 
# 
# From -- ./inp_files/24431.got.cif
#   From: 2010.03.12/outbox.cif.g09.slc.cpg/sg51_13_cif.got.tgz:24431.got - 2010.04.16 13:43:02.
