data_PCOD8206872
_publ_section_title
;
Structure prediction by ZEFSAII (Michael W. Deem and Ramdas Pophale) SiO2 
 PCOD8206872
Probable space group: P M M A
;
_chemical_formula_sum "Si O2"
_cell_formula_units_Z 52
_cell_length_a 9.242664
_cell_length_b 13.541138
_cell_length_c 24.354706
_cell_angle_alpha 90.000000
_cell_angle_beta 90.000000
_cell_angle_gamma 90.000000
_cell_volume 3048.142180
_symmetry_space_group_name_H-M "P M M A"
_symmetry_group_IT_number 51
_symmetry_cell_setting 'orthorhombic'
loop_
_space_group_symop_operation_xyz
x,y,z
1/2-x,-y,z
1/2+x,-y,-z
-x,y,-z
-x,-y,-z
1/2+x,y,-z
1/2-x,y,z
x,-y,z
loop_
_atom_site_type_symbol
_atom_site_label
_atom_site_fract_x
_atom_site_fract_y
_atom_site_fract_z
Si Si1 0.420792 0.393293 0.349925
Si Si2 0.578770 0.000000 0.557448
Si Si3 0.918415 0.886695 0.946597
Si Si4 0.913075 0.112800 0.264212
Si Si5 0.920202 0.181825 0.632374
Si Si6 0.421159 0.198457 0.168296
Si Si7 0.578868 0.392661 0.773524
O O1 0.250000 0.401779 0.346412
O O2 0.480066 0.500000 0.373459
O O3 0.459134 0.295408 0.386622
O O4 0.482024 0.377295 0.288207
O O5 0.500000 0.000000 0.500000
O O6 0.527477 0.900536 0.588972
O O7 0.750000 0.000000 0.548257
O O8 0.750000 0.876839 0.958585
O O9 0.965138 0.820897 0.894567
O O10 0.962074 0.000000 0.934703
O O11 0.000000 0.845349 0.000000
O O12 0.750000 0.154955 0.259883
O O13 0.001552 0.171169 0.309863
O O14 0.994544 0.121004 0.206244
O O15 0.909614 0.000000 0.282411
O O16 0.750000 0.168847 0.642720
O O17 0.250000 0.182954 0.176773
O O18 0.476544 0.307721 0.185400
O O19 0.750000 0.387600 0.771373
O O20 0.527732 0.500000 0.795836
#
# Coordination Sequence:
#
# PCOD8206872 Si02
#       7
#     8   4   8   8   8   8   8
#     4   8  13  23  44  74 101 123 154 198 241 279
#     4  10  22  36  54  76  98 132 173 206 243 282
#     4   9  18  31  46  64  85 115 156 198 241 282
#     4  11  22  31  42  68 103 132 153 187 245 294
#     4  10  18  32  53  74  96 128 167 202 234 280
#     4  10  18  30  49  69  91 123 161 198 233 284
#     4   8  13  22  41  70  97 119 148 190 236 278
#
# _framework density 17.059571999999999
#
# number of rings (size 3 to 8) (size 9 to 14) (size 15 to 20)
#    0.000    2.615    2.308    1.846    0.000    2.769 
#    0.000    1.538    0.000    2.769    0.000    0.000 
#    0.000    0.000    0.000    0.000    0.000    0.000 
#
# Total GULP energy -644257.049514 kJ/mol
# GULP energy per Si atom -12389.558645 kJ/mol
# Density = 1.702074 g / cm^3
# Si number density = 17.059572 Si / 1000 Ang^3
#
#
#
# Elastic Constant Matrix: (Units=GPa)
#
#
# Indices 1 2 3 4 5 6 
#
# 1 33.4088 18.1278 26.2247 0.0000 0.0000 0.0000
# 2 18.1278 142.6461 52.3892 0.0000 0.0000 0.0000
# 3 26.2247 52.3892 84.7099 0.0000 0.0000 0.0000
# 4 0.0000 0.0000 0.0000 16.7890 0.0000 0.0000
# 5 0.0000 0.0000 0.0000 0.0000 24.8401 0.0000
# 6 0.0000 0.0000 0.0000 0.0000 0.0000 8.0078
#
#
#
# Elastic Compliance Matrix: (Units=1/GPa)
#
#
# Indices 1 2 3 4 5 6 
#
# 1 0.039593 -0.000686 -0.011833 0.000000 0.000000 0.000000
# 2 -0.000686 0.009083 -0.005405 0.000000 0.000000 0.000000
# 3 -0.011833 -0.005405 0.018811 0.000000 0.000000 0.000000
# 4 0.000000 0.000000 0.000000 0.059563 0.000000 0.000000
# 5 0.000000 0.000000 0.000000 0.000000 0.040257 0.000000
# 6 0.000000 0.000000 0.000000 0.000000 0.000000 0.124878
#
#
# Mechanical properties :
#
#
# Convention : Reuss Voigt Hill
#
# Bulk Modulus (GPa) = 31.60658 50.47203 41.03931
# Shear Modulus (GPa) = 14.76765 20.86228 17.81497
#
# Velocity S-wave (km/s) = 2.94539 3.50080 3.23504
# Velocity P-wave (km/s) = 5.48949 6.78165 6.16949
#
# Compressibility (1/GPa) = 0.03163898
#
# Stress axis : x y z
#
# Youngs Moduli (GPa) = 25.25706 110.10167 53.16033
#
# Poissons Ratio (x) = 0.07549 0.62906
# Poissons Ratio (y) = 0.01732 0.28732
# Poissons Ratio (z) = 0.29887 0.59508
#
# Static dielectric constant tensor:
#      x y z
#    x 2.909300 0.000000 0.000000 
#    y 0.000000 3.748250 0.000000 
#    z 0.000000 0.000000 2.955760 
# 
# 
# High freq. dielectric constant tensor:
#      x y z
#    x 1.624800 0.000000 0.000000 
#    y 0.000000 1.671280 0.000000 
#    z 0.000000 0.000000 1.625020 
# 
# From -- ./inp_files/31725.got.cif
#   From: 2010.03.12/outbox.cif.g09.slc.cpg/sg51_16_cif.got.tgz:31725.got - 2010.04.16 13:43:02.
