data_PCOD8206863
_publ_section_title
;
Structure prediction by ZEFSAII (Michael W. Deem and Ramdas Pophale) SiO2 
 PCOD8206863
Probable space group: P M M A
;
_chemical_formula_sum "Si O2"
_cell_formula_units_Z 48
_cell_length_a 20.573915
_cell_length_b 8.782107
_cell_length_c 14.878709
_cell_angle_alpha 90.000000
_cell_angle_beta 90.000000
_cell_angle_gamma 90.000000
_cell_volume 2688.319704
_symmetry_space_group_name_H-M "P M M A"
_symmetry_group_IT_number 51
_symmetry_cell_setting 'orthorhombic'
loop_
_space_group_symop_operation_xyz
x,y,z
1/2-x,-y,z
1/2+x,-y,-z
-x,y,-z
-x,-y,-z
1/2+x,y,-z
1/2-x,y,z
x,-y,z
loop_
_atom_site_type_symbol
_atom_site_label
_atom_site_fract_x
_atom_site_fract_y
_atom_site_fract_z
Si Si1 0.849502 0.677874 0.182439
Si Si2 0.480425 0.821461 0.778055
Si Si3 0.453159 0.821602 0.576456
Si Si4 0.678474 0.321975 0.383797
Si Si5 0.946135 0.321583 0.926568
Si Si6 0.821529 0.174111 0.005406
O O1 0.839784 0.500000 0.162806
O O2 0.925019 0.720303 0.175670
O O3 0.822123 0.725440 0.279378
O O4 0.811965 0.775179 0.108545
O O5 0.484639 0.778505 0.672635
O O6 0.544318 0.770819 0.832825
O O7 0.466242 0.000000 0.789740
O O8 0.500000 0.750686 0.500000
O O9 0.379831 0.759905 0.563622
O O10 0.447913 0.000000 0.563484
O O11 0.750000 0.276848 0.422648
O O12 0.666094 0.500000 0.393414
O O13 0.950762 0.500000 0.907563
O O14 0.873629 0.282535 0.958185
O O15 0.000000 0.270168 0.000000
O O16 0.750000 0.190518 0.959845
O O17 0.845771 0.000000 0.000746
#
# Coordination Sequence:
#
# PCOD8206863 Si02
#       6
#     8   8   8   8   8   8
#     4  10  18  30  48  72 103 137 169 203 250 305
#     4  10  19  32  53  77 102 134 170 214 257 299
#     4   9  19  35  54  78 106 134 169 212 260 309
#     4   9  18  31  48  73 105 137 168 205 252 307
#     4  11  22  35  53  76 102 137 176 213 253 302
#     4  11  23  35  49  72 102 137 176 217 259 304
#
# _framework density 17.855018999999999
#
# number of rings (size 3 to 8) (size 9 to 14) (size 15 to 20)
#    0.000    2.000    1.667    2.500    0.000    4.667 
#    0.000    0.000    0.000    1.000    0.000    2.333 
#    0.000    0.000    0.000    0.000    0.000    0.000 
#
# Total GULP energy -595078.460488 kJ/mol
# GULP energy per Si atom -12397.467927 kJ/mol
# Density = 1.781438 g / cm^3
# Si number density = 17.855019 Si / 1000 Ang^3
#
#
#
# Elastic Constant Matrix: (Units=GPa)
#
#
# Indices 1 2 3 4 5 6 
#
# 1 119.8074 27.2043 54.1039 0.0000 0.0000 0.0000
# 2 27.2043 46.3118 24.8650 0.0000 0.0000 0.0000
# 3 54.1039 24.8650 73.1414 0.0000 0.0000 0.0000
# 4 0.0000 0.0000 0.0000 21.1894 0.0000 0.0000
# 5 0.0000 0.0000 0.0000 0.0000 22.0610 0.0000
# 6 0.0000 0.0000 0.0000 0.0000 0.0000 25.8721
#
#
#
# Elastic Compliance Matrix: (Units=1/GPa)
#
#
# Indices 1 2 3 4 5 6 
#
# 1 0.012864 -0.002994 -0.008498 0.000000 0.000000 0.000000
# 2 -0.002994 0.027111 -0.007002 0.000000 0.000000 0.000000
# 3 -0.008498 -0.007002 0.022339 0.000000 0.000000 0.000000
# 4 0.000000 0.000000 0.000000 0.047193 0.000000 0.000000
# 5 0.000000 0.000000 0.000000 0.000000 0.045329 0.000000
# 6 0.000000 0.000000 0.000000 0.000000 0.000000 0.038652
#
#
# Mechanical properties :
#
#
# Convention : Reuss Voigt Hill
#
# Bulk Modulus (GPa) = 39.48524 50.17856 44.83190
# Shear Modulus (GPa) = 20.92774 22.69698 21.81236
#
# Velocity S-wave (km/s) = 3.42730 3.56923 3.49899
# Velocity P-wave (km/s) = 6.15014 6.71939 6.44106
#
# Compressibility (1/GPa) = 0.02532592
#
# Stress axis : x y z
#
# Youngs Moduli (GPa) = 77.73513 36.88563 44.76563
#
# Poissons Ratio (x) = 0.11044 0.38042
# Poissons Ratio (y) = 0.23274 0.31344
# Poissons Ratio (z) = 0.66059 0.25827
#
# Static dielectric constant tensor:
#      x y z
#    x 3.390010 0.000000 0.000000 
#    y 0.000000 3.243870 0.000000 
#    z 0.000000 0.000000 3.233430 
# 
# 
# High freq. dielectric constant tensor:
#      x y z
#    x 1.690420 0.000000 0.000000 
#    y 0.000000 1.695560 0.000000 
#    z 0.000000 0.000000 1.657320 
# 
# From -- ./inp_files/25477.got.cif
#   From: 2010.03.12/outbox.cif.g09.slc.cpg/sg51_13_cif.got.tgz:25477.got - 2010.04.16 13:43:02.
