data_PCOD8206130
_publ_section_title
;
Structure prediction by ZEFSAII (Michael W. Deem and Ramdas Pophale) SiO2 
 PCOD8206130
Probable space group: P M M A
;
_chemical_formula_sum "Si O2"
_cell_formula_units_Z 64
_cell_length_a 29.330757
_cell_length_b 8.892325
_cell_length_c 15.045563
_cell_angle_alpha 90.000000
_cell_angle_beta 90.000000
_cell_angle_gamma 90.000000
_cell_volume 3924.163035
_symmetry_space_group_name_H-M "P M M A"
_symmetry_group_IT_number 51
_symmetry_cell_setting 'orthorhombic'
loop_
_space_group_symop_operation_xyz
x,y,z
1/2-x,-y,z
1/2+x,-y,-z
-x,y,-z
-x,-y,-z
1/2+x,y,-z
1/2-x,y,z
x,-y,z
loop_
_atom_site_type_symbol
_atom_site_label
_atom_site_fract_x
_atom_site_fract_y
_atom_site_fract_z
Si Si1 0.937846 0.328038 0.873448
Si Si2 0.301498 0.676767 0.006723
Si Si3 0.040164 0.677660 0.826527
Si Si4 0.624971 0.672771 0.706302
Si Si5 0.801509 0.830121 0.809226
Si Si6 0.063444 0.677999 0.446795
Si Si7 0.891236 0.822669 0.038540
Si Si8 0.030645 0.321727 0.629093
O O1 0.933343 0.500000 0.906113
O O2 0.915568 0.306384 0.777157
O O3 0.990695 0.281376 0.866501
O O4 0.912222 0.224327 0.944036
O O5 0.250000 0.725948 0.978270
O O6 0.307985 0.500000 0.996118
O O7 0.310341 0.719147 0.108947
O O8 0.339702 0.759998 0.948170
O O9 0.048460 0.500000 0.831549
O O10 0.078536 0.760892 0.881880
O O11 0.044689 0.740815 0.725634
O O12 0.641101 0.500000 0.703260
O O13 0.667521 0.778252 0.727699
O O14 0.607220 0.729734 0.609955
O O15 0.750000 0.819894 0.775151
O O16 0.813764 0.000000 0.838842
O O17 0.059044 0.500000 0.439949
O O18 0.066844 0.725007 0.551209
O O19 0.018031 0.745642 0.401132
O O20 0.889414 0.000000 0.043824
O O21 0.027025 0.500000 0.637861
#
# Coordination Sequence:
#
# PCOD8206130 Si02
#       8
#     8   8   8   8   8   8   8   8
#     4  10  19  31  46  67  95 130 168 199 228 274
#     4  10  20  35  54  72  90 116 153 197 242 287
#     4  10  19  32  49  68  94 131 169 203 238 276
#     4  10  17  27  47  72  97 125 158 192 232 279
#     4  10  20  32  46  67  95 125 156 191 233 281
#     4   8  13  23  43  72  97 117 149 193 236 279
#     4  12  24  34  46  67  96 131 164 197 237 281
#     4   8  13  24  44  69  95 120 151 194 239 275
#
# _framework density 16.309208999999999
#
# number of rings (size 3 to 8) (size 9 to 14) (size 15 to 20)
#    0.000    2.250    2.500    3.000    0.000    3.500 
#    0.000    0.000    0.000    0.750    0.000    2.625 
#    0.000    3.000    0.000    0.000    0.000    0.000 
#
# Total GULP energy -793319.835246 kJ/mol
# GULP energy per Si atom -12395.622426 kJ/mol
# Density = 1.627209 g / cm^3
# Si number density = 16.309209 Si / 1000 Ang^3
#
#
#
# Elastic Constant Matrix: (Units=GPa)
#
#
# Indices 1 2 3 4 5 6 
#
# 1 110.4882 43.4289 44.4067 0.0000 0.0000 0.0000
# 2 43.4289 58.8965 26.7232 0.0000 0.0000 0.0000
# 3 44.4067 26.7232 76.1558 0.0000 0.0000 0.0000
# 4 0.0000 0.0000 0.0000 1.4055 0.0000 0.0000
# 5 0.0000 0.0000 0.0000 0.0000 22.3506 0.0000
# 6 0.0000 0.0000 0.0000 0.0000 0.0000 13.9633
#
#
#
# Elastic Compliance Matrix: (Units=1/GPa)
#
#
# Indices 1 2 3 4 5 6 
#
# 1 0.014506 -0.008157 -0.005596 0.000000 0.000000 0.000000
# 2 -0.008157 0.024781 -0.003939 0.000000 0.000000 0.000000
# 3 -0.005596 -0.003939 0.017776 0.000000 0.000000 0.000000
# 4 0.000000 0.000000 0.000000 0.711482 0.000000 0.000000
# 5 0.000000 0.000000 0.000000 0.000000 0.044741 0.000000
# 6 0.000000 0.000000 0.000000 0.000000 0.000000 0.071617
#
#
# Mechanical properties :
#
#
# Convention : Reuss Voigt Hill
#
# Bulk Modulus (GPa) = 46.12888 52.73979 49.43434
# Shear Modulus (GPa) = 5.39074 16.27600 10.83337
#
# Velocity S-wave (km/s) = 1.82003 3.16248 2.58010
# Velocity P-wave (km/s) = 5.72381 6.76334 6.26517
#
# Compressibility (1/GPa) = 0.02167839
#
# Stress axis : x y z
#
# Youngs Moduli (GPa) = 68.93544 40.35289 56.25433
#
# Poissons Ratio (x) = 0.32918 0.31481
# Poissons Ratio (y) = 0.56234 0.22160
# Poissons Ratio (z) = 0.38578 0.15896
#
# Static dielectric constant tensor:
#      x y z
#    x 3.171200 0.000000 0.000000 
#    y 0.000000 2.853310 0.000000 
#    z 0.000000 0.000000 3.191370 
# 
# 
# High freq. dielectric constant tensor:
#      x y z
#    x 1.618830 0.000000 0.000000 
#    y 0.000000 1.605460 0.000000 
#    z 0.000000 0.000000 1.610410 
# 
# From -- ./inp_files/26689.got.cif
#   From: 2010.03.12/outbox.cif.g09.slc.cpg/sg51_14_cif.got.tgz:26689.got - 2010.04.16 13:43:02.
