data_PCOD8206956
_publ_section_title
;
Structure prediction by ZEFSAII (Michael W. Deem and Ramdas Pophale) SiO2 
 PCOD8206956
Probable space group: P M M A
;
_chemical_formula_sum "Si O2"
_cell_formula_units_Z 64
_cell_length_a 8.946551
_cell_length_b 15.225689
_cell_length_c 24.926293
_cell_angle_alpha 90.000000
_cell_angle_beta 90.000000
_cell_angle_gamma 90.000000
_cell_volume 3395.394903
_symmetry_space_group_name_H-M "P M M A"
_symmetry_group_IT_number 51
_symmetry_cell_setting 'orthorhombic'
loop_
_space_group_symop_operation_xyz
x,y,z
1/2-x,-y,z
1/2+x,-y,-z
-x,y,-z
-x,-y,-z
1/2+x,y,-z
1/2-x,y,z
x,-y,z
loop_
_atom_site_type_symbol
_atom_site_label
_atom_site_fract_x
_atom_site_fract_y
_atom_site_fract_z
Si Si1 0.926711 0.773508 0.649207
Si Si2 0.422780 0.351409 0.791379
Si Si3 0.073631 0.900022 0.444672
Si Si4 0.578789 0.099314 0.139846
Si Si5 0.074187 0.225390 0.055555
Si Si6 0.425680 0.822731 0.233211
Si Si7 0.920672 0.404669 0.892408
Si Si8 0.077275 0.402983 0.672134
O O1 0.750000 0.766243 0.648294
O O2 0.986785 0.835642 0.601724
O O3 0.980177 0.818040 0.704908
O O4 0.988604 0.674685 0.642247
O O5 0.250000 0.323484 0.796922
O O6 0.529966 0.267412 0.795753
O O7 0.472469 0.411737 0.840582
O O8 0.450819 0.401611 0.735810
O O9 0.250000 0.892056 0.450847
O O10 0.000000 0.869244 0.500000
O O11 0.026904 0.000000 0.430458
O O12 0.750000 0.131063 0.140284
O O13 0.483286 0.161859 0.101931
O O14 0.512686 0.101789 0.200610
O O15 0.565916 0.000000 0.118726
O O16 0.250000 0.213194 0.050135
O O17 0.028654 0.326268 0.068274
O O18 0.000000 0.197031 0.000000
O O19 0.250000 0.839761 0.229384
O O20 0.750000 0.388304 0.873822
O O21 0.935308 0.500000 0.921594
O O22 0.250000 0.388209 0.658701
O O23 0.025423 0.500000 0.651792
#
# Coordination Sequence:
#
# PCOD8206956 Si02
#       8
#     8   8   8   8   8   8   8   8
#     4   9  19  33  52  80 112 146 185 225 270 322
#     4  10  18  30  51  77 108 144 182 220 262 316
#     4   9  18  34  55  79 108 142 182 229 277 326
#     4  11  24  41  61  85 112 142 178 223 273 326
#     4  11  24  42  63  83 108 142 180 226 275 325
#     4  10  19  33  54  81 113 147 180 216 267 324
#     4  10  21  36  55  81 111 142 178 220 266 320
#     4   9  18  31  47  73 110 148 185 224 267 315
#
# _framework density 18.849060000000001
#
# number of rings (size 3 to 8) (size 9 to 14) (size 15 to 20)
#    0.000    2.125    1.250    1.875    0.000    5.000 
#    0.000    1.250    0.000    1.875    0.000    0.000 
#    0.000    0.000    0.000    0.000    0.000    0.000 
#
# Total GULP energy -793491.265076 kJ/mol
# GULP energy per Si atom -12398.301017 kJ/mol
# Density = 1.880616 g / cm^3
# Si number density = 18.849060 Si / 1000 Ang^3
#
#
#
# Elastic Constant Matrix: (Units=GPa)
#
#
# Indices 1 2 3 4 5 6 
#
# 1 60.4395 37.0746 37.0502 0.0000 0.0000 0.0000
# 2 37.0746 111.7795 59.2393 0.0000 0.0000 0.0000
# 3 37.0502 59.2393 103.8441 0.0000 0.0000 0.0000
# 4 0.0000 0.0000 0.0000 19.8735 0.0000 0.0000
# 5 0.0000 0.0000 0.0000 0.0000 28.7966 0.0000
# 6 0.0000 0.0000 0.0000 0.0000 0.0000 27.4925
#
#
#
# Elastic Compliance Matrix: (Units=1/GPa)
#
#
# Indices 1 2 3 4 5 6 
#
# 1 0.022746 -0.004649 -0.005464 0.000000 0.000000 0.000000
# 2 -0.004649 0.013773 -0.006198 0.000000 0.000000 0.000000
# 3 -0.005464 -0.006198 0.015115 0.000000 0.000000 0.000000
# 4 0.000000 0.000000 0.000000 0.050318 0.000000 0.000000
# 5 0.000000 0.000000 0.000000 0.000000 0.034726 0.000000
# 6 0.000000 0.000000 0.000000 0.000000 0.000000 0.036374
#
#
# Mechanical properties :
#
#
# Convention : Reuss Voigt Hill
#
# Bulk Modulus (GPa) = 52.59599 60.31012 56.45305
# Shear Modulus (GPa) = 23.58358 24.74579 24.16469
#
# Velocity S-wave (km/s) = 3.54104 3.62724 3.58440
# Velocity P-wave (km/s) = 6.68453 7.04332 6.86627
#
# Compressibility (1/GPa) = 0.01901286
#
# Stress axis : x y z
#
# Youngs Moduli (GPa) = 43.96292 72.60567 66.15916
#
# Poissons Ratio (x) = 0.33754 0.36146
# Poissons Ratio (y) = 0.20438 0.41008
# Poissons Ratio (z) = 0.24019 0.45003
#
# Static dielectric constant tensor:
#      x y z
#    x 3.406550 0.000000 0.000000 
#    y 0.000000 3.550910 0.000000 
#    z 0.000000 0.000000 3.361760 
# 
# 
# High freq. dielectric constant tensor:
#      x y z
#    x 1.732420 0.000000 0.000000 
#    y 0.000000 1.735320 0.000000 
#    z 0.000000 0.000000 1.708960 
# 
# From -- ./inp_files/34934.got.cif
#   From: 2010.03.12/outbox.cif.g09.slc.cpg/sg51_18_cif.got.tgz:34934.got - 2010.04.16 13:43:02.
