data_PCOD8206315
_publ_section_title
;
Structure prediction by ZEFSAII (Michael W. Deem and Ramdas Pophale) SiO2 
 PCOD8206315
Probable space group: P M M A
;
_chemical_formula_sum "Si O2"
_cell_formula_units_Z 64
_cell_length_a 8.912841
_cell_length_b 25.936759
_cell_length_c 18.438971
_cell_angle_alpha 90.000000
_cell_angle_beta 90.000000
_cell_angle_gamma 90.000000
_cell_volume 4262.540780
_symmetry_space_group_name_H-M "P M M A"
_symmetry_group_IT_number 51
_symmetry_cell_setting 'orthorhombic'
loop_
_space_group_symop_operation_xyz
x,y,z
1/2-x,-y,z
1/2+x,-y,-z
-x,y,-z
-x,-y,-z
1/2+x,y,-z
1/2-x,y,z
x,-y,z
loop_
_atom_site_type_symbol
_atom_site_label
_atom_site_fract_x
_atom_site_fract_y
_atom_site_fract_z
Si Si1 0.415380 0.692453 0.288126
Si Si2 0.074754 0.057429 0.574223
Si Si3 0.924858 0.844627 0.338709
Si Si4 0.571612 0.259536 0.923409
Si Si5 0.924548 0.440107 0.924302
Si Si6 0.572802 0.646373 0.160176
Si Si7 0.414710 0.198338 0.210618
Si Si8 0.072555 0.247495 0.423345
O O1 0.250000 0.666418 0.286978
O O2 0.531630 0.656537 0.244639
O O3 0.404609 0.747306 0.250089
O O4 0.468201 0.704118 0.370545
O O5 0.250000 0.057262 0.559452
O O6 0.033459 0.097187 0.638081
O O7 0.000000 0.076297 0.500000
O O8 0.018452 0.000000 0.596326
O O9 0.750000 0.832820 0.346013
O O10 0.972260 0.838641 0.254331
O O11 0.010727 0.805889 0.391673
O O12 0.750000 0.267384 0.929087
O O13 0.500873 0.311948 0.893035
O O14 0.531379 0.210799 0.871335
O O15 0.500000 0.245795 0.000000
O O16 0.750000 0.425316 0.927882
O O17 0.948531 0.500000 0.907092
O O18 0.007269 0.409285 0.860494
O O19 0.000000 0.424480 0.000000
O O20 0.750000 0.647614 0.150656
O O21 0.250000 0.172261 0.210132
O O22 0.250000 0.241326 0.431328
O O23 0.000000 0.260396 0.500000
#
# Coordination Sequence:
#
# PCOD8206315 Si02
#       8
#     8   8   8   8   8   8   8   8
#     4   8  16  30  43  57  80 109 138 168 203 241
#     4   9  18  30  41  56  79 106 137 172 206 238
#     4  10  18  27  42  60  79 107 140 171 203 243
#     4  10  19  30  43  60  83 110 139 169 201 240
#     4  10  20  33  47  62  83 111 142 176 210 243
#     4  11  20  29  44  63  84 111 141 173 206 242
#     4   8  16  29  42  57  80 107 133 166 204 240
#     4  10  19  29  42  60  84 111 138 171 206 243
#
# _framework density 15.014518000000001
#
# number of rings (size 3 to 8) (size 9 to 14) (size 15 to 20)
#    0.000    2.500    0.000    4.875    0.000    8.250 
#    0.000    0.000    0.000    0.000    0.000    0.000 
#    0.000    1.000    0.000    2.750    0.000    3.750 
#
# Total GULP energy -793344.971836 kJ/mol
# GULP energy per Si atom -12396.015185 kJ/mol
# Density = 1.498034 g / cm^3
# Si number density = 15.014518 Si / 1000 Ang^3
#
#
#
# Elastic Constant Matrix: (Units=GPa)
#
#
# Indices 1 2 3 4 5 6 
#
# 1 95.5138 43.4562 55.0106 0.0000 0.0000 0.0000
# 2 43.4562 63.8164 47.9156 0.0000 0.0000 0.0000
# 3 55.0106 47.9156 116.2389 0.0000 0.0000 0.0000
# 4 0.0000 0.0000 0.0000 20.4882 0.0000 0.0000
# 5 0.0000 0.0000 0.0000 0.0000 26.5836 0.0000
# 6 0.0000 0.0000 0.0000 0.0000 0.0000 19.0682
#
#
#
# Elastic Compliance Matrix: (Units=1/GPa)
#
#
# Indices 1 2 3 4 5 6 
#
# 1 0.016756 -0.007902 -0.004673 0.000000 0.000000 0.000000
# 2 -0.007902 0.026420 -0.007151 0.000000 0.000000 0.000000
# 3 -0.004673 -0.007151 0.013762 0.000000 0.000000 0.000000
# 4 0.000000 0.000000 0.000000 0.048809 0.000000 0.000000
# 5 0.000000 0.000000 0.000000 0.000000 0.037617 0.000000
# 6 0.000000 0.000000 0.000000 0.000000 0.000000 0.052443
#
#
# Mechanical properties :
#
#
# Convention : Reuss Voigt Hill
#
# Bulk Modulus (GPa) = 57.18528 63.14822 60.16675
# Shear Modulus (GPa) = 20.73937 21.84046 21.28992
#
# Velocity S-wave (km/s) = 3.72060 3.81809 3.76966
# Velocity P-wave (km/s) = 7.52506 7.84771 7.68807
#
# Compressibility (1/GPa) = 0.01748702
#
# Stress axis : x y z
#
# Youngs Moduli (GPa) = 59.68047 37.85000 72.66302
#
# Poissons Ratio (x) = 0.29908 0.33952
# Poissons Ratio (y) = 0.47158 0.51963
# Poissons Ratio (z) = 0.27886 0.27068
#
# Static dielectric constant tensor:
#      x y z
#    x 3.005890 0.000000 0.000000 
#    y 0.000000 2.759300 0.000000 
#    z 0.000000 0.000000 3.222240 
# 
# 
# High freq. dielectric constant tensor:
#      x y z
#    x 1.588660 0.000000 0.000000 
#    y 0.000000 1.537010 0.000000 
#    z 0.000000 0.000000 1.567330 
# 
# From -- ./inp_files/28651.got.cif
#   From: 2010.03.12/outbox.cif.g09.slc.cpg/sg51_15_cif.got.tgz:28651.got - 2010.04.16 13:43:02.
