data_PCOD8206951
_publ_section_title
;
Structure prediction by ZEFSAII (Michael W. Deem and Ramdas Pophale) SiO2 
 PCOD8206951
Probable space group: P M M A
;
_chemical_formula_sum "Si O2"
_cell_formula_units_Z 40
_cell_length_a 24.410228
_cell_length_b 9.070480
_cell_length_c 10.088749
_cell_angle_alpha 90.000000
_cell_angle_beta 90.000000
_cell_angle_gamma 90.000000
_cell_volume 2233.774985
_symmetry_space_group_name_H-M "P M M A"
_symmetry_group_IT_number 51
_symmetry_cell_setting 'orthorhombic'
loop_
_space_group_symop_operation_xyz
x,y,z
1/2-x,-y,z
1/2+x,-y,-z
-x,y,-z
-x,-y,-z
1/2+x,y,-z
1/2-x,y,z
x,-y,z
loop_
_atom_site_type_symbol
_atom_site_label
_atom_site_fract_x
_atom_site_fract_y
_atom_site_fract_z
Si Si1 0.463631 0.672792 0.125735
Si Si2 0.250000 0.667685 0.031339
Si Si3 0.750000 0.665436 0.284052
Si Si4 0.475658 0.830729 0.643555
Si Si5 0.143504 0.169637 0.726404
Si Si6 0.641430 0.173704 0.968423
O O1 0.450942 0.500000 0.129928
O O2 0.495050 0.719879 0.257340
O O3 0.500000 0.716429 0.000000
O O4 0.407285 0.761753 0.119334
O O5 0.250000 0.500000 0.083013
O O6 0.250000 0.674331 0.873487
O O7 0.196864 0.752106 0.085744
O O8 0.750000 0.500000 0.338075
O O9 0.694546 0.742212 0.336672
O O10 0.500000 0.800428 0.500000
O O11 0.410693 0.796308 0.640951
O O12 0.485214 0.000000 0.688957
O O13 0.131473 0.216226 0.878094
O O14 0.160567 0.000000 0.720928
O O15 0.645168 0.000000 0.946742
#
# Coordination Sequence:
#
# PCOD8206951 Si02
#       6
#     8   4   4   8   8   8
#     4  11  22  34  52  78 108 141 176 217 266 316
#     4   9  17  29  45  72 109 138 167 214 270 318
#     4   9  17  27  45  72 101 134 169 210 256 308
#     4  10  21  37  56  78 106 141 180 222 269 319
#     4   9  17  30  49  74 103 134 169 214 261 310
#     4  10  18  30  51  76 104 138 178 218 263 316
#
# _framework density 17.906907
#
# number of rings (size 3 to 8) (size 9 to 14) (size 15 to 20)
#    0.000    2.200    2.000    1.800    0.000    5.200 
#    0.000    0.000    0.000    1.200    0.000    5.600 
#    0.000    0.000    0.000    0.000    0.000    0.000 
#
# Total GULP energy -496094.455665 kJ/mol
# GULP energy per Si atom -12402.361392 kJ/mol
# Density = 1.786615 g / cm^3
# Si number density = 17.906907 Si / 1000 Ang^3
#
#
#
# Elastic Constant Matrix: (Units=GPa)
#
#
# Indices 1 2 3 4 5 6 
#
# 1 156.4360 69.6281 39.4677 0.0000 0.0000 0.0000
# 2 69.6281 96.9426 30.3822 0.0000 0.0000 0.0000
# 3 39.4677 30.3822 49.9367 0.0000 0.0000 0.0000
# 4 0.0000 0.0000 0.0000 12.2750 0.0000 0.0000
# 5 0.0000 0.0000 0.0000 0.0000 20.7613 0.0000
# 6 0.0000 0.0000 0.0000 0.0000 0.0000 32.8377
#
#
#
# Elastic Compliance Matrix: (Units=1/GPa)
#
#
# Indices 1 2 3 4 5 6 
#
# 1 0.010129 -0.005889 -0.004423 0.000000 0.000000 0.000000
# 2 -0.005889 0.016170 -0.005183 0.000000 0.000000 0.000000
# 3 -0.004423 -0.005183 0.026674 0.000000 0.000000 0.000000
# 4 0.000000 0.000000 0.000000 0.081466 0.000000 0.000000
# 5 0.000000 0.000000 0.000000 0.000000 0.048167 0.000000
# 6 0.000000 0.000000 0.000000 0.000000 0.000000 0.030453
#
#
# Mechanical properties :
#
#
# Convention : Reuss Voigt Hill
#
# Bulk Modulus (GPa) = 45.48953 64.69678 55.09315
# Shear Modulus (GPa) = 19.89037 24.09728 21.99382
#
# Velocity S-wave (km/s) = 3.33643 3.67235 3.50841
# Velocity P-wave (km/s) = 6.34829 7.36135 6.87351
#
# Compressibility (1/GPa) = 0.02198308
#
# Stress axis : x y z
#
# Youngs Moduli (GPa) = 98.72169 61.84383 37.48900
#
# Poissons Ratio (x) = 0.36422 0.16580
# Poissons Ratio (y) = 0.58140 0.19432
# Poissons Ratio (z) = 0.43662 0.32055
#
# Static dielectric constant tensor:
#      x y z
#    x 3.516830 0.000000 0.000000 
#    y 0.000000 3.361200 0.000000 
#    z 0.000000 0.000000 2.867520 
# 
# 
# High freq. dielectric constant tensor:
#      x y z
#    x 1.711640 0.000000 0.000000 
#    y 0.000000 1.701510 0.000000 
#    z 0.000000 0.000000 1.636350 
# 
# From -- ./inp_files/17924.got.cif
#   From: 2010.03.12/outbox.cif.g09.slc.cpg/sg51_9_cif.got.tgz:17924.got - 2010.04.16 13:43:02.
