data_PCOD8206728
_publ_section_title
;
Structure prediction by ZEFSAII (Michael W. Deem and Ramdas Pophale) SiO2 
 PCOD8206728
Probable space group: P M M A
;
_chemical_formula_sum "Si O2"
_cell_formula_units_Z 64
_cell_length_a 24.008100
_cell_length_b 8.743193
_cell_length_c 15.064975
_cell_angle_alpha 90.000000
_cell_angle_beta 90.000000
_cell_angle_gamma 90.000000
_cell_volume 3162.250515
_symmetry_space_group_name_H-M "P M M A"
_symmetry_group_IT_number 51
_symmetry_cell_setting 'orthorhombic'
loop_
_space_group_symop_operation_xyz
x,y,z
1/2-x,-y,z
1/2+x,-y,-z
-x,y,-z
-x,-y,-z
1/2+x,y,-z
1/2-x,y,z
x,-y,z
loop_
_atom_site_type_symbol
_atom_site_label
_atom_site_fract_x
_atom_site_fract_y
_atom_site_fract_z
Si Si1 0.191107 0.825507 0.286310
Si Si2 0.996754 0.318520 0.216679
Si Si3 0.379174 0.818556 0.816668
Si Si4 0.362330 0.826109 0.463418
Si Si5 0.472168 0.679174 0.411481
Si Si6 0.687715 0.181931 0.353987
Si Si7 0.393927 0.181503 0.147769
Si Si8 0.313360 0.181143 0.989702
O O1 0.250000 0.746173 0.259798
O O2 0.187399 0.819676 0.392664
O O3 0.138546 0.754741 0.234957
O O4 0.193413 0.000000 0.252998
O O5 0.997469 0.500000 0.216368
O O6 0.003970 0.254139 0.318154
O O7 0.045584 0.259614 0.151327
O O8 0.939258 0.258903 0.175757
O O9 0.349339 0.759929 0.727394
O O10 0.387356 0.000000 0.817048
O O11 0.339534 0.764098 0.896662
O O12 0.407815 0.717194 0.420030
O O13 0.340929 0.757309 0.556110
O O14 0.384660 0.000000 0.474702
O O15 0.500000 0.753208 0.500000
O O16 0.482428 0.500000 0.410945
O O17 0.750000 0.249750 0.345650
O O18 0.691075 0.000000 0.356390
O O19 0.356172 0.238259 0.065329
O O20 0.403608 0.000000 0.145691
O O21 0.250000 0.247337 0.000921
O O22 0.309434 0.000000 0.992396
#
# Coordination Sequence:
#
# PCOD8206728 Si02
#       8
#     8   8   8   8   8   8   8   8
#     4   9  16  27  47  76 106 133 164 208 259 308
#     4  11  23  38  55  77 110 147 183 225 272 321
#     4  10  20  35  57  82 109 142 181 225 269 318
#     4  10  18  29  49  78 106 135 173 216 262 318
#     4  10  21  36  52  70 100 144 186 223 264 312
#     4   9  17  30  51  81 113 141 173 220 275 324
#     4  10  19  34  57  82 109 140 179 221 262 315
#     4   9  18  34  59  89 113 137 176 224 272 321
#
# _framework density 20.23875
#
# number of rings (size 3 to 8) (size 9 to 14) (size 15 to 20)
#    0.000    2.250    1.250    2.250    0.000    5.750 
#    0.000    3.125    0.000    6.750    0.000    0.000 
#    0.000    0.000    0.000    0.000    0.000    0.000 
#
# Total GULP energy -793230.978906 kJ/mol
# GULP energy per Si atom -12394.234045 kJ/mol
# Density = 2.019269 g / cm^3
# Si number density = 20.238750 Si / 1000 Ang^3
#
#
#
# Elastic Constant Matrix: (Units=GPa)
#
#
# Indices 1 2 3 4 5 6 
#
# 1 150.9865 21.3655 61.4038 0.0000 0.0000 0.0000
# 2 21.3655 20.1878 18.6782 0.0000 0.0000 0.0000
# 3 61.4038 18.6782 135.7902 0.0000 0.0000 0.0000
# 4 0.0000 0.0000 0.0000 14.1398 0.0000 0.0000
# 5 0.0000 0.0000 0.0000 0.0000 34.3451 0.0000
# 6 0.0000 0.0000 0.0000 0.0000 0.0000 0.6956
#
#
#
# Elastic Compliance Matrix: (Units=1/GPa)
#
#
# Indices 1 2 3 4 5 6 
#
# 1 0.008791 -0.006447 -0.003089 0.000000 0.000000 0.000000
# 2 -0.006447 0.061486 -0.005542 0.000000 0.000000 0.000000
# 3 -0.003089 -0.005542 0.009523 0.000000 0.000000 0.000000
# 4 0.000000 0.000000 0.000000 0.070722 0.000000 0.000000
# 5 0.000000 0.000000 0.000000 0.000000 0.029116 0.000000
# 6 0.000000 0.000000 0.000000 0.000000 0.000000 1.437647
#
#
# Mechanical properties :
#
#
# Convention : Reuss Voigt Hill
#
# Bulk Modulus (GPa) = 20.14298 56.65106 38.39702
# Shear Modulus (GPa) = 3.00483 23.53723 13.27103
#
# Velocity S-wave (km/s) = 1.21980 3.41395 2.56349
# Velocity P-wave (km/s) = 3.45806 6.60244 5.27022
#
# Compressibility (1/GPa) = 0.04964508
#
# Stress axis : x y z
#
# Youngs Moduli (GPa) = 113.74656 16.26399 105.00479
#
# Poissons Ratio (x) = 0.10485 0.32433
# Poissons Ratio (y) = 0.73328 0.58197
# Poissons Ratio (z) = 0.35133 0.09014
#
# Static dielectric constant tensor:
#      x y z
#    x 3.769300 0.000000 0.000000 
#    y 0.000000 3.064430 0.000000 
#    z 0.000000 0.000000 3.961210 
# 
# 
# High freq. dielectric constant tensor:
#      x y z
#    x 1.804140 0.000000 0.000000 
#    y 0.000000 1.728160 0.000000 
#    z 0.000000 0.000000 1.801200 
# 
# From -- ./inp_files/26303.got.cif
#   From: 2010.03.12/outbox.cif.g09.slc.cpg/sg51_14_cif.got.tgz:26303.got - 2010.04.16 13:43:02.
