data_PCOD8206075
_publ_section_title
;
Structure prediction by ZEFSAII (Michael W. Deem and Ramdas Pophale) SiO2 
 PCOD8206075
Probable space group: P M M A
;
_chemical_formula_sum "Si O2"
_cell_formula_units_Z 64
_cell_length_a 9.633525
_cell_length_b 14.067762
_cell_length_c 31.069468
_cell_angle_alpha 90.000000
_cell_angle_beta 90.000000
_cell_angle_gamma 90.000000
_cell_volume 4210.600696
_symmetry_space_group_name_H-M "P M M A"
_symmetry_group_IT_number 51
_symmetry_cell_setting 'orthorhombic'
loop_
_space_group_symop_operation_xyz
x,y,z
1/2-x,-y,z
1/2+x,-y,-z
-x,y,-z
-x,-y,-z
1/2+x,y,-z
1/2-x,y,z
x,-y,z
loop_
_atom_site_type_symbol
_atom_site_label
_atom_site_fract_x
_atom_site_fract_y
_atom_site_fract_z
Si Si1 0.415126 0.605694 0.367864
Si Si2 0.095775 0.613189 0.462428
Si Si3 0.409954 0.108555 0.845058
Si Si4 0.586549 0.725699 0.875271
Si Si5 0.585293 0.272502 0.712242
Si Si6 0.589747 0.390625 0.959601
Si Si7 0.914530 0.393872 0.793891
Si Si8 0.409231 0.108819 0.745560
O O1 0.250000 0.599463 0.367390
O O2 0.474862 0.500000 0.358146
O O3 0.463579 0.641567 0.415202
O O4 0.467168 0.678746 0.331758
O O5 0.250000 0.655028 0.469018
O O6 0.100554 0.500000 0.465400
O O7 0.000000 0.656881 0.500000
O O8 0.250000 0.136207 0.852500
O O9 0.507132 0.174114 0.874544
O O10 0.450749 0.122588 0.795284
O O11 0.436273 0.000000 0.859003
O O12 0.750000 0.745171 0.871544
O O13 0.547180 0.672539 0.919023
O O14 0.531686 0.661328 0.835901
O O15 0.750000 0.255879 0.712775
O O16 0.536002 0.339477 0.751284
O O17 0.509445 0.171602 0.715888
O O18 0.750000 0.376657 0.971666
O O19 0.557755 0.500000 0.947963
O O20 0.500000 0.355925 0.000000
O O21 0.750000 0.400621 0.795034
O O22 0.978421 0.500000 0.793623
O O23 0.250000 0.139233 0.738307
O O24 0.431351 0.000000 0.731715
#
# Coordination Sequence:
#
# PCOD8206075 Si02
#       8
#     8   8   8   8   8   8   8   8
#     4   8  14  24  38  58  85 116 146 175 211 254
#     4   8  13  22  36  53  75 105 142 181 214 245
#     4   9  18  32  48  65  87 116 146 176 216 263
#     4  10  18  29  47  71  92 112 143 183 218 246
#     4  10  17  26  43  65  85 111 147 180 207 245
#     4   9  18  32  49  69  94 121 147 176 212 254
#     4   9  16  25  39  62  90 116 141 170 205 245
#     4   9  18  32  46  59  82 116 146 175 217 261
#
# _framework density 15.199731
#
# number of rings (size 3 to 8) (size 9 to 14) (size 15 to 20)
#    0.000    3.000    1.250    2.250    0.000    4.000 
#    0.000    1.875    0.000    4.500    0.000    0.000 
#    0.000    0.500    0.000    1.125    0.000    2.000 
#
# Total GULP energy -793432.669398 kJ/mol
# GULP energy per Si atom -12397.385459 kJ/mol
# Density = 1.516514 g / cm^3
# Si number density = 15.199731 Si / 1000 Ang^3
#
#
#
# Elastic Constant Matrix: (Units=GPa)
#
#
# Indices 1 2 3 4 5 6 
#
# 1 45.4618 39.9973 45.7618 0.0000 0.0000 0.0000
# 2 39.9973 86.4792 55.2883 0.0000 0.0000 0.0000
# 3 45.7618 55.2883 124.4196 0.0000 0.0000 0.0000
# 4 0.0000 0.0000 0.0000 13.1195 0.0000 0.0000
# 5 0.0000 0.0000 0.0000 0.0000 22.2798 0.0000
# 6 0.0000 0.0000 0.0000 0.0000 0.0000 20.3164
#
#
#
# Elastic Compliance Matrix: (Units=1/GPa)
#
#
# Indices 1 2 3 4 5 6 
#
# 1 0.044671 -0.014187 -0.010126 0.000000 0.000000 0.000000
# 2 -0.014187 0.020658 -0.003962 0.000000 0.000000 0.000000
# 3 -0.010126 -0.003962 0.013522 0.000000 0.000000 0.000000
# 4 0.000000 0.000000 0.000000 0.076223 0.000000 0.000000
# 5 0.000000 0.000000 0.000000 0.000000 0.044884 0.000000
# 6 0.000000 0.000000 0.000000 0.000000 0.000000 0.049221
#
#
# Mechanical properties :
#
#
# Convention : Reuss Voigt Hill
#
# Bulk Modulus (GPa) = 44.83937 59.82838 52.33387
# Shear Modulus (GPa) = 15.96623 18.83068 17.39846
#
# Velocity S-wave (km/s) = 3.24455 3.52360 3.38695
# Velocity P-wave (km/s) = 6.60305 7.48340 7.05696
#
# Compressibility (1/GPa) = 0.02230183
#
# Stress axis : x y z
#
# Youngs Moduli (GPa) = 22.38605 48.40775 73.95309
#
# Poissons Ratio (x) = 0.68675 0.74883
# Poissons Ratio (y) = 0.31759 0.29298
# Poissons Ratio (z) = 0.22668 0.19178
#
# Static dielectric constant tensor:
#      x y z
#    x 2.722610 0.000000 0.000000 
#    y 0.000000 2.806780 0.000000 
#    z 0.000000 0.000000 3.013020 
# 
# 
# High freq. dielectric constant tensor:
#      x y z
#    x 1.559940 0.000000 0.000000 
#    y 0.000000 1.562960 0.000000 
#    z 0.000000 0.000000 1.575120 
# 
# From -- ./inp_files/37613.got.cif
#   From: 2010.03.12/outbox.cif.g09.slc.cpg/sg51_19_cif.got.tgz:37613.got - 2010.04.16 13:43:02.
