data_PCOD8206002
_publ_section_title
;
Structure prediction by ZEFSAII (Michael W. Deem and Ramdas Pophale) SiO2 
 PCOD8206002
Probable space group: P M M A
;
_chemical_formula_sum "Si O2"
_cell_formula_units_Z 64
_cell_length_a 22.627370
_cell_length_b 8.984724
_cell_length_c 20.215780
_cell_angle_alpha 90.000000
_cell_angle_beta 90.000000
_cell_angle_gamma 90.000000
_cell_volume 4109.881705
_symmetry_space_group_name_H-M "P M M A"
_symmetry_group_IT_number 51
_symmetry_cell_setting 'orthorhombic'
loop_
_space_group_symop_operation_xyz
x,y,z
1/2-x,-y,z
1/2+x,-y,-z
-x,y,-z
-x,-y,-z
1/2+x,y,-z
1/2-x,y,z
x,-y,z
loop_
_atom_site_type_symbol
_atom_site_label
_atom_site_fract_x
_atom_site_fract_y
_atom_site_fract_z
Si Si1 0.680988 0.172518 0.790582
Si Si2 0.449621 0.176749 0.580747
Si Si3 0.974373 0.327496 0.293200
Si Si4 0.898359 0.325063 0.896625
Si Si5 0.427259 0.673527 0.457247
Si Si6 0.529143 0.672295 0.144508
Si Si7 0.109336 0.329424 0.317273
Si Si8 0.067405 0.831879 0.977687
O O1 0.750000 0.205709 0.790248
O O2 0.653179 0.260781 0.851459
O O3 0.655308 0.225581 0.720363
O O4 0.666464 0.000000 0.799699
O O5 0.434903 0.230724 0.655428
O O6 0.513686 0.241682 0.564409
O O7 0.404862 0.248372 0.525618
O O8 0.447615 0.000000 0.576177
O O9 0.967169 0.500000 0.312159
O O10 0.950929 0.293816 0.219497
O O11 0.043158 0.282826 0.296752
O O12 0.890453 0.500000 0.901769
O O13 0.960916 0.279739 0.864229
O O14 0.892435 0.257759 0.970314
O O15 0.440778 0.500000 0.469535
O O16 0.381122 0.691811 0.396608
O O17 0.535830 0.500000 0.126546
O O18 0.572350 0.762371 0.095647
O O19 0.120646 0.500000 0.296163
O O20 0.090465 0.000000 0.975115
O O21 0.000000 0.820555 0.000000
#
# Coordination Sequence:
#
# PCOD8206002 Si02
#       8
#     8   8   8   8   8   8   8   8
#     4  11  23  34  44  61  84 108 136 176 224 262
#     4  10  17  23  34  56  79 102 134 166 198 236
#     4   9  16  27  40  56  81 110 139 169 204 240
#     4  10  18  31  47  60  76 104 141 176 208 248
#     4   9  16  27  40  52  72 101 133 167 203 240
#     4   9  16  27  42  60  81 108 141 172 203 245
#     4   9  17  30  45  59  73 101 141 175 209 248
#     4   9  17  27  40  61  84 105 131 166 209 251
#
# _framework density 15.572224
#
# number of rings (size 3 to 8) (size 9 to 14) (size 15 to 20)
#    0.000    2.500    1.250    4.125    0.000    6.000 
#    0.000    0.000    0.000    0.000    0.000    0.000 
#    0.000    0.000    0.000    1.125    0.000   18.750 
#
# Total GULP energy -793275.142170 kJ/mol
# GULP energy per Si atom -12394.924096 kJ/mol
# Density = 1.553678 g / cm^3
# Si number density = 15.572224 Si / 1000 Ang^3
#
#
#
# Elastic Constant Matrix: (Units=GPa)
#
#
# Indices 1 2 3 4 5 6 
#
# 1 27.9301 28.1637 32.5900 0.0000 0.0000 0.0000
# 2 28.1637 100.4589 69.1946 0.0000 0.0000 0.0000
# 3 32.5900 69.1946 140.2048 0.0000 0.0000 0.0000
# 4 0.0000 0.0000 0.0000 23.8896 0.0000 0.0000
# 5 0.0000 0.0000 0.0000 0.0000 12.3099 0.0000
# 6 0.0000 0.0000 0.0000 0.0000 0.0000 14.3700
#
#
#
# Elastic Compliance Matrix: (Units=1/GPa)
#
#
# Indices 1 2 3 4 5 6 
#
# 1 0.055084 -0.010035 -0.007852 0.000000 0.000000 0.000000
# 2 -0.010035 0.016909 -0.006012 0.000000 0.000000 0.000000
# 3 -0.007852 -0.006012 0.011925 0.000000 0.000000 0.000000
# 4 0.000000 0.000000 0.000000 0.041859 0.000000 0.000000
# 5 0.000000 0.000000 0.000000 0.000000 0.081236 0.000000
# 6 0.000000 0.000000 0.000000 0.000000 0.000000 0.069589
#
#
# Mechanical properties :
#
#
# Convention : Reuss Voigt Hill
#
# Bulk Modulus (GPa) = 27.68548 58.72118 43.20333
# Shear Modulus (GPa) = 14.86151 19.35692 17.10922
#
# Velocity S-wave (km/s) = 3.09262 3.52950 3.31826
# Velocity P-wave (km/s) = 5.52899 7.37568 6.51807
#
# Compressibility (1/GPa) = 0.03612002
#
# Stress axis : x y z
#
# Youngs Moduli (GPa) = 18.15409 59.14073 83.85896
#
# Poissons Ratio (x) = 0.59346 0.65843
# Poissons Ratio (y) = 0.18217 0.50419
# Poissons Ratio (z) = 0.14254 0.35558
#
# Static dielectric constant tensor:
#      x y z
#    x 2.376480 0.000000 0.000000 
#    y 0.000000 3.034650 0.000000 
#    z 0.000000 0.000000 3.600330 
# 
# 
# High freq. dielectric constant tensor:
#      x y z
#    x 1.508660 0.000000 0.000000 
#    y 0.000000 1.608990 0.000000 
#    z 0.000000 0.000000 1.619610 
# 
# From -- ./inp_files/34233.got.cif
#   From: 2010.03.12/outbox.cif.g09.slc.cpg/sg51_18_cif.got.tgz:34233.got - 2010.04.16 13:43:02.
