data_PCOD8206381
_publ_section_title
;
Structure prediction by ZEFSAII (Michael W. Deem and Ramdas Pophale) SiO2 
 PCOD8206381
Probable space group: P M M A
;
_chemical_formula_sum "Si O2"
_cell_formula_units_Z 64
_cell_length_a 26.777563
_cell_length_b 9.010759
_cell_length_c 16.986381
_cell_angle_alpha 90.000000
_cell_angle_beta 90.000000
_cell_angle_gamma 90.000000
_cell_volume 4098.578759
_symmetry_space_group_name_H-M "P M M A"
_symmetry_group_IT_number 51
_symmetry_cell_setting 'orthorhombic'
loop_
_space_group_symop_operation_xyz
x,y,z
1/2-x,-y,z
1/2+x,-y,-z
-x,y,-z
-x,-y,-z
1/2+x,y,-z
1/2-x,y,z
x,-y,z
loop_
_atom_site_type_symbol
_atom_site_label
_atom_site_fract_x
_atom_site_fract_y
_atom_site_fract_z
Si Si1 0.453687 0.670271 0.400164
Si Si2 0.562332 0.329258 0.336060
Si Si3 0.608821 0.824083 0.473255
Si Si4 0.036544 0.174044 0.824580
Si Si5 0.804953 0.825598 0.587806
Si Si6 0.383230 0.171417 0.287849
Si Si7 0.442362 0.332591 0.977355
Si Si8 0.425132 0.169505 0.127333
O O1 0.439533 0.500000 0.418161
O O2 0.512259 0.687913 0.386786
O O3 0.437534 0.771228 0.473404
O O4 0.426400 0.724015 0.321288
O O5 0.576015 0.500000 0.321293
O O6 0.605950 0.251641 0.387440
O O7 0.558369 0.250040 0.252607
O O8 0.660050 0.770887 0.515982
O O9 0.606405 0.000000 0.463812
O O10 0.067355 0.236409 0.899316
O O11 0.978186 0.214000 0.833980
O O12 0.045639 0.000000 0.818139
O O13 0.750000 0.750017 0.583304
O O14 0.830464 0.785108 0.671975
O O15 0.798704 0.000000 0.581133
O O16 0.382199 0.194462 0.193416
O O17 0.396635 0.000000 0.308117
O O18 0.424691 0.500000 0.961708
O O19 0.500000 0.323749 0.000000
O O20 0.411406 0.267523 0.051311
O O21 0.427503 0.000000 0.098790
#
# Coordination Sequence:
#
# PCOD8206381 Si02
#       8
#     8   8   8   8   8   8   8   8
#     4  10  19  29  41  58  84 114 143 177 216 253
#     4  11  21  30  41  59  86 115 145 180 217 255
#     4  10  20  31  45  62  81 109 145 179 215 260
#     4  10  18  28  42  58  82 115 149 182 213 247
#     4   8  15  29  48  67  86 108 138 179 222 259
#     4   9  16  27  44  65  86 112 146 180 214 256
#     4   9  17  27  39  56  81 113 148 179 209 246
#     4   9  16  26  40  59  83 111 146 181 210 246
#
# _framework density 15.615169
#
# number of rings (size 3 to 8) (size 9 to 14) (size 15 to 20)
#    0.000    2.500    1.250    3.000    0.000    5.500 
#    0.000    0.000    0.000    9.375    0.000    0.000 
#    0.000    1.000    0.000    8.500    0.000    2.375 
#
# Total GULP energy -793365.805986 kJ/mol
# GULP energy per Si atom -12396.340719 kJ/mol
# Density = 1.557963 g / cm^3
# Si number density = 15.615169 Si / 1000 Ang^3
#
#
#
# Elastic Constant Matrix: (Units=GPa)
#
#
# Indices 1 2 3 4 5 6 
#
# 1 59.3319 27.8972 43.3314 0.0000 0.0000 0.0000
# 2 27.8972 80.6380 57.1020 0.0000 0.0000 0.0000
# 3 43.3314 57.1020 127.5634 0.0000 0.0000 0.0000
# 4 0.0000 0.0000 0.0000 27.2412 0.0000 0.0000
# 5 0.0000 0.0000 0.0000 0.0000 12.5344 0.0000
# 6 0.0000 0.0000 0.0000 0.0000 0.0000 7.3704
#
#
#
# Elastic Compliance Matrix: (Units=1/GPa)
#
#
# Indices 1 2 3 4 5 6 
#
# 1 0.023094 -0.003564 -0.006249 0.000000 0.000000 0.000000
# 2 -0.003564 0.018707 -0.007163 0.000000 0.000000 0.000000
# 3 -0.006249 -0.007163 0.013168 0.000000 0.000000 0.000000
# 4 0.000000 0.000000 0.000000 0.036709 0.000000 0.000000
# 5 0.000000 0.000000 0.000000 0.000000 0.079781 0.000000
# 6 0.000000 0.000000 0.000000 0.000000 0.000000 0.135677
#
#
# Mechanical properties :
#
#
# Convention : Reuss Voigt Hill
#
# Bulk Modulus (GPa) = 47.58262 58.24383 52.91322
# Shear Modulus (GPa) = 14.36392 18.70938 16.53665
#
# Velocity S-wave (km/s) = 3.03623 3.46519 3.25778
# Velocity P-wave (km/s) = 6.54444 7.30688 6.93615
#
# Compressibility (1/GPa) = 0.02101608
#
# Stress axis : x y z
#
# Youngs Moduli (GPa) = 43.30089 53.45734 75.93936
#
# Poissons Ratio (x) = 0.19054 0.47456
# Poissons Ratio (y) = 0.15434 0.54395
# Poissons Ratio (z) = 0.27060 0.38291
#
# Static dielectric constant tensor:
#      x y z
#    x 2.757380 0.000000 0.000000 
#    y 0.000000 3.012650 0.000000 
#    z 0.000000 0.000000 3.094120 
# 
# 
# High freq. dielectric constant tensor:
#      x y z
#    x 1.536040 0.000000 0.000000 
#    y 0.000000 1.602460 0.000000 
#    z 0.000000 0.000000 1.605900 
# 
# From -- ./inp_files/26604.got.cif
#   From: 2010.03.12/outbox.cif.g09.slc.cpg/sg51_14_cif.got.tgz:26604.got - 2010.04.16 13:43:02.
