data_PCOD8206554
_publ_section_title
;
Structure prediction by ZEFSAII (Michael W. Deem and Ramdas Pophale) SiO2 
 PCOD8206554
Probable space group: P M M A
;
_chemical_formula_sum "Si O2"
_cell_formula_units_Z 56
_cell_length_a 25.391396
_cell_length_b 14.078982
_cell_length_c 9.582251
_cell_angle_alpha 90.000000
_cell_angle_beta 90.000000
_cell_angle_gamma 90.000000
_cell_volume 3425.511068
_symmetry_space_group_name_H-M "P M M A"
_symmetry_group_IT_number 51
_symmetry_cell_setting 'orthorhombic'
loop_
_space_group_symop_operation_xyz
x,y,z
1/2-x,-y,z
1/2+x,-y,-z
-x,y,-z
-x,-y,-z
1/2+x,y,-z
1/2-x,y,z
x,-y,z
loop_
_atom_site_type_symbol
_atom_site_label
_atom_site_fract_x
_atom_site_fract_y
_atom_site_fract_z
Si Si1 0.963097 0.699932 0.778978
Si Si2 0.926396 0.103638 0.379383
Si Si3 0.191882 0.612047 0.263797
Si Si4 0.900982 0.388399 0.543236
Si Si5 0.951031 0.103814 0.685148
Si Si6 0.914402 0.704032 0.251556
Si Si7 0.116745 0.388729 0.019547
O O1 0.949115 0.661632 0.624387
O O2 0.941331 0.809169 0.791981
O O3 0.936818 0.636960 0.898613
O O4 0.025444 0.694477 0.797569
O O5 0.916429 0.118856 0.544769
O O6 0.898989 0.187578 0.291205
O O7 0.988264 0.107083 0.355611
O O8 0.904028 0.000000 0.333181
O O9 0.250000 0.658950 0.277103
O O10 0.197125 0.500000 0.272519
O O11 0.154272 0.647393 0.389291
O O12 0.166523 0.639994 0.114819
O O13 0.907619 0.500000 0.564787
O O14 0.902596 0.363811 0.381434
O O15 0.937384 0.000000 0.751984
O O16 0.878191 0.669998 0.123711
O O17 0.115527 0.500000 0.984927
#
# Coordination Sequence:
#
# PCOD8206554 Si02
#       7
#     8   8   8   8   8   8   8
#     4  10  18  29  42  61  92 131 159 177 213 258
#     4   8  14  25  41  60  85 118 152 189 229 256
#     4   8  16  34  53  63  79 111 147 188 236 272
#     4  10  19  28  43  67  89 114 154 190 217 260
#     4   8  13  24  42  61  81 114 160 196 221 249
#     4  11  19  28  42  65  97 124 150 185 216 255
#     4  10  21  32  43  63  92 127 158 179 211 267
#
# _framework density 16.347926000000001
#
# number of rings (size 3 to 8) (size 9 to 14) (size 15 to 20)
#    0.000    2.714    1.429    3.429    0.000    3.429 
#    0.000    1.429    0.000    6.857    0.000    0.000 
#    0.000   21.714    0.000    0.000    0.000    0.000 
#
# Total GULP energy -693999.292822 kJ/mol
# GULP energy per Si atom -12392.844515 kJ/mol
# Density = 1.631072 g / cm^3
# Si number density = 16.347926 Si / 1000 Ang^3
#
#
#
# Elastic Constant Matrix: (Units=GPa)
#
#
# Indices 1 2 3 4 5 6 
#
# 1 37.6094 11.8059 1.8225 0.0000 0.0000 0.0000
# 2 11.8059 86.2346 16.1613 0.0000 0.0000 0.0000
# 3 1.8225 16.1613 58.9457 0.0000 0.0000 0.0000
# 4 0.0000 0.0000 0.0000 24.1311 0.0000 0.0000
# 5 0.0000 0.0000 0.0000 0.0000 7.7746 0.0000
# 6 0.0000 0.0000 0.0000 0.0000 0.0000 4.2793
#
#
#
# Elastic Compliance Matrix: (Units=1/GPa)
#
#
# Indices 1 2 3 4 5 6 
#
# 1 0.027785 -0.003840 0.000194 0.000000 0.000000 0.000000
# 2 -0.003840 0.012755 -0.003378 0.000000 0.000000 0.000000
# 3 0.000194 -0.003378 0.017885 0.000000 0.000000 0.000000
# 4 0.000000 0.000000 0.000000 0.041440 0.000000 0.000000
# 5 0.000000 0.000000 0.000000 0.000000 0.128624 0.000000
# 6 0.000000 0.000000 0.000000 0.000000 0.000000 0.233681
#
#
# Mechanical properties :
#
#
# Convention : Reuss Voigt Hill
#
# Bulk Modulus (GPa) = 22.53484 26.92991 24.73237
# Shear Modulus (GPa) = 10.18304 17.43700 13.81002
#
# Velocity S-wave (km/s) = 2.49849 3.26946 2.90962
# Velocity P-wave (km/s) = 4.70508 5.54628 5.14290
#
# Compressibility (1/GPa) = 0.04437574
#
# Stress axis : x y z
#
# Youngs Moduli (GPa) = 35.99043 78.39953 55.91265
#
# Poissons Ratio (x) = 0.30107 -0.01084
# Poissons Ratio (y) = 0.13821 0.18889
# Poissons Ratio (z) = -0.00698 0.26486
#
# Static dielectric constant tensor:
#      x y z
#    x 2.886370 0.000000 0.000000 
#    y 0.000000 3.411940 0.000000 
#    z 0.000000 0.000000 2.997480 
# 
# 
# High freq. dielectric constant tensor:
#      x y z
#    x 1.573990 0.000000 0.000000 
#    y 0.000000 1.632230 0.000000 
#    z 0.000000 0.000000 1.619750 
# 
# From -- ./inp_files/13220.got.cif
#   From: 2010.03.12/outbox.cif.g09.slc.cpg/sg51_7_cif.got.tgz:13220.got - 2010.04.16 13:43:02.
