data_PCOD8206847
_publ_section_title
;
Structure prediction by ZEFSAII (Michael W. Deem and Ramdas Pophale) SiO2 
 PCOD8206847
Probable space group: P M M A
;
_chemical_formula_sum "Si O2"
_cell_formula_units_Z 52
_cell_length_a 8.676490
_cell_length_b 23.454752
_cell_length_c 14.431700
_cell_angle_alpha 90.000000
_cell_angle_beta 90.000000
_cell_angle_gamma 90.000000
_cell_volume 2936.921971
_symmetry_space_group_name_H-M "P M M A"
_symmetry_group_IT_number 51
_symmetry_cell_setting 'orthorhombic'
loop_
_space_group_symop_operation_xyz
x,y,z
1/2-x,-y,z
1/2+x,-y,-z
-x,y,-z
-x,-y,-z
1/2+x,y,-z
1/2-x,y,z
x,-y,z
loop_
_atom_site_type_symbol
_atom_site_label
_atom_site_fract_x
_atom_site_fract_y
_atom_site_fract_z
Si Si1 0.931532 0.385241 0.898789
Si Si2 0.067335 0.169267 0.100840
Si Si3 0.567165 0.500000 0.102743
Si Si4 0.568979 0.276551 0.778045
Si Si5 0.932551 0.883848 0.594872
Si Si6 0.431855 0.759317 0.595103
Si Si7 0.066980 0.937149 0.215456
O O1 0.750000 0.392970 0.908525
O O2 0.977042 0.332411 0.834871
O O3 0.003435 0.442003 0.850466
O O4 0.000000 0.373836 0.000000
O O5 0.250000 0.168331 0.093897
O O6 0.012251 0.221275 0.165151
O O7 0.002244 0.110176 0.144297
O O8 0.000000 0.178261 0.000000
O O9 0.750000 0.500000 0.103246
O O10 0.500000 0.500000 0.000000
O O11 0.750000 0.273141 0.758448
O O12 0.479987 0.280552 0.680707
O O13 0.750000 0.879361 0.587281
O O14 0.985615 0.923504 0.679780
O O15 0.000000 0.910262 0.500000
O O16 0.998017 0.821355 0.612975
O O17 0.500000 0.733158 0.500000
O O18 0.250000 0.763586 0.586309
O O19 0.250000 0.936107 0.211226
O O20 0.003677 0.000000 0.188165
#
# Coordination Sequence:
#
# PCOD8206847 Si02
#       7
#     8   8   4   8   8   8   8
#     4  10  19  31  50  75 108 143 180 216 256 301
#     4  10  20  35  52  71  98 129 166 209 255 303
#     4  10  18  30  48  70 105 144 183 218 254 296
#     4  10  20  35  53  76 104 136 169 210 257 303
#     4  10  18  32  52  73  99 126 160 200 252 311
#     4  11  21  33  53  77 103 132 165 204 252 307
#     4   9  18  33  52  70  94 131 167 203 253 310
#
# _framework density 17.705611000000001
#
# number of rings (size 3 to 8) (size 9 to 14) (size 15 to 20)
#    0.000    2.000    1.538    5.308    0.000    2.462 
#    0.000    0.000    0.000    3.231    0.000    0.538 
#    0.000    0.000    0.000    0.000    0.000    0.000 
#
# Total GULP energy -644743.102180 kJ/mol
# GULP energy per Si atom -12398.905811 kJ/mol
# Density = 1.766531 g / cm^3
# Si number density = 17.705611 Si / 1000 Ang^3
#
#
#
# Elastic Constant Matrix: (Units=GPa)
#
#
# Indices 1 2 3 4 5 6 
#
# 1 75.2630 36.9898 37.4559 0.0000 0.0000 0.0000
# 2 36.9898 127.5707 59.9642 0.0000 0.0000 0.0000
# 3 37.4559 59.9642 119.4321 0.0000 0.0000 0.0000
# 4 0.0000 0.0000 0.0000 19.4242 0.0000 0.0000
# 5 0.0000 0.0000 0.0000 0.0000 29.9868 0.0000
# 6 0.0000 0.0000 0.0000 0.0000 0.0000 14.3173
#
#
#
# Elastic Compliance Matrix: (Units=1/GPa)
#
#
# Indices 1 2 3 4 5 6 
#
# 1 0.016632 -0.003103 -0.003658 0.000000 0.000000 0.000000
# 2 -0.003103 0.010839 -0.004469 0.000000 0.000000 0.000000
# 3 -0.003658 -0.004469 0.011764 0.000000 0.000000 0.000000
# 4 0.000000 0.000000 0.000000 0.051482 0.000000 0.000000
# 5 0.000000 0.000000 0.000000 0.000000 0.033348 0.000000
# 6 0.000000 0.000000 0.000000 0.000000 0.000000 0.069845
#
#
# Mechanical properties :
#
#
# Convention : Reuss Voigt Hill
#
# Bulk Modulus (GPa) = 59.61227 65.67619 62.64423
# Shear Modulus (GPa) = 22.52626 25.26940 23.89783
#
# Velocity S-wave (km/s) = 3.57075 3.78193 3.67786
# Velocity P-wave (km/s) = 7.12335 7.49964 7.31391
#
# Compressibility (1/GPa) = 0.01677507
#
# Stress axis : x y z
#
# Youngs Moduli (GPa) = 60.12361 92.25820 85.00539
#
# Poissons Ratio (x) = 0.28629 0.31097
# Poissons Ratio (y) = 0.18657 0.37988
# Poissons Ratio (z) = 0.21994 0.41229
#
# Static dielectric constant tensor:
#      x y z
#    x 3.252310 0.000000 0.000000 
#    y 0.000000 3.617040 0.000000 
#    z 0.000000 0.000000 3.377300 
# 
# 
# High freq. dielectric constant tensor:
#      x y z
#    x 1.679140 0.000000 0.000000 
#    y 0.000000 1.676190 0.000000 
#    z 0.000000 0.000000 1.676840 
# 
# From -- ./inp_files/22072.got.cif
#   From: 2010.03.12/outbox.cif.g09.slc.cpg/sg51_12_cif.got.tgz:22072.got - 2010.04.16 13:43:02.
