data_PCOD8206041
_publ_section_title
;
Structure prediction by ZEFSAII (Michael W. Deem and Ramdas Pophale) SiO2 
 PCOD8206041
Probable space group: P M M A
;
_chemical_formula_sum "Si O2"
_cell_formula_units_Z 48
_cell_length_a 20.358642
_cell_length_b 8.786632
_cell_length_c 15.320318
_cell_angle_alpha 90.000000
_cell_angle_beta 90.000000
_cell_angle_gamma 90.000000
_cell_volume 2740.558161
_symmetry_space_group_name_H-M "P M M A"
_symmetry_group_IT_number 51
_symmetry_cell_setting 'orthorhombic'
loop_
_space_group_symop_operation_xyz
x,y,z
1/2-x,-y,z
1/2+x,-y,-z
-x,y,-z
-x,-y,-z
1/2+x,y,-z
1/2-x,y,z
x,-y,z
loop_
_atom_site_type_symbol
_atom_site_label
_atom_site_fract_x
_atom_site_fract_y
_atom_site_fract_z
Si Si1 0.603919 0.674512 0.744458
Si Si2 0.424592 0.322821 0.067472
Si Si3 0.064671 0.179541 0.898494
Si Si4 0.068720 0.819822 0.542597
Si Si5 0.546846 0.320701 0.276645
Si Si6 0.176943 0.179595 0.407533
O O1 0.612282 0.500000 0.716788
O O2 0.621519 0.698066 0.847294
O O3 0.529516 0.728403 0.725190
O O4 0.654277 0.773031 0.688824
O O5 0.442780 0.500000 0.056069
O O6 0.489884 0.227099 0.085827
O O7 0.392621 0.255706 0.978064
O O8 0.086176 0.243789 0.804033
O O9 0.074216 0.000000 0.900512
O O10 0.079317 0.738394 0.634729
O O11 0.126877 0.758191 0.480492
O O12 0.000000 0.769276 0.500000
O O13 0.071235 0.000000 0.556480
O O14 0.554765 0.500000 0.267894
O O15 0.250000 0.244301 0.425735
O O16 0.177259 0.000000 0.410761
#
# Coordination Sequence:
#
# PCOD8206041 Si02
#       6
#     8   8   8   8   8   8
#     4   9  18  30  46  68  94 127 162 198 239 289
#     4   9  16  27  41  62  94 128 159 194 237 282
#     4  10  17  25  40  65  95 127 160 195 237 286
#     4  10  19  32  50  72  95 126 165 207 248 295
#     4  10  19  30  46  69  97 128 162 202 248 292
#     4  10  21  35  50  70  98 129 162 203 250 295
#
# _framework density 17.514679999999998
#
# number of rings (size 3 to 8) (size 9 to 14) (size 15 to 20)
#    0.000    2.333    1.667    4.500    0.000    4.667 
#    0.000    0.000    0.000    0.000    0.000    1.167 
#    0.000    6.667    0.000    0.000    0.000    0.000 
#
# Total GULP energy -594951.366692 kJ/mol
# GULP energy per Si atom -12394.820139 kJ/mol
# Density = 1.747482 g / cm^3
# Si number density = 17.514680 Si / 1000 Ang^3
#
#
#
# Elastic Constant Matrix: (Units=GPa)
#
#
# Indices 1 2 3 4 5 6 
#
# 1 71.4811 21.8378 51.5245 0.0000 0.0000 0.0000
# 2 21.8378 56.3346 48.0037 0.0000 0.0000 0.0000
# 3 51.5245 48.0037 173.5825 0.0000 0.0000 0.0000
# 4 0.0000 0.0000 0.0000 37.0418 0.0000 0.0000
# 5 0.0000 0.0000 0.0000 0.0000 12.9636 0.0000
# 6 0.0000 0.0000 0.0000 0.0000 0.0000 10.2534
#
#
#
# Elastic Compliance Matrix: (Units=1/GPa)
#
#
# Indices 1 2 3 4 5 6 
#
# 1 0.018232 -0.003213 -0.004523 0.000000 0.000000 0.000000
# 2 -0.003213 0.023790 -0.005625 0.000000 0.000000 0.000000
# 3 -0.004523 -0.005625 0.008659 0.000000 0.000000 0.000000
# 4 0.000000 0.000000 0.000000 0.026997 0.000000 0.000000
# 5 0.000000 0.000000 0.000000 0.000000 0.077139 0.000000
# 6 0.000000 0.000000 0.000000 0.000000 0.000000 0.097529
#
#
# Mechanical properties :
#
#
# Convention : Reuss Voigt Hill
#
# Bulk Modulus (GPa) = 41.74016 60.45892 51.09954
# Shear Modulus (GPa) = 17.41829 24.05389 20.73609
#
# Velocity S-wave (km/s) = 3.15699 3.70990 3.44456
# Velocity P-wave (km/s) = 6.09689 7.27634 6.71257
#
# Compressibility (1/GPa) = 0.02395774
#
# Stress axis : x y z
#
# Youngs Moduli (GPa) = 54.84956 42.03434 115.48404
#
# Poissons Ratio (x) = 0.13506 0.52235
# Poissons Ratio (y) = 0.17624 0.64963
# Poissons Ratio (z) = 0.24809 0.23646
#
# Static dielectric constant tensor:
#      x y z
#    x 2.898960 0.000000 0.000000 
#    y 0.000000 3.156790 0.000000 
#    z 0.000000 0.000000 3.911980 
# 
# 
# High freq. dielectric constant tensor:
#      x y z
#    x 1.602520 0.000000 0.000000 
#    y 0.000000 1.679550 0.000000 
#    z 0.000000 0.000000 1.703190 
# 
# From -- ./inp_files/25489.got.cif
#   From: 2010.03.12/outbox.cif.g09.slc.cpg/sg51_13_cif.got.tgz:25489.got - 2010.04.16 13:43:02.
