data_PCOD8206234
_publ_section_title
;
Structure prediction by ZEFSAII (Michael W. Deem and Ramdas Pophale) SiO2 
 PCOD8206234
Probable space group: P M M A
;
_chemical_formula_sum "Si O2"
_cell_formula_units_Z 56
_cell_length_a 17.420541
_cell_length_b 9.389499
_cell_length_c 22.437214
_cell_angle_alpha 90.000000
_cell_angle_beta 90.000000
_cell_angle_gamma 90.000000
_cell_volume 3670.058511
_symmetry_space_group_name_H-M "P M M A"
_symmetry_group_IT_number 51
_symmetry_cell_setting 'orthorhombic'
loop_
_space_group_symop_operation_xyz
x,y,z
1/2-x,-y,z
1/2+x,-y,-z
-x,y,-z
-x,-y,-z
1/2+x,y,-z
1/2-x,y,z
x,-y,z
loop_
_atom_site_type_symbol
_atom_site_label
_atom_site_fract_x
_atom_site_fract_y
_atom_site_fract_z
Si Si1 0.250000 0.667783 0.185183
Si Si2 0.336400 0.336757 0.520388
Si Si3 0.337014 0.336485 0.965554
Si Si4 0.035244 0.842565 0.565705
Si Si5 0.474606 0.161164 0.931829
Si Si6 0.750000 0.835345 0.693330
Si Si7 0.373193 0.833925 0.403381
Si Si8 0.614808 0.334710 0.901037
O O1 0.250000 0.500000 0.194479
O O2 0.250000 0.741396 0.248447
O O3 0.174463 0.715107 0.149168
O O4 0.250000 0.324881 0.545613
O O5 0.360821 0.500000 0.510973
O O6 0.393959 0.267225 0.569174
O O7 0.340167 0.258162 0.457313
O O8 0.250000 0.301908 0.946836
O O9 0.358123 0.500000 0.952419
O O10 0.392430 0.238297 0.925646
O O11 0.346328 0.304116 0.035419
O O12 0.000000 0.841192 0.500000
O O13 0.963696 0.799772 0.608669
O O14 0.066205 0.000000 0.581922
O O15 0.537596 0.243021 0.892226
O O16 0.467160 0.000000 0.908563
O O17 0.500000 0.167277 0.000000
O O18 0.673996 0.796597 0.655766
O O19 0.750000 0.000000 0.711773
O O20 0.362783 0.000000 0.420863
O O21 0.593039 0.500000 0.894724
#
# Coordination Sequence:
#
# PCOD8206234 Si02
#       8
#     4   8   8   8   8   4   8   8
#     4  10  20  32  46  64  84 108 146 188 217 246
#     4  10  18  25  37  60  86 110 136 166 204 248
#     4   9  15  25  42  61  81 110 145 172 201 246
#     4   8  15  26  40  57  76 104 140 170 200 242
#     4   9  17  26  37  58  84 109 137 170 210 252
#     4  10  20  32  46  62  82 110 144 180 215 250
#     4   9  17  30  44  56  76 109 144 174 205 245
#     4   9  16  29  44  57  78 110 144 177 209 244
#
# _framework density 15.258613
#
# number of rings (size 3 to 8) (size 9 to 14) (size 15 to 20)
#    0.000    2.857    1.429    1.714    0.000    6.571 
#    0.000    0.000    0.000    0.000    0.000    0.000 
#    0.000    1.143    0.000    7.429    0.000    5.571 
#
# Total GULP energy -694181.039856 kJ/mol
# GULP energy per Si atom -12396.089997 kJ/mol
# Density = 1.522388 g / cm^3
# Si number density = 15.258613 Si / 1000 Ang^3
#
#
#
# Elastic Constant Matrix: (Units=GPa)
#
#
# Indices 1 2 3 4 5 6 
#
# 1 134.5297 72.0830 45.0585 0.0000 0.0000 0.0000
# 2 72.0830 89.2621 30.2298 0.0000 0.0000 0.0000
# 3 45.0585 30.2298 47.3452 0.0000 0.0000 0.0000
# 4 0.0000 0.0000 0.0000 18.0912 0.0000 0.0000
# 5 0.0000 0.0000 0.0000 0.0000 15.5980 0.0000
# 6 0.0000 0.0000 0.0000 0.0000 0.0000 23.2603
#
#
#
# Elastic Compliance Matrix: (Units=1/GPa)
#
#
# Indices 1 2 3 4 5 6 
#
# 1 0.015425 -0.009550 -0.008582 0.000000 0.000000 0.000000
# 2 -0.009550 0.020206 -0.003813 0.000000 0.000000 0.000000
# 3 -0.008582 -0.003813 0.031724 0.000000 0.000000 0.000000
# 4 0.000000 0.000000 0.000000 0.055276 0.000000 0.000000
# 5 0.000000 0.000000 0.000000 0.000000 0.064111 0.000000
# 6 0.000000 0.000000 0.000000 0.000000 0.000000 0.042992
#
#
# Mechanical properties :
#
#
# Convention : Reuss Voigt Hill
#
# Bulk Modulus (GPa) = 42.61745 62.87550 52.74648
# Shear Modulus (GPa) = 17.76554 19.64095 18.70324
#
# Velocity S-wave (km/s) = 3.41588 3.59165 3.50487
# Velocity P-wave (km/s) = 6.59912 7.64827 7.14298
#
# Compressibility (1/GPa) = 0.02346456
#
# Stress axis : x y z
#
# Youngs Moduli (GPa) = 64.83174 49.49024 31.52203
#
# Poissons Ratio (x) = 0.47261 0.27053
# Poissons Ratio (y) = 0.61911 0.12020
# Poissons Ratio (z) = 0.55640 0.18872
#
# Static dielectric constant tensor:
#      x y z
#    x 3.298850 0.000000 0.000000 
#    y 0.000000 2.994160 0.000000 
#    z 0.000000 0.000000 2.431020 
# 
# 
# High freq. dielectric constant tensor:
#      x y z
#    x 1.598350 0.000000 0.000000 
#    y 0.000000 1.590180 0.000000 
#    z 0.000000 0.000000 1.513550 
# 
# From -- ./inp_files/34040.got.cif
#   From: 2010.03.12/outbox.cif.g09.slc.cpg/sg51_18_cif.got.tgz:34040.got - 2010.04.16 13:43:02.
