data_PCOD8206876
_publ_section_title
;
Structure prediction by ZEFSAII (Michael W. Deem and Ramdas Pophale) SiO2 
 PCOD8206876
Probable space group: P M M A
;
_chemical_formula_sum "Si O2"
_cell_formula_units_Z 48
_cell_length_a 8.432775
_cell_length_b 18.395152
_cell_length_c 17.250538
_cell_angle_alpha 90.000000
_cell_angle_beta 90.000000
_cell_angle_gamma 90.000000
_cell_volume 2675.941025
_symmetry_space_group_name_H-M "P M M A"
_symmetry_group_IT_number 51
_symmetry_cell_setting 'orthorhombic'
loop_
_space_group_symop_operation_xyz
x,y,z
1/2-x,-y,z
1/2+x,-y,-z
-x,y,-z
-x,-y,-z
1/2+x,y,-z
1/2-x,y,z
x,-y,z
loop_
_atom_site_type_symbol
_atom_site_label
_atom_site_fract_x
_atom_site_fract_y
_atom_site_fract_z
Si Si1 0.434557 0.294117 0.811569
Si Si2 0.565643 0.326828 0.415964
Si Si3 0.938418 0.080851 0.778342
Si Si4 0.432477 0.794807 0.325984
Si Si5 0.436287 0.582463 0.274412
Si Si6 0.562294 0.183356 0.916798
O O1 0.250000 0.280280 0.794155
O O2 0.547663 0.253293 0.750767
O O3 0.475908 0.379178 0.799140
O O4 0.483281 0.261785 0.895356
O O5 0.500000 0.345601 0.500000
O O6 0.750000 0.343481 0.412681
O O7 0.533880 0.241414 0.395324
O O8 0.477825 0.378423 0.355114
O O9 0.750000 0.076963 0.781468
O O10 0.989234 0.123992 0.699396
O O11 0.998043 0.122784 0.855253
O O12 0.013019 0.000000 0.776075
O O13 0.250000 0.794679 0.352147
O O14 0.250000 0.585825 0.260790
O O15 0.497776 0.500000 0.278107
O O16 0.750000 0.191204 0.917494
O O17 0.500000 0.158202 0.000000
#
# Coordination Sequence:
#
# PCOD8206876 Si02
#       6
#     8   8   8   8   8   8
#     4  10  18  30  49  70  94 125 163 200 234 278
#     4  11  21  33  50  71  98 128 161 199 239 285
#     4   8  15  28  47  71  98 128 159 194 239 288
#     4   9  16  29  49  70  94 124 161 200 236 280
#     4  10  20  34  52  74 100 128 158 193 235 283
#     4  10  19  31  48  70  98 129 163 201 241 286
#
# _framework density 17.937615000000001
#
# number of rings (size 3 to 8) (size 9 to 14) (size 15 to 20)
#    0.000    2.333    0.000    7.500    0.000    2.000 
#    0.000    0.000    0.000   18.500    0.000    0.000 
#    0.000    0.000    0.000    0.000    0.000    0.000 
#
# Total GULP energy -594869.899846 kJ/mol
# GULP energy per Si atom -12393.122913 kJ/mol
# Density = 1.789679 g / cm^3
# Si number density = 17.937615 Si / 1000 Ang^3
#
#
#
# Elastic Constant Matrix: (Units=GPa)
#
#
# Indices 1 2 3 4 5 6 
#
# 1 57.9955 22.5447 6.6565 0.0000 0.0000 0.0000
# 2 22.5447 131.5085 38.5421 0.0000 0.0000 0.0000
# 3 6.6565 38.5421 22.7164 0.0000 0.0000 0.0000
# 4 0.0000 0.0000 0.0000 23.8502 0.0000 0.0000
# 5 0.0000 0.0000 0.0000 0.0000 27.8177 0.0000
# 6 0.0000 0.0000 0.0000 0.0000 0.0000 15.4691
#
#
#
# Elastic Compliance Matrix: (Units=1/GPa)
#
#
# Indices 1 2 3 4 5 6 
#
# 1 0.018474 -0.003144 -0.000080 0.000000 0.000000 0.000000
# 2 -0.003144 0.015660 -0.025649 0.000000 0.000000 0.000000
# 3 -0.000080 -0.025649 0.087562 0.000000 0.000000 0.000000
# 4 0.000000 0.000000 0.000000 0.041928 0.000000 0.000000
# 5 0.000000 0.000000 0.000000 0.000000 0.035948 0.000000
# 6 0.000000 0.000000 0.000000 0.000000 0.000000 0.064645
#
#
# Mechanical properties :
#
#
# Convention : Reuss Voigt Hill
#
# Bulk Modulus (GPa) = 15.63679 38.63413 27.13546
# Shear Modulus (GPa) = 14.56543 23.05921 18.81232
#
# Velocity S-wave (km/s) = 2.85266 3.58931 3.24198
# Velocity P-wave (km/s) = 4.42566 6.22594 5.40133
#
# Compressibility (1/GPa) = 0.06395176
#
# Stress axis : x y z
#
# Youngs Moduli (GPa) = 54.13044 63.85677 11.42051
#
# Poissons Ratio (x) = 0.20075 0.00091
# Poissons Ratio (y) = 0.17017 0.29292
# Poissons Ratio (z) = 0.00431 1.63784
#
# Static dielectric constant tensor:
#      x y z
#    x 3.190180 0.000000 0.000000 
#    y 0.000000 3.801900 0.000000 
#    z 0.000000 0.000000 3.209920 
# 
# 
# High freq. dielectric constant tensor:
#      x y z
#    x 1.694500 0.000000 0.000000 
#    y 0.000000 1.686490 0.000000 
#    z 0.000000 0.000000 1.667730 
# 
# From -- ./inp_files/27852.got.cif
#   From: 2010.03.12/outbox.cif.g09.slc.cpg/sg51_14_cif.got.tgz:27852.got - 2010.04.16 13:43:02.
