data_PCOD8206891
_publ_section_title
;
Structure prediction by ZEFSAII (Michael W. Deem and Ramdas Pophale) SiO2 
 PCOD8206891
Probable space group: P M M A
;
_chemical_formula_sum "Si O2"
_cell_formula_units_Z 64
_cell_length_a 16.781464
_cell_length_b 22.411425
_cell_length_c 9.265804
_cell_angle_alpha 90.000000
_cell_angle_beta 90.000000
_cell_angle_gamma 90.000000
_cell_volume 3484.836656
_symmetry_space_group_name_H-M "P M M A"
_symmetry_group_IT_number 51
_symmetry_cell_setting 'orthorhombic'
loop_
_space_group_symop_operation_xyz
x,y,z
1/2-x,-y,z
1/2+x,-y,-z
-x,y,-z
-x,-y,-z
1/2+x,y,-z
1/2-x,y,z
x,-y,z
loop_
_atom_site_type_symbol
_atom_site_label
_atom_site_fract_x
_atom_site_fract_y
_atom_site_fract_z
Si Si1 0.339954 0.132114 0.158268
Si Si2 0.566783 0.670358 0.710345
Si Si3 0.417334 0.255341 0.784761
Si Si4 0.568859 0.871696 0.111999
Si Si5 0.339389 0.266520 0.075319
Si Si6 0.658323 0.341917 0.418663
Si Si7 0.036927 0.565783 0.657008
Si Si8 0.471890 0.931179 0.340862
O O1 0.250000 0.112838 0.195096
O O2 0.349946 0.203411 0.156263
O O3 0.395987 0.106403 0.285034
O O4 0.359830 0.107614 0.995190
O O5 0.504307 0.724404 0.731838
O O6 0.642180 0.680237 0.813581
O O7 0.599487 0.672211 0.549492
O O8 0.523768 0.607569 0.747766
O O9 0.409056 0.183620 0.783200
O O10 0.348692 0.284966 0.686386
O O11 0.402449 0.275439 0.948463
O O12 0.542346 0.923959 0.221630
O O13 0.500000 0.851661 0.000000
O O14 0.250000 0.273465 0.016032
O O15 0.750000 0.351797 0.463598
O O16 0.623884 0.402423 0.345399
O O17 0.045470 0.500000 0.728452
O O18 0.000000 0.558335 0.500000
O O19 0.500000 0.909156 0.500000
O O20 0.446956 0.000000 0.348598
#
# Coordination Sequence:
#
# PCOD8206891 Si02
#       8
#     8   8   8   8   8   8   8   8
#     4   9  19  35  55  79 103 131 171 215 256 300
#     4  10  18  30  49  72  98 128 167 207 245 295
#     4  10  18  31  50  73  99 132 165 198 246 305
#     4   9  18  33  54  76  99 131 174 212 246 295
#     4  10  19  32  51  76 105 131 160 202 252 303
#     4  10  20  31  46  73 103 129 163 208 256 301
#     4   8  16  31  49  68  92 126 167 207 244 286
#     4  10  21  36  53  75 104 138 174 210 253 307
#
# _framework density 18.365281
#
# number of rings (size 3 to 8) (size 9 to 14) (size 15 to 20)
#    0.000    2.500    0.000    4.500    0.000    5.250 
#    0.000    1.250    0.000    7.875    0.000    0.000 
#    0.000    0.000    0.000    0.000    0.000    0.000 
#
# Total GULP energy -793097.967845 kJ/mol
# GULP energy per Si atom -12392.155748 kJ/mol
# Density = 1.832348 g / cm^3
# Si number density = 18.365281 Si / 1000 Ang^3
#
#
#
# Elastic Constant Matrix: (Units=GPa)
#
#
# Indices 1 2 3 4 5 6 
#
# 1 111.6385 45.7427 44.6894 0.0000 0.0000 0.0000
# 2 45.7427 70.8106 45.5836 0.0000 0.0000 0.0000
# 3 44.6894 45.5836 81.5324 0.0000 0.0000 0.0000
# 4 0.0000 0.0000 0.0000 20.5862 0.0000 0.0000
# 5 0.0000 0.0000 0.0000 0.0000 29.3182 0.0000
# 6 0.0000 0.0000 0.0000 0.0000 0.0000 19.8452
#
#
#
# Elastic Compliance Matrix: (Units=1/GPa)
#
#
# Indices 1 2 3 4 5 6 
#
# 1 0.012880 -0.005899 -0.003762 0.000000 0.000000 0.000000
# 2 -0.005899 0.024764 -0.010612 0.000000 0.000000 0.000000
# 3 -0.003762 -0.010612 0.020260 0.000000 0.000000 0.000000
# 4 0.000000 0.000000 0.000000 0.048576 0.000000 0.000000
# 5 0.000000 0.000000 0.000000 0.000000 0.034109 0.000000
# 6 0.000000 0.000000 0.000000 0.000000 0.000000 0.050390
#
#
# Mechanical properties :
#
#
# Convention : Reuss Voigt Hill
#
# Bulk Modulus (GPa) = 57.60725 59.55697 58.58211
# Shear Modulus (GPa) = 21.06935 22.48096 21.77515
#
# Velocity S-wave (km/s) = 3.39076 3.50251 3.44709
# Velocity P-wave (km/s) = 6.83851 6.98973 6.91453
#
# Compressibility (1/GPa) = 0.01735892
#
# Stress axis : x y z
#
# Youngs Moduli (GPa) = 77.63714 40.38104 49.35805
#
# Poissons Ratio (x) = 0.23820 0.18569
# Poissons Ratio (y) = 0.45797 0.52379
# Poissons Ratio (z) = 0.29208 0.42852
#
# Static dielectric constant tensor:
#      x y z
#    x 3.444320 0.000000 0.000000 
#    y 0.000000 3.375500 0.000000 
#    z 0.000000 0.000000 3.348880 
# 
# 
# High freq. dielectric constant tensor:
#      x y z
#    x 1.709410 0.000000 0.000000 
#    y 0.000000 1.694440 0.000000 
#    z 0.000000 0.000000 1.699650 
# 
# From -- ./inp_files/10070.got.cif
#   From: 2010.03.12/outbox.cif.g09.slc.cpg/sg51_6_cif.got.tgz:10070.got - 2010.04.16 13:43:02.
