data_PCOD8206564
_publ_section_title
;
Structure prediction by ZEFSAII (Michael W. Deem and Ramdas Pophale) SiO2 
 PCOD8206564
Probable space group: P M M A
;
_chemical_formula_sum "Si O2"
_cell_formula_units_Z 48
_cell_length_a 27.043944
_cell_length_b 9.068252
_cell_length_c 12.885989
_cell_angle_alpha 90.000000
_cell_angle_beta 90.000000
_cell_angle_gamma 90.000000
_cell_volume 3160.176685
_symmetry_space_group_name_H-M "P M M A"
_symmetry_group_IT_number 51
_symmetry_cell_setting 'orthorhombic'
loop_
_space_group_symop_operation_xyz
x,y,z
1/2-x,-y,z
1/2+x,-y,-z
-x,y,-z
-x,-y,-z
1/2+x,y,-z
1/2-x,y,z
x,-y,z
loop_
_atom_site_type_symbol
_atom_site_label
_atom_site_fract_x
_atom_site_fract_y
_atom_site_fract_z
Si Si1 0.896527 0.826171 0.418684
Si Si2 0.955226 0.171435 0.215509
Si Si3 0.069338 0.172728 0.190738
Si Si4 0.888584 0.332899 0.618467
Si Si5 0.194472 0.332779 0.527978
Si Si6 0.941588 0.666244 0.013593
O O1 0.930900 0.779106 0.323256
O O2 0.917848 0.747572 0.523095
O O3 0.840154 0.768596 0.397558
O O4 0.896506 0.000000 0.436318
O O5 0.928187 0.259808 0.123387
O O6 0.013090 0.209288 0.222092
O O7 0.946840 0.000000 0.192520
O O8 0.104982 0.244583 0.275578
O O9 0.079508 0.000000 0.185251
O O10 0.083208 0.242182 0.079578
O O11 0.908328 0.500000 0.631151
O O12 0.830108 0.330998 0.587683
O O13 0.250000 0.268514 0.523165
O O14 0.194657 0.500000 0.571128
O O15 0.921025 0.500000 0.011655
O O16 0.000000 0.670185 0.000000
#
# Coordination Sequence:
#
# PCOD8206564 Si02
#       6
#     8   8   8   8   8   8
#     4   9  17  29  44  65  89 113 146 179 214 258
#     4   9  18  30  43  61  89 121 149 179 214 253
#     4  10  18  29  44  61  87 121 151 180 214 253
#     4   9  18  30  43  63  89 114 145 180 217 260
#     4   8  16  31  47  63  86 113 140 176 220 263
#     4   9  17  28  43  62  83 112 152 188 214 246
#
# _framework density 15.189024
#
# number of rings (size 3 to 8) (size 9 to 14) (size 15 to 20)
#    1.000    2.000    0.000    1.500    0.000    5.000 
#    0.000    3.333    0.000    0.000    0.000    1.167 
#    0.000    6.667    0.000    0.000    0.000    0.000 
#
# Total GULP energy -594785.231834 kJ/mol
# GULP energy per Si atom -12391.358997 kJ/mol
# Density = 1.515445 g / cm^3
# Si number density = 15.189024 Si / 1000 Ang^3
#
#
#
# Elastic Constant Matrix: (Units=GPa)
#
#
# Indices 1 2 3 4 5 6 
#
# 1 26.3273 10.2889 -1.9330 0.0000 0.0000 0.0000
# 2 10.2889 78.5337 28.2794 0.0000 0.0000 0.0000
# 3 -1.9330 28.2794 55.8477 0.0000 0.0000 0.0000
# 4 0.0000 0.0000 0.0000 28.6048 0.0000 0.0000
# 5 0.0000 0.0000 0.0000 0.0000 6.4640 0.0000
# 6 0.0000 0.0000 0.0000 0.0000 0.0000 16.5849
#
#
#
# Elastic Compliance Matrix: (Units=1/GPa)
#
#
# Indices 1 2 3 4 5 6 
#
# 1 0.041181 -0.007226 0.005084 0.000000 0.000000 0.000000
# 2 -0.007226 0.016841 -0.008778 0.000000 0.000000 0.000000
# 3 0.005084 -0.008778 0.022527 0.000000 0.000000 0.000000
# 4 0.000000 0.000000 0.000000 0.034959 0.000000 0.000000
# 5 0.000000 0.000000 0.000000 0.000000 0.154703 0.000000
# 6 0.000000 0.000000 0.000000 0.000000 0.000000 0.060296
#
#
# Mechanical properties :
#
#
# Convention : Reuss Voigt Hill
#
# Bulk Modulus (GPa) = 17.03309 25.99771 21.51540
# Shear Modulus (GPa) = 13.44396 18.60231 16.02313
#
# Velocity S-wave (km/s) = 2.97831 3.50340 3.25147
# Velocity P-wave (km/s) = 4.80266 5.78950 5.31901
#
# Compressibility (1/GPa) = 0.05870927
#
# Stress axis : x y z
#
# Youngs Moduli (GPa) = 24.28324 59.37926 44.39199
#
# Poissons Ratio (x) = 0.42908 -0.22570
# Poissons Ratio (y) = 0.17547 0.38966
# Poissons Ratio (z) = -0.12346 0.52122
#
# Static dielectric constant tensor:
#      x y z
#    x 2.596440 0.000000 0.000000 
#    y 0.000000 3.004080 0.000000 
#    z 0.000000 0.000000 2.873220 
# 
# 
# High freq. dielectric constant tensor:
#      x y z
#    x 1.533830 0.000000 0.000000 
#    y 0.000000 1.597400 0.000000 
#    z 0.000000 0.000000 1.574690 
# 
# From -- ./inp_files/18988.got.cif
#   From: 2010.03.12/outbox.cif.g09.slc.cpg/sg51_10_cif.got.tgz:18988.got - 2010.04.16 13:43:02.
