data_PCOD8206583
_publ_section_title
;
Structure prediction by ZEFSAII (Michael W. Deem and Ramdas Pophale) SiO2 
 PCOD8206583
Probable space group: P M M A
;
_chemical_formula_sum "Si O2"
_cell_formula_units_Z 56
_cell_length_a 8.843953
_cell_length_b 25.518519
_cell_length_c 15.301184
_cell_angle_alpha 90.000000
_cell_angle_beta 90.000000
_cell_angle_gamma 90.000000
_cell_volume 3453.241325
_symmetry_space_group_name_H-M "P M M A"
_symmetry_group_IT_number 51
_symmetry_cell_setting 'orthorhombic'
loop_
_space_group_symop_operation_xyz
x,y,z
1/2-x,-y,z
1/2+x,-y,-z
-x,y,-z
-x,-y,-z
1/2+x,y,-z
1/2-x,y,z
x,-y,z
loop_
_atom_site_type_symbol
_atom_site_label
_atom_site_fract_x
_atom_site_fract_y
_atom_site_fract_z
Si Si1 0.430621 0.852320 0.404762
Si Si2 0.431095 0.747396 0.596363
Si Si3 0.069853 0.058239 0.273448
Si Si4 0.429237 0.357264 0.405505
Si Si5 0.926871 0.440808 0.738416
Si Si6 0.915796 0.937863 0.916686
Si Si7 0.920085 0.562388 0.086202
O O1 0.500000 0.861731 0.500000
O O2 0.250000 0.847389 0.410929
O O3 0.501335 0.800036 0.359628
O O4 0.485032 0.900907 0.345933
O O5 0.500000 0.746797 0.500000
O O6 0.250000 0.748402 0.596230
O O7 0.494776 0.694130 0.639963
O O8 0.250000 0.057196 0.266771
O O9 0.006178 0.074880 0.177319
O O10 0.010921 0.000000 0.299108
O O11 0.500000 0.368885 0.500000
O O12 0.250000 0.348886 0.414666
O O13 0.471670 0.406212 0.344814
O O14 0.750000 0.439906 0.755711
O O15 0.983784 0.500000 0.719742
O O16 0.002077 0.416876 0.825455
O O17 0.750000 0.912671 0.918542
O O18 0.906269 0.000000 0.926977
O O19 0.000000 0.912747 0.000000
O O20 0.750000 0.583010 0.085632
O O21 0.929977 0.500000 0.084355
O O22 0.000000 0.585788 0.000000
#
# Coordination Sequence:
#
# PCOD8206583 Si02
#       7
#     8   8   8   8   8   8   8
#     4  10  18  29  45  63  85 113 145 179 214 252
#     4  10  18  30  47  64  83 107 142 186 225 257
#     4   8  15  27  42  61  87 118 146 170 205 258
#     4  10  19  31  47  66  89 117 149 183 219 258
#     4   9  18  31  45  64  92 122 149 178 215 262
#     4   8  13  23  39  58  80 107 139 172 205 242
#     4   9  16  26  42  63  87 116 149 184 219 256
#
# _framework density 16.216647999999999
#
# number of rings (size 3 to 8) (size 9 to 14) (size 15 to 20)
#    0.000    2.857    0.000    5.143    0.000    3.429 
#    0.000    1.429    0.000    3.000    0.000    1.000 
#    0.000    2.286    0.000    0.000    0.000    0.000 
#
# Total GULP energy -693934.213461 kJ/mol
# GULP energy per Si atom -12391.682383 kJ/mol
# Density = 1.617974 g / cm^3
# Si number density = 16.216648 Si / 1000 Ang^3
#
#
#
# Elastic Constant Matrix: (Units=GPa)
#
#
# Indices 1 2 3 4 5 6 
#
# 1 81.7362 40.4608 46.1517 0.0000 0.0000 0.0000
# 2 40.4608 93.7212 62.7444 0.0000 0.0000 0.0000
# 3 46.1517 62.7444 112.4014 0.0000 0.0000 0.0000
# 4 0.0000 0.0000 0.0000 1.9368 0.0000 0.0000
# 5 0.0000 0.0000 0.0000 0.0000 26.0457 0.0000
# 6 0.0000 0.0000 0.0000 0.0000 0.0000 18.0454
#
#
#
# Elastic Compliance Matrix: (Units=1/GPa)
#
#
# Indices 1 2 3 4 5 6 
#
# 1 0.016919 -0.004237 -0.004582 0.000000 0.000000 0.000000
# 2 -0.004237 0.018098 -0.008363 0.000000 0.000000 0.000000
# 3 -0.004582 -0.008363 0.015446 0.000000 0.000000 0.000000
# 4 0.000000 0.000000 0.000000 0.516328 0.000000 0.000000
# 5 0.000000 0.000000 0.000000 0.000000 0.038394 0.000000
# 6 0.000000 0.000000 0.000000 0.000000 0.000000 0.055416
#
#
# Mechanical properties :
#
#
# Convention : Reuss Voigt Hill
#
# Bulk Modulus (GPa) = 62.11162 65.17473 63.64317
# Shear Modulus (GPa) = 7.13949 18.43902 12.78926
#
# Velocity S-wave (km/s) = 2.10051 3.37566 2.81134
# Velocity P-wave (km/s) = 6.65336 7.44787 7.06179
#
# Compressibility (1/GPa) = 0.01610005
#
# Stress axis : x y z
#
# Youngs Moduli (GPa) = 59.10588 55.25535 64.74031
#
# Poissons Ratio (x) = 0.23410 0.29663
# Poissons Ratio (y) = 0.25041 0.54142
# Poissons Ratio (z) = 0.27081 0.46210
#
# Static dielectric constant tensor:
#      x y z
#    x 3.105210 0.000000 0.000000 
#    y 0.000000 3.372500 0.000000 
#    z 0.000000 0.000000 3.112200 
# 
# 
# High freq. dielectric constant tensor:
#      x y z
#    x 1.623010 0.000000 0.000000 
#    y 0.000000 1.593520 0.000000 
#    z 0.000000 0.000000 1.612100 
# 
# From -- ./inp_files/22525.got.cif
#   From: 2010.03.12/outbox.cif.g09.slc.cpg/sg51_12_cif.got.tgz:22525.got - 2010.04.16 13:43:02.
