data_PCOD8206377
_publ_section_title
;
Structure prediction by ZEFSAII (Michael W. Deem and Ramdas Pophale) SiO2 
 PCOD8206377
Probable space group: P M M A
;
_chemical_formula_sum "Si O2"
_cell_formula_units_Z 56
_cell_length_a 28.538710
_cell_length_b 9.143877
_cell_length_c 13.660983
_cell_angle_alpha 90.000000
_cell_angle_beta 90.000000
_cell_angle_gamma 90.000000
_cell_volume 3564.894360
_symmetry_space_group_name_H-M "P M M A"
_symmetry_group_IT_number 51
_symmetry_cell_setting 'orthorhombic'
loop_
_space_group_symop_operation_xyz
x,y,z
1/2-x,-y,z
1/2+x,-y,-z
-x,y,-z
-x,-y,-z
1/2+x,y,-z
1/2-x,y,z
x,-y,z
loop_
_atom_site_type_symbol
_atom_site_label
_atom_site_fract_x
_atom_site_fract_y
_atom_site_fract_z
Si Si1 0.985260 0.828385 0.396869
Si Si2 0.802453 0.329235 0.018795
Si Si3 0.199116 0.168654 0.779214
Si Si4 0.966428 0.173502 0.800865
Si Si5 0.948928 0.669046 0.113200
Si Si6 0.606039 0.667677 0.914150
Si Si7 0.398380 0.169506 0.719590
O O1 0.018477 0.774082 0.308202
O O2 0.000000 0.753133 0.500000
O O3 0.930726 0.788283 0.373599
O O4 0.991785 0.000000 0.407142
O O5 0.750000 0.294688 0.979002
O O6 0.809774 0.500000 0.038414
O O7 0.811562 0.253858 0.121884
O O8 0.841282 0.276743 0.940025
O O9 0.250000 0.215264 0.734726
O O10 0.157280 0.196976 0.700269
O O11 0.199923 0.000000 0.809062
O O12 0.914625 0.234823 0.825448
O O13 0.002831 0.241392 0.878619
O O14 0.966945 0.000000 0.810477
O O15 0.959447 0.500000 0.136304
O O16 0.911258 0.730675 0.188996
O O17 0.927773 0.688751 0.006366
O O18 0.607257 0.500000 0.879581
O O19 0.408345 0.000000 0.746865
#
# Coordination Sequence:
#
# PCOD8206377 Si02
#       7
#     8   8   8   8   8   8   8
#     4   8  15  29  46  62  80 103 137 178 216 256
#     4   9  17  29  43  59  82 115 152 177 197 237
#     4   9  16  25  38  59  87 113 137 169 208 247
#     4  10  20  30  43  63  82 108 142 174 209 252
#     4  10  18  28  41  59  86 117 142 168 205 242
#     4  10  19  29  41  60  86 116 143 171 206 239
#     4   9  16  26  42  63  84 110 142 173 208 252
#
# _framework density 15.708741
#
# number of rings (size 3 to 8) (size 9 to 14) (size 15 to 20)
#    0.000    2.714    1.429    2.143    0.000    3.429 
#    0.000    0.000    0.000   10.714    0.000    1.000 
#    0.000    3.429    0.000    0.000    0.000    0.000 
#
# Total GULP energy -693871.688525 kJ/mol
# GULP energy per Si atom -12390.565867 kJ/mol
# Density = 1.567299 g / cm^3
# Si number density = 15.708741 Si / 1000 Ang^3
#
#
#
# Elastic Constant Matrix: (Units=GPa)
#
#
# Indices 1 2 3 4 5 6 
#
# 1 146.7825 31.7999 60.6539 0.0000 0.0000 0.0000
# 2 31.7999 44.3322 23.0842 0.0000 0.0000 0.0000
# 3 60.6539 23.0842 67.6979 0.0000 0.0000 0.0000
# 4 0.0000 0.0000 0.0000 3.0843 0.0000 0.0000
# 5 0.0000 0.0000 0.0000 0.0000 16.9208 0.0000
# 6 0.0000 0.0000 0.0000 0.0000 0.0000 21.0273
#
#
#
# Elastic Compliance Matrix: (Units=1/GPa)
#
#
# Indices 1 2 3 4 5 6 
#
# 1 0.011230 -0.003424 -0.008894 0.000000 0.000000 0.000000
# 2 -0.003424 0.028471 -0.006640 0.000000 0.000000 0.000000
# 3 -0.008894 -0.006640 0.025004 0.000000 0.000000 0.000000
# 4 0.000000 0.000000 0.000000 0.324223 0.000000 0.000000
# 5 0.000000 0.000000 0.000000 0.000000 0.059099 0.000000
# 6 0.000000 0.000000 0.000000 0.000000 0.000000 0.047557
#
#
# Mechanical properties :
#
#
# Convention : Reuss Voigt Hill
#
# Bulk Modulus (GPa) = 37.32975 54.43205 45.88090
# Shear Modulus (GPa) = 9.21779 17.75813 13.48796
#
# Velocity S-wave (km/s) = 2.42501 3.36588 2.93341
# Velocity P-wave (km/s) = 5.62638 7.05915 6.38309
#
# Compressibility (1/GPa) = 0.02678829
#
# Stress axis : x y z
#
# Youngs Moduli (GPa) = 89.04973 35.12360 39.99350
#
# Poissons Ratio (x) = 0.12027 0.35569
# Poissons Ratio (y) = 0.30492 0.26557
# Poissons Ratio (z) = 0.79198 0.23323
#
# Static dielectric constant tensor:
#      x y z
#    x 3.423480 0.000000 0.000000 
#    y 0.000000 2.949150 0.000000 
#    z 0.000000 0.000000 2.826680 
# 
# 
# High freq. dielectric constant tensor:
#      x y z
#    x 1.614630 0.000000 0.000000 
#    y 0.000000 1.596200 0.000000 
#    z 0.000000 0.000000 1.551790 
# 
# From -- ./inp_files/26523.got.cif
#   From: 2010.03.12/outbox.cif.g09.slc.cpg/sg51_14_cif.got.tgz:26523.got - 2010.04.16 13:43:02.
