data_PCOD8206611
_publ_section_title
;
Structure prediction by ZEFSAII (Michael W. Deem and Ramdas Pophale) SiO2 
 PCOD8206611
Probable space group: P M M A
;
_chemical_formula_sum "Si O2"
_cell_formula_units_Z 64
_cell_length_a 14.838584
_cell_length_b 14.543751
_cell_length_c 17.404161
_cell_angle_alpha 90.000000
_cell_angle_beta 90.000000
_cell_angle_gamma 90.000000
_cell_volume 3755.968853
_symmetry_space_group_name_H-M "P M M A"
_symmetry_group_IT_number 51
_symmetry_cell_setting 'orthorhombic'
loop_
_space_group_symop_operation_xyz
x,y,z
1/2-x,-y,z
1/2+x,-y,-z
-x,y,-z
-x,-y,-z
1/2+x,y,-z
1/2-x,y,z
x,-y,z
loop_
_atom_site_type_symbol
_atom_site_label
_atom_site_fract_x
_atom_site_fract_y
_atom_site_fract_z
Si Si1 0.010286 0.892367 0.589114
Si Si2 0.849954 0.890887 0.696500
Si Si3 0.643388 0.789887 0.308984
Si Si4 0.643132 0.102917 0.157568
Si Si5 0.143144 0.600481 0.754000
Si Si6 0.142796 0.600299 0.926728
Si Si7 0.142546 0.212240 0.989771
Si Si8 0.643015 0.897479 0.866037
O O1 0.920605 0.856751 0.632766
O O2 0.000000 0.870832 0.500000
O O3 0.096101 0.835161 0.617767
O O4 0.027437 0.000000 0.604436
O O5 0.750000 0.850386 0.677994
O O6 0.883479 0.859457 0.781454
O O7 0.843156 0.000000 0.696538
O O8 0.750000 0.798268 0.321457
O O9 0.610869 0.843477 0.233033
O O10 0.611047 0.683490 0.301016
O O11 0.750000 0.100546 0.154575
O O12 0.605245 0.153115 0.081896
O O13 0.603126 0.000000 0.160708
O O14 0.250000 0.603811 0.758576
O O15 0.111331 0.500000 0.722349
O O16 0.105624 0.615182 0.840275
O O17 0.250000 0.603981 0.923898
O O18 0.111048 0.500000 0.958206
O O19 0.107320 0.682533 0.981352
O O20 0.250000 0.208866 0.990053
O O21 0.103228 0.170566 0.068892
O O22 0.750000 0.902030 0.872119
O O23 0.603693 0.000000 0.879617
#
# Coordination Sequence:
#
# PCOD8206611 Si02
#       8
#     8   8   8   8   8   8   8   8
#     4  10  21  34  48  68  93 121 151 184 227 279
#     4   8  15  30  49  65  84 115 157 199 230 258
#     4  10  18  29  45  68  97 124 150 181 223 278
#     4   9  15  21  31  52  85 122 150 173 210 261
#     4   8  13  23  40  62  89 121 155 187 221 265
#     4   8  12  18  29  49  81 117 151 188 224 256
#     4   9  13  18  30  53  83 113 149 185 214 254
#     4   8  13  21  36  58  81 108 145 188 226 256
#
# _framework density 17.039543999999999
#
# number of rings (size 3 to 8) (size 9 to 14) (size 15 to 20)
#    0.000    3.250    1.250    2.250    0.000    2.750 
#    0.000    1.250    0.000    1.125    0.000    4.375 
#    0.000    3.500    0.000    0.750    0.000    0.000 
#
# Total GULP energy -793047.905803 kJ/mol
# GULP energy per Si atom -12391.373528 kJ/mol
# Density = 1.700076 g / cm^3
# Si number density = 17.039544 Si / 1000 Ang^3
#
#
#
# Elastic Constant Matrix: (Units=GPa)
#
#
# Indices 1 2 3 4 5 6 
#
# 1 37.6624 27.7462 33.5149 0.0000 0.0000 0.0000
# 2 27.7462 127.6585 67.0585 0.0000 0.0000 0.0000
# 3 33.5149 67.0585 122.2567 0.0000 0.0000 0.0000
# 4 0.0000 0.0000 0.0000 -2.3542 0.0000 0.0000
# 5 0.0000 0.0000 0.0000 0.0000 -15.0143 0.0000
# 6 0.0000 0.0000 0.0000 0.0000 0.0000 5.6769
#
#
#
# Elastic Compliance Matrix: (Units=1/GPa)
#
#
# Indices 1 2 3 4 5 6 
#
# 1 0.036350 -0.003745 -0.007911 0.000000 0.000000 0.000000
# 2 -0.003745 0.011390 -0.005221 0.000000 0.000000 0.000000
# 3 -0.007911 -0.005221 0.013212 0.000000 0.000000 0.000000
# 4 0.000000 0.000000 0.000000 -0.424778 0.000000 0.000000
# 5 0.000000 0.000000 0.000000 0.000000 -0.066603 0.000000
# 6 0.000000 0.000000 0.000000 0.000000 0.000000 0.176151
#
#
# Mechanical properties :
#
#
# Convention : Reuss Voigt Hill
#
# Bulk Modulus (GPa) = 36.76643 60.46854 48.61749
# Shear Modulus (GPa) = -23.64529 8.27890 -7.68320
#
# Velocity S-wave (km/s) = -3.72919 2.20662 -2.12575
# Velocity P-wave (km/s) = 1.75542 6.48510 4.75068
#
# Compressibility (1/GPa) = 0.02719872
#
# Stress axis : x y z
#
# Youngs Moduli (GPa) = 27.51008 87.79781 75.69056
#
# Poissons Ratio (x) = 0.32882 0.59876
# Poissons Ratio (y) = 0.10303 0.39516
# Poissons Ratio (z) = 0.21762 0.45836
#
# Static dielectric constant tensor:
#      x y z
#    x 2.838610 0.000000 0.000000 
#    y 0.000000 3.464330 0.000000 
#    z 0.000000 0.000000 3.132400 
# 
# 
# High freq. dielectric constant tensor:
#      x y z
#    x 1.622300 0.000000 0.000000 
#    y 0.000000 1.643510 0.000000 
#    z 0.000000 0.000000 1.635990 
# 
# From -- ./inp_files/29981.got.cif
#   From: 2010.03.12/outbox.cif.g09.slc.cpg/sg51_15_cif.got.tgz:29981.got - 2010.04.16 13:43:02.
