data_PCOD8206834
_publ_section_title
;
Structure prediction by ZEFSAII (Michael W. Deem and Ramdas Pophale) SiO2 
 PCOD8206834
Probable space group: P M M A
;
_chemical_formula_sum "Si O2"
_cell_formula_units_Z 40
_cell_length_a 9.114675
_cell_length_b 10.026464
_cell_length_c 24.498581
_cell_angle_alpha 90.000000
_cell_angle_beta 90.000000
_cell_angle_gamma 90.000000
_cell_volume 2238.875359
_symmetry_space_group_name_H-M "P M M A"
_symmetry_group_IT_number 51
_symmetry_cell_setting 'orthorhombic'
loop_
_space_group_symop_operation_xyz
x,y,z
1/2-x,-y,z
1/2+x,-y,-z
-x,y,-z
-x,-y,-z
1/2+x,y,-z
1/2-x,y,z
x,-y,z
loop_
_atom_site_type_symbol
_atom_site_label
_atom_site_fract_x
_atom_site_fract_y
_atom_site_fract_z
Si Si1 0.923766 0.246803 0.126229
Si Si2 0.077310 0.346590 0.661643
Si Si3 0.075349 0.847359 0.757862
Si Si4 0.085345 0.658275 0.447754
Si Si5 0.422936 0.000000 0.943265
Si Si6 0.925400 0.500000 0.059314
O O1 0.750000 0.253023 0.129985
O O2 0.986482 0.223204 0.187194
O O3 0.978985 0.126333 0.089628
O O4 0.982722 0.377548 0.095907
O O5 0.250000 0.333596 0.652011
O O6 0.036636 0.500000 0.676835
O O7 0.021234 0.246404 0.708547
O O8 0.997906 0.298047 0.606897
O O9 0.250000 0.851812 0.759969
O O10 0.016104 0.000000 0.751992
O O11 0.250000 0.716649 0.446915
O O12 0.089516 0.500000 0.452074
O O13 0.000000 0.718081 0.500000
O O14 0.250000 0.000000 0.951692
O O15 0.500000 0.000000 0.000000
O O16 0.750000 0.500000 0.050861
O O17 0.000000 0.500000 0.000000
#
# Coordination Sequence:
#
# PCOD8206834 Si02
#       6
#     8   8   8   8   4   4
#     4   9  17  29  46  69  93 119 153 193 234 276
#     4   9  17  27  44  72  98 120 152 194 235 276
#     4   9  16  28  46  69  95 121 154 196 237 275
#     4   9  16  27  45  69  99 131 160 193 233 276
#     4  10  18  30  48  68  90 118 153 192 231 276
#     4  10  20  32  48  70  96 122 151 190 237 284
#
# _framework density 17.866114
#
# number of rings (size 3 to 8) (size 9 to 14) (size 15 to 20)
#    0.000    2.800    1.000    1.200    1.400    2.400 
#    0.000    0.000    0.000    3.600    0.000    0.000 
#    0.000    0.000    0.000    0.000    0.000    0.000 
#
# Total GULP energy -495785.723698 kJ/mol
# GULP energy per Si atom -12394.643092 kJ/mol
# Density = 1.782545 g / cm^3
# Si number density = 17.866114 Si / 1000 Ang^3
#
#
#
# Elastic Constant Matrix: (Units=GPa)
#
#
# Indices 1 2 3 4 5 6 
#
# 1 39.7840 24.2322 46.9739 0.0000 0.0000 0.0000
# 2 24.2322 129.5210 90.1197 0.0000 0.0000 0.0000
# 3 46.9739 90.1197 203.1109 0.0000 0.0000 0.0000
# 4 0.0000 0.0000 0.0000 24.1569 0.0000 0.0000
# 5 0.0000 0.0000 0.0000 0.0000 27.4338 0.0000
# 6 0.0000 0.0000 0.0000 0.0000 0.0000 -4.4025
#
#
#
# Elastic Compliance Matrix: (Units=1/GPa)
#
#
# Indices 1 2 3 4 5 6 
#
# 1 0.034732 -0.001315 -0.007449 0.000000 0.000000 0.000000
# 2 -0.001315 0.011219 -0.004674 0.000000 0.000000 0.000000
# 3 -0.007449 -0.004674 0.008720 0.000000 0.000000 0.000000
# 4 0.000000 0.000000 0.000000 0.041396 0.000000 0.000000
# 5 0.000000 0.000000 0.000000 0.000000 0.036451 0.000000
# 6 0.000000 0.000000 0.000000 0.000000 0.000000 -0.227144
#
#
# Mechanical properties :
#
#
# Convention : Reuss Voigt Hill
#
# Bulk Modulus (GPa) = 35.97751 77.22973 56.60362
# Shear Modulus (GPa) = -85.49108 23.51031 -30.99039
#
# Velocity S-wave (km/s) = -6.92494 3.63149 -4.16936
# Velocity P-wave (km/s) = 6.61504 7.80413 2.92794
#
# Compressibility (1/GPa) = 0.02779514
#
# Stress axis : x y z
#
# Youngs Moduli (GPa) = 28.79190 89.13776 114.68133
#
# Poissons Ratio (x) = 0.11722 0.85427
# Poissons Ratio (y) = 0.03786 0.53597
# Poissons Ratio (z) = 0.21447 0.41659
#
# Static dielectric constant tensor:
#      x y z
#    x 2.922280 0.000000 0.000000 
#    y 0.000000 3.356830 0.000000 
#    z 0.000000 0.000000 3.521040 
# 
# 
# High freq. dielectric constant tensor:
#      x y z
#    x 1.645710 0.000000 0.000000 
#    y 0.000000 1.676850 0.000000 
#    z 0.000000 0.000000 1.708590 
# 
# From -- ./inp_files/36001.got.cif
#   From: 2010.03.12/outbox.cif.g09.slc.cpg/sg51_19_cif.got.tgz:36001.got - 2010.04.16 13:43:02.
