data_PCOD8206939
_publ_section_title
;
Structure prediction by ZEFSAII (Michael W. Deem and Ramdas Pophale) SiO2 
 PCOD8206939
Probable space group: P M M A
;
_chemical_formula_sum "Si O2"
_cell_formula_units_Z 44
_cell_length_a 8.878357
_cell_length_b 13.270627
_cell_length_c 19.242600
_cell_angle_alpha 90.000000
_cell_angle_beta 90.000000
_cell_angle_gamma 90.000000
_cell_volume 2267.189381
_symmetry_space_group_name_H-M "P M M A"
_symmetry_group_IT_number 51
_symmetry_cell_setting 'orthorhombic'
loop_
_space_group_symop_operation_xyz
x,y,z
1/2-x,-y,z
1/2+x,-y,-z
-x,y,-z
-x,-y,-z
1/2+x,y,-z
1/2-x,y,z
x,-y,z
loop_
_atom_site_type_symbol
_atom_site_label
_atom_site_fract_x
_atom_site_fract_y
_atom_site_fract_z
Si Si1 0.080694 0.386631 0.300457
Si Si2 0.572255 0.886712 0.926104
Si Si3 0.574765 0.108179 0.574586
Si Si4 0.071019 0.695094 0.158203
Si Si5 0.426771 0.303745 0.575165
Si Si6 0.929433 0.500000 0.924828
O O1 0.250000 0.353185 0.321686
O O2 0.082650 0.500000 0.271063
O O3 0.016389 0.316340 0.238267
O O4 0.975318 0.386668 0.368812
O O5 0.750000 0.877720 0.935075
O O6 0.512424 0.802476 0.871759
O O7 0.527619 0.000000 0.900680
O O8 0.500000 0.862592 0.000000
O O9 0.500000 0.098967 0.500000
O O10 0.750000 0.135126 0.566400
O O11 0.487975 0.199921 0.611313
O O12 0.554751 0.000000 0.613731
O O13 0.250000 0.691684 0.157787
O O14 0.010208 0.600881 0.113426
O O15 0.500000 0.324680 0.500000
O O16 0.250000 0.301886 0.564877
O O17 0.750000 0.500000 0.929849
O O18 0.000000 0.500000 0.000000
#
# Coordination Sequence:
#
# PCOD8206939 Si02
#       6
#     8   8   8   8   8   4
#     4  10  20  37  58  75  97 136 180 225 279 335
#     4   9  17  30  50  77 109 144 180 218 258 307
#     4   9  16  28  49  76 104 133 166 207 256 310
#     4   9  17  32  53  75 102 138 180 217 261 321
#     4  11  22  36  55  79 107 138 176 224 274 332
#     4  10  18  30  50  78 105 134 171 214 259 306
#
# _framework density 19.40729
#
# number of rings (size 3 to 8) (size 9 to 14) (size 15 to 20)
#    0.000    2.364    0.909    3.818    0.000    1.818 
#    0.000    2.727    0.000    3.273    0.000    0.000 
#    0.000    0.000    0.000    0.000    0.000    0.000 
#
# Total GULP energy -545213.054074 kJ/mol
# GULP energy per Si atom -12391.205774 kJ/mol
# Density = 1.936312 g / cm^3
# Si number density = 19.407290 Si / 1000 Ang^3
#
#
#
# Elastic Constant Matrix: (Units=GPa)
#
#
# Indices 1 2 3 4 5 6 
#
# 1 81.3572 27.7703 37.5374 0.0000 0.0000 0.0000
# 2 27.7703 120.1443 62.3845 0.0000 0.0000 0.0000
# 3 37.5374 62.3845 122.9793 0.0000 0.0000 0.0000
# 4 0.0000 0.0000 0.0000 30.3459 0.0000 0.0000
# 5 0.0000 0.0000 0.0000 0.0000 25.9983 0.0000
# 6 0.0000 0.0000 0.0000 0.0000 0.0000 20.1259
#
#
#
# Elastic Compliance Matrix: (Units=1/GPa)
#
#
# Indices 1 2 3 4 5 6 
#
# 1 0.014485 -0.001429 -0.003697 0.000000 0.000000 0.000000
# 2 -0.001429 0.011441 -0.005367 0.000000 0.000000 0.000000
# 3 -0.003697 -0.005367 0.011983 0.000000 0.000000 0.000000
# 4 0.000000 0.000000 0.000000 0.032953 0.000000 0.000000
# 5 0.000000 0.000000 0.000000 0.000000 0.038464 0.000000
# 6 0.000000 0.000000 0.000000 0.000000 0.000000 0.049687
#
#
# Mechanical properties :
#
#
# Convention : Reuss Voigt Hill
#
# Bulk Modulus (GPa) = 59.09258 64.42946 61.76102
# Shear Modulus (GPa) = 26.93409 28.41327 27.67368
#
# Velocity S-wave (km/s) = 3.72941 3.83044 3.78026
# Velocity P-wave (km/s) = 7.00424 7.26868 7.13768
#
# Compressibility (1/GPa) = 0.01692260
#
# Stress axis : x y z
#
# Youngs Moduli (GPa) = 69.03863 87.40821 83.45477
#
# Poissons Ratio (x) = 0.12487 0.30849
# Poissons Ratio (y) = 0.09863 0.44794
# Poissons Ratio (z) = 0.25520 0.46916
#
# Static dielectric constant tensor:
#      x y z
#    x 3.269760 0.000000 0.000000 
#    y 0.000000 4.329030 0.000000 
#    z 0.000000 0.000000 3.334010 
# 
# 
# High freq. dielectric constant tensor:
#      x y z
#    x 1.731040 0.000000 0.000000 
#    y 0.000000 1.770250 0.000000 
#    z 0.000000 0.000000 1.732440 
# 
# From -- ./inp_files/27369.got.cif
#   From: 2010.03.12/outbox.cif.g09.slc.cpg/sg51_14_cif.got.tgz:27369.got - 2010.04.16 13:43:02.
