data_PCOD8206080
_publ_section_title
;
Structure prediction by ZEFSAII (Michael W. Deem and Ramdas Pophale) SiO2 
 PCOD8206080
Probable space group: P M M A
;
_chemical_formula_sum "Si O2"
_cell_formula_units_Z 64
_cell_length_a 8.912312
_cell_length_b 20.637577
_cell_length_c 19.785558
_cell_angle_alpha 90.000000
_cell_angle_beta 90.000000
_cell_angle_gamma 90.000000
_cell_volume 3639.128502
_symmetry_space_group_name_H-M "P M M A"
_symmetry_group_IT_number 51
_symmetry_cell_setting 'orthorhombic'
loop_
_space_group_symop_operation_xyz
x,y,z
1/2-x,-y,z
1/2+x,-y,-z
-x,y,-z
-x,-y,-z
1/2+x,y,-z
1/2-x,y,z
x,-y,z
loop_
_atom_site_type_symbol
_atom_site_label
_atom_site_fract_x
_atom_site_fract_y
_atom_site_fract_z
Si Si1 0.578481 0.266633 0.211297
Si Si2 0.427189 0.811114 0.427153
Si Si3 0.074778 0.739920 0.936850
Si Si4 0.426779 0.427236 0.429703
Si Si5 0.926892 0.689684 0.659828
Si Si6 0.071758 0.120144 0.066701
Si Si7 0.073546 0.117405 0.798086
Si Si8 0.421775 0.072638 0.333224
O O1 0.750000 0.271859 0.233795
O O2 0.555398 0.295881 0.135418
O O3 0.482791 0.308655 0.263307
O O4 0.526203 0.192034 0.213276
O O5 0.500000 0.808420 0.500000
O O6 0.250000 0.807464 0.436393
O O7 0.488190 0.750811 0.382909
O O8 0.477671 0.877359 0.390276
O O9 0.250000 0.754644 0.950238
O O10 0.981610 0.805840 0.932891
O O11 0.000000 0.699919 0.000000
O O12 0.500000 0.406719 0.500000
O O13 0.250000 0.422045 0.439384
O O14 0.475150 0.500000 0.408405
O O15 0.484820 0.377278 0.373084
O O16 0.750000 0.691915 0.661359
O O17 0.250000 0.114065 0.064180
O O18 0.009615 0.088113 0.135821
O O19 0.000000 0.085851 0.000000
O O20 0.250000 0.110622 0.809844
O O21 0.023281 0.077068 0.733225
O O22 0.250000 0.088553 0.313277
O O23 0.437355 0.000000 0.362722
#
# Coordination Sequence:
#
# PCOD8206080 Si02
#       8
#     8   8   8   8   8   8   8   8
#     4   9  18  29  44  68  97 126 159 200 241 283
#     4  10  21  35  51  73  96 121 156 195 239 290
#     4   9  16  26  39  62  94 128 164 199 240 287
#     4   9  18  32  49  71  99 131 166 202 239 285
#     4  10  19  31  49  72  98 129 164 198 238 286
#     4  10  17  26  43  67  95 126 159 196 239 287
#     4  10  19  32  49  70  95 123 159 200 244 292
#     4  10  21  37  54  71  93 122 157 199 244 293
#
# _framework density 17.586628000000001
#
# number of rings (size 3 to 8) (size 9 to 14) (size 15 to 20)
#    0.000    2.375    1.250    3.750    0.000    4.500 
#    0.000    0.000    0.000    0.375    0.000    0.000 
#    0.000    0.500    0.000    1.125    0.000    1.875 
#
# Total GULP energy -793349.824674 kJ/mol
# GULP energy per Si atom -12396.091011 kJ/mol
# Density = 1.754660 g / cm^3
# Si number density = 17.586628 Si / 1000 Ang^3
#
#
#
# Elastic Constant Matrix: (Units=GPa)
#
#
# Indices 1 2 3 4 5 6 
#
# 1 63.6360 21.9862 40.9752 0.0000 0.0000 0.0000
# 2 21.9862 75.5338 48.5137 0.0000 0.0000 0.0000
# 3 40.9752 48.5137 139.5560 0.0000 0.0000 0.0000
# 4 0.0000 0.0000 0.0000 15.0372 0.0000 0.0000
# 5 0.0000 0.0000 0.0000 0.0000 36.9930 0.0000
# 6 0.0000 0.0000 0.0000 0.0000 0.0000 11.4130
#
#
#
# Elastic Compliance Matrix: (Units=1/GPa)
#
#
# Indices 1 2 3 4 5 6 
#
# 1 0.019769 -0.002609 -0.004898 0.000000 0.000000 0.000000
# 2 -0.002609 0.017389 -0.005279 0.000000 0.000000 0.000000
# 3 -0.004898 -0.005279 0.010439 0.000000 0.000000 0.000000
# 4 0.000000 0.000000 0.000000 0.066502 0.000000 0.000000
# 5 0.000000 0.000000 0.000000 0.000000 0.027032 0.000000
# 6 0.000000 0.000000 0.000000 0.000000 0.000000 0.087619
#
#
# Mechanical properties :
#
#
# Convention : Reuss Voigt Hill
#
# Bulk Modulus (GPa) = 45.40022 55.74178 50.57100
# Shear Modulus (GPa) = 19.10856 23.83868 21.47362
#
# Velocity S-wave (km/s) = 3.29985 3.68571 3.49810
# Velocity P-wave (km/s) = 6.35530 7.06236 6.71814
#
# Compressibility (1/GPa) = 0.02202632
#
# Stress axis : x y z
#
# Youngs Moduli (GPa) = 50.58353 57.50747 95.79740
#
# Poissons Ratio (x) = 0.15002 0.46918
# Poissons Ratio (y) = 0.13196 0.50571
# Poissons Ratio (z) = 0.24774 0.30358
#
# Static dielectric constant tensor:
#      x y z
#    x 3.218370 0.000000 0.000000 
#    y 0.000000 3.050230 0.000000 
#    z 0.000000 0.000000 3.743850 
# 
# 
# High freq. dielectric constant tensor:
#      x y z
#    x 1.681110 0.000000 0.000000 
#    y 0.000000 1.628720 0.000000 
#    z 0.000000 0.000000 1.693540 
# 
# From -- ./inp_files/32572.got.cif
#   From: 2010.03.12/outbox.cif.g09.slc.cpg/sg51_17_cif.got.tgz:32572.got - 2010.04.16 13:43:02.
