data_PCOD8206804
_publ_section_title
;
Structure prediction by ZEFSAII (Michael W. Deem and Ramdas Pophale) SiO2 
 PCOD8206804
Probable space group: P M M A
;
_chemical_formula_sum "Si O2"
_cell_formula_units_Z 48
_cell_length_a 25.499407
_cell_length_b 9.168188
_cell_length_c 11.891284
_cell_angle_alpha 90.000000
_cell_angle_beta 90.000000
_cell_angle_gamma 90.000000
_cell_volume 2779.984296
_symmetry_space_group_name_H-M "P M M A"
_symmetry_group_IT_number 51
_symmetry_cell_setting 'orthorhombic'
loop_
_space_group_symop_operation_xyz
x,y,z
1/2-x,-y,z
1/2+x,-y,-z
-x,y,-z
-x,-y,-z
1/2+x,y,-z
1/2-x,y,z
x,-y,z
loop_
_atom_site_type_symbol
_atom_site_label
_atom_site_fract_x
_atom_site_fract_y
_atom_site_fract_z
Si Si1 0.808721 0.828699 0.652575
Si Si2 0.559111 0.326743 0.027672
Si Si3 0.875778 0.661501 0.816380
Si Si4 0.031297 0.663074 0.358648
Si Si5 0.563037 0.168149 0.252074
Si Si6 0.101526 0.832311 0.514321
O O1 0.750000 0.771681 0.628088
O O2 0.828985 0.761899 0.770265
O O3 0.844728 0.781914 0.546150
O O4 0.809414 0.000000 0.669384
O O5 0.559274 0.500000 0.041624
O O6 0.580756 0.254982 0.141740
O O7 0.500000 0.273174 0.000000
O O8 0.598745 0.274257 0.930267
O O9 0.853166 0.500000 0.839738
O O10 0.919815 0.652682 0.722881
O O11 0.008554 0.500000 0.380184
O O12 0.051939 0.733363 0.475569
O O13 0.990752 0.767920 0.298404
O O14 0.606923 0.185447 0.350638
O O15 0.554389 0.000000 0.220246
O O16 0.088853 0.000000 0.482427
#
# Coordination Sequence:
#
# PCOD8206804 Si02
#       6
#     8   8   8   8   8   8
#     4   9  18  34  56  76  94 121 158 203 252 297
#     4  10  19  34  50  67  98 136 171 202 234 286
#     4   9  18  32  50  72  98 128 161 203 246 283
#     4  10  18  30  47  68  96 131 168 200 236 287
#     4  11  21  30  44  68 100 135 167 200 240 286
#     4   9  19  33  46  68 100 127 158 201 247 293
#
# _framework density 17.266283999999999
#
# number of rings (size 3 to 8) (size 9 to 14) (size 15 to 20)
#    0.000    2.333    1.667    1.500    0.000    5.333 
#    0.000    0.000    0.000    1.000    0.000    2.333 
#    0.000    0.000    0.000    0.000    0.000    0.000 
#
# Total GULP energy -595054.560189 kJ/mol
# GULP energy per Si atom -12396.970004 kJ/mol
# Density = 1.722698 g / cm^3
# Si number density = 17.266284 Si / 1000 Ang^3
#
#
#
# Elastic Constant Matrix: (Units=GPa)
#
#
# Indices 1 2 3 4 5 6 
#
# 1 72.8548 27.1103 28.3703 0.0000 0.0000 0.0000
# 2 27.1103 47.0282 36.4340 0.0000 0.0000 0.0000
# 3 28.3703 36.4340 111.2045 0.0000 0.0000 0.0000
# 4 0.0000 0.0000 0.0000 28.3114 0.0000 0.0000
# 5 0.0000 0.0000 0.0000 0.0000 15.5088 0.0000
# 6 0.0000 0.0000 0.0000 0.0000 0.0000 18.9046
#
#
#
# Elastic Compliance Matrix: (Units=1/GPa)
#
#
# Indices 1 2 3 4 5 6 
#
# 1 0.017676 -0.008974 -0.001569 0.000000 0.000000 0.000000
# 2 -0.008974 0.033053 -0.008540 0.000000 0.000000 0.000000
# 3 -0.001569 -0.008540 0.012191 0.000000 0.000000 0.000000
# 4 0.000000 0.000000 0.000000 0.035321 0.000000 0.000000
# 5 0.000000 0.000000 0.000000 0.000000 0.064480 0.000000
# 6 0.000000 0.000000 0.000000 0.000000 0.000000 0.052897
#
#
# Mechanical properties :
#
#
# Convention : Reuss Voigt Hill
#
# Bulk Modulus (GPa) = 40.39786 46.10186 43.24986
# Shear Modulus (GPa) = 19.08134 21.82316 20.45225
#
# Velocity S-wave (km/s) = 3.32794 3.55902 3.44542
# Velocity P-wave (km/s) = 6.18180 6.60661 6.39773
#
# Compressibility (1/GPa) = 0.02475379
#
# Stress axis : x y z
#
# Youngs Moduli (GPa) = 56.57241 30.25435 82.02966
#
# Poissons Ratio (x) = 0.27151 0.12874
# Poissons Ratio (y) = 0.50769 0.70051
# Poissons Ratio (z) = 0.08879 0.25836
#
# Static dielectric constant tensor:
#      x y z
#    x 3.090210 0.000000 0.000000 
#    y 0.000000 3.406110 0.000000 
#    z 0.000000 0.000000 3.412330 
# 
# 
# High freq. dielectric constant tensor:
#      x y z
#    x 1.628660 0.000000 0.000000 
#    y 0.000000 1.669790 0.000000 
#    z 0.000000 0.000000 1.671470 
# 
# From -- ./inp_files/18599.got.cif
#   From: 2010.03.12/outbox.cif.g09.slc.cpg/sg51_10_cif.got.tgz:18599.got - 2010.04.16 13:43:02.
