data_PCOD8206267
_publ_section_title
;
Structure prediction by ZEFSAII (Michael W. Deem and Ramdas Pophale) SiO2 
 PCOD8206267
Probable space group: P M M A
;
_chemical_formula_sum "Si O2"
_cell_formula_units_Z 52
_cell_length_a 8.816059
_cell_length_b 16.408517
_cell_length_c 19.263272
_cell_angle_alpha 90.000000
_cell_angle_beta 90.000000
_cell_angle_gamma 90.000000
_cell_volume 2786.595146
_symmetry_space_group_name_H-M "P M M A"
_symmetry_group_IT_number 51
_symmetry_cell_setting 'orthorhombic'
loop_
_space_group_symop_operation_xyz
x,y,z
1/2-x,-y,z
1/2+x,-y,-z
-x,y,-z
-x,-y,-z
1/2+x,y,-z
1/2-x,y,z
x,-y,z
loop_
_atom_site_type_symbol
_atom_site_label
_atom_site_fract_x
_atom_site_fract_y
_atom_site_fract_z
Si Si1 0.927629 0.000000 0.829157
Si Si2 0.070487 0.826192 0.683868
Si Si3 0.072464 0.159000 0.842473
Si Si4 0.078327 0.594594 0.196056
Si Si5 0.930711 0.500000 0.424530
Si Si6 0.570300 0.349082 0.333769
Si Si7 0.429134 0.000000 0.680106
Si Si8 0.571753 0.680487 0.074886
O O1 0.976416 0.918607 0.870651
O O2 0.030915 0.000000 0.760660
O O3 0.750000 0.000000 0.812242
O O4 0.250000 0.829774 0.680964
O O5 0.019495 0.819671 0.764100
O O6 0.017645 0.743316 0.643584
O O7 0.007447 0.912470 0.649850
O O8 0.250000 0.139227 0.845877
O O9 0.028061 0.232835 0.892334
O O10 0.250000 0.627418 0.193604
O O11 0.073858 0.500000 0.212906
O O12 0.988471 0.639780 0.256446
O O13 0.997405 0.610028 0.122908
O O14 0.750000 0.500000 0.428980
O O15 0.992367 0.581423 0.385712
O O16 0.000000 0.500000 0.500000
O O17 0.750000 0.355660 0.330985
O O18 0.250000 0.000000 0.671276
O O19 0.750000 0.667450 0.069774
O O20 0.500000 0.672542 0.000000
#
# Coordination Sequence:
#
# PCOD8206267 Si02
#       8
#     4   8   8   8   4   8   4   8
#     4  10  18  26  43  71 100 129 166 217 263 316
#     4   8  13  25  48  74  99 129 172 215 261 313
#     4   9  17  32  51  69  95 133 170 213 268 327
#     4  11  23  37  55  80 107 136 172 218 267 324
#     4  10  22  36  56  82 117 150 181 222 262 318
#     4  10  18  33  56  82 106 141 185 221 261 315
#     4   8  14  26  42  67 104 137 165 211 265 318
#     4  11  23  39  57  75  99 134 177 228 279 329
#
# _framework density 18.660767
#
# number of rings (size 3 to 8) (size 9 to 14) (size 15 to 20)
#    0.000    2.308    2.308    2.538    0.000    3.077 
#    0.000    0.385    0.000    0.000    0.000    0.538 
#    0.000    0.000    0.000    0.000    0.000    0.000 
#
# Total GULP energy -644234.043153 kJ/mol
# GULP energy per Si atom -12389.116214 kJ/mol
# Density = 1.861829 g / cm^3
# Si number density = 18.660767 Si / 1000 Ang^3
#
#
#
# Elastic Constant Matrix: (Units=GPa)
#
#
# Indices 1 2 3 4 5 6 
#
# 1 25.6868 22.1159 12.1721 0.0000 0.0000 0.0000
# 2 22.1159 158.9991 50.2701 0.0000 0.0000 0.0000
# 3 12.1721 50.2701 61.9994 0.0000 0.0000 0.0000
# 4 0.0000 0.0000 0.0000 15.6597 0.0000 0.0000
# 5 0.0000 0.0000 0.0000 0.0000 21.9163 0.0000
# 6 0.0000 0.0000 0.0000 0.0000 0.0000 14.8139
#
#
#
# Elastic Compliance Matrix: (Units=1/GPa)
#
#
# Indices 1 2 3 4 5 6 
#
# 1 0.045395 -0.004702 -0.005100 0.000000 0.000000 0.000000
# 2 -0.004702 0.008944 -0.006329 0.000000 0.000000 0.000000
# 3 -0.005100 -0.006329 0.022262 0.000000 0.000000 0.000000
# 4 0.000000 0.000000 0.000000 0.063858 0.000000 0.000000
# 5 0.000000 0.000000 0.000000 0.000000 0.045628 0.000000
# 6 0.000000 0.000000 0.000000 0.000000 0.000000 0.067504
#
#
# Mechanical properties :
#
#
# Convention : Reuss Voigt Hill
#
# Bulk Modulus (GPa) = 22.55298 46.20015 34.37657
# Shear Modulus (GPa) = 16.63149 21.28645 18.95897
#
# Velocity S-wave (km/s) = 2.98863 3.38110 3.19090
# Velocity P-wave (km/s) = 4.90114 6.32883 5.66018
#
# Compressibility (1/GPa) = 0.04434004
#
# Stress axis : x y z
#
# Youngs Moduli (GPa) = 22.02871 111.80175 44.91907
#
# Poissons Ratio (x) = 0.52567 0.22909
# Poissons Ratio (y) = 0.10357 0.28430
# Poissons Ratio (z) = 0.11235 0.70761
#
# Static dielectric constant tensor:
#      x y z
#    x 3.235050 0.000000 0.000000 
#    y 0.000000 4.412210 0.000000 
#    z 0.000000 0.000000 2.991020 
# 
# 
# High freq. dielectric constant tensor:
#      x y z
#    x 1.705330 0.000000 0.000000 
#    y 0.000000 1.756810 0.000000 
#    z 0.000000 0.000000 1.667030 
# 
# From -- ./inp_files/27985.got.cif
#   From: 2010.03.12/outbox.cif.g09.slc.cpg/sg51_14_cif.got.tgz:27985.got - 2010.04.16 13:43:02.
