data_PCOD8206543
_publ_section_title
;
Structure prediction by ZEFSAII (Michael W. Deem and Ramdas Pophale) SiO2 
 PCOD8206543
Probable space group: P M M A
;
_chemical_formula_sum "Si O2"
_cell_formula_units_Z 56
_cell_length_a 22.231758
_cell_length_b 13.530861
_cell_length_c 10.124667
_cell_angle_alpha 90.000000
_cell_angle_beta 90.000000
_cell_angle_gamma 90.000000
_cell_volume 3045.649955
_symmetry_space_group_name_H-M "P M M A"
_symmetry_group_IT_number 51
_symmetry_cell_setting 'orthorhombic'
loop_
_space_group_symop_operation_xyz
x,y,z
1/2-x,-y,z
1/2+x,-y,-z
-x,y,-z
-x,-y,-z
1/2+x,y,-z
1/2-x,y,z
x,-y,z
loop_
_atom_site_type_symbol
_atom_site_label
_atom_site_fract_x
_atom_site_fract_y
_atom_site_fract_z
Si Si1 0.319579 0.615297 0.448840
Si Si2 0.815675 0.109692 0.486918
Si Si3 0.872237 0.739356 0.326769
Si Si4 0.520102 0.111864 0.350417
Si Si5 0.890460 0.112309 0.741188
Si Si6 0.818895 0.285558 0.829031
Si Si7 0.180119 0.386740 0.900121
O O1 0.250000 0.638513 0.488369
O O2 0.331363 0.500000 0.445327
O O3 0.366770 0.660291 0.553819
O O4 0.334526 0.657513 0.305030
O O5 0.750000 0.124321 0.552005
O O6 0.821842 0.178276 0.358575
O O7 0.865320 0.138301 0.595070
O O8 0.825407 0.000000 0.434719
O O9 0.935013 0.798660 0.316213
O O10 0.860049 0.684867 0.189666
O O11 0.500000 0.122138 0.500000
O O12 0.462094 0.125661 0.256777
O O13 0.546900 0.000000 0.328674
O O14 0.860184 0.187703 0.844227
O O15 0.872269 0.000000 0.778548
O O16 0.750000 0.250846 0.832645
O O17 0.832845 0.359676 0.948489
O O18 0.250000 0.372790 0.863394
O O19 0.160671 0.500000 0.876746
#
# Coordination Sequence:
#
# PCOD8206543 Si02
#       7
#     8   8   8   8   8   8   8
#     4  10  19  31  52  81 108 136 181 236 280 326
#     4  10  18  28  48  81 114 138 167 216 277 331
#     4  12  20  32  54  81 112 143 187 225 271 322
#     4  10  19  34  55  80 111 150 189 225 269 326
#     4  10  19  33  55  82 110 141 182 226 272 326
#     4  10  19  35  58  83 110 143 182 226 282 337
#     4  10  22  39  58  81 113 150 183 223 281 342
#
# _framework density 18.386880000000001
#
# number of rings (size 3 to 8) (size 9 to 14) (size 15 to 20)
#    0.000    1.714    2.857    3.000    0.000    3.714 
#    0.000    2.143    0.000   13.714    0.000    0.000 
#    0.000    0.000    0.000    0.000    0.000    0.000 
#
# Total GULP energy -694092.963343 kJ/mol
# GULP energy per Si atom -12394.517203 kJ/mol
# Density = 1.834503 g / cm^3
# Si number density = 18.386880 Si / 1000 Ang^3
#
#
#
# Elastic Constant Matrix: (Units=GPa)
#
#
# Indices 1 2 3 4 5 6 
#
# 1 90.2161 54.1196 29.2989 0.0000 0.0000 0.0000
# 2 54.1196 147.7173 44.6866 0.0000 0.0000 0.0000
# 3 29.2989 44.6866 69.1881 0.0000 0.0000 0.0000
# 4 0.0000 0.0000 0.0000 31.3767 0.0000 0.0000
# 5 0.0000 0.0000 0.0000 0.0000 17.6432 0.0000
# 6 0.0000 0.0000 0.0000 0.0000 0.0000 35.5945
#
#
#
# Elastic Compliance Matrix: (Units=1/GPa)
#
#
# Indices 1 2 3 4 5 6 
#
# 1 0.014840 -0.004394 -0.003446 0.000000 0.000000 0.000000
# 2 -0.004394 0.009715 -0.004414 0.000000 0.000000 0.000000
# 3 -0.003446 -0.004414 0.018763 0.000000 0.000000 0.000000
# 4 0.000000 0.000000 0.000000 0.031871 0.000000 0.000000
# 5 0.000000 0.000000 0.000000 0.000000 0.056679 0.000000
# 6 0.000000 0.000000 0.000000 0.000000 0.000000 0.028094
#
#
# Mechanical properties :
#
#
# Convention : Reuss Voigt Hill
#
# Bulk Modulus (GPa) = 53.16361 62.59242 57.87802
# Shear Modulus (GPa) = 26.21368 28.85730 27.53549
#
# Velocity S-wave (km/s) = 3.77990 3.96593 3.87403
# Velocity P-wave (km/s) = 6.93014 7.42208 7.18032
#
# Compressibility (1/GPa) = 0.01880986
#
# Stress axis : x y z
#
# Youngs Moduli (GPa) = 67.38639 102.93479 53.29564
#
# Poissons Ratio (x) = 0.45234 0.18365
# Poissons Ratio (y) = 0.29613 0.23523
# Poissons Ratio (z) = 0.23221 0.45432
#
# Static dielectric constant tensor:
#      x y z
#    x 3.819820 0.000000 0.000000 
#    y 0.000000 3.657350 0.000000 
#    z 0.000000 0.000000 3.105370 
# 
# 
# High freq. dielectric constant tensor:
#      x y z
#    x 1.693530 0.000000 0.000000 
#    y 0.000000 1.733420 0.000000 
#    z 0.000000 0.000000 1.681290 
# 
# From -- ./inp_files/10951.got.cif
#   From: 2010.03.12/outbox.cif.g09.slc.cpg/sg51_6_cif.got.tgz:10951.got - 2010.04.16 13:43:02.
