data_PCOD8206487
_publ_section_title
;
Structure prediction by ZEFSAII (Michael W. Deem and Ramdas Pophale) SiO2 
 PCOD8206487
Probable space group: P M M A
;
_chemical_formula_sum "Si O2"
_cell_formula_units_Z 64
_cell_length_a 9.258911
_cell_length_b 19.788971
_cell_length_c 20.836455
_cell_angle_alpha 90.000000
_cell_angle_beta 90.000000
_cell_angle_gamma 90.000000
_cell_volume 3817.745325
_symmetry_space_group_name_H-M "P M M A"
_symmetry_group_IT_number 51
_symmetry_cell_setting 'orthorhombic'
loop_
_space_group_symop_operation_xyz
x,y,z
1/2-x,-y,z
1/2+x,-y,-z
-x,y,-z
-x,-y,-z
1/2+x,y,-z
1/2-x,y,z
x,-y,z
loop_
_atom_site_type_symbol
_atom_site_label
_atom_site_fract_x
_atom_site_fract_y
_atom_site_fract_z
Si Si1 0.410001 0.580418 0.559172
Si Si2 0.590954 0.080179 0.558176
Si Si3 0.407793 0.171551 0.057654
Si Si4 0.923194 0.677375 0.189962
Si Si5 0.413827 0.331849 0.060936
Si Si6 0.422095 0.075014 0.301495
Si Si7 0.421577 0.575097 0.699479
Si Si8 0.077348 0.816939 0.198058
O O1 0.500000 0.611631 0.500000
O O2 0.250000 0.611057 0.552855
O O3 0.404497 0.500000 0.554177
O O4 0.477983 0.599583 0.629050
O O5 0.500000 0.112408 0.500000
O O6 0.750000 0.112113 0.553153
O O7 0.521316 0.097270 0.627824
O O8 0.600041 0.000000 0.550943
O O9 0.250000 0.140400 0.048336
O O10 0.403881 0.251979 0.052730
O O11 0.466218 0.152576 0.128387
O O12 0.500000 0.139515 0.000000
O O13 0.750000 0.682230 0.181488
O O14 0.971975 0.625987 0.245453
O O15 0.995250 0.650151 0.124531
O O16 0.988566 0.749071 0.210800
O O17 0.250000 0.361513 0.064685
O O18 0.500000 0.362997 0.000000
O O19 0.250000 0.072875 0.303592
O O20 0.476782 0.128738 0.249698
O O21 0.480398 0.000000 0.283700
O O22 0.250000 0.572029 0.695479
O O23 0.481666 0.500000 0.715513
O O24 0.250000 0.802209 0.200603
#
# Coordination Sequence:
#
# PCOD8206487 Si02
#       8
#     8   8   8   8   8   8   8   8
#     4   8  13  23  40  61  83 106 136 176 217 254
#     4   8  13  22  38  60  82 103 132 172 214 253
#     4   8  14  23  37  57  79 104 132 165 203 239
#     4  10  18  28  45  67  89 115 146 178 215 260
#     4   9  16  27  43  64  89 114 143 180 219 255
#     4   8  14  26  45  65  83 109 146 181 212 252
#     4   8  15  28  45  64  87 116 147 178 215 260
#     4   9  17  29  44  63  87 112 141 179 218 254
#
# _framework density 16.763821
#
# number of rings (size 3 to 8) (size 9 to 14) (size 15 to 20)
#    0.000    3.500    0.000    3.000    0.000    3.000 
#    0.000    1.875    0.000    5.625    0.000    5.250 
#    0.000    0.000    0.000    0.000    0.000    1.375 
#
# Total GULP energy -792922.962765 kJ/mol
# GULP energy per Si atom -12389.421293 kJ/mol
# Density = 1.672567 g / cm^3
# Si number density = 16.763821 Si / 1000 Ang^3
#
#
#
# Elastic Constant Matrix: (Units=GPa)
#
#
# Indices 1 2 3 4 5 6 
#
# 1 66.0634 27.0731 59.2023 0.0000 0.0000 0.0000
# 2 27.0731 46.7732 63.1921 0.0000 0.0000 0.0000
# 3 59.2023 63.1921 185.2860 0.0000 0.0000 0.0000
# 4 0.0000 0.0000 0.0000 24.0286 0.0000 0.0000
# 5 0.0000 0.0000 0.0000 0.0000 28.6102 0.0000
# 6 0.0000 0.0000 0.0000 0.0000 0.0000 9.9207
#
#
#
# Elastic Compliance Matrix: (Units=1/GPa)
#
#
# Indices 1 2 3 4 5 6 
#
# 1 0.022090 -0.006028 -0.005002 0.000000 0.000000 0.000000
# 2 -0.006028 0.041294 -0.012157 0.000000 0.000000 0.000000
# 3 -0.005002 -0.012157 0.011142 0.000000 0.000000 0.000000
# 4 0.000000 0.000000 0.000000 0.041617 0.000000 0.000000
# 5 0.000000 0.000000 0.000000 0.000000 0.034953 0.000000
# 6 0.000000 0.000000 0.000000 0.000000 0.000000 0.100799
#
#
# Mechanical properties :
#
#
# Convention : Reuss Voigt Hill
#
# Bulk Modulus (GPa) = 35.52327 66.33976 50.93151
# Shear Modulus (GPa) = 16.25211 22.42224 19.33718
#
# Velocity S-wave (km/s) = 3.11702 3.66120 3.40002
# Velocity P-wave (km/s) = 5.84729 7.58496 6.77209
#
# Compressibility (1/GPa) = 0.02815056
#
# Stress axis : x y z
#
# Youngs Moduli (GPa) = 45.26934 24.21687 89.75282
#
# Poissons Ratio (x) = 0.14597 0.44898
# Poissons Ratio (y) = 0.27286 1.09115
# Poissons Ratio (z) = 0.22646 0.29441
#
# Static dielectric constant tensor:
#      x y z
#    x 3.144760 0.000000 0.000000 
#    y 0.000000 2.726620 0.000000 
#    z 0.000000 0.000000 3.593740 
# 
# 
# High freq. dielectric constant tensor:
#      x y z
#    x 1.625690 0.000000 0.000000 
#    y 0.000000 1.582880 0.000000 
#    z 0.000000 0.000000 1.667560 
# 
# From -- ./inp_files/32563.got.cif
#   From: 2010.03.12/outbox.cif.g09.slc.cpg/sg51_17_cif.got.tgz:32563.got - 2010.04.16 13:43:02.
