data_PCOD8206279
_publ_section_title
;
Structure prediction by ZEFSAII (Michael W. Deem and Ramdas Pophale) SiO2 
 PCOD8206279
Probable space group: P M M A
;
_chemical_formula_sum "Si O2"
_cell_formula_units_Z 64
_cell_length_a 9.395720
_cell_length_b 21.658811
_cell_length_c 21.540786
_cell_angle_alpha 90.000000
_cell_angle_beta 90.000000
_cell_angle_gamma 90.000000
_cell_volume 4383.552615
_symmetry_space_group_name_H-M "P M M A"
_symmetry_group_IT_number 51
_symmetry_cell_setting 'orthorhombic'
loop_
_space_group_symop_operation_xyz
x,y,z
1/2-x,-y,z
1/2+x,-y,-z
-x,y,-z
-x,-y,-z
1/2+x,y,-z
1/2-x,y,z
x,-y,z
loop_
_atom_site_type_symbol
_atom_site_label
_atom_site_fract_x
_atom_site_fract_y
_atom_site_fract_z
Si Si1 0.089227 0.850998 0.629585
Si Si2 0.590601 0.072241 0.714607
Si Si3 0.916463 0.860764 0.183961
Si Si4 0.091132 0.766960 0.446155
Si Si5 0.083520 0.571384 0.437948
Si Si6 0.585801 0.070123 0.060459
Si Si7 0.093177 0.668045 0.339734
Si Si8 0.406998 0.749922 0.737514
O O1 0.250000 0.869398 0.610506
O O2 0.091925 0.798414 0.681733
O O3 0.004190 0.909698 0.655358
O O4 0.001120 0.827711 0.570084
O O5 0.750000 0.101385 0.709795
O O6 0.514950 0.094108 0.776972
O O7 0.602948 0.000000 0.717045
O O8 0.750000 0.872460 0.200690
O O9 0.948163 0.878725 0.112940
O O10 0.955085 0.788785 0.200722
O O11 0.250000 0.784451 0.469338
O O12 0.103581 0.723994 0.387112
O O13 0.000000 0.732704 0.500000
O O14 0.250000 0.586239 0.449319
O O15 0.056491 0.500000 0.422692
O O16 0.027494 0.609821 0.377887
O O17 0.000000 0.591227 0.500000
O O18 0.750000 0.072276 0.042368
O O19 0.544512 0.000000 0.081693
O O20 0.500000 0.090491 0.000000
O O21 0.250000 0.650497 0.314932
O O22 0.003453 0.690302 0.279604
O O23 0.250000 0.722615 0.747886
#
# Coordination Sequence:
#
# PCOD8206279 Si02
#       8
#     8   8   8   8   8   8   8   8
#     4   9  17  29  42  55  72  93 117 145 181 225
#     4  10  19  28  40  59  78  94 115 147 186 225
#     4   9  17  29  43  58  77 102 131 160 192 229
#     4  10  18  27  40  57  75  93 116 147 184 225
#     4   9  17  28  40  55  77 105 136 166 194 227
#     4   9  17  28  41  57  79 107 137 167 196 228
#     4   9  17  27  39  56  77 100 125 156 193 228
#     4   8  15  26  40  57  74  94 122 157 193 228
#
# _framework density 14.60003
#
# number of rings (size 3 to 8) (size 9 to 14) (size 15 to 20)
#    0.000    2.875    0.000    2.625    0.000    6.000 
#    0.000    1.250    0.000    0.375    0.000    0.000 
#    0.000    0.000    0.000    0.000    0.000    0.625 
#
# Total GULP energy -793021.016781 kJ/mol
# GULP energy per Si atom -12390.953387 kJ/mol
# Density = 1.456680 g / cm^3
# Si number density = 14.600030 Si / 1000 Ang^3
#
#
#
# Elastic Constant Matrix: (Units=GPa)
#
#
# Indices 1 2 3 4 5 6 
#
# 1 84.3607 33.3921 30.7008 0.0000 0.0000 0.0000
# 2 33.3921 61.1760 35.6327 0.0000 0.0000 0.0000
# 3 30.7008 35.6327 53.1535 0.0000 0.0000 0.0000
# 4 0.0000 0.0000 0.0000 24.1293 0.0000 0.0000
# 5 0.0000 0.0000 0.0000 0.0000 22.5849 0.0000
# 6 0.0000 0.0000 0.0000 0.0000 0.0000 17.4953
#
#
#
# Elastic Compliance Matrix: (Units=1/GPa)
#
#
# Indices 1 2 3 4 5 6 
#
# 1 0.016070 -0.005521 -0.005581 0.000000 0.000000 0.000000
# 2 -0.005521 0.028715 -0.016060 0.000000 0.000000 0.000000
# 3 -0.005581 -0.016060 0.032803 0.000000 0.000000 0.000000
# 4 0.000000 0.000000 0.000000 0.041443 0.000000 0.000000
# 5 0.000000 0.000000 0.000000 0.000000 0.044277 0.000000
# 6 0.000000 0.000000 0.000000 0.000000 0.000000 0.057158
#
#
# Mechanical properties :
#
#
# Convention : Reuss Voigt Hill
#
# Bulk Modulus (GPa) = 42.98612 44.23793 43.61202
# Shear Modulus (GPa) = 17.69623 19.43955 18.56789
#
# Velocity S-wave (km/s) = 3.48525 3.65289 3.57006
# Velocity P-wave (km/s) = 6.76035 6.93954 6.85053
#
# Compressibility (1/GPa) = 0.02326332
#
# Stress axis : x y z
#
# Youngs Moduli (GPa) = 62.22689 34.82557 30.48474
#
# Poissons Ratio (x) = 0.19228 0.17013
# Poissons Ratio (y) = 0.34357 0.48960
# Poissons Ratio (z) = 0.34727 0.55932
#
# Static dielectric constant tensor:
#      x y z
#    x 3.154680 0.000000 0.000000 
#    y 0.000000 2.712160 0.000000 
#    z 0.000000 0.000000 2.713420 
# 
# 
# High freq. dielectric constant tensor:
#      x y z
#    x 1.572260 0.000000 0.000000 
#    y 0.000000 1.526150 0.000000 
#    z 0.000000 0.000000 1.522420 
# 
# From -- ./inp_files/35169.got.cif
#   From: 2010.03.12/outbox.cif.g09.slc.cpg/sg51_18_cif.got.tgz:35169.got - 2010.04.16 13:43:02.
