data_PCOD8206312
_publ_section_title
;
Structure prediction by ZEFSAII (Michael W. Deem and Ramdas Pophale) SiO2 
 PCOD8206312
Probable space group: P M M A
;
_chemical_formula_sum "Si O2"
_cell_formula_units_Z 56
_cell_length_a 21.487096
_cell_length_b 8.780306
_cell_length_c 17.686957
_cell_angle_alpha 90.000000
_cell_angle_beta 90.000000
_cell_angle_gamma 90.000000
_cell_volume 3336.879284
_symmetry_space_group_name_H-M "P M M A"
_symmetry_group_IT_number 51
_symmetry_cell_setting 'orthorhombic'
loop_
_space_group_symop_operation_xyz
x,y,z
1/2-x,-y,z
1/2+x,-y,-z
-x,y,-z
-x,-y,-z
1/2+x,y,-z
1/2-x,y,z
x,-y,z
loop_
_atom_site_type_symbol
_atom_site_label
_atom_site_fract_x
_atom_site_fract_y
_atom_site_fract_z
Si Si1 0.677438 0.176423 0.846303
Si Si2 0.939448 0.171554 0.402642
Si Si3 0.038062 0.179819 0.897580
Si Si4 0.915065 0.171831 0.565319
Si Si5 0.537803 0.674393 0.255406
Si Si6 0.106747 0.674604 0.287100
Si Si7 0.586531 0.680308 0.958612
O O1 0.750000 0.211946 0.844615
O O2 0.649103 0.221735 0.765772
O O3 0.648664 0.275447 0.914074
O O4 0.663071 0.000000 0.861400
O O5 0.903726 0.229037 0.478731
O O6 0.924237 0.277689 0.330755
O O7 0.012185 0.175460 0.418625
O O8 0.918380 0.000000 0.383499
O O9 0.062091 0.223713 0.814307
O O10 0.972234 0.261977 0.910628
O O11 0.029730 0.000000 0.905636
O O12 0.087483 0.240128 0.959222
O O13 0.880213 0.279518 0.625570
O O14 0.889858 0.000000 0.574541
O O15 0.552576 0.500000 0.237623
O O16 0.464777 0.703839 0.266399
O O17 0.125531 0.500000 0.275248
O O18 0.582139 0.500000 0.968268
#
# Coordination Sequence:
#
# PCOD8206312 Si02
#       7
#     8   8   8   8   8   8   8
#     4  11  23  37  52  69  91 122 161 200 238 284
#     4   8  14  24  38  58  84 119 154 185 221 264
#     4  11  20  31  49  69  93 125 158 193 233 286
#     4   8  14  25  40  57  83 117 154 188 220 264
#     4  10  18  27  41  65  94 123 154 193 233 276
#     4  10  19  29  44  64  89 120 155 194 236 277
#     4  11  21  34  50  69  93 119 153 196 242 287
#
# _framework density 16.782147999999999
#
# number of rings (size 3 to 8) (size 9 to 14) (size 15 to 20)
#    0.000    2.143    1.429    5.571    0.000    2.857 
#    0.000    2.857    0.000    0.000    0.000    0.000 
#    0.000    1.143    0.000   10.000    0.000    5.857 
#
# Total GULP energy -694259.639902 kJ/mol
# GULP energy per Si atom -12397.493570 kJ/mol
# Density = 1.674395 g / cm^3
# Si number density = 16.782148 Si / 1000 Ang^3
#
#
#
# Elastic Constant Matrix: (Units=GPa)
#
#
# Indices 1 2 3 4 5 6 
#
# 1 32.8260 18.4285 23.6388 0.0000 0.0000 0.0000
# 2 18.4285 86.8780 43.5574 0.0000 0.0000 0.0000
# 3 23.6388 43.5574 138.5962 0.0000 0.0000 0.0000
# 4 0.0000 0.0000 0.0000 32.0169 0.0000 0.0000
# 5 0.0000 0.0000 0.0000 0.0000 11.3532 0.0000
# 6 0.0000 0.0000 0.0000 0.0000 0.0000 12.6276
#
#
#
# Elastic Compliance Matrix: (Units=1/GPa)
#
#
# Indices 1 2 3 4 5 6 
#
# 1 0.036844 -0.005537 -0.004544 0.000000 0.000000 0.000000
# 2 -0.005537 0.014495 -0.003611 0.000000 0.000000 0.000000
# 3 -0.004544 -0.003611 0.009125 0.000000 0.000000 0.000000
# 4 0.000000 0.000000 0.000000 0.031234 0.000000 0.000000
# 5 0.000000 0.000000 0.000000 0.000000 0.088081 0.000000
# 6 0.000000 0.000000 0.000000 0.000000 0.000000 0.079192
#
#
# Mechanical properties :
#
#
# Convention : Reuss Voigt Hill
#
# Bulk Modulus (GPa) = 30.22940 47.72774 38.97857
# Shear Modulus (GPa) = 16.81337 22.71124 19.76230
#
# Velocity S-wave (km/s) = 3.16865 3.68271 3.43531
# Velocity P-wave (km/s) = 5.60706 6.82528 6.24594
#
# Compressibility (1/GPa) = 0.03308038
#
# Stress axis : x y z
#
# Youngs Moduli (GPa) = 27.14111 68.98723 109.58782
#
# Poissons Ratio (x) = 0.38200 0.49796
# Poissons Ratio (y) = 0.15029 0.39574
# Poissons Ratio (z) = 0.12333 0.24912
#
# Static dielectric constant tensor:
#      x y z
#    x 2.582130 0.000000 0.000000 
#    y 0.000000 3.250910 0.000000 
#    z 0.000000 0.000000 3.608430 
# 
# 
# High freq. dielectric constant tensor:
#      x y z
#    x 1.566090 0.000000 0.000000 
#    y 0.000000 1.658700 0.000000 
#    z 0.000000 0.000000 1.667610 
# 
# From -- ./inp_files/30430.got.cif
#   From: 2010.03.12/outbox.cif.g09.slc.cpg/sg51_16_cif.got.tgz:30430.got - 2010.04.16 13:43:02.
