data_PCOD8206624
_publ_section_title
;
Structure prediction by ZEFSAII (Michael W. Deem and Ramdas Pophale) SiO2 
 PCOD8206624
Probable space group: P M M A
;
_chemical_formula_sum "Si O2"
_cell_formula_units_Z 64
_cell_length_a 9.047600
_cell_length_b 23.378819
_cell_length_c 18.862029
_cell_angle_alpha 90.000000
_cell_angle_beta 90.000000
_cell_angle_gamma 90.000000
_cell_volume 3989.737923
_symmetry_space_group_name_H-M "P M M A"
_symmetry_group_IT_number 51
_symmetry_cell_setting 'orthorhombic'
loop_
_space_group_symop_operation_xyz
x,y,z
1/2-x,-y,z
1/2+x,-y,-z
-x,y,-z
-x,-y,-z
1/2+x,y,-z
1/2-x,y,z
x,-y,z
loop_
_atom_site_type_symbol
_atom_site_label
_atom_site_fract_x
_atom_site_fract_y
_atom_site_fract_z
Si Si1 0.077188 0.435473 0.427918
Si Si2 0.923043 0.161651 0.302204
Si Si3 0.422246 0.777158 0.424977
Si Si4 0.076140 0.755040 0.071325
Si Si5 0.079198 0.933943 0.218639
Si Si6 0.422694 0.727869 0.788823
Si Si7 0.578410 0.112500 0.930279
Si Si8 0.579063 0.667472 0.667605
O O1 0.250000 0.430457 0.442288
O O2 0.030357 0.500000 0.406931
O O3 0.030297 0.393667 0.364147
O O4 0.000000 0.415623 0.500000
O O5 0.750000 0.158031 0.318093
O O6 0.959839 0.210508 0.244780
O O7 0.007402 0.174434 0.375056
O O8 0.980299 0.101366 0.273203
O O9 0.500000 0.780001 0.500000
O O10 0.250000 0.790249 0.433991
O O11 0.451357 0.714890 0.392116
O O12 0.250000 0.744058 0.067143
O O13 0.036024 0.821487 0.081347
O O14 0.008802 0.720928 0.137503
O O15 0.000000 0.731450 0.000000
O O16 0.250000 0.914799 0.225964
O O17 0.024751 0.922523 0.138351
O O18 0.057484 0.000000 0.237383
O O19 0.250000 0.719815 0.802489
O O20 0.479171 0.678302 0.736402
O O21 0.750000 0.104278 0.943518
O O22 0.500000 0.087385 0.000000
O O23 0.750000 0.668252 0.690888
#
# Coordination Sequence:
#
# PCOD8206624 Si02
#       8
#     8   8   8   8   8   8   8   8
#     4   9  17  29  45  66  95 132 170 202 232 269
#     4  10  20  33  49  68  91 116 148 186 228 276
#     4  10  19  31  49  71  95 120 149 185 229 275
#     4  10  18  29  46  66  92 123 154 188 229 278
#     4  10  20  34  50  67  89 118 151 186 226 273
#     4  10  19  30  46  68  92 120 155 195 235 275
#     4   9  18  30  45  65  89 118 150 184 221 264
#     4   9  18  30  45  67  96 129 160 194 233 271
#
# _framework density 16.041153999999999
#
# number of rings (size 3 to 8) (size 9 to 14) (size 15 to 20)
#    0.000    2.375    1.250    1.875    0.000    3.500 
#    0.000    0.000    0.000    0.375    0.000    0.000 
#    0.000    0.500    0.000    1.375    0.000    2.000 
#
# Total GULP energy -793774.954157 kJ/mol
# GULP energy per Si atom -12402.733659 kJ/mol
# Density = 1.600464 g / cm^3
# Si number density = 16.041154 Si / 1000 Ang^3
#
#
#
# Elastic Constant Matrix: (Units=GPa)
#
#
# Indices 1 2 3 4 5 6 
#
# 1 78.0940 33.6335 61.5840 0.0000 0.0000 0.0000
# 2 33.6335 68.2554 44.4385 0.0000 0.0000 0.0000
# 3 61.5840 44.4385 119.2549 0.0000 0.0000 0.0000
# 4 0.0000 0.0000 0.0000 22.4756 0.0000 0.0000
# 5 0.0000 0.0000 0.0000 0.0000 34.8810 0.0000
# 6 0.0000 0.0000 0.0000 0.0000 0.0000 18.4287
#
#
#
# Elastic Compliance Matrix: (Units=1/GPa)
#
#
# Indices 1 2 3 4 5 6 
#
# 1 0.022684 -0.004689 -0.009967 0.000000 0.000000 0.000000
# 2 -0.004689 0.020313 -0.005148 0.000000 0.000000 0.000000
# 3 -0.009967 -0.005148 0.015451 0.000000 0.000000 0.000000
# 4 0.000000 0.000000 0.000000 0.044493 0.000000 0.000000
# 5 0.000000 0.000000 0.000000 0.000000 0.028669 0.000000
# 6 0.000000 0.000000 0.000000 0.000000 0.000000 0.054263
#
#
# Mechanical properties :
#
#
# Convention : Reuss Voigt Hill
#
# Bulk Modulus (GPa) = 53.07754 60.54625 56.81190
# Shear Modulus (GPa) = 21.57395 23.55362 22.56378
#
# Velocity S-wave (km/s) = 3.67128 3.83603 3.75456
# Velocity P-wave (km/s) = 7.15061 7.57934 7.36810
#
# Compressibility (1/GPa) = 0.01884036
#
# Stress axis : x y z
#
# Youngs Moduli (GPa) = 44.08311 49.22971 64.72126
#
# Poissons Ratio (x) = 0.23082 0.64509
# Poissons Ratio (y) = 0.20669 0.33319
# Poissons Ratio (z) = 0.43939 0.25344
#
# Static dielectric constant tensor:
#      x y z
#    x 3.070300 0.000000 0.000000 
#    y 0.000000 2.867620 0.000000 
#    z 0.000000 0.000000 3.036010 
# 
# 
# High freq. dielectric constant tensor:
#      x y z
#    x 1.625220 0.000000 0.000000 
#    y 0.000000 1.582210 0.000000 
#    z 0.000000 0.000000 1.613950 
# 
# From -- ./inp_files/28626.got.cif
#   From: 2010.03.12/outbox.cif.g09.slc.cpg/sg51_15_cif.got.tgz:28626.got - 2010.04.16 13:43:02.
