data_PCOD8206499
_publ_section_title
;
Structure prediction by ZEFSAII (Michael W. Deem and Ramdas Pophale) SiO2 
 PCOD8206499
Probable space group: P M M A
;
_chemical_formula_sum "Si O2"
_cell_formula_units_Z 56
_cell_length_a 25.610557
_cell_length_b 9.526221
_cell_length_c 14.326520
_cell_angle_alpha 90.000000
_cell_angle_beta 90.000000
_cell_angle_gamma 90.000000
_cell_volume 3495.267243
_symmetry_space_group_name_H-M "P M M A"
_symmetry_group_IT_number 51
_symmetry_cell_setting 'orthorhombic'
loop_
_space_group_symop_operation_xyz
x,y,z
1/2-x,-y,z
1/2+x,-y,-z
-x,y,-z
-x,-y,-z
1/2+x,y,-z
1/2-x,y,z
x,-y,z
loop_
_atom_site_type_symbol
_atom_site_label
_atom_site_fract_x
_atom_site_fract_y
_atom_site_fract_z
Si Si1 0.811308 0.662021 0.418705
Si Si2 0.750000 0.836920 0.910833
Si Si3 0.147805 0.837370 0.206736
Si Si4 0.060764 0.333793 0.105538
Si Si5 0.810075 0.838091 0.593669
Si Si6 0.847623 0.332993 0.220793
Si Si7 0.056358 0.333815 0.895157
Si Si8 0.750000 0.333055 0.099731
O O1 0.750000 0.684770 0.402296
O O2 0.824445 0.500000 0.436763
O O3 0.832043 0.747859 0.507534
O O4 0.840737 0.720649 0.326758
O O5 0.800525 0.798604 0.850346
O O6 0.750000 0.000000 0.939816
O O7 0.750000 0.739548 0.000305
O O8 0.099770 0.744036 0.174036
O O9 0.156717 0.801188 0.315048
O O10 0.133670 0.000000 0.193295
O O11 0.068793 0.500000 0.115791
O O12 0.001916 0.287979 0.133859
O O13 0.070944 0.282727 0.999421
O O14 0.750000 0.800025 0.614394
O O15 0.815791 0.000000 0.566374
O O16 0.846802 0.500000 0.221772
O O17 0.901807 0.272585 0.178653
O O18 0.800476 0.280122 0.156113
O O19 0.059090 0.500000 0.896531
O O20 0.750000 0.500000 0.085037
#
# Coordination Sequence:
#
# PCOD8206499 Si02
#       8
#     8   4   8   8   8   8   8   4
#     4   9  16  27  44  68  93 115 146 188 225 261
#     4  10  20  32  43  62  94 124 147 176 221 276
#     4  10  19  32  48  65  90 122 151 183 229 279
#     4   9  17  30  48  70  91 117 159 197 220 253
#     4   9  17  31  48  64  86 120 154 181 222 281
#     4   9  15  26  45  68  95 124 148 177 226 277
#     4   8  15  28  46  67  94 125 153 185 224 267
#     4  10  18  28  45  70  96 122 151 180 217 270
#
# _framework density 16.021664000000001
#
# number of rings (size 3 to 8) (size 9 to 14) (size 15 to 20)
#    0.000    2.857    1.429    1.714    0.000    2.286 
#    0.000    2.143    0.000    3.429    0.000    6.000 
#    0.000    0.000    0.000    0.000    0.000    0.000 
#
# Total GULP energy -694254.242508 kJ/mol
# GULP energy per Si atom -12397.397188 kJ/mol
# Density = 1.598520 g / cm^3
# Si number density = 16.021664 Si / 1000 Ang^3
#
#
#
# Elastic Constant Matrix: (Units=GPa)
#
#
# Indices 1 2 3 4 5 6 
#
# 1 111.3265 38.4752 75.6720 0.0000 0.0000 0.0000
# 2 38.4752 41.2046 53.9818 0.0000 0.0000 0.0000
# 3 75.6720 53.9818 145.1228 0.0000 0.0000 0.0000
# 4 0.0000 0.0000 0.0000 18.0815 0.0000 0.0000
# 5 0.0000 0.0000 0.0000 0.0000 21.4678 0.0000
# 6 0.0000 0.0000 0.0000 0.0000 0.0000 18.7011
#
#
#
# Elastic Compliance Matrix: (Units=1/GPa)
#
#
# Indices 1 2 3 4 5 6 
#
# 1 0.014966 -0.007316 -0.005082 0.000000 0.000000 0.000000
# 2 -0.007316 0.050914 -0.015124 0.000000 0.000000 0.000000
# 3 -0.005082 -0.015124 0.015166 0.000000 0.000000 0.000000
# 4 0.000000 0.000000 0.000000 0.055305 0.000000 0.000000
# 5 0.000000 0.000000 0.000000 0.000000 0.046581 0.000000
# 6 0.000000 0.000000 0.000000 0.000000 0.000000 0.053473
#
#
# Mechanical properties :
#
#
# Convention : Reuss Voigt Hill
#
# Bulk Modulus (GPa) = 38.45867 70.43466 54.44667
# Shear Modulus (GPa) = 16.66013 20.28506 18.47259
#
# Velocity S-wave (km/s) = 3.22817 3.56209 3.39923
# Velocity P-wave (km/s) = 6.16044 7.80869 7.03302
#
# Compressibility (1/GPa) = 0.02600194
#
# Stress axis : x y z
#
# Youngs Moduli (GPa) = 66.81980 19.64080 65.93521
#
# Poissons Ratio (x) = 0.14370 0.33509
# Poissons Ratio (y) = 0.48887 0.99720
# Poissons Ratio (z) = 0.33959 0.29705
#
# Static dielectric constant tensor:
#      x y z
#    x 3.131510 0.000000 0.000000 
#    y 0.000000 2.748470 0.000000 
#    z 0.000000 0.000000 3.175640 
# 
# 
# High freq. dielectric constant tensor:
#      x y z
#    x 1.604580 0.000000 0.000000 
#    y 0.000000 1.585540 0.000000 
#    z 0.000000 0.000000 1.619500 
# 
# From -- ./inp_files/18804.got.cif
#   From: 2010.03.12/outbox.cif.g09.slc.cpg/sg51_10_cif.got.tgz:18804.got - 2010.04.16 13:43:02.
