data_PCOD8206327
_publ_section_title
;
Structure prediction by ZEFSAII (Michael W. Deem and Ramdas Pophale) SiO2 
 PCOD8206327
Probable space group: P M M A
;
_chemical_formula_sum "Si O2"
_cell_formula_units_Z 64
_cell_length_a 23.022518
_cell_length_b 9.432631
_cell_length_c 17.289761
_cell_angle_alpha 90.000000
_cell_angle_beta 90.000000
_cell_angle_gamma 90.000000
_cell_volume 3754.694933
_symmetry_space_group_name_H-M "P M M A"
_symmetry_group_IT_number 51
_symmetry_cell_setting 'orthorhombic'
loop_
_space_group_symop_operation_xyz
x,y,z
1/2-x,-y,z
1/2+x,-y,-z
-x,y,-z
-x,-y,-z
1/2+x,y,-z
1/2-x,y,z
x,-y,z
loop_
_atom_site_type_symbol
_atom_site_label
_atom_site_fract_x
_atom_site_fract_y
_atom_site_fract_z
Si Si1 0.913481 0.660758 0.313234
Si Si2 0.878996 0.836428 0.076198
Si Si3 0.974257 0.160115 0.187523
Si Si4 0.488541 0.834379 0.586671
Si Si5 0.815221 0.665466 0.772868
Si Si6 0.683993 0.339168 0.205564
Si Si7 0.683902 0.334790 0.950865
Si Si8 0.419632 0.839395 0.281367
O O1 0.932593 0.500000 0.329712
O O2 0.845783 0.672851 0.290326
O O3 0.946726 0.716966 0.238154
O O4 0.929642 0.754988 0.387373
O O5 0.840860 0.773474 0.145362
O O6 0.947985 0.821715 0.100343
O O7 0.862328 0.000000 0.063793
O O8 0.864160 0.753301 0.997931
O O9 0.043852 0.176857 0.200202
O O10 0.957508 0.000000 0.216998
O O11 0.500000 0.782045 0.500000
O O12 0.540986 0.793159 0.644946
O O13 0.475898 0.000000 0.589457
O O14 0.750000 0.705389 0.745403
O O15 0.826142 0.500000 0.762641
O O16 0.822826 0.709767 0.861969
O O17 0.862025 0.745221 0.720230
O O18 0.750000 0.300558 0.220118
O O19 0.675897 0.500000 0.172865
O O20 0.750000 0.301548 0.979045
O O21 0.670712 0.500000 0.962338
O O22 0.398882 0.000000 0.292440
#
# Coordination Sequence:
#
# PCOD8206327 Si02
#       8
#     8   8   8   8   8   8   8   8
#     4   9  16  26  43  67  91 117 153 190 217 251
#     4  10  18  27  42  65  91 119 156 201 239 271
#     4   8  16  30  44  62  93 127 152 181 230 282
#     4   9  18  33  52  73  98 124 144 170 219 276
#     4   9  19  35  52  69  91 121 155 192 237 282
#     4   9  17  28  41  59  88 126 159 186 224 271
#     4   9  18  32  46  60  85 122 159 196 241 287
#     4   9  17  31  52  74  93 118 153 188 223 269
#
# _framework density 17.045325999999999
#
# number of rings (size 3 to 8) (size 9 to 14) (size 15 to 20)
#    0.000    3.000    0.000    2.625    0.000    6.000 
#    0.000    1.875    0.000    4.500    0.000    3.500 
#    0.000    0.000    0.000    0.000    0.000    0.000 
#
# Total GULP energy -792926.717295 kJ/mol
# GULP energy per Si atom -12389.479958 kJ/mol
# Density = 1.700653 g / cm^3
# Si number density = 17.045326 Si / 1000 Ang^3
#
#
#
# Elastic Constant Matrix: (Units=GPa)
#
#
# Indices 1 2 3 4 5 6 
#
# 1 84.0972 34.0543 30.8990 0.0000 0.0000 0.0000
# 2 34.0543 59.4349 27.8043 0.0000 0.0000 0.0000
# 3 30.8990 27.8043 59.5375 0.0000 0.0000 0.0000
# 4 0.0000 0.0000 0.0000 24.6886 0.0000 0.0000
# 5 0.0000 0.0000 0.0000 0.0000 21.7815 0.0000
# 6 0.0000 0.0000 0.0000 0.0000 0.0000 26.6485
#
#
#
# Elastic Compliance Matrix: (Units=1/GPa)
#
#
# Indices 1 2 3 4 5 6 
#
# 1 0.016731 -0.007068 -0.005382 0.000000 0.000000 0.000000
# 2 -0.007068 0.024515 -0.007780 0.000000 0.000000 0.000000
# 3 -0.005382 -0.007780 0.023223 0.000000 0.000000 0.000000
# 4 0.000000 0.000000 0.000000 0.040505 0.000000 0.000000
# 5 0.000000 0.000000 0.000000 0.000000 0.045910 0.000000
# 6 0.000000 0.000000 0.000000 0.000000 0.000000 0.037526
#
#
# Mechanical properties :
#
#
# Convention : Reuss Voigt Hill
#
# Bulk Modulus (GPa) = 41.65437 43.17608 42.41522
# Shear Modulus (GPa) = 21.10844 21.97786 21.54315
#
# Velocity S-wave (km/s) = 3.52287 3.59469 3.55896
# Velocity P-wave (km/s) = 6.40609 6.52795 6.46731
#
# Compressibility (1/GPa) = 0.02400709
#
# Stress axis : x y z
#
# Youngs Moduli (GPa) = 59.77017 40.79180 43.06144
#
# Poissons Ratio (x) = 0.28833 0.23176
# Poissons Ratio (y) = 0.42248 0.33502
# Poissons Ratio (z) = 0.32168 0.31736
#
# Static dielectric constant tensor:
#      x y z
#    x 3.261060 0.000000 0.000000 
#    y 0.000000 3.204530 0.000000 
#    z 0.000000 0.000000 3.023230 
# 
# 
# High freq. dielectric constant tensor:
#      x y z
#    x 1.646350 0.000000 0.000000 
#    y 0.000000 1.663470 0.000000 
#    z 0.000000 0.000000 1.624770 
# 
# From -- ./inp_files/30673.got.cif
#   From: 2010.03.12/outbox.cif.g09.slc.cpg/sg51_16_cif.got.tgz:30673.got - 2010.04.16 13:43:02.
