data_PCOD8206991
_publ_section_title
;
Structure prediction by ZEFSAII (Michael W. Deem and Ramdas Pophale) SiO2 
 PCOD8206991
Probable space group: P M M A
;
_chemical_formula_sum "Si O2"
_cell_formula_units_Z 64
_cell_length_a 8.883898
_cell_length_b 15.181777
_cell_length_c 24.800409
_cell_angle_alpha 90.000000
_cell_angle_beta 90.000000
_cell_angle_gamma 90.000000
_cell_volume 3344.914450
_symmetry_space_group_name_H-M "P M M A"
_symmetry_group_IT_number 51
_symmetry_cell_setting 'orthorhombic'
loop_
_space_group_symop_operation_xyz
x,y,z
1/2-x,-y,z
1/2+x,-y,-z
-x,y,-z
-x,-y,-z
1/2+x,y,-z
1/2-x,y,z
x,-y,z
loop_
_atom_site_type_symbol
_atom_site_label
_atom_site_fract_x
_atom_site_fract_y
_atom_site_fract_z
Si Si1 0.927329 0.776094 0.645070
Si Si2 0.423256 0.352421 0.789504
Si Si3 0.927007 0.899472 0.443328
Si Si4 0.578264 0.099612 0.140853
Si Si5 0.073271 0.225554 0.055867
Si Si6 0.425633 0.822815 0.235152
Si Si7 0.922182 0.404566 0.891941
Si Si8 0.076535 0.402181 0.669651
O O1 0.750000 0.779947 0.635816
O O2 0.974590 0.818791 0.702272
O O3 0.009630 0.833216 0.600586
O O4 0.977719 0.673805 0.641493
O O5 0.250000 0.323166 0.795357
O O6 0.531657 0.268451 0.793144
O O7 0.472927 0.412431 0.839210
O O8 0.448987 0.403758 0.733825
O O9 0.750000 0.886532 0.448247
O O10 0.000000 0.874034 0.500000
O O11 0.968454 0.000000 0.427386
O O12 0.750000 0.132207 0.139850
O O13 0.479796 0.161426 0.102992
O O14 0.516165 0.102511 0.202501
O O15 0.564984 0.000000 0.119935
O O16 0.250000 0.216005 0.049644
O O17 0.023821 0.326102 0.068896
O O18 0.000000 0.195895 0.000000
O O19 0.250000 0.841356 0.229549
O O20 0.750000 0.387293 0.874093
O O21 0.937001 0.500000 0.921394
O O22 0.250000 0.382574 0.655768
O O23 0.030198 0.500000 0.648332
#
# Coordination Sequence:
#
# PCOD8206991 Si02
#       8
#     8   8   8   8   8   8   8   8
#     4  10  21  35  55  85 120 157 197 238 284 339
#     4  10  18  30  52  80 111 147 188 230 274 327
#     4  10  21  38  61  87 116 152 195 243 293 343
#     4  11  24  41  62  87 113 143 182 230 283 340
#     4  11  24  42  63  83 109 144 183 230 281 335
#     4  10  20  35  55  82 117 154 188 226 278 334
#     4  10  21  36  55  81 112 145 181 223 274 333
#     4   9  18  32  50  77 115 156 197 239 282 330
#
# _framework density 19.133524999999999
#
# number of rings (size 3 to 8) (size 9 to 14) (size 15 to 20)
#    0.000    1.875    1.250    2.625    0.000    6.250 
#    0.000    2.500    0.000    0.375    0.000    0.000 
#    0.000    0.000    0.000    0.000    0.000    0.000 
#
# Total GULP energy -793561.980134 kJ/mol
# GULP energy per Si atom -12399.405940 kJ/mol
# Density = 1.908998 g / cm^3
# Si number density = 19.133525 Si / 1000 Ang^3
#
#
#
# Elastic Constant Matrix: (Units=GPa)
#
#
# Indices 1 2 3 4 5 6 
#
# 1 81.5322 42.8373 45.7797 0.0000 0.0000 0.0000
# 2 42.8373 104.8634 53.8492 0.0000 0.0000 0.0000
# 3 45.7797 53.8492 96.7268 0.0000 0.0000 0.0000
# 4 0.0000 0.0000 0.0000 9.3649 0.0000 0.0000
# 5 0.0000 0.0000 0.0000 0.0000 32.9471 0.0000
# 6 0.0000 0.0000 0.0000 0.0000 0.0000 25.8289
#
#
#
# Elastic Compliance Matrix: (Units=1/GPa)
#
#
# Indices 1 2 3 4 5 6 
#
# 1 0.017907 -0.004149 -0.006165 0.000000 0.000000 0.000000
# 2 -0.004149 0.014315 -0.006006 0.000000 0.000000 0.000000
# 3 -0.006165 -0.006006 0.016600 0.000000 0.000000 0.000000
# 4 0.000000 0.000000 0.000000 0.106782 0.000000 0.000000
# 5 0.000000 0.000000 0.000000 0.000000 0.030352 0.000000
# 6 0.000000 0.000000 0.000000 0.000000 0.000000 0.038716
#
#
# Mechanical properties :
#
#
# Convention : Reuss Voigt Hill
#
# Bulk Modulus (GPa) = 61.79836 63.11722 62.45779
# Shear Modulus (GPa) = 19.03268 23.00525 21.01897
#
# Velocity S-wave (km/s) = 3.15735 3.47126 3.31802
# Velocity P-wave (km/s) = 6.75725 7.00896 6.88426
#
# Compressibility (1/GPa) = 0.01618166
#
# Stress axis : x y z
#
# Youngs Moduli (GPa) = 55.84488 69.85579 60.24156
#
# Poissons Ratio (x) = 0.28984 0.37140
# Poissons Ratio (y) = 0.23170 0.36180
# Poissons Ratio (z) = 0.34430 0.41954
#
# Static dielectric constant tensor:
#      x y z
#    x 3.541660 0.000000 0.000000 
#    y 0.000000 3.556330 0.000000 
#    z 0.000000 0.000000 3.360180 
# 
# 
# High freq. dielectric constant tensor:
#      x y z
#    x 1.752790 0.000000 0.000000 
#    y 0.000000 1.747260 0.000000 
#    z 0.000000 0.000000 1.721430 
# 
# From -- ./inp_files/34935.got.cif
#   From: 2010.03.12/outbox.cif.g09.slc.cpg/sg51_18_cif.got.tgz:34935.got - 2010.04.16 13:43:02.
