data_PCOD8206019
_publ_section_title
;
Structure prediction by ZEFSAII (Michael W. Deem and Ramdas Pophale) SiO2 
 PCOD8206019
Probable space group: P M M A
;
_chemical_formula_sum "Si O2"
_cell_formula_units_Z 40
_cell_length_a 8.820972
_cell_length_b 20.733716
_cell_length_c 15.286117
_cell_angle_alpha 90.000000
_cell_angle_beta 90.000000
_cell_angle_gamma 90.000000
_cell_volume 2795.701300
_symmetry_space_group_name_H-M "P M M A"
_symmetry_group_IT_number 51
_symmetry_cell_setting 'orthorhombic'
loop_
_space_group_symop_operation_xyz
x,y,z
1/2-x,-y,z
1/2+x,-y,-z
-x,y,-z
-x,-y,-z
1/2+x,y,-z
1/2-x,y,z
x,-y,z
loop_
_atom_site_type_symbol
_atom_site_label
_atom_site_fract_x
_atom_site_fract_y
_atom_site_fract_z
Si Si1 0.930419 0.194829 0.403205
Si Si2 0.572214 0.572797 0.737576
Si Si3 0.070323 0.675980 0.405245
Si Si4 0.426820 0.070024 0.405231
Si Si5 0.579659 0.576788 0.086351
O O1 0.750000 0.197160 0.403844
O O2 0.000000 0.192891 0.500000
O O3 0.997737 0.259951 0.360329
O O4 0.989809 0.129394 0.354272
O O5 0.750000 0.573652 0.752710
O O6 0.514260 0.500000 0.719132
O O7 0.524576 0.615981 0.655319
O O8 0.499722 0.602073 0.825580
O O9 0.250000 0.684745 0.413963
O O10 0.000000 0.662319 0.500000
O O11 0.500000 0.064509 0.500000
O O12 0.250000 0.086401 0.414631
O O13 0.449754 0.000000 0.357745
O O14 0.750000 0.602450 0.086505
O O15 0.570742 0.500000 0.084067
O O16 0.500000 0.605671 0.000000
#
# Coordination Sequence:
#
# PCOD8206019 Si02
#       5
#     8   8   8   8   8
#     4  10  17  25  37  50  67  91 121 155 188 225
#     4   9  18  31  44  58  76  98 126 161 199 236
#     4  10  19  30  42  54  72  99 131 166 200 233
#     4   9  15  22  33  49  68  88 112 145 184 223
#     4   9  16  26  42  62  81  99 118 145 184 231
#
# _framework density 14.30768
#
# number of rings (size 3 to 8) (size 9 to 14) (size 15 to 20)
#    0.000    2.600    0.000    6.000    0.000    5.600 
#    0.000    0.000    0.000    0.000    0.000    0.000 
#    0.000    0.000    0.000    0.000    0.000    1.000 
#
# Total GULP energy -495624.414743 kJ/mol
# GULP energy per Si atom -12390.610369 kJ/mol
# Density = 1.427512 g / cm^3
# Si number density = 14.307680 Si / 1000 Ang^3
#
#
#
# Elastic Constant Matrix: (Units=GPa)
#
#
# Indices 1 2 3 4 5 6 
#
# 1 91.4412 49.5574 35.9175 0.0000 0.0000 0.0000
# 2 49.5574 100.6673 43.8830 0.0000 0.0000 0.0000
# 3 35.9175 43.8830 64.7012 0.0000 0.0000 0.0000
# 4 0.0000 0.0000 0.0000 0.4915 0.0000 0.0000
# 5 0.0000 0.0000 0.0000 0.0000 18.3080 0.0000
# 6 0.0000 0.0000 0.0000 0.0000 0.0000 20.7091
#
#
#
# Elastic Compliance Matrix: (Units=1/GPa)
#
#
# Indices 1 2 3 4 5 6 
#
# 1 0.015988 -0.005681 -0.005022 0.000000 0.000000 0.000000
# 2 -0.005681 0.016123 -0.007781 0.000000 0.000000 0.000000
# 3 -0.005022 -0.007781 0.023521 0.000000 0.000000 0.000000
# 4 0.000000 0.000000 0.000000 2.034388 0.000000 0.000000
# 5 0.000000 0.000000 0.000000 0.000000 0.054621 0.000000
# 6 0.000000 0.000000 0.000000 0.000000 0.000000 0.048288
#
#
# Mechanical properties :
#
#
# Convention : Reuss Voigt Hill
#
# Bulk Modulus (GPa) = 53.58357 57.28062 55.43210
# Shear Modulus (GPa) = 2.23602 16.39852 9.31727
#
# Velocity S-wave (km/s) = 1.25148 3.38913 2.55465
# Velocity P-wave (km/s) = 6.29448 7.44559 6.89410
#
# Compressibility (1/GPa) = 0.01866244
#
# Stress axis : x y z
#
# Youngs Moduli (GPa) = 62.54837 62.02502 42.51552
#
# Poissons Ratio (x) = 0.35239 0.21351
# Poissons Ratio (y) = 0.35536 0.33081
# Poissons Ratio (z) = 0.31411 0.48262
#
# Static dielectric constant tensor:
#      x y z
#    x 2.979460 0.000000 0.000000 
#    y 0.000000 3.672480 0.000000 
#    z 0.000000 0.000000 2.450240 
# 
# 
# High freq. dielectric constant tensor:
#      x y z
#    x 1.566290 0.000000 0.000000 
#    y 0.000000 1.541580 0.000000 
#    z 0.000000 0.000000 1.484620 
# 
# From -- ./inp_files/21302.got.cif
#   From: 2010.03.12/outbox.cif.g09.slc.cpg/sg51_11_cif.got.tgz:21302.got - 2010.04.16 13:43:02.
