data_PCOD8206630
_publ_section_title
;
Structure prediction by ZEFSAII (Michael W. Deem and Ramdas Pophale) SiO2 
 PCOD8206630
Probable space group: P M M A
;
_chemical_formula_sum "Si O2"
_cell_formula_units_Z 64
_cell_length_a 8.916457
_cell_length_b 23.134276
_cell_length_c 18.958527
_cell_angle_alpha 90.000000
_cell_angle_beta 90.000000
_cell_angle_gamma 90.000000
_cell_volume 3910.684891
_symmetry_space_group_name_H-M "P M M A"
_symmetry_group_IT_number 51
_symmetry_cell_setting 'orthorhombic'
loop_
_space_group_symop_operation_xyz
x,y,z
1/2-x,-y,z
1/2+x,-y,-z
-x,y,-z
-x,-y,-z
1/2+x,y,-z
1/2-x,y,z
x,-y,z
loop_
_atom_site_type_symbol
_atom_site_label
_atom_site_fract_x
_atom_site_fract_y
_atom_site_fract_z
Si Si1 0.425397 0.772633 0.575437
Si Si2 0.074573 0.835468 0.301680
Si Si3 0.075988 0.066647 0.782274
Si Si4 0.424803 0.885562 0.929706
Si Si5 0.076461 0.567422 0.426836
Si Si6 0.073152 0.247981 0.928287
Si Si7 0.073979 0.339855 0.664062
Si Si8 0.926388 0.276370 0.787272
O O1 0.500000 0.777282 0.500000
O O2 0.250000 0.782937 0.567863
O O3 0.491748 0.822590 0.625049
O O4 0.463056 0.710144 0.607831
O O5 0.250000 0.837977 0.316792
O O6 0.033874 0.786381 0.244607
O O7 0.018831 0.896897 0.273445
O O8 0.250000 0.084564 0.776144
O O9 0.018496 0.079113 0.861666
O O10 0.050039 0.000000 0.763991
O O11 0.250000 0.893169 0.940527
O O12 0.470569 0.819013 0.919063
O O13 0.500000 0.911407 0.000000
O O14 0.250000 0.585264 0.431064
O O15 0.055539 0.500000 0.411333
O O16 0.000000 0.585393 0.500000
O O17 0.995477 0.600626 0.363611
O O18 0.250000 0.257969 0.930274
O O19 0.002307 0.282813 0.863404
O O20 0.000000 0.272284 0.000000
O O21 0.250000 0.347039 0.676402
O O22 0.995827 0.325951 0.738205
O O23 0.750000 0.286057 0.793903
#
# Coordination Sequence:
#
# PCOD8206630 Si02
#       8
#     8   8   8   8   8   8   8   8
#     4  10  20  33  51  74  99 124 153 190 236 284
#     4  10  20  33  50  70  93 119 152 191 235 285
#     4  10  20  34  50  67  90 121 155 192 235 283
#     4   9  18  30  45  65  90 120 154 192 231 277
#     4  10  20  33  49  70 100 139 178 212 244 281
#     4  10  18  29  46  67  94 126 160 197 239 290
#     4  10  20  32  49  73 101 133 166 204 243 282
#     4  10  19  31  48  70  96 126 160 200 244 289
#
# _framework density 16.36542
#
# number of rings (size 3 to 8) (size 9 to 14) (size 15 to 20)
#    0.000    2.125    1.250    2.625    0.000    5.750 
#    0.000    0.000    0.000    0.375    0.000    0.000 
#    0.000    0.500    0.000    1.875    0.000    2.875 
#
# Total GULP energy -793869.458325 kJ/mol
# GULP energy per Si atom -12404.210286 kJ/mol
# Density = 1.632817 g / cm^3
# Si number density = 16.365420 Si / 1000 Ang^3
#
#
#
# Elastic Constant Matrix: (Units=GPa)
#
#
# Indices 1 2 3 4 5 6 
#
# 1 86.2741 34.4018 60.1873 0.0000 0.0000 0.0000
# 2 34.4018 56.1017 40.8434 0.0000 0.0000 0.0000
# 3 60.1873 40.8434 127.4972 0.0000 0.0000 0.0000
# 4 0.0000 0.0000 0.0000 22.0124 0.0000 0.0000
# 5 0.0000 0.0000 0.0000 0.0000 35.4878 0.0000
# 6 0.0000 0.0000 0.0000 0.0000 0.0000 23.8469
#
#
#
# Elastic Compliance Matrix: (Units=1/GPa)
#
#
# Indices 1 2 3 4 5 6 
#
# 1 0.019031 -0.006689 -0.006841 0.000000 0.000000 0.000000
# 2 -0.006689 0.025598 -0.005042 0.000000 0.000000 0.000000
# 3 -0.006841 -0.005042 0.012688 0.000000 0.000000 0.000000
# 4 0.000000 0.000000 0.000000 0.045429 0.000000 0.000000
# 5 0.000000 0.000000 0.000000 0.000000 0.028179 0.000000
# 6 0.000000 0.000000 0.000000 0.000000 0.000000 0.041934
#
#
# Mechanical properties :
#
#
# Convention : Reuss Voigt Hill
#
# Bulk Modulus (GPa) = 49.57556 60.08197 54.82877
# Shear Modulus (GPa) = 23.07049 25.23212 24.15130
#
# Velocity S-wave (km/s) = 3.75868 3.93083 3.84572
# Velocity P-wave (km/s) = 7.01396 7.57591 7.30034
#
# Compressibility (1/GPa) = 0.02017123
#
# Stress axis : x y z
#
# Youngs Moduli (GPa) = 52.54649 39.06607 78.81495
#
# Poissons Ratio (x) = 0.26133 0.53916
# Poissons Ratio (y) = 0.35151 0.39741
# Poissons Ratio (z) = 0.35946 0.19698
#
# Static dielectric constant tensor:
#      x y z
#    x 3.161360 0.000000 0.000000 
#    y 0.000000 2.829750 0.000000 
#    z 0.000000 0.000000 3.116710 
# 
# 
# High freq. dielectric constant tensor:
#      x y z
#    x 1.644570 0.000000 0.000000 
#    y 0.000000 1.593750 0.000000 
#    z 0.000000 0.000000 1.629150 
# 
# From -- ./inp_files/28332.got.cif
#   From: 2010.03.12/outbox.cif.g09.slc.cpg/sg51_15_cif.got.tgz:28332.got - 2010.04.16 13:43:02.
