data_PCOD8206396
_publ_section_title
;
Structure prediction by ZEFSAII (Michael W. Deem and Ramdas Pophale) SiO2 
 PCOD8206396
Probable space group: P M M A
;
_chemical_formula_sum "Si O2"
_cell_formula_units_Z 64
_cell_length_a 26.829856
_cell_length_b 8.729231
_cell_length_c 17.076381
_cell_angle_alpha 90.000000
_cell_angle_beta 90.000000
_cell_angle_gamma 90.000000
_cell_volume 3999.356919
_symmetry_space_group_name_H-M "P M M A"
_symmetry_group_IT_number 51
_symmetry_cell_setting 'orthorhombic'
loop_
_space_group_symop_operation_xyz
x,y,z
1/2-x,-y,z
1/2+x,-y,-z
-x,y,-z
-x,-y,-z
1/2+x,y,-z
1/2-x,y,z
x,-y,z
loop_
_atom_site_type_symbol
_atom_site_label
_atom_site_fract_x
_atom_site_fract_y
_atom_site_fract_z
Si Si1 0.076486 0.820688 0.359522
Si Si2 0.382341 0.679013 0.216069
Si Si3 0.462873 0.178763 0.670474
Si Si4 0.442983 0.324407 0.830518
Si Si5 0.804677 0.679198 0.910523
Si Si6 0.558333 0.672222 0.484266
Si Si7 0.607289 0.678122 0.016990
Si Si8 0.539074 0.820947 0.894981
O O1 0.117241 0.730930 0.306689
O O2 0.085917 0.771540 0.449276
O O3 0.020924 0.771554 0.331375
O O4 0.085308 0.000000 0.351483
O O5 0.395471 0.500000 0.208109
O O6 0.329687 0.715607 0.173946
O O7 0.423986 0.782421 0.175505
O O8 0.437874 0.222434 0.752995
O O9 0.431370 0.259692 0.601717
O O10 0.458255 0.000000 0.656303
O O11 0.447930 0.500000 0.803889
O O12 0.395286 0.300921 0.888671
O O13 0.489759 0.277441 0.882842
O O14 0.750000 0.758994 0.914675
O O15 0.797423 0.500000 0.920084
O O16 0.839859 0.737715 0.982042
O O17 0.500000 0.679257 0.500000
O O18 0.578972 0.500000 0.487620
O O19 0.599696 0.500000 0.993387
O O20 0.563099 0.776129 0.977841
O O21 0.525850 0.000000 0.893217
#
# Coordination Sequence:
#
# PCOD8206396 Si02
#       8
#     8   8   8   8   8   8   8   8
#     4  10  18  28  42  61  87 116 149 185 215 252
#     4  10  18  28  45  66  87 114 148 183 220 263
#     4  10  19  29  41  59  85 118 153 184 217 252
#     4  11  20  29  42  59  85 116 149 184 217 257
#     4   8  15  30  50  68  86 109 141 183 227 267
#     4   9  17  28  42  59  82 115 152 184 214 249
#     4   9  19  32  45  63  83 110 145 181 221 265
#     4  11  20  29  41  59  84 115 147 181 219 258
#
# _framework density 16.002572000000001
#
# number of rings (size 3 to 8) (size 9 to 14) (size 15 to 20)
#    0.000    2.250    1.250    4.125    0.000    5.000 
#    0.000    0.000    0.000    9.375    0.000    0.000 
#    0.000    1.000    0.000    8.500    0.000    2.375 
#
# Total GULP energy -793350.474626 kJ/mol
# GULP energy per Si atom -12396.101166 kJ/mol
# Density = 1.596615 g / cm^3
# Si number density = 16.002572 Si / 1000 Ang^3
#
#
#
# Elastic Constant Matrix: (Units=GPa)
#
#
# Indices 1 2 3 4 5 6 
#
# 1 47.7722 6.4102 37.6620 0.0000 0.0000 0.0000
# 2 6.4102 46.0791 22.1346 0.0000 0.0000 0.0000
# 3 37.6620 22.1346 119.6179 0.0000 0.0000 0.0000
# 4 0.0000 0.0000 0.0000 27.2967 0.0000 0.0000
# 5 0.0000 0.0000 0.0000 0.0000 12.6178 0.0000
# 6 0.0000 0.0000 0.0000 0.0000 0.0000 5.7874
#
#
#
# Elastic Compliance Matrix: (Units=1/GPa)
#
#
# Indices 1 2 3 4 5 6 
#
# 1 0.027850 0.000371 -0.008837 0.000000 0.000000 0.000000
# 2 0.000371 0.023824 -0.004525 0.000000 0.000000 0.000000
# 3 -0.008837 -0.004525 0.011980 0.000000 0.000000 0.000000
# 4 0.000000 0.000000 0.000000 0.036635 0.000000 0.000000
# 5 0.000000 0.000000 0.000000 0.000000 0.079253 0.000000
# 6 0.000000 0.000000 0.000000 0.000000 0.000000 0.172790
#
#
# Mechanical properties :
#
#
# Convention : Reuss Voigt Hill
#
# Bulk Modulus (GPa) = 26.54614 38.43143 32.48879
# Shear Modulus (GPa) = 12.79194 18.95787 15.87491
#
# Velocity S-wave (km/s) = 2.83038 3.44565 3.15306
# Velocity P-wave (km/s) = 5.22552 6.31648 5.79672
#
# Compressibility (1/GPa) = 0.03767026
#
# Stress axis : x y z
#
# Youngs Moduli (GPa) = 35.90683 41.97456 83.47424
#
# Poissons Ratio (x) = -0.01556 0.73768
# Poissons Ratio (y) = -0.01331 0.37774
# Poissons Ratio (z) = 0.31732 0.18994
#
# Static dielectric constant tensor:
#      x y z
#    x 2.845670 0.000000 0.000000 
#    y 0.000000 2.984830 0.000000 
#    z 0.000000 0.000000 3.200280 
# 
# 
# High freq. dielectric constant tensor:
#      x y z
#    x 1.548810 0.000000 0.000000 
#    y 0.000000 1.617970 0.000000 
#    z 0.000000 0.000000 1.623120 
# 
# From -- ./inp_files/26714.got.cif
#   From: 2010.03.12/outbox.cif.g09.slc.cpg/sg51_14_cif.got.tgz:26714.got - 2010.04.16 13:43:02.
