data_PCOD8206401
_publ_section_title
;
Structure prediction by ZEFSAII (Michael W. Deem and Ramdas Pophale) SiO2 
 PCOD8206401
Probable space group: P M M A
;
_chemical_formula_sum "Si O2"
_cell_formula_units_Z 52
_cell_length_a 8.802143
_cell_length_b 26.174941
_cell_length_c 13.749076
_cell_angle_alpha 90.000000
_cell_angle_beta 90.000000
_cell_angle_gamma 90.000000
_cell_volume 3167.726253
_symmetry_space_group_name_H-M "P M M A"
_symmetry_group_IT_number 51
_symmetry_cell_setting 'orthorhombic'
loop_
_space_group_symop_operation_xyz
x,y,z
1/2-x,-y,z
1/2+x,-y,-z
-x,y,-z
-x,-y,-z
1/2+x,y,-z
1/2-x,y,z
x,-y,z
loop_
_atom_site_type_symbol
_atom_site_label
_atom_site_fract_x
_atom_site_fract_y
_atom_site_fract_z
Si Si1 0.429413 0.854653 0.720926
Si Si2 0.929949 0.602290 0.894175
Si Si3 0.928334 0.755062 0.395622
Si Si4 0.428435 0.198364 0.104391
Si Si5 0.426866 0.702530 0.222199
Si Si6 0.926554 0.940918 0.602138
Si Si7 0.931388 0.500000 0.107301
O O1 0.250000 0.857315 0.731598
O O2 0.479680 0.810165 0.645878
O O3 0.501878 0.844557 0.825744
O O4 0.493080 0.908664 0.685754
O O5 0.750000 0.595531 0.905805
O O6 0.973247 0.648406 0.823004
O O7 0.003594 0.551742 0.843918
O O8 0.000000 0.613155 0.000000
O O9 0.750000 0.751587 0.406574
O O10 0.000000 0.745734 0.500000
O O11 0.982705 0.710687 0.322335
O O12 0.250000 0.190351 0.097751
O O13 0.472141 0.254329 0.144090
O O14 0.500000 0.190906 0.000000
O O15 0.250000 0.705360 0.247182
O O16 0.750000 0.927206 0.596904
O O17 0.000000 0.925759 0.500000
O O18 0.954710 0.000000 0.626928
O O19 0.750000 0.500000 0.107530
O O20 0.000000 0.500000 0.000000
#
# Coordination Sequence:
#
# PCOD8206401 Si02
#       7
#     8   8   8   8   8   8   4
#     4  10  20  33  50  72  96 126 160 193 232 277
#     4  10  18  29  45  66  93 124 156 192 231 273
#     4  10  20  32  48  69  95 124 155 191 230 275
#     4  10  19  32  49  70  97 127 159 195 232 275
#     4   9  19  32  47  68  94 124 157 192 232 275
#     4  10  20  33  50  73  99 126 156 192 235 281
#     4  10  18  28  42  62  89 122 157 192 230 274
#
# _framework density 16.415558999999998
#
# number of rings (size 3 to 8) (size 9 to 14) (size 15 to 20)
#    0.000    2.154    0.000    4.846    0.000    5.846 
#    0.000    0.000    0.000    0.462    0.000    0.538 
#    0.000    0.000    0.000    0.000    0.000    0.000 
#
# Total GULP energy -644905.723274 kJ/mol
# GULP energy per Si atom -12402.033140 kJ/mol
# Density = 1.637820 g / cm^3
# Si number density = 16.415559 Si / 1000 Ang^3
#
#
#
# Elastic Constant Matrix: (Units=GPa)
#
#
# Indices 1 2 3 4 5 6 
#
# 1 91.7720 49.9589 56.8025 0.0000 0.0000 0.0000
# 2 49.9589 102.5796 63.0720 0.0000 0.0000 0.0000
# 3 56.8025 63.0720 127.1408 0.0000 0.0000 0.0000
# 4 0.0000 0.0000 0.0000 22.1686 0.0000 0.0000
# 5 0.0000 0.0000 0.0000 0.0000 30.5755 0.0000
# 6 0.0000 0.0000 0.0000 0.0000 0.0000 27.1958
#
#
#
# Elastic Compliance Matrix: (Units=1/GPa)
#
#
# Indices 1 2 3 4 5 6 
#
# 1 0.016739 -0.005114 -0.004942 0.000000 0.000000 0.000000
# 2 -0.005114 0.015589 -0.005449 0.000000 0.000000 0.000000
# 3 -0.004942 -0.005449 0.012776 0.000000 0.000000 0.000000
# 4 0.000000 0.000000 0.000000 0.045109 0.000000 0.000000
# 5 0.000000 0.000000 0.000000 0.000000 0.032706 0.000000
# 6 0.000000 0.000000 0.000000 0.000000 0.000000 0.036770
#
#
# Mechanical properties :
#
#
# Convention : Reuss Voigt Hill
#
# Bulk Modulus (GPa) = 70.94285 73.46212 72.20248
# Shear Modulus (GPa) = 25.58890 26.09858 25.84374
#
# Velocity S-wave (km/s) = 3.95247 3.99164 3.97211
# Velocity P-wave (km/s) = 8.00875 8.12976 8.06948
#
# Compressibility (1/GPa) = 0.01409585
#
# Stress axis : x y z
#
# Youngs Moduli (GPa) = 59.74019 64.14594 78.27124
#
# Poissons Ratio (x) = 0.32804 0.38678
# Poissons Ratio (y) = 0.30551 0.42649
# Poissons Ratio (z) = 0.29521 0.34952
#
# Static dielectric constant tensor:
#      x y z
#    x 3.275350 0.000000 0.000000 
#    y 0.000000 3.322730 0.000000 
#    z 0.000000 0.000000 2.934070 
# 
# 
# High freq. dielectric constant tensor:
#      x y z
#    x 1.650390 0.000000 0.000000 
#    y 0.000000 1.627060 0.000000 
#    z 0.000000 0.000000 1.610660 
# 
# From -- ./inp_files/14597.got.cif
#   From: 2010.03.12/outbox.cif.g09.slc.cpg/sg51_8_cif.got.tgz:14597.got - 2010.04.16 13:43:02.
