data_PCOD8206673
_publ_section_title
;
Structure prediction by ZEFSAII (Michael W. Deem and Ramdas Pophale) SiO2 
 PCOD8206673
Probable space group: P M M A
;
_chemical_formula_sum "Si O2"
_cell_formula_units_Z 56
_cell_length_a 22.804214
_cell_length_b 9.183019
_cell_length_c 14.860543
_cell_angle_alpha 90.000000
_cell_angle_beta 90.000000
_cell_angle_gamma 90.000000
_cell_volume 3111.969053
_symmetry_space_group_name_H-M "P M M A"
_symmetry_group_IT_number 51
_symmetry_cell_setting 'orthorhombic'
loop_
_space_group_symop_operation_xyz
x,y,z
1/2-x,-y,z
1/2+x,-y,-z
-x,y,-z
-x,-y,-z
1/2+x,y,-z
1/2-x,y,z
x,-y,z
loop_
_atom_site_type_symbol
_atom_site_label
_atom_site_fract_x
_atom_site_fract_y
_atom_site_fract_z
Si Si1 0.352698 0.172931 0.621754
Si Si2 0.077342 0.672203 0.916371
Si Si3 0.684389 0.330280 0.204136
Si Si4 0.946837 0.672409 0.884086
Si Si5 0.516837 0.827964 0.403420
Si Si6 0.409472 0.172428 0.285352
Si Si7 0.184631 0.828153 0.426390
O O1 0.316831 0.248360 0.700867
O O2 0.419910 0.224629 0.629675
O O3 0.329357 0.231845 0.525845
O O4 0.344751 0.000000 0.630444
O O5 0.079960 0.500000 0.915405
O O6 0.133946 0.734819 0.862398
O O7 0.015092 0.722477 0.873578
O O8 0.078820 0.724539 0.019869
O O9 0.750000 0.306502 0.163056
O O10 0.672516 0.500000 0.221388
O O11 0.941655 0.500000 0.872819
O O12 0.905965 0.750764 0.810978
O O13 0.500000 0.758286 0.500000
O O14 0.470509 0.778202 0.329373
O O15 0.516792 0.000000 0.415006
O O16 0.358253 0.234463 0.349829
O O17 0.404524 0.000000 0.272284
O O18 0.250000 0.782926 0.398554
O O19 0.175562 0.000000 0.430431
#
# Coordination Sequence:
#
# PCOD8206673 Si02
#       7
#     8   8   8   8   8   8   8
#     4  10  18  30  50  72  95 125 162 198 231 276
#     4   8  16  33  53  70  91 123 157 187 232 293
#     4  10  20  33  49  70  97 127 158 195 239 287
#     4   9  17  32  54  73  91 119 155 195 237 283
#     4   9  15  26  45  70  96 123 155 193 234 271
#     4  10  18  29  47  71  97 123 154 193 234 276
#     4   9  17  29  45  64  90 128 166 191 217 268
#
# _framework density 17.995038000000001
#
# number of rings (size 3 to 8) (size 9 to 14) (size 15 to 20)
#    0.000    2.714    1.429    2.143    0.000    0.857 
#    0.000    3.571    0.000    3.000    0.000    0.000 
#    0.000    0.000    0.000    0.000    0.000    0.000 
#
# Total GULP energy -694134.700132 kJ/mol
# GULP energy per Si atom -12395.262502 kJ/mol
# Density = 1.795408 g / cm^3
# Si number density = 17.995038 Si / 1000 Ang^3
#
#
#
# Elastic Constant Matrix: (Units=GPa)
#
#
# Indices 1 2 3 4 5 6 
#
# 1 120.4532 20.0770 63.9703 0.0000 0.0000 0.0000
# 2 20.0770 22.9974 27.9461 0.0000 0.0000 0.0000
# 3 63.9703 27.9461 133.2652 0.0000 0.0000 0.0000
# 4 0.0000 0.0000 0.0000 19.2544 0.0000 0.0000
# 5 0.0000 0.0000 0.0000 0.0000 27.5841 0.0000
# 6 0.0000 0.0000 0.0000 0.0000 0.0000 12.4746
#
#
#
# Elastic Compliance Matrix: (Units=1/GPa)
#
#
# Indices 1 2 3 4 5 6 
#
# 1 0.011474 -0.004461 -0.004572 0.000000 0.000000 0.000000
# 2 -0.004461 0.060087 -0.010459 0.000000 0.000000 0.000000
# 3 -0.004572 -0.010459 0.011892 0.000000 0.000000 0.000000
# 4 0.000000 0.000000 0.000000 0.051936 0.000000 0.000000
# 5 0.000000 0.000000 0.000000 0.000000 0.036253 0.000000
# 6 0.000000 0.000000 0.000000 0.000000 0.000000 0.080163
#
#
# Mechanical properties :
#
#
# Convention : Reuss Voigt Hill
#
# Bulk Modulus (GPa) = 22.48770 55.63363 39.06067
# Shear Modulus (GPa) = 16.36060 22.84409 19.60235
#
# Velocity S-wave (km/s) = 3.01852 3.56682 3.30406
# Velocity P-wave (km/s) = 4.96713 6.92432 6.02572
#
# Compressibility (1/GPa) = 0.04446875
#
# Stress axis : x y z
#
# Youngs Moduli (GPa) = 87.15595 16.64244 84.09035
#
# Poissons Ratio (x) = 0.07423 0.38448
# Poissons Ratio (y) = 0.38876 0.87953
# Poissons Ratio (z) = 0.39850 0.17407
#
# Static dielectric constant tensor:
#      x y z
#    x 3.596750 0.000000 0.000000 
#    y 0.000000 2.778960 0.000000 
#    z 0.000000 0.000000 3.410840 
# 
# 
# High freq. dielectric constant tensor:
#      x y z
#    x 1.702520 0.000000 0.000000 
#    y 0.000000 1.643220 0.000000 
#    z 0.000000 0.000000 1.699220 
# 
# From -- ./inp_files/18751.got.cif
#   From: 2010.03.12/outbox.cif.g09.slc.cpg/sg51_10_cif.got.tgz:18751.got - 2010.04.16 13:43:02.
