data_PCOD8206664
_publ_section_title
;
Structure prediction by ZEFSAII (Michael W. Deem and Ramdas Pophale) SiO2 
 PCOD8206664
Probable space group: P M M A
;
_chemical_formula_sum "Si O2"
_cell_formula_units_Z 64
_cell_length_a 9.347662
_cell_length_b 19.544035
_cell_length_c 19.784379
_cell_angle_alpha 90.000000
_cell_angle_beta 90.000000
_cell_angle_gamma 90.000000
_cell_volume 3614.428643
_symmetry_space_group_name_H-M "P M M A"
_symmetry_group_IT_number 51
_symmetry_cell_setting 'orthorhombic'
loop_
_space_group_symop_operation_xyz
x,y,z
1/2-x,-y,z
1/2+x,-y,-z
-x,y,-z
-x,-y,-z
1/2+x,y,-z
1/2-x,y,z
x,-y,z
loop_
_atom_site_type_symbol
_atom_site_label
_atom_site_fract_x
_atom_site_fract_y
_atom_site_fract_z
Si Si1 0.084921 0.080205 0.433314
Si Si2 0.915269 0.296750 0.436565
Si Si3 0.587911 0.173047 0.338856
Si Si4 0.584939 0.748345 0.212164
Si Si5 0.914058 0.425904 0.113848
Si Si6 0.586119 0.383679 0.763199
Si Si7 0.587828 0.576782 0.612728
Si Si8 0.085354 0.719388 0.937030
O O1 0.250000 0.100954 0.442666
O O2 0.000000 0.104212 0.500000
O O3 0.021076 0.117022 0.367393
O O4 0.066563 0.000000 0.421230
O O5 0.750000 0.305006 0.455495
O O6 0.937726 0.246425 0.373630
O O7 0.000000 0.264408 0.500000
O O8 0.977804 0.371620 0.421691
O O9 0.750000 0.147408 0.352036
O O10 0.560567 0.183733 0.258154
O O11 0.750000 0.724490 0.218048
O O12 0.485645 0.690309 0.243178
O O13 0.547726 0.759772 0.132681
O O14 0.750000 0.414755 0.135767
O O15 0.933326 0.500000 0.076507
O O16 0.960094 0.360897 0.068768
O O17 0.008405 0.429274 0.180934
O O18 0.750000 0.373653 0.784689
O O19 0.570704 0.422906 0.693161
O O20 0.750000 0.598012 0.593114
O O21 0.553550 0.500000 0.587358
O O22 0.250000 0.727465 0.955267
O O23 0.000000 0.751841 0.000000
#
# Coordination Sequence:
#
# PCOD8206664 Si02
#       8
#     8   8   8   8   8   8   8   8
#     4  10  21  36  55  82 117 153 184 211 245 292
#     4  11  23  37  53  72  94 123 162 206 254 305
#     4  10  20  35  57  81 104 134 174 214 251 296
#     4   9  18  34  52  72  99 129 164 205 249 299
#     4   9  18  31  45  61  85 120 158 197 248 311
#     4  10  18  29  47  70  93 116 149 201 258 305
#     4  10  21  35  49  66  90 119 155 204 260 313
#     4   9  18  31  47  66  94 127 160 202 251 306
#
# _framework density 17.706810000000001
#
# number of rings (size 3 to 8) (size 9 to 14) (size 15 to 20)
#    0.000    2.250    1.250    2.625    0.000    7.250 
#    0.000    0.000    0.000    0.000    0.000    0.000 
#    0.000    0.500    0.000    1.125    0.000    2.000 
#
# Total GULP energy -793383.727460 kJ/mol
# GULP energy per Si atom -12396.620742 kJ/mol
# Density = 1.766651 g / cm^3
# Si number density = 17.706810 Si / 1000 Ang^3
#
#
#
# Elastic Constant Matrix: (Units=GPa)
#
#
# Indices 1 2 3 4 5 6 
#
# 1 95.6372 33.3989 49.0622 0.0000 0.0000 0.0000
# 2 33.3989 47.7079 30.7988 0.0000 0.0000 0.0000
# 3 49.0622 30.7988 103.8214 0.0000 0.0000 0.0000
# 4 0.0000 0.0000 0.0000 15.8633 0.0000 0.0000
# 5 0.0000 0.0000 0.0000 0.0000 30.6892 0.0000
# 6 0.0000 0.0000 0.0000 0.0000 0.0000 24.6828
#
#
#
# Elastic Compliance Matrix: (Units=1/GPa)
#
#
# Indices 1 2 3 4 5 6 
#
# 1 0.015811 -0.007725 -0.005180 0.000000 0.000000 0.000000
# 2 -0.007725 0.029700 -0.005160 0.000000 0.000000 0.000000
# 3 -0.005180 -0.005160 0.013611 0.000000 0.000000 0.000000
# 4 0.000000 0.000000 0.000000 0.063039 0.000000 0.000000
# 5 0.000000 0.000000 0.000000 0.000000 0.032585 0.000000
# 6 0.000000 0.000000 0.000000 0.000000 0.000000 0.040514
#
#
# Mechanical properties :
#
#
# Convention : Reuss Voigt Hill
#
# Bulk Modulus (GPa) = 43.49405 52.63181 48.06293
# Shear Modulus (GPa) = 20.91579 23.17417 22.04498
#
# Velocity S-wave (km/s) = 3.44063 3.62162 3.53228
# Velocity P-wave (km/s) = 6.35615 6.87581 6.62108
#
# Compressibility (1/GPa) = 0.02299165
#
# Stress axis : x y z
#
# Youngs Moduli (GPa) = 63.24549 33.67004 73.47160
#
# Poissons Ratio (x) = 0.26010 0.38061
# Poissons Ratio (y) = 0.48856 0.37912
# Poissons Ratio (z) = 0.32763 0.17374
#
# Static dielectric constant tensor:
#      x y z
#    x 3.338650 0.000000 0.000000 
#    y 0.000000 2.968640 0.000000 
#    z 0.000000 0.000000 3.274570 
# 
# 
# High freq. dielectric constant tensor:
#      x y z
#    x 1.692350 0.000000 0.000000 
#    y 0.000000 1.644120 0.000000 
#    z 0.000000 0.000000 1.678420 
# 
# From -- ./inp_files/32321.got.cif
#   From: 2010.03.12/outbox.cif.g09.slc.cpg/sg51_17_cif.got.tgz:32321.got - 2010.04.16 13:43:02.
