data_PCOD8206163
_publ_section_title
;
Structure prediction by ZEFSAII (Michael W. Deem and Ramdas Pophale) SiO2 
 PCOD8206163
Probable space group: P M M A
;
_chemical_formula_sum "Si O2"
_cell_formula_units_Z 56
_cell_length_a 9.281819
_cell_length_b 14.278178
_cell_length_c 26.127799
_cell_angle_alpha 90.000000
_cell_angle_beta 90.000000
_cell_angle_gamma 90.000000
_cell_volume 3462.650937
_symmetry_space_group_name_H-M "P M M A"
_symmetry_group_IT_number 51
_symmetry_cell_setting 'orthorhombic'
loop_
_space_group_symop_operation_xyz
x,y,z
1/2-x,-y,z
1/2+x,-y,-z
-x,y,-z
-x,-y,-z
1/2+x,y,-z
1/2-x,y,z
x,-y,z
loop_
_atom_site_type_symbol
_atom_site_label
_atom_site_fract_x
_atom_site_fract_y
_atom_site_fract_z
Si Si1 0.579172 0.105157 0.351663
Si Si2 0.078666 0.776903 0.550211
Si Si3 0.583961 0.605818 0.710531
Si Si4 0.421864 0.895584 0.841374
Si Si5 0.590437 0.111576 0.046870
Si Si6 0.084418 0.393216 0.408379
Si Si7 0.078757 0.221644 0.745519
O O1 0.750000 0.100973 0.349086
O O2 0.529208 0.157454 0.403013
O O3 0.520385 0.160962 0.302379
O O4 0.515039 0.000000 0.351462
O O5 0.250000 0.775884 0.542678
O O6 0.000000 0.817727 0.500000
O O7 0.023157 0.671458 0.559469
O O8 0.750000 0.629712 0.720614
O O9 0.549159 0.500000 0.727869
O O10 0.546582 0.618412 0.651083
O O11 0.485692 0.674510 0.743845
O O12 0.250000 0.898893 0.842136
O O13 0.475938 0.860783 0.897486
O O14 0.478301 0.826215 0.797531
O O15 0.480753 0.000000 0.829563
O O16 0.750000 0.153548 0.041371
O O17 0.595221 0.000000 0.043392
O O18 0.500000 0.154870 0.000000
O O19 0.250000 0.364150 0.418854
O O20 0.058392 0.500000 0.425640
O O21 0.250000 0.228897 0.744421
#
# Coordination Sequence:
#
# PCOD8206163 Si02
#       7
#     8   8   8   8   8   8   8
#     4   9  18  32  49  69  91 115 146 182 220 260
#     4  11  22  35  51  71  92 116 146 183 222 262
#     4   9  18  32  49  68  93 122 144 170 219 276
#     4   8  14  24  40  64  93 124 156 188 225 265
#     4   8  13  22  36  55  82 119 159 192 221 256
#     4   9  18  34  54  72  91 116 143 174 218 270
#     4  10  17  28  49  73  92 115 149 188 222 257
#
# _framework density 16.172581000000001
#
# number of rings (size 3 to 8) (size 9 to 14) (size 15 to 20)
#    0.000    2.857    1.429    2.571    0.000    2.857 
#    0.000    2.143    0.000    5.571    0.000    0.000 
#    0.000    0.571    0.000    1.286    0.000    2.286 
#
# Total GULP energy -694200.176482 kJ/mol
# GULP energy per Si atom -12396.431723 kJ/mol
# Density = 1.613577 g / cm^3
# Si number density = 16.172581 Si / 1000 Ang^3
#
#
#
# Elastic Constant Matrix: (Units=GPa)
#
#
# Indices 1 2 3 4 5 6 
#
# 1 41.8796 26.7121 37.5297 0.0000 0.0000 0.0000
# 2 26.7121 84.1646 52.4293 0.0000 0.0000 0.0000
# 3 37.5297 52.4293 133.6531 0.0000 0.0000 0.0000
# 4 0.0000 0.0000 0.0000 17.4434 0.0000 0.0000
# 5 0.0000 0.0000 0.0000 0.0000 22.6240 0.0000
# 6 0.0000 0.0000 0.0000 0.0000 0.0000 16.6478
#
#
#
# Elastic Compliance Matrix: (Units=1/GPa)
#
#
# Indices 1 2 3 4 5 6 
#
# 1 0.034387 -0.006483 -0.007113 0.000000 0.000000 0.000000
# 2 -0.006483 0.016946 -0.004827 0.000000 0.000000 0.000000
# 3 -0.007113 -0.004827 0.011373 0.000000 0.000000 0.000000
# 4 0.000000 0.000000 0.000000 0.057328 0.000000 0.000000
# 5 0.000000 0.000000 0.000000 0.000000 0.044201 0.000000
# 6 0.000000 0.000000 0.000000 0.000000 0.000000 0.060068
#
#
# Mechanical properties :
#
#
# Convention : Reuss Voigt Hill
#
# Bulk Modulus (GPa) = 38.66943 54.78218 46.72580
# Shear Modulus (GPa) = 18.53440 20.87812 19.70626
#
# Velocity S-wave (km/s) = 3.38899 3.59689 3.49449
# Velocity P-wave (km/s) = 6.26706 7.15522 6.72582
#
# Compressibility (1/GPa) = 0.02586022
#
# Stress axis : x y z
#
# Youngs Moduli (GPa) = 29.08085 59.01073 87.92826
#
# Poissons Ratio (x) = 0.38256 0.62541
# Poissons Ratio (y) = 0.18853 0.42445
# Poissons Ratio (z) = 0.20684 0.28486
#
# Static dielectric constant tensor:
#      x y z
#    x 2.818350 0.000000 0.000000 
#    y 0.000000 2.957820 0.000000 
#    z 0.000000 0.000000 3.240310 
# 
# 
# High freq. dielectric constant tensor:
#      x y z
#    x 1.595670 0.000000 0.000000 
#    y 0.000000 1.599610 0.000000 
#    z 0.000000 0.000000 1.618640 
# 
# From -- ./inp_files/35394.got.cif
#   From: 2010.03.12/outbox.cif.g09.slc.cpg/sg51_18_cif.got.tgz:35394.got - 2010.04.16 13:43:02.
