data_PCOD8206690
_publ_section_title
;
Structure prediction by ZEFSAII (Michael W. Deem and Ramdas Pophale) SiO2 
 PCOD8206690
Probable space group: P M M A
;
_chemical_formula_sum "Si O2"
_cell_formula_units_Z 48
_cell_length_a 18.729887
_cell_length_b 13.142964
_cell_length_c 10.601938
_cell_angle_alpha 90.000000
_cell_angle_beta 90.000000
_cell_angle_gamma 90.000000
_cell_volume 2609.839114
_symmetry_space_group_name_H-M "P M M A"
_symmetry_group_IT_number 51
_symmetry_cell_setting 'orthorhombic'
loop_
_space_group_symop_operation_xyz
x,y,z
1/2-x,-y,z
1/2+x,-y,-z
-x,y,-z
-x,-y,-z
1/2+x,y,-z
1/2-x,y,z
x,-y,z
loop_
_atom_site_type_symbol
_atom_site_label
_atom_site_fract_x
_atom_site_fract_y
_atom_site_fract_z
Si Si1 0.048882 0.276002 0.382683
Si Si2 0.092820 0.190274 0.915435
Si Si3 0.068998 0.614297 0.771298
Si Si4 0.056932 0.882445 0.174288
Si Si5 0.834984 0.688287 0.438802
Si Si6 0.667930 0.109529 0.308659
O O1 0.071792 0.176364 0.304159
O O2 0.121596 0.332207 0.431569
O O3 0.000000 0.241870 0.500000
O O4 0.004882 0.354978 0.296841
O O5 0.082590 0.311040 0.890062
O O6 0.158761 0.147132 0.835511
O O7 0.025361 0.127231 0.863774
O O8 0.104771 0.169015 0.063190
O O9 0.062162 0.500000 0.823710
O O10 0.135608 0.617042 0.673232
O O11 0.078361 0.000000 0.191511
O O12 0.750000 0.672246 0.455862
O O13 0.859400 0.803890 0.403696
O O14 0.750000 0.094616 0.333289
O O15 0.629530 0.000000 0.333032
#
# Coordination Sequence:
#
# PCOD8206690 Si02
#       6
#     8   8   8   8   8   8
#     4   9  19  32  46  68  98 129 161 193 231 276
#     4   9  17  30  46  68  94 117 153 200 240 280
#     4   9  18  33  52  71  92 120 155 198 246 287
#     4  10  18  29  48  71  96 126 157 191 232 280
#     4   9  18  31  47  70  97 123 157 197 230 272
#     4   9  16  27  45  66  90 122 154 188 234 280
#
# _framework density 18.391939000000001
#
# number of rings (size 3 to 8) (size 9 to 14) (size 15 to 20)
#    0.000    2.833    0.000    3.000    0.000    4.333 
#    0.000    7.500    0.000    1.000    0.000    0.000 
#    0.000    8.000    0.000    0.000    0.000    0.000 
#
# Total GULP energy -594808.332803 kJ/mol
# GULP energy per Si atom -12391.840267 kJ/mol
# Density = 1.835008 g / cm^3
# Si number density = 18.391939 Si / 1000 Ang^3
#
#
#
# Elastic Constant Matrix: (Units=GPa)
#
#
# Indices 1 2 3 4 5 6 
#
# 1 58.5814 9.6997 9.0108 0.0000 0.0000 0.0000
# 2 9.6997 123.1783 14.8847 0.0000 0.0000 0.0000
# 3 9.0108 14.8847 51.6470 0.0000 0.0000 0.0000
# 4 0.0000 0.0000 0.0000 31.1526 0.0000 0.0000
# 5 0.0000 0.0000 0.0000 0.0000 17.9706 0.0000
# 6 0.0000 0.0000 0.0000 0.0000 0.0000 15.0443
#
#
#
# Elastic Compliance Matrix: (Units=1/GPa)
#
#
# Indices 1 2 3 4 5 6 
#
# 1 0.017673 -0.001056 -0.002779 0.000000 0.000000 0.000000
# 2 -0.001056 0.008474 -0.002258 0.000000 0.000000 0.000000
# 3 -0.002779 -0.002258 0.020498 0.000000 0.000000 0.000000
# 4 0.000000 0.000000 0.000000 0.032100 0.000000 0.000000
# 5 0.000000 0.000000 0.000000 0.000000 0.055646 0.000000
# 6 0.000000 0.000000 0.000000 0.000000 0.000000 0.066471
#
#
# Mechanical properties :
#
#
# Convention : Reuss Voigt Hill
#
# Bulk Modulus (GPa) = 29.02012 33.39967 31.20990
# Shear Modulus (GPa) = 22.26837 26.15427 24.21132
#
# Velocity S-wave (km/s) = 3.48338 3.77510 3.63217
# Velocity P-wave (km/s) = 5.65611 6.09928 5.88187
#
# Compressibility (1/GPa) = 0.03445885
#
# Stress axis : x y z
#
# Youngs Moduli (GPa) = 56.58497 118.00361 48.78557
#
# Poissons Ratio (x) = 0.12459 0.13558
# Poissons Ratio (y) = 0.05974 0.11016
# Poissons Ratio (z) = 0.15725 0.26646
#
# Static dielectric constant tensor:
#      x y z
#    x 3.237580 0.000000 0.000000 
#    y 0.000000 4.042140 0.000000 
#    z 0.000000 0.000000 3.412710 
# 
# 
# High freq. dielectric constant tensor:
#      x y z
#    x 1.688130 0.000000 0.000000 
#    y 0.000000 1.709480 0.000000 
#    z 0.000000 0.000000 1.694430 
# 
# From -- ./inp_files/18106.got.cif
#   From: 2010.03.12/outbox.cif.g09.slc.cpg/sg51_10_cif.got.tgz:18106.got - 2010.04.16 13:43:02.
