data_PCOD8206088
_publ_section_title
;
Structure prediction by ZEFSAII (Michael W. Deem and Ramdas Pophale) SiO2 
 PCOD8206088
Probable space group: P M M A
;
_chemical_formula_sum "Si O2"
_cell_formula_units_Z 56
_cell_length_a 28.689452
_cell_length_b 9.466257
_cell_length_c 12.692855
_cell_angle_alpha 90.000000
_cell_angle_beta 90.000000
_cell_angle_gamma 90.000000
_cell_volume 3447.147466
_symmetry_space_group_name_H-M "P M M A"
_symmetry_group_IT_number 51
_symmetry_cell_setting 'orthorhombic'
loop_
_space_group_symop_operation_xyz
x,y,z
1/2-x,-y,z
1/2+x,-y,-z
-x,y,-z
-x,-y,-z
1/2+x,y,-z
1/2-x,y,z
x,-y,z
loop_
_atom_site_type_symbol
_atom_site_label
_atom_site_fract_x
_atom_site_fract_y
_atom_site_fract_z
Si Si1 0.615730 0.833304 0.132444
Si Si2 0.556070 0.167487 0.331204
Si Si3 0.196838 0.662347 0.785308
Si Si4 0.454031 0.832022 0.283886
Si Si5 0.547811 0.832314 0.951568
Si Si6 0.303098 0.664082 0.542866
Si Si7 0.886975 0.167685 0.532918
O O1 0.583718 0.779825 0.228617
O O2 0.665525 0.757773 0.138558
O O3 0.623801 0.000000 0.137761
O O4 0.591291 0.786604 0.023726
O O5 0.503444 0.227762 0.326447
O O6 0.581552 0.222891 0.435870
O O7 0.554317 0.000000 0.332907
O O8 0.250000 0.686307 0.819874
O O9 0.182464 0.500000 0.799395
O O10 0.189936 0.708740 0.664256
O O11 0.444383 0.773059 0.166378
O O12 0.412464 0.782837 0.360215
O O13 0.456715 0.000000 0.282356
O O14 0.543466 0.000000 0.948728
O O15 0.500000 0.769775 0.000000
O O16 0.250000 0.694384 0.508080
O O17 0.315133 0.500000 0.527460
O O18 0.336738 0.757936 0.470281
O O19 0.879594 0.000000 0.528406
#
# Coordination Sequence:
#
# PCOD8206088 Si02
#       7
#     8   8   8   8   8   8   8
#     4  10  17  26  46  72  94 116 149 191 224 254
#     4   9  15  24  39  66  97 121 145 178 221 263
#     4   9  18  32  48  66  90 120 149 180 229 286
#     4   9  16  26  41  64  96 129 155 179 215 266
#     4   9  15  25  42  66  94 123 154 184 215 258
#     4   9  18  32  48  65  88 119 150 181 225 280
#     4  10  18  27  44  70  96 119 147 187 228 263
#
# _framework density 16.245315000000002
#
# number of rings (size 3 to 8) (size 9 to 14) (size 15 to 20)
#    0.000    2.714    2.857    1.286    0.000    2.286 
#    0.000    1.429    0.000    4.714    0.000    6.000 
#    0.000    0.000    0.000    0.000    0.000    0.000 
#
# Total GULP energy -694268.449157 kJ/mol
# GULP energy per Si atom -12397.650878 kJ/mol
# Density = 1.620834 g / cm^3
# Si number density = 16.245315 Si / 1000 Ang^3
#
#
#
# Elastic Constant Matrix: (Units=GPa)
#
#
# Indices 1 2 3 4 5 6 
#
# 1 127.7662 40.5024 64.4812 0.0000 0.0000 0.0000
# 2 40.5024 28.2464 24.2869 0.0000 0.0000 0.0000
# 3 64.4812 24.2869 117.1335 0.0000 0.0000 0.0000
# 4 0.0000 0.0000 0.0000 11.2776 0.0000 0.0000
# 5 0.0000 0.0000 0.0000 0.0000 26.0072 0.0000
# 6 0.0000 0.0000 0.0000 0.0000 0.0000 5.0084
#
#
#
# Elastic Compliance Matrix: (Units=1/GPa)
#
#
# Indices 1 2 3 4 5 6 
#
# 1 0.016515 -0.019305 -0.005088 0.000000 0.000000 0.000000
# 2 -0.019305 0.065651 -0.002985 0.000000 0.000000 0.000000
# 3 -0.005088 -0.002985 0.011957 0.000000 0.000000 0.000000
# 4 0.000000 0.000000 0.000000 0.088671 0.000000 0.000000
# 5 0.000000 0.000000 0.000000 0.000000 0.038451 0.000000
# 6 0.000000 0.000000 0.000000 0.000000 0.000000 0.199663
#
#
# Mechanical properties :
#
#
# Convention : Reuss Voigt Hill
#
# Bulk Modulus (GPa) = 25.40272 59.07634 42.23953
# Shear Modulus (GPa) = 10.22941 18.05035 14.13988
#
# Velocity S-wave (km/s) = 2.51207 3.33695 2.95345
# Velocity P-wave (km/s) = 4.90764 7.16178 6.13905
#
# Compressibility (1/GPa) = 0.03936586
#
# Stress axis : x y z
#
# Youngs Moduli (GPa) = 60.55245 15.23208 83.63086
#
# Poissons Ratio (x) = 0.29406 0.42555
# Poissons Ratio (y) = 1.16897 0.24964
# Poissons Ratio (z) = 0.30811 0.04547
#
# Static dielectric constant tensor:
#      x y z
#    x 3.097070 0.000000 0.000000 
#    y 0.000000 2.598100 0.000000 
#    z 0.000000 0.000000 3.144520 
# 
# 
# High freq. dielectric constant tensor:
#      x y z
#    x 1.628840 0.000000 0.000000 
#    y 0.000000 1.576580 0.000000 
#    z 0.000000 0.000000 1.612440 
# 
# From -- ./inp_files/19197.got.cif
#   From: 2010.03.12/outbox.cif.g09.slc.cpg/sg51_10_cif.got.tgz:19197.got - 2010.04.16 13:43:02.
