data_PCOD8206188
_publ_section_title
;
Structure prediction by ZEFSAII (Michael W. Deem and Ramdas Pophale) SiO2 
 PCOD8206188
Probable space group: P M M A
;
_chemical_formula_sum "Si O2"
_cell_formula_units_Z 56
_cell_length_a 21.705296
_cell_length_b 8.584267
_cell_length_c 16.762634
_cell_angle_alpha 90.000000
_cell_angle_beta 90.000000
_cell_angle_gamma 90.000000
_cell_volume 3123.281959
_symmetry_space_group_name_H-M "P M M A"
_symmetry_group_IT_number 51
_symmetry_cell_setting 'orthorhombic'
loop_
_space_group_symop_operation_xyz
x,y,z
1/2-x,-y,z
1/2+x,-y,-z
-x,y,-z
-x,-y,-z
1/2+x,y,-z
1/2-x,y,z
x,-y,z
loop_
_atom_site_type_symbol
_atom_site_label
_atom_site_fract_x
_atom_site_fract_y
_atom_site_fract_z
Si Si1 0.181855 0.818230 0.540098
Si Si2 0.317676 0.184491 0.858567
Si Si3 0.520022 0.318492 0.881252
Si Si4 0.060668 0.184015 0.453953
Si Si5 0.412958 0.818717 0.984193
Si Si6 0.486806 0.318404 0.299884
Si Si7 0.617669 0.181655 0.298862
O O1 0.250000 0.745417 0.520216
O O2 0.124963 0.745496 0.489049
O O3 0.168581 0.789471 0.633446
O O4 0.185029 0.000000 0.521421
O O5 0.250000 0.259638 0.858830
O O6 0.349090 0.229190 0.942359
O O7 0.356036 0.250434 0.783795
O O8 0.313888 0.000000 0.848050
O O9 0.502914 0.500000 0.886637
O O10 0.466082 0.216530 0.919859
O O11 0.530543 0.266407 0.790132
O O12 0.580655 0.281038 0.934359
O O13 0.000000 0.251408 0.500000
O O14 0.057910 0.228812 0.360885
O O15 0.061573 0.000000 0.465373
O O16 0.415042 0.000000 0.005924
O O17 0.476100 0.500000 0.311723
O O18 0.556768 0.276300 0.320608
O O19 0.599833 0.000000 0.292954
#
# Coordination Sequence:
#
# PCOD8206188 Si02
#       7
#     8   8   8   8   8   8   8
#     4   9  17  30  51  77 102 130 166 206 250 301
#     4   9  17  28  46  75 106 133 161 199 247 296
#     4  10  20  33  48  67  97 131 162 201 248 292
#     4  10  19  33  53  77 101 129 167 210 254 300
#     4  10  18  29  50  75  97 124 163 204 241 289
#     4  11  22  33  49  73 103 136 168 207 252 295
#     4  10  17  30  51  74 103 135 167 200 242 299
#
# _framework density 17.929856000000001
#
# number of rings (size 3 to 8) (size 9 to 14) (size 15 to 20)
#    0.000    2.143    2.857    2.571    0.000    3.714 
#    0.000    0.000    0.000    7.286    0.000    6.000 
#    0.000    0.000    0.000    0.000    0.000    0.000 
#
# Total GULP energy -694164.599283 kJ/mol
# GULP energy per Si atom -12395.796416 kJ/mol
# Density = 1.788905 g / cm^3
# Si number density = 17.929856 Si / 1000 Ang^3
#
#
#
# Elastic Constant Matrix: (Units=GPa)
#
#
# Indices 1 2 3 4 5 6 
#
# 1 116.2451 9.6472 55.4425 0.0000 0.0000 0.0000
# 2 9.6472 15.8852 12.4876 0.0000 0.0000 0.0000
# 3 55.4425 12.4876 111.2083 0.0000 0.0000 0.0000
# 4 0.0000 0.0000 0.0000 23.6573 0.0000 0.0000
# 5 0.0000 0.0000 0.0000 0.0000 25.7262 0.0000
# 6 0.0000 0.0000 0.0000 0.0000 0.0000 4.1696
#
#
#
# Elastic Compliance Matrix: (Units=1/GPa)
#
#
# Indices 1 2 3 4 5 6 
#
# 1 0.011390 -0.002691 -0.005376 0.000000 0.000000 0.000000
# 2 -0.002691 0.069682 -0.006483 0.000000 0.000000 0.000000
# 3 -0.005376 -0.006483 0.012400 0.000000 0.000000 0.000000
# 4 0.000000 0.000000 0.000000 0.042270 0.000000 0.000000
# 5 0.000000 0.000000 0.000000 0.000000 0.038871 0.000000
# 6 0.000000 0.000000 0.000000 0.000000 0.000000 0.239830
#
#
# Mechanical properties :
#
#
# Convention : Reuss Voigt Hill
#
# Bulk Modulus (GPa) = 15.53462 44.27703 29.90582
# Shear Modulus (GPa) = 10.75264 21.76138 16.25701
#
# Velocity S-wave (km/s) = 2.45155 3.48759 3.01441
# Velocity P-wave (km/s) = 4.08612 6.40046 5.36946
#
# Compressibility (1/GPa) = 0.06437237
#
# Stress axis : x y z
#
# Youngs Moduli (GPa) = 87.79616 14.35081 80.64228
#
# Poissons Ratio (x) = 0.03862 0.43356
# Poissons Ratio (y) = 0.23625 0.52281
# Poissons Ratio (z) = 0.47202 0.09304
#
# Static dielectric constant tensor:
#      x y z
#    x 3.524640 0.000000 0.000000 
#    y 0.000000 3.011670 0.000000 
#    z 0.000000 0.000000 3.524540 
# 
# 
# High freq. dielectric constant tensor:
#      x y z
#    x 1.676760 0.000000 0.000000 
#    y 0.000000 1.663840 0.000000 
#    z 0.000000 0.000000 1.695820 
# 
# From -- ./inp_files/30762.got.cif
#   From: 2010.03.12/outbox.cif.g09.slc.cpg/sg51_16_cif.got.tgz:30762.got - 2010.04.16 13:43:02.
