data_PCOD8206638
_publ_section_title
;
Structure prediction by ZEFSAII (Michael W. Deem and Ramdas Pophale) SiO2 
 PCOD8206638
Probable space group: P M M A
;
_chemical_formula_sum "Si O2"
_cell_formula_units_Z 64
_cell_length_a 26.828589
_cell_length_b 9.215453
_cell_length_c 16.717262
_cell_angle_alpha 90.000000
_cell_angle_beta 90.000000
_cell_angle_gamma 90.000000
_cell_volume 4133.135752
_symmetry_space_group_name_H-M "P M M A"
_symmetry_group_IT_number 51
_symmetry_cell_setting 'orthorhombic'
loop_
_space_group_symop_operation_xyz
x,y,z
1/2-x,-y,z
1/2+x,-y,-z
-x,y,-z
-x,-y,-z
1/2+x,y,-z
1/2-x,y,z
x,-y,z
loop_
_atom_site_type_symbol
_atom_site_label
_atom_site_fract_x
_atom_site_fract_y
_atom_site_fract_z
Si Si1 0.424852 0.834676 0.871184
Si Si2 0.943502 0.829303 0.649099
Si Si3 0.942083 0.336156 0.979408
Si Si4 0.622352 0.168727 0.290623
Si Si5 0.459109 0.334292 0.611168
Si Si6 0.807517 0.330575 0.399539
Si Si7 0.114677 0.663180 0.469527
Si Si8 0.036462 0.832096 0.170557
O O1 0.381417 0.813050 0.805349
O O2 0.477974 0.790996 0.831946
O O3 0.427303 0.000000 0.900688
O O4 0.411578 0.738071 0.948369
O O5 0.893247 0.769890 0.606198
O O6 0.941696 0.791068 0.742872
O O7 0.988706 0.747162 0.606491
O O8 0.949183 0.000000 0.634940
O O9 0.923378 0.500000 0.971428
O O10 0.932218 0.256786 0.895297
O O11 0.000000 0.324606 0.000000
O O12 0.575360 0.250543 0.326743
O O13 0.673390 0.239903 0.322889
O O14 0.620144 0.000000 0.315120
O O15 0.466707 0.500000 0.640316
O O16 0.434534 0.331915 0.524074
O O17 0.750000 0.295111 0.413941
O O18 0.817323 0.500000 0.381814
O O19 0.837652 0.283268 0.478987
O O20 0.123835 0.500000 0.437859
O O21 0.044449 0.000000 0.151383
#
# Coordination Sequence:
#
# PCOD8206638 Si02
#       8
#     8   8   8   8   8   8   8   8
#     4   9  16  28  42  57  84 118 147 178 216 258
#     4  11  20  29  42  62  87 117 152 187 221 259
#     4   9  17  26  38  59  81 108 150 188 213 244
#     4  10  18  29  46  69  91 114 150 187 222 265
#     4  10  19  30  43  59  86 120 151 183 221 262
#     4   9  19  36  53  67  88 117 146 180 227 276
#     4   9  19  32  44  62  84 112 147 181 222 269
#     4   9  17  29  40  54  82 120 152 178 217 259
#
# _framework density 15.484610999999999
#
# number of rings (size 3 to 8) (size 9 to 14) (size 15 to 20)
#    0.000    2.500    1.250    2.625    0.000    7.750 
#    0.000    0.000    0.000    0.000    0.000    0.000 
#    0.000    1.000    0.000    7.500    0.000    3.875 
#
# Total GULP energy -793495.006887 kJ/mol
# GULP energy per Si atom -12398.359483 kJ/mol
# Density = 1.544937 g / cm^3
# Si number density = 15.484611 Si / 1000 Ang^3
#
#
#
# Elastic Constant Matrix: (Units=GPa)
#
#
# Indices 1 2 3 4 5 6 
#
# 1 60.4572 37.2895 44.2546 0.0000 0.0000 0.0000
# 2 37.2895 94.3979 61.0771 0.0000 0.0000 0.0000
# 3 44.2546 61.0771 106.4779 0.0000 0.0000 0.0000
# 4 0.0000 0.0000 0.0000 22.9209 0.0000 0.0000
# 5 0.0000 0.0000 0.0000 0.0000 12.1854 0.0000
# 6 0.0000 0.0000 0.0000 0.0000 0.0000 15.3030
#
#
#
# Elastic Compliance Matrix: (Units=1/GPa)
#
#
# Indices 1 2 3 4 5 6 
#
# 1 0.025204 -0.005054 -0.007576 0.000000 0.000000 0.000000
# 2 -0.005054 0.017859 -0.008143 0.000000 0.000000 0.000000
# 3 -0.007576 -0.008143 0.017212 0.000000 0.000000 0.000000
# 4 0.000000 0.000000 0.000000 0.043628 0.000000 0.000000
# 5 0.000000 0.000000 0.000000 0.000000 0.082065 0.000000
# 6 0.000000 0.000000 0.000000 0.000000 0.000000 0.065347
#
#
# Mechanical properties :
#
#
# Convention : Reuss Voigt Hill
#
# Bulk Modulus (GPa) = 53.39960 60.73059 57.06510
# Shear Modulus (GPa) = 16.71655 17.99596 17.35626
#
# Velocity S-wave (km/s) = 3.28923 3.41278 3.35157
# Velocity P-wave (km/s) = 6.99899 7.40503 7.20487
#
# Compressibility (1/GPa) = 0.01872673
#
# Stress axis : x y z
#
# Youngs Moduli (GPa) = 39.67671 55.99415 58.10033
#
# Poissons Ratio (x) = 0.28301 0.44017
# Poissons Ratio (y) = 0.20054 0.47314
# Poissons Ratio (z) = 0.30059 0.45599
#
# Static dielectric constant tensor:
#      x y z
#    x 2.618610 0.000000 0.000000 
#    y 0.000000 3.072130 0.000000 
#    z 0.000000 0.000000 2.995160 
# 
# 
# High freq. dielectric constant tensor:
#      x y z
#    x 1.534700 0.000000 0.000000 
#    y 0.000000 1.605890 0.000000 
#    z 0.000000 0.000000 1.592730 
# 
# From -- ./inp_files/31008.got.cif
#   From: 2010.03.12/outbox.cif.g09.slc.cpg/sg51_16_cif.got.tgz:31008.got - 2010.04.16 13:43:02.
