data_PCOD8206301
_publ_section_title
;
Structure prediction by ZEFSAII (Michael W. Deem and Ramdas Pophale) SiO2 
 PCOD8206301
Probable space group: P M M A
;
_chemical_formula_sum "Si O2"
_cell_formula_units_Z 52
_cell_length_a 8.941101
_cell_length_b 26.574458
_cell_length_c 13.551069
_cell_angle_alpha 90.000000
_cell_angle_beta 90.000000
_cell_angle_gamma 90.000000
_cell_volume 3219.800571
_symmetry_space_group_name_H-M "P M M A"
_symmetry_group_IT_number 51
_symmetry_cell_setting 'orthorhombic'
loop_
_space_group_symop_operation_xyz
x,y,z
1/2-x,-y,z
1/2+x,-y,-z
-x,y,-z
-x,-y,-z
1/2+x,y,-z
1/2-x,y,z
x,-y,z
loop_
_atom_site_type_symbol
_atom_site_label
_atom_site_fract_x
_atom_site_fract_y
_atom_site_fract_z
Si Si1 0.075652 0.752433 0.717914
Si Si2 0.425476 0.147951 0.604312
Si Si3 0.573763 0.000000 0.893947
Si Si4 0.574811 0.445374 0.606340
Si Si5 0.926654 0.348248 0.393337
Si Si6 0.424835 0.200619 0.103687
Si Si7 0.425235 0.100386 0.215968
O O1 0.250000 0.755385 0.743430
O O2 0.031622 0.795984 0.640305
O O3 0.028965 0.699192 0.672713
O O4 0.984073 0.758553 0.818466
O O5 0.500000 0.137377 0.500000
O O6 0.250000 0.140783 0.593272
O O7 0.486520 0.107159 0.682010
O O8 0.520975 0.048673 0.833207
O O9 0.750000 0.000000 0.909963
O O10 0.500000 0.000000 0.000000
O O11 0.500000 0.448126 0.500000
O O12 0.750000 0.433960 0.595521
O O13 0.549606 0.500000 0.659415
O O14 0.493977 0.398399 0.660900
O O15 0.750000 0.353453 0.405356
O O16 0.000000 0.340923 0.500000
O O17 0.250000 0.207696 0.091400
O O18 0.467489 0.144797 0.140251
O O19 0.500000 0.211394 0.000000
O O20 0.250000 0.100362 0.240147
#
# Coordination Sequence:
#
# PCOD8206301 Si02
#       7
#     8   8   4   8   8   8   8
#     4   9  19  32  45  65  91 118 150 185 222 265
#     4  10  19  32  50  69  92 122 153 187 223 263
#     4  10  20  34  53  74  97 120 145 184 228 270
#     4   9  16  25  37  54  79 113 151 187 221 259
#     4  10  18  27  41  61  87 118 150 186 223 261
#     4  10  19  31  49  69  91 118 146 179 220 266
#     4   9  19  34  50  71  95 120 150 182 219 264
#
# _framework density 16.150068000000001
#
# number of rings (size 3 to 8) (size 9 to 14) (size 15 to 20)
#    0.000    2.462    0.000    3.692    0.000    4.000 
#    0.000    0.385    0.000    0.000    0.000    0.000 
#    0.000    0.615    0.000    2.000    0.000    3.231 
#
# Total GULP energy -644704.477178 kJ/mol
# GULP energy per Si atom -12398.163023 kJ/mol
# Density = 1.611331 g / cm^3
# Si number density = 16.150068 Si / 1000 Ang^3
#
#
#
# Elastic Constant Matrix: (Units=GPa)
#
#
# Indices 1 2 3 4 5 6 
#
# 1 75.4768 51.6278 55.7242 0.0000 0.0000 0.0000
# 2 51.6278 142.3043 64.7232 0.0000 0.0000 0.0000
# 3 55.7242 64.7232 117.3673 0.0000 0.0000 0.0000
# 4 0.0000 0.0000 0.0000 13.5316 0.0000 0.0000
# 5 0.0000 0.0000 0.0000 0.0000 28.0937 0.0000
# 6 0.0000 0.0000 0.0000 0.0000 0.0000 25.4655
#
#
#
# Elastic Compliance Matrix: (Units=1/GPa)
#
#
# Indices 1 2 3 4 5 6 
#
# 1 0.022260 -0.004363 -0.008163 0.000000 0.000000 0.000000
# 2 -0.004363 0.010235 -0.003573 0.000000 0.000000 0.000000
# 3 -0.008163 -0.003573 0.014366 0.000000 0.000000 0.000000
# 4 0.000000 0.000000 0.000000 0.073901 0.000000 0.000000
# 5 0.000000 0.000000 0.000000 0.000000 0.035595 0.000000
# 6 0.000000 0.000000 0.000000 0.000000 0.000000 0.039269
#
#
# Mechanical properties :
#
#
# Convention : Reuss Voigt Hill
#
# Bulk Modulus (GPa) = 68.19395 75.47764 71.83580
# Shear Modulus (GPa) = 21.48587 24.28972 22.88780
#
# Velocity S-wave (km/s) = 3.65141 3.88235 3.76865
# Velocity P-wave (km/s) = 7.75202 8.18129 7.96955
#
# Compressibility (1/GPa) = 0.01466406
#
# Stress axis : x y z
#
# Youngs Moduli (GPa) = 44.92330 97.70284 69.60971
#
# Poissons Ratio (x) = 0.42632 0.56819
# Poissons Ratio (y) = 0.19602 0.24868
# Poissons Ratio (z) = 0.36669 0.34905
#
# Static dielectric constant tensor:
#      x y z
#    x 3.143710 0.000000 0.000000 
#    y 0.000000 3.531110 0.000000 
#    z 0.000000 0.000000 2.811440 
# 
# 
# High freq. dielectric constant tensor:
#      x y z
#    x 1.633840 0.000000 0.000000 
#    y 0.000000 1.623390 0.000000 
#    z 0.000000 0.000000 1.588950 
# 
# From -- ./inp_files/14649.got.cif
#   From: 2010.03.12/outbox.cif.g09.slc.cpg/sg51_8_cif.got.tgz:14649.got - 2010.04.16 13:43:02.
