data_PCOD8206407
_publ_section_title
;
Structure prediction by ZEFSAII (Michael W. Deem and Ramdas Pophale) SiO2 
 PCOD8206407
Probable space group: P M M A
;
_chemical_formula_sum "Si O2"
_cell_formula_units_Z 64
_cell_length_a 8.734364
_cell_length_b 18.463370
_cell_length_c 26.462815
_cell_angle_alpha 90.000000
_cell_angle_beta 90.000000
_cell_angle_gamma 90.000000
_cell_volume 4267.546879
_symmetry_space_group_name_H-M "P M M A"
_symmetry_group_IT_number 51
_symmetry_cell_setting 'orthorhombic'
loop_
_space_group_symop_operation_xyz
x,y,z
1/2-x,-y,z
1/2+x,-y,-z
-x,y,-z
-x,-y,-z
1/2+x,y,-z
1/2-x,y,z
x,-y,z
loop_
_atom_site_type_symbol
_atom_site_label
_atom_site_fract_x
_atom_site_fract_y
_atom_site_fract_z
Si Si1 0.429321 0.416745 0.945829
Si Si2 0.068979 0.338057 0.147120
Si Si3 0.917267 0.709921 0.300128
Si Si4 0.933127 0.151613 0.349237
Si Si5 0.566988 0.418364 0.240607
Si Si6 0.929119 0.916027 0.552784
Si Si7 0.919552 0.793771 0.195596
Si Si8 0.927169 0.916806 0.747366
O O1 0.250000 0.399650 0.946530
O O2 0.460381 0.500000 0.930369
O O3 0.512886 0.363584 0.907274
O O4 0.500000 0.399681 0.000000
O O5 0.250000 0.339046 0.150112
O O6 0.003527 0.394604 0.187704
O O7 0.011722 0.255834 0.155974
O O8 0.750000 0.692630 0.322445
O O9 0.998819 0.766202 0.338599
O O10 0.997760 0.632810 0.286776
O O11 0.904019 0.751091 0.247397
O O12 0.750000 0.151330 0.347159
O O13 0.990901 0.129582 0.403816
O O14 0.992388 0.097094 0.306481
O O15 0.750000 0.409816 0.236254
O O16 0.517512 0.500000 0.253002
O O17 0.750000 0.900255 0.552562
O O18 0.000000 0.890045 0.500000
O O19 0.965732 0.000000 0.562263
O O20 0.750000 0.810260 0.173891
O O21 0.005626 0.869295 0.206657
O O22 0.750000 0.897620 0.740440
O O23 0.953188 0.000000 0.762267
#
# Coordination Sequence:
#
# PCOD8206407 Si02
#       8
#     8   8   8   8   8   8   8   8
#     4  10  20  33  47  63  85 113 146 183 219 254
#     4  11  20  29  43  62  86 115 145 177 216 259
#     4   7  13  25  39  57  79 104 136 172 206 241
#     4  10  18  28  43  60  82 114 147 175 206 248
#     4   9  16  27  43  61  83 113 147 179 209 245
#     4  10  20  32  44  59  80 105 136 175 214 251
#     4   9  17  30  45  60  81 110 145 180 212 250
#     4  10  19  29  42  63  90 116 143 176 213 253
#
# _framework density 14.996905999999999
#
# number of rings (size 3 to 8) (size 9 to 14) (size 15 to 20)
#    0.000    2.500    0.000    5.250    0.000    5.750 
#    0.000    0.625    0.000    0.000    0.000    0.000 
#    0.000    1.000    0.000    2.750    0.000    4.125 
#
# Total GULP energy -793162.706949 kJ/mol
# GULP energy per Si atom -12393.167296 kJ/mol
# Density = 1.496277 g / cm^3
# Si number density = 14.996906 Si / 1000 Ang^3
#
#
#
# Elastic Constant Matrix: (Units=GPa)
#
#
# Indices 1 2 3 4 5 6 
#
# 1 77.8559 44.7835 35.9740 0.0000 0.0000 0.0000
# 2 44.7835 109.8842 56.1998 0.0000 0.0000 0.0000
# 3 35.9740 56.1998 75.5547 0.0000 0.0000 0.0000
# 4 0.0000 0.0000 0.0000 29.3980 0.0000 0.0000
# 5 0.0000 0.0000 0.0000 0.0000 23.7974 0.0000
# 6 0.0000 0.0000 0.0000 0.0000 0.0000 19.9548
#
#
#
# Elastic Compliance Matrix: (Units=1/GPa)
#
#
# Indices 1 2 3 4 5 6 
#
# 1 0.017871 -0.004732 -0.004990 0.000000 0.000000 0.000000
# 2 -0.004732 0.015941 -0.009605 0.000000 0.000000 0.000000
# 3 -0.004990 -0.009605 0.022755 0.000000 0.000000 0.000000
# 4 0.000000 0.000000 0.000000 0.034016 0.000000 0.000000
# 5 0.000000 0.000000 0.000000 0.000000 0.042021 0.000000
# 6 0.000000 0.000000 0.000000 0.000000 0.000000 0.050113
#
#
# Mechanical properties :
#
#
# Convention : Reuss Voigt Hill
#
# Bulk Modulus (GPa) = 55.81545 59.68994 57.75269
# Shear Modulus (GPa) = 21.99328 23.05254 22.52291
#
# Velocity S-wave (km/s) = 3.83367 3.92491 3.87956
# Velocity P-wave (km/s) = 7.54287 7.77353 7.65907
#
# Compressibility (1/GPa) = 0.01791619
#
# Stress axis : x y z
#
# Youngs Moduli (GPa) = 55.95530 62.73098 43.94571
#
# Poissons Ratio (x) = 0.29682 0.21927
# Poissons Ratio (y) = 0.26476 0.42208
# Poissons Ratio (z) = 0.27920 0.60251
#
# Static dielectric constant tensor:
#      x y z
#    x 2.962020 0.000000 0.000000 
#    y 0.000000 3.158960 0.000000 
#    z 0.000000 0.000000 2.596700 
# 
# 
# High freq. dielectric constant tensor:
#      x y z
#    x 1.580800 0.000000 0.000000 
#    y 0.000000 1.567950 0.000000 
#    z 0.000000 0.000000 1.541050 
# 
# From -- ./inp_files/36412.got.cif
#   From: 2010.03.12/outbox.cif.g09.slc.cpg/sg51_19_cif.got.tgz:36412.got - 2010.04.16 13:43:02.
