data_PCOD8206552
_publ_section_title
;
Structure prediction by ZEFSAII (Michael W. Deem and Ramdas Pophale) SiO2 
 PCOD8206552
Probable space group: P M M A
;
_chemical_formula_sum "Si O2"
_cell_formula_units_Z 64
_cell_length_a 26.143199
_cell_length_b 9.094493
_cell_length_c 17.054100
_cell_angle_alpha 90.000000
_cell_angle_beta 90.000000
_cell_angle_gamma 90.000000
_cell_volume 4054.768155
_symmetry_space_group_name_H-M "P M M A"
_symmetry_group_IT_number 51
_symmetry_cell_setting 'orthorhombic'
loop_
_space_group_symop_operation_xyz
x,y,z
1/2-x,-y,z
1/2+x,-y,-z
-x,y,-z
-x,-y,-z
1/2+x,y,-z
1/2-x,y,z
x,-y,z
loop_
_atom_site_type_symbol
_atom_site_label
_atom_site_fract_x
_atom_site_fract_y
_atom_site_fract_z
Si Si1 0.101156 0.330558 0.017603
Si Si2 0.131673 0.163903 0.788691
Si Si3 0.035503 0.834365 0.901412
Si Si4 0.943489 0.669422 0.823568
Si Si5 0.572963 0.827298 0.361798
Si Si6 0.693105 0.672937 0.089210
Si Si7 0.060022 0.333978 0.485174
Si Si8 0.544191 0.827207 0.668015
O O1 0.090697 0.500000 0.993887
O O2 0.054549 0.231443 0.984461
O O3 0.155357 0.277355 0.981381
O O4 0.102070 0.313004 0.112070
O O5 0.082650 0.161951 0.843236
O O6 0.113994 0.223035 0.703514
O O7 0.175163 0.265182 0.826628
O O8 0.154156 0.000000 0.780350
O O9 0.994621 0.727378 0.863527
O O10 0.013943 0.000000 0.913526
O O11 0.951280 0.500000 0.799670
O O12 0.929973 0.761813 0.746238
O O13 0.587762 0.742037 0.441105
O O14 0.515942 0.787343 0.332082
O O15 0.575907 0.000000 0.378777
O O16 0.750000 0.732287 0.069838
O O17 0.693515 0.500000 0.097915
O O18 0.080244 0.500000 0.476294
O O19 0.072730 0.244369 0.406357
O O20 0.000000 0.329571 0.500000
O O21 0.553686 0.000000 0.665967
#
# Coordination Sequence:
#
# PCOD8206552 Si02
#       8
#     8   8   8   8   8   8   8   8
#     4   9  19  32  43  60  83 110 141 177 221 263
#     4   9  17  29  44  64  87 112 144 178 215 258
#     4  10  18  29  42  59  83 113 146 178 211 251
#     4  11  20  28  40  58  85 115 145 180 217 255
#     4   9  16  28  42  58  83 114 146 178 210 248
#     4   9  18  33  50  65  83 109 142 180 222 266
#     4   9  17  27  39  59  83 111 148 181 210 244
#     4  10  18  29  42  57  82 117 152 181 212 247
#
# _framework density 15.783886000000001
#
# number of rings (size 3 to 8) (size 9 to 14) (size 15 to 20)
#    0.000    2.500    1.250    1.875    0.000    5.750 
#    0.000    0.000    0.000    0.000    0.000    0.000 
#    0.000    1.000    0.000    5.250    0.000    2.625 
#
# Total GULP energy -793431.420547 kJ/mol
# GULP energy per Si atom -12397.365946 kJ/mol
# Density = 1.574796 g / cm^3
# Si number density = 15.783886 Si / 1000 Ang^3
#
#
#
# Elastic Constant Matrix: (Units=GPa)
#
#
# Indices 1 2 3 4 5 6 
#
# 1 37.7361 20.6579 26.9171 0.0000 0.0000 0.0000
# 2 20.6579 71.9571 52.2668 0.0000 0.0000 0.0000
# 3 26.9171 52.2668 132.3489 0.0000 0.0000 0.0000
# 4 0.0000 0.0000 0.0000 30.3017 0.0000 0.0000
# 5 0.0000 0.0000 0.0000 0.0000 11.8968 0.0000
# 6 0.0000 0.0000 0.0000 0.0000 0.0000 12.8815
#
#
#
# Elastic Compliance Matrix: (Units=1/GPa)
#
#
# Indices 1 2 3 4 5 6 
#
# 1 0.033001 -0.006449 -0.004165 0.000000 0.000000 0.000000
# 2 -0.006449 0.020747 -0.006882 0.000000 0.000000 0.000000
# 3 -0.004165 -0.006882 0.011121 0.000000 0.000000 0.000000
# 4 0.000000 0.000000 0.000000 0.033002 0.000000 0.000000
# 5 0.000000 0.000000 0.000000 0.000000 0.084056 0.000000
# 6 0.000000 0.000000 0.000000 0.000000 0.000000 0.077631
#
#
# Mechanical properties :
#
#
# Convention : Reuss Voigt Hill
#
# Bulk Modulus (GPa) = 33.47005 49.08065 41.27535
# Shear Modulus (GPa) = 16.41992 20.49600 18.45796
#
# Velocity S-wave (km/s) = 3.22886 3.60744 3.42339
# Velocity P-wave (km/s) = 5.92891 6.96523 6.46786
#
# Compressibility (1/GPa) = 0.02987746
#
# Stress axis : x y z
#
# Youngs Moduli (GPa) = 30.30213 48.19911 89.92298
#
# Poissons Ratio (x) = 0.31083 0.37453
# Poissons Ratio (y) = 0.19541 0.61884
# Poissons Ratio (z) = 0.12621 0.33170
#
# Static dielectric constant tensor:
#      x y z
#    x 2.705350 0.000000 0.000000 
#    y 0.000000 3.166730 0.000000 
#    z 0.000000 0.000000 3.221360 
# 
# 
# High freq. dielectric constant tensor:
#      x y z
#    x 1.542170 0.000000 0.000000 
#    y 0.000000 1.616270 0.000000 
#    z 0.000000 0.000000 1.613240 
# 
# From -- ./inp_files/30818.got.cif
#   From: 2010.03.12/outbox.cif.g09.slc.cpg/sg51_16_cif.got.tgz:30818.got - 2010.04.16 13:43:02.
