data_PCOD8206531
_publ_section_title
;
Structure prediction by ZEFSAII (Michael W. Deem and Ramdas Pophale) SiO2 
 PCOD8206531
Probable space group: P M M A
;
_chemical_formula_sum "Si O2"
_cell_formula_units_Z 48
_cell_length_a 15.561929
_cell_length_b 9.051002
_cell_length_c 18.659851
_cell_angle_alpha 90.000000
_cell_angle_beta 90.000000
_cell_angle_gamma 90.000000
_cell_volume 2628.259616
_symmetry_space_group_name_H-M "P M M A"
_symmetry_group_IT_number 51
_symmetry_cell_setting 'orthorhombic'
loop_
_space_group_symop_operation_xyz
x,y,z
1/2-x,-y,z
1/2+x,-y,-z
-x,y,-z
-x,-y,-z
1/2+x,y,-z
1/2-x,y,z
x,-y,z
loop_
_atom_site_type_symbol
_atom_site_label
_atom_site_fract_x
_atom_site_fract_y
_atom_site_fract_z
Si Si1 0.845591 0.324725 0.071808
Si Si2 0.654714 0.675491 0.911571
Si Si3 0.004295 0.174766 0.327197
Si Si4 0.006834 0.323719 0.822988
Si Si5 0.408223 0.838260 0.536584
Si Si6 0.347513 0.331891 0.409138
O O1 0.750000 0.273525 0.095863
O O2 0.850695 0.500000 0.070445
O O3 0.916212 0.263655 0.126884
O O4 0.865265 0.264808 0.991681
O O5 0.750000 0.728612 0.886976
O O6 0.651614 0.500000 0.913486
O O7 0.583121 0.733995 0.856435
O O8 0.979598 0.250994 0.253498
O O9 0.926234 0.214425 0.381878
O O10 0.095073 0.235030 0.356087
O O11 0.013841 0.000000 0.317784
O O12 0.008078 0.500000 0.815247
O O13 0.500000 0.852265 0.500000
O O14 0.350986 0.723443 0.491844
O O15 0.363375 0.000000 0.536005
O O16 0.250000 0.320477 0.381736
O O17 0.380549 0.500000 0.407022
#
# Coordination Sequence:
#
# PCOD8206531 Si02
#       6
#     8   8   8   8   8   8
#     4   8  14  26  45  69  95 123 160 207 255 301
#     4   8  14  25  43  69  98 125 158 203 250 296
#     4  10  21  35  49  68  98 134 165 193 234 290
#     4  10  18  28  47  73  98 127 163 205 252 295
#     4   8  16  32  51  68  89 122 161 193 225 275
#     4  10  20  33  52  78 101 121 153 199 245 287
#
# _framework density 18.263036
#
# number of rings (size 3 to 8) (size 9 to 14) (size 15 to 20)
#    0.000    3.000    0.000    3.500    0.000    7.667 
#    0.000    2.500    0.000    5.500    0.000    2.333 
#    0.000    0.000    0.000    0.000    0.000    0.000 
#
# Total GULP energy -594890.970959 kJ/mol
# GULP energy per Si atom -12393.561895 kJ/mol
# Density = 1.822147 g / cm^3
# Si number density = 18.263036 Si / 1000 Ang^3
#
#
#
# Elastic Constant Matrix: (Units=GPa)
#
#
# Indices 1 2 3 4 5 6 
#
# 1 59.6826 11.9738 28.4472 0.0000 0.0000 0.0000
# 2 11.9738 44.0753 19.1214 0.0000 0.0000 0.0000
# 3 28.4472 19.1214 108.2183 0.0000 0.0000 0.0000
# 4 0.0000 0.0000 0.0000 -3.0612 0.0000 0.0000
# 5 0.0000 0.0000 0.0000 0.0000 20.5023 0.0000
# 6 0.0000 0.0000 0.0000 0.0000 0.0000 10.3125
#
#
#
# Elastic Compliance Matrix: (Units=1/GPa)
#
#
# Indices 1 2 3 4 5 6 
#
# 1 0.019601 -0.003346 -0.004561 0.000000 0.000000 0.000000
# 2 -0.003346 0.025143 -0.003563 0.000000 0.000000 0.000000
# 3 -0.004561 -0.003563 0.011069 0.000000 0.000000 0.000000
# 4 0.000000 0.000000 0.000000 -0.326667 0.000000 0.000000
# 5 0.000000 0.000000 0.000000 0.000000 0.048775 0.000000
# 6 0.000000 0.000000 0.000000 0.000000 0.000000 0.096970
#
#
# Mechanical properties :
#
#
# Convention : Reuss Voigt Hill
#
# Bulk Modulus (GPa) = 30.42064 36.78458 33.60261
# Shear Modulus (GPa) = -54.81789 15.71297 -19.55246
#
# Velocity S-wave (km/s) = -5.48461 2.93639 -3.27556
# Velocity P-wave (km/s) = 4.83888 5.62866 2.03310
#
# Compressibility (1/GPa) = 0.03287242
#
# Stress axis : x y z
#
# Youngs Moduli (GPa) = 51.01873 39.77215 90.34122
#
# Poissons Ratio (x) = 0.13308 0.41206
# Poissons Ratio (y) = 0.17071 0.32189
# Poissons Ratio (z) = 0.23271 0.14171
#
# Static dielectric constant tensor:
#      x y z
#    x 3.484910 0.000000 0.000000 
#    y 0.000000 3.045950 0.000000 
#    z 0.000000 0.000000 3.597180 
# 
# 
# High freq. dielectric constant tensor:
#      x y z
#    x 1.700820 0.000000 0.000000 
#    y 0.000000 1.670620 0.000000 
#    z 0.000000 0.000000 1.706650 
# 
# From -- ./inp_files/29429.got.cif
#   From: 2010.03.12/outbox.cif.g09.slc.cpg/sg51_15_cif.got.tgz:29429.got - 2010.04.16 13:43:02.
