data_PCOD8206276
_publ_section_title
;
Structure prediction by ZEFSAII (Michael W. Deem and Ramdas Pophale) SiO2 
 PCOD8206276
Probable space group: P M M A
;
_chemical_formula_sum "Si O2"
_cell_formula_units_Z 56
_cell_length_a 26.625434
_cell_length_b 9.641765
_cell_length_c 14.428949
_cell_angle_alpha 90.000000
_cell_angle_beta 90.000000
_cell_angle_gamma 90.000000
_cell_volume 3704.144635
_symmetry_space_group_name_H-M "P M M A"
_symmetry_group_IT_number 51
_symmetry_cell_setting 'orthorhombic'
loop_
_space_group_symop_operation_xyz
x,y,z
1/2-x,-y,z
1/2+x,-y,-z
-x,y,-z
-x,-y,-z
1/2+x,y,-z
1/2-x,y,z
x,-y,z
loop_
_atom_site_type_symbol
_atom_site_label
_atom_site_fract_x
_atom_site_fract_y
_atom_site_fract_z
Si Si1 0.454601 0.156285 0.360970
Si Si2 0.884593 0.339102 0.754788
Si Si3 0.692663 0.337032 0.604498
Si Si4 0.565224 0.661689 0.931692
Si Si5 0.543214 0.335696 0.130536
Si Si6 0.064642 0.840887 0.694814
Si Si7 0.378271 0.841230 0.517083
O O1 0.431347 0.260024 0.287515
O O2 0.513833 0.184159 0.363846
O O3 0.430039 0.183294 0.461153
O O4 0.442920 0.000000 0.327882
O O5 0.895421 0.500000 0.738608
O O6 0.832652 0.297232 0.703984
O O7 0.886403 0.304560 0.865655
O O8 0.750000 0.288175 0.610457
O O9 0.688217 0.500000 0.584531
O O10 0.665718 0.257643 0.520538
O O11 0.555738 0.500000 0.941547
O O12 0.514075 0.717300 0.883400
O O13 0.573114 0.714112 0.037023
O O14 0.547453 0.500000 0.149089
O O15 0.568730 0.257736 0.216485
O O16 0.110318 0.805956 0.624440
O O17 0.067961 0.000000 0.728295
O O18 0.360152 0.000000 0.506340
#
# Coordination Sequence:
#
# PCOD8206276 Si02
#       7
#     8   8   8   8   8   8   8
#     4   9  16  26  39  57  83 113 141 171 204 238
#     4   9  15  26  44  61  81 110 140 169 206 252
#     4   9  18  31  46  66  87 103 128 173 220 254
#     4   8  14  25  40  58  80 110 145 175 202 241
#     4   9  16  26  40  57  81 113 148 177 200 236
#     4  10  18  27  39  59  86 114 143 176 206 237
#     4   9  18  30  43  59  82 113 144 169 203 253
#
# _framework density 15.1182
#
# number of rings (size 3 to 8) (size 9 to 14) (size 15 to 20)
#    0.000    3.000    1.429    1.286    0.000    2.571 
#    0.000    2.143    0.000    4.286    0.000    1.000 
#    0.000    3.429    0.000    0.000    0.000    0.000 
#
# Total GULP energy -693804.419356 kJ/mol
# GULP energy per Si atom -12389.364631 kJ/mol
# Density = 1.508379 g / cm^3
# Si number density = 15.118200 Si / 1000 Ang^3
#
#
#
# Elastic Constant Matrix: (Units=GPa)
#
#
# Indices 1 2 3 4 5 6 
#
# 1 74.5675 31.9652 51.7179 0.0000 0.0000 0.0000
# 2 31.9652 42.5999 45.0075 0.0000 0.0000 0.0000
# 3 51.7179 45.0075 122.8791 0.0000 0.0000 0.0000
# 4 0.0000 0.0000 0.0000 18.8822 0.0000 0.0000
# 5 0.0000 0.0000 0.0000 0.0000 14.3503 0.0000
# 6 0.0000 0.0000 0.0000 0.0000 0.0000 16.8932
#
#
#
# Elastic Compliance Matrix: (Units=1/GPa)
#
#
# Indices 1 2 3 4 5 6 
#
# 1 0.021595 -0.010769 -0.005145 0.000000 0.000000 0.000000
# 2 -0.010769 0.043662 -0.011460 0.000000 0.000000 0.000000
# 3 -0.005145 -0.011460 0.014501 0.000000 0.000000 0.000000
# 4 0.000000 0.000000 0.000000 0.052960 0.000000 0.000000
# 5 0.000000 0.000000 0.000000 0.000000 0.069685 0.000000
# 6 0.000000 0.000000 0.000000 0.000000 0.000000 0.059196
#
#
# Mechanical properties :
#
#
# Convention : Reuss Voigt Hill
#
# Bulk Modulus (GPa) = 39.98149 55.26976 47.62563
# Shear Modulus (GPa) = 15.39964 17.44887 16.42426
#
# Velocity S-wave (km/s) = 3.19504 3.40098 3.29962
# Velocity P-wave (km/s) = 6.33359 7.21526 6.78876
#
# Compressibility (1/GPa) = 0.02501157
#
# Stress axis : x y z
#
# Youngs Moduli (GPa) = 46.30665 22.90305 68.96076
#
# Poissons Ratio (x) = 0.24663 0.35479
# Poissons Ratio (y) = 0.49865 0.79030
# Poissons Ratio (z) = 0.23824 0.26247
#
# Static dielectric constant tensor:
#      x y z
#    x 2.651120 0.000000 0.000000 
#    y 0.000000 2.808670 0.000000 
#    z 0.000000 0.000000 3.143020 
# 
# 
# High freq. dielectric constant tensor:
#      x y z
#    x 1.536200 0.000000 0.000000 
#    y 0.000000 1.569060 0.000000 
#    z 0.000000 0.000000 1.581430 
# 
# From -- ./inp_files/18788.got.cif
#   From: 2010.03.12/outbox.cif.g09.slc.cpg/sg51_10_cif.got.tgz:18788.got - 2010.04.16 13:43:02.
