data_PCOD8206902
_publ_section_title
;
Structure prediction by ZEFSAII (Michael W. Deem and Ramdas Pophale) SiO2 
 PCOD8206902
Probable space group: P M M A
;
_chemical_formula_sum "Si O2"
_cell_formula_units_Z 56
_cell_length_a 9.301465
_cell_length_b 18.749381
_cell_length_c 18.825337
_cell_angle_alpha 90.000000
_cell_angle_beta 90.000000
_cell_angle_gamma 90.000000
_cell_volume 3283.076859
_symmetry_space_group_name_H-M "P M M A"
_symmetry_group_IT_number 51
_symmetry_cell_setting 'orthorhombic'
loop_
_space_group_symop_operation_xyz
x,y,z
1/2-x,-y,z
1/2+x,-y,-z
-x,y,-z
-x,-y,-z
1/2+x,y,-z
1/2-x,y,z
x,-y,z
loop_
_atom_site_type_symbol
_atom_site_label
_atom_site_fract_x
_atom_site_fract_y
_atom_site_fract_z
Si Si1 0.085973 0.419611 0.299317
Si Si2 0.080221 0.639812 0.570079
Si Si3 0.585506 0.195933 0.433384
Si Si4 0.084995 0.789014 0.070520
Si Si5 0.414674 0.285996 0.211129
Si Si6 0.418116 0.160082 0.721334
Si Si7 0.082657 0.080331 0.165083
O O1 0.250000 0.408778 0.325933
O O2 0.060409 0.500000 0.272129
O O3 0.054246 0.367703 0.232414
O O4 0.978214 0.404103 0.363343
O O5 0.250000 0.626938 0.562739
O O6 0.040203 0.722524 0.581735
O O7 0.000000 0.610864 0.500000
O O8 0.500000 0.163254 0.500000
O O9 0.750000 0.192598 0.455701
O O10 0.554959 0.149637 0.362827
O O11 0.250000 0.793975 0.048662
O O12 0.055834 0.725929 0.127343
O O13 0.033607 0.864822 0.103714
O O14 0.000000 0.770482 0.000000
O O15 0.250000 0.263863 0.227838
O O16 0.518585 0.236252 0.256644
O O17 0.250000 0.159867 0.739394
O O18 0.495132 0.095838 0.762851
O O19 0.250000 0.091630 0.182539
O O20 0.049762 0.000000 0.139447
#
# Coordination Sequence:
#
# PCOD8206902 Si02
#       7
#     8   8   8   8   8   8   8
#     4  10  20  33  50  71  94 126 168 210 251 295
#     4  10  19  32  47  67  96 130 165 204 251 299
#     4   9  18  29  44  68  95 123 159 204 248 288
#     4   9  18  32  51  76 101 129 160 193 233 279
#     4   9  18  33  51  70  96 128 162 199 242 292
#     4  10  18  30  49  74  99 124 162 207 246 284
#     4   9  19  35  52  73 103 136 165 191 228 284
#
# _framework density 17.057169999999999
#
# number of rings (size 3 to 8) (size 9 to 14) (size 15 to 20)
#    0.000    2.571    1.429    1.714    0.000    5.143 
#    0.000    0.000    0.000    0.857    0.000    0.000 
#    0.000    0.000    0.000    0.000    0.000    0.286 
#
# Total GULP energy -694317.151798 kJ/mol
# GULP energy per Si atom -12398.520568 kJ/mol
# Density = 1.701835 g / cm^3
# Si number density = 17.057170 Si / 1000 Ang^3
#
#
#
# Elastic Constant Matrix: (Units=GPa)
#
#
# Indices 1 2 3 4 5 6 
#
# 1 67.3655 25.2118 50.6339 0.0000 0.0000 0.0000
# 2 25.2118 74.9399 45.7155 0.0000 0.0000 0.0000
# 3 50.6339 45.7155 116.0321 0.0000 0.0000 0.0000
# 4 0.0000 0.0000 0.0000 17.8313 0.0000 0.0000
# 5 0.0000 0.0000 0.0000 0.0000 33.3827 0.0000
# 6 0.0000 0.0000 0.0000 0.0000 0.0000 18.3998
#
#
#
# Elastic Compliance Matrix: (Units=1/GPa)
#
#
# Indices 1 2 3 4 5 6 
#
# 1 0.022330 -0.002064 -0.008931 0.000000 0.000000 0.000000
# 2 -0.002064 0.017757 -0.006095 0.000000 0.000000 0.000000
# 3 -0.008931 -0.006095 0.014917 0.000000 0.000000 0.000000
# 4 0.000000 0.000000 0.000000 0.056081 0.000000 0.000000
# 5 0.000000 0.000000 0.000000 0.000000 0.029956 0.000000
# 6 0.000000 0.000000 0.000000 0.000000 0.000000 0.054348
#
#
# Mechanical properties :
#
#
# Convention : Reuss Voigt Hill
#
# Bulk Modulus (GPa) = 48.02432 55.71777 51.87105
# Shear Modulus (GPa) = 21.14074 23.04118 22.09096
#
# Velocity S-wave (km/s) = 3.52434 3.67934 3.60267
# Velocity P-wave (km/s) = 6.69159 7.12645 6.91244
#
# Compressibility (1/GPa) = 0.02082278
#
# Stress axis : x y z
#
# Youngs Moduli (GPa) = 44.78349 56.31664 67.03756
#
# Poissons Ratio (x) = 0.11625 0.59871
# Poissons Ratio (y) = 0.09244 0.40861
# Poissons Ratio (z) = 0.39996 0.34326
#
# Static dielectric constant tensor:
#      x y z
#    x 3.194970 0.000000 0.000000 
#    y 0.000000 3.092740 0.000000 
#    z 0.000000 0.000000 3.127850 
# 
# 
# High freq. dielectric constant tensor:
#      x y z
#    x 1.662650 0.000000 0.000000 
#    y 0.000000 1.633120 0.000000 
#    z 0.000000 0.000000 1.648950 
# 
# From -- ./inp_files/28251.got.cif
#   From: 2010.03.12/outbox.cif.g09.slc.cpg/sg51_15_cif.got.tgz:28251.got - 2010.04.16 13:43:02.
