data_PCOD8206417
_publ_section_title
;
Structure prediction by ZEFSAII (Michael W. Deem and Ramdas Pophale) SiO2 
 PCOD8206417
Probable space group: P M M A
;
_chemical_formula_sum "Si O2"
_cell_formula_units_Z 52
_cell_length_a 9.382050
_cell_length_b 26.435130
_cell_length_c 13.661069
_cell_angle_alpha 90.000000
_cell_angle_beta 90.000000
_cell_angle_gamma 90.000000
_cell_volume 3388.159747
_symmetry_space_group_name_H-M "P M M A"
_symmetry_group_IT_number 51
_symmetry_cell_setting 'orthorhombic'
loop_
_space_group_symop_operation_xyz
x,y,z
1/2-x,-y,z
1/2+x,-y,-z
-x,y,-z
-x,-y,-z
1/2+x,y,-z
1/2-x,y,z
x,-y,z
loop_
_atom_site_type_symbol
_atom_site_label
_atom_site_fract_x
_atom_site_fract_y
_atom_site_fract_z
Si Si1 0.582865 0.109942 0.602678
Si Si2 0.916004 0.443399 0.098305
Si Si3 0.415827 0.250547 0.904120
Si Si4 0.918598 0.346500 0.210280
Si Si5 0.084897 0.704129 0.597458
Si Si6 0.410284 0.000000 0.404541
Si Si7 0.912623 0.193038 0.292389
O O1 0.500000 0.115843 0.500000
O O2 0.750000 0.121636 0.585169
O O3 0.520112 0.148116 0.682230
O O4 0.560357 0.053425 0.650477
O O5 0.750000 0.436723 0.074190
O O6 0.949168 0.500000 0.137390
O O7 0.965641 0.403094 0.180048
O O8 0.000000 0.431810 0.000000
O O9 0.250000 0.253279 0.930735
O O10 0.474401 0.305449 0.868606
O O11 0.443910 0.210099 0.818400
O O12 0.500000 0.233012 0.000000
O O13 0.750000 0.339573 0.214429
O O14 0.975606 0.333985 0.318923
O O15 0.250000 0.694086 0.575983
O O16 0.059549 0.761270 0.632602
O O17 0.000000 0.692321 0.500000
O O18 0.500000 0.000000 0.500000
O O19 0.250000 0.000000 0.442481
O O20 0.750000 0.174189 0.302300
#
# Coordination Sequence:
#
# PCOD8206417 Si02
#       7
#     8   8   8   8   8   4   8
#     4  10  18  28  43  62  86 114 141 170 203 241
#     4   9  16  26  42  63  84 106 133 165 202 244
#     4   9  17  29  44  61  84 111 137 168 205 246
#     4   8  15  28  43  59  82 111 137 163 201 246
#     4   9  17  29  43  58  80 109 139 170 202 238
#     4   8  16  28  40  58  83 110 139 168 201 240
#     4   9  18  30  42  60  85 111 138 169 206 245
#
# _framework density 15.347564999999999
#
# number of rings (size 3 to 8) (size 9 to 14) (size 15 to 20)
#    0.000    3.077    0.000    3.231    0.000    3.077 
#    0.000    3.077    0.000    0.462    0.000    0.538 
#    0.000    0.000    0.000    0.000    0.000    0.000 
#
# Total GULP energy -644400.412730 kJ/mol
# GULP energy per Si atom -12392.315629 kJ/mol
# Density = 1.531263 g / cm^3
# Si number density = 15.347565 Si / 1000 Ang^3
#
#
#
# Elastic Constant Matrix: (Units=GPa)
#
#
# Indices 1 2 3 4 5 6 
#
# 1 59.9759 50.8090 46.4048 0.0000 0.0000 0.0000
# 2 50.8090 116.1024 58.3783 0.0000 0.0000 0.0000
# 3 46.4048 58.3783 103.2546 0.0000 0.0000 0.0000
# 4 0.0000 0.0000 0.0000 18.6372 0.0000 0.0000
# 5 0.0000 0.0000 0.0000 0.0000 27.3796 0.0000
# 6 0.0000 0.0000 0.0000 0.0000 0.0000 19.1642
#
#
#
# Elastic Compliance Matrix: (Units=1/GPa)
#
#
# Indices 1 2 3 4 5 6 
#
# 1 0.031393 -0.009283 -0.008860 0.000000 0.000000 0.000000
# 2 -0.009283 0.014779 -0.004184 0.000000 0.000000 0.000000
# 3 -0.008860 -0.004184 0.016032 0.000000 0.000000 0.000000
# 4 0.000000 0.000000 0.000000 0.053656 0.000000 0.000000
# 5 0.000000 0.000000 0.000000 0.000000 0.036524 0.000000
# 6 0.000000 0.000000 0.000000 0.000000 0.000000 0.052180
#
#
# Mechanical properties :
#
#
# Convention : Reuss Voigt Hill
#
# Bulk Modulus (GPa) = 56.97974 65.61301 61.29638
# Shear Modulus (GPa) = 19.60252 21.28561 20.44406
#
# Velocity S-wave (km/s) = 3.57773 3.72816 3.65372
# Velocity P-wave (km/s) = 7.36707 7.83431 7.60428
#
# Compressibility (1/GPa) = 0.01755010
#
# Stress axis : x y z
#
# Youngs Moduli (GPa) = 31.85418 67.66172 62.37452
#
# Poissons Ratio (x) = 0.62813 0.55264
# Poissons Ratio (y) = 0.29571 0.26097
# Poissons Ratio (z) = 0.28223 0.28309
#
# Static dielectric constant tensor:
#      x y z
#    x 2.831600 0.000000 0.000000 
#    y 0.000000 3.272830 0.000000 
#    z 0.000000 0.000000 2.766420 
# 
# 
# High freq. dielectric constant tensor:
#      x y z
#    x 1.580870 0.000000 0.000000 
#    y 0.000000 1.587420 0.000000 
#    z 0.000000 0.000000 1.564870 
# 
# From -- ./inp_files/22113.got.cif
#   From: 2010.03.12/outbox.cif.g09.slc.cpg/sg51_12_cif.got.tgz:22113.got - 2010.04.16 13:43:02.
