data_PCOD8206592
_publ_section_title
;
Structure prediction by ZEFSAII (Michael W. Deem and Ramdas Pophale) SiO2 
 PCOD8206592
Probable space group: P M M A
;
_chemical_formula_sum "Si O2"
_cell_formula_units_Z 52
_cell_length_a 8.891802
_cell_length_b 26.436608
_cell_length_c 13.488225
_cell_angle_alpha 90.000000
_cell_angle_beta 90.000000
_cell_angle_gamma 90.000000
_cell_volume 3170.664694
_symmetry_space_group_name_H-M "P M M A"
_symmetry_group_IT_number 51
_symmetry_cell_setting 'orthorhombic'
loop_
_space_group_symop_operation_xyz
x,y,z
1/2-x,-y,z
1/2+x,-y,-z
-x,y,-z
-x,-y,-z
1/2+x,y,-z
1/2-x,y,z
x,-y,z
loop_
_atom_site_type_symbol
_atom_site_label
_atom_site_fract_x
_atom_site_fract_y
_atom_site_fract_z
Si Si1 0.574321 0.147375 0.797668
Si Si2 0.573992 0.239932 0.100384
Si Si3 0.074242 0.057918 0.895654
Si Si4 0.577347 0.500000 0.603438
Si Si5 0.072531 0.390308 0.391527
Si Si6 0.573967 0.702961 0.298705
Si Si7 0.425529 0.795391 0.400376
O O1 0.750000 0.145186 0.821115
O O2 0.499044 0.186134 0.874045
O O3 0.500417 0.092402 0.811052
O O4 0.541827 0.163984 0.685250
O O5 0.750000 0.231719 0.085189
O O6 0.539425 0.280449 0.186256
O O7 0.500000 0.261236 0.000000
O O8 0.250000 0.069186 0.903176
O O9 0.041565 0.000000 0.866486
O O10 0.000000 0.071860 0.000000
O O11 0.750000 0.500000 0.577086
O O12 0.500000 0.500000 0.500000
O O13 0.537483 0.553595 0.656117
O O14 0.250000 0.380153 0.400460
O O15 0.000000 0.383921 0.500000
O O16 0.999189 0.351673 0.314364
O O17 0.750000 0.700896 0.320685
O O18 0.500482 0.741858 0.375428
O O19 0.500000 0.817280 0.500000
O O20 0.250000 0.786364 0.416223
#
# Coordination Sequence:
#
# PCOD8206592 Si02
#       7
#     8   8   8   4   8   8   8
#     4  10  20  33  50  71  95 123 154 187 226 271
#     4  10  20  33  49  68  93 122 152 187 226 271
#     4  10  20  33  50  72  97 124 153 187 228 272
#     4   8  16  28  42  62  87 118 153 186 225 268
#     4  10  18  29  45  65  92 123 154 189 226 268
#     4  10  20  32  46  67  93 122 154 187 226 271
#     4  10  20  33  49  69  93 123 156 190 227 267
#
# _framework density 16.400347
#
# number of rings (size 3 to 8) (size 9 to 14) (size 15 to 20)
#    0.000    2.154    0.000    3.692    0.000    5.231 
#    0.000    0.000    0.000    0.462    0.000    0.538 
#    0.000    0.000    0.000    0.000    0.000    0.000 
#
# Total GULP energy -644762.674729 kJ/mol
# GULP energy per Si atom -12399.282206 kJ/mol
# Density = 1.636302 g / cm^3
# Si number density = 16.400347 Si / 1000 Ang^3
#
#
#
# Elastic Constant Matrix: (Units=GPa)
#
#
# Indices 1 2 3 4 5 6 
#
# 1 108.0319 64.6349 54.6879 0.0000 0.0000 0.0000
# 2 64.6349 127.7906 54.6694 0.0000 0.0000 0.0000
# 3 54.6879 54.6694 91.9576 0.0000 0.0000 0.0000
# 4 0.0000 0.0000 0.0000 20.7638 0.0000 0.0000
# 5 0.0000 0.0000 0.0000 0.0000 29.2157 0.0000
# 6 0.0000 0.0000 0.0000 0.0000 0.0000 28.2295
#
#
#
# Elastic Compliance Matrix: (Units=1/GPa)
#
#
# Indices 1 2 3 4 5 6 
#
# 1 0.015461 -0.005212 -0.006096 0.000000 0.000000 0.000000
# 2 -0.005212 0.012251 -0.004184 0.000000 0.000000 0.000000
# 3 -0.006096 -0.004184 0.016987 0.000000 0.000000 0.000000
# 4 0.000000 0.000000 0.000000 0.048161 0.000000 0.000000
# 5 0.000000 0.000000 0.000000 0.000000 0.034228 0.000000
# 6 0.000000 0.000000 0.000000 0.000000 0.000000 0.035424
#
#
# Mechanical properties :
#
#
# Convention : Reuss Voigt Hill
#
# Bulk Modulus (GPa) = 72.91007 75.08494 73.99750
# Shear Modulus (GPa) = 25.24386 25.89433 25.56909
#
# Velocity S-wave (km/s) = 3.92755 3.97783 3.95277
# Velocity P-wave (km/s) = 8.06973 8.18410 8.12711
#
# Compressibility (1/GPa) = 0.01371553
#
# Stress axis : x y z
#
# Youngs Moduli (GPa) = 64.67982 81.62380 58.86727
#
# Poissons Ratio (x) = 0.42542 0.35886
# Poissons Ratio (y) = 0.33711 0.24630
# Poissons Ratio (z) = 0.39430 0.34151
#
# Static dielectric constant tensor:
#      x y z
#    x 3.246500 0.000000 0.000000 
#    y 0.000000 3.484360 0.000000 
#    z 0.000000 0.000000 2.936840 
# 
# 
# High freq. dielectric constant tensor:
#      x y z
#    x 1.653920 0.000000 0.000000 
#    y 0.000000 1.627790 0.000000 
#    z 0.000000 0.000000 1.606040 
# 
# From -- ./inp_files/14651.got.cif
#   From: 2010.03.12/outbox.cif.g09.slc.cpg/sg51_8_cif.got.tgz:14651.got - 2010.04.16 13:43:02.
