data_PCOD8206940
_publ_section_title
;
Structure prediction by ZEFSAII (Michael W. Deem and Ramdas Pophale) SiO2 
 PCOD8206940
Probable space group: P M M A
;
_chemical_formula_sum "Si O2"
_cell_formula_units_Z 56
_cell_length_a 8.917797
_cell_length_b 15.386508
_cell_length_c 20.362042
_cell_angle_alpha 90.000000
_cell_angle_beta 90.000000
_cell_angle_gamma 90.000000
_cell_volume 2793.952240
_symmetry_space_group_name_H-M "P M M A"
_symmetry_group_IT_number 51
_symmetry_cell_setting 'orthorhombic'
loop_
_space_group_symop_operation_xyz
x,y,z
1/2-x,-y,z
1/2+x,-y,-z
-x,y,-z
-x,-y,-z
1/2+x,y,-z
1/2-x,y,z
x,-y,z
loop_
_atom_site_type_symbol
_atom_site_label
_atom_site_fract_x
_atom_site_fract_y
_atom_site_fract_z
Si Si1 0.420704 0.593462 0.112795
Si Si2 0.576212 0.402032 0.625510
Si Si3 0.419809 0.175371 0.804116
Si Si4 0.575035 0.777966 0.934441
Si Si5 0.571913 0.903880 0.326950
Si Si6 0.071496 0.763791 0.568084
Si Si7 0.419443 0.369473 0.758675
O O1 0.250000 0.610085 0.136168
O O2 0.433429 0.500000 0.074871
O O3 0.470551 0.675498 0.068834
O O4 0.526657 0.584345 0.175434
O O5 0.750000 0.376048 0.619952
O O6 0.549511 0.500000 0.598584
O O7 0.479010 0.334382 0.583552
O O8 0.527909 0.399141 0.701024
O O9 0.250000 0.153005 0.825221
O O10 0.518996 0.171366 0.869839
O O11 0.483418 0.110064 0.748425
O O12 0.427814 0.266958 0.767686
O O13 0.750000 0.792896 0.940615
O O14 0.500000 0.816787 0.000000
O O15 0.750000 0.896274 0.326515
O O16 0.509458 0.830960 0.376836
O O17 0.519193 0.000000 0.349725
O O18 0.250000 0.765777 0.563114
O O19 0.000000 0.794806 0.500000
O O20 0.250000 0.398991 0.742576
#
# Coordination Sequence:
#
# PCOD8206940 Si02
#       7
#     8   8   8   8   8   8   8
#     4   9  18  31  45  66 100 141 185 234 287 339
#     4  11  23  37  55  80 112 154 200 244 290 337
#     4   9  17  33  56  82 111 145 184 228 278 336
#     4  10  20  33  50  74 104 145 188 233 284 340
#     4   9  18  36  64  94 121 150 186 229 283 347
#     4  11  23  41  62  88 120 157 194 235 285 340
#     4  10  18  30  50  78 108 143 187 235 287 339
#
# _framework density 20.043292999999998
#
# number of rings (size 3 to 8) (size 9 to 14) (size 15 to 20)
#    0.000    2.143    1.429    2.143    0.000    5.143 
#    0.000    0.000    0.000    3.857    0.000    0.000 
#    0.000    0.000    0.000    0.000    0.000    0.000 
#
# Total GULP energy -694179.782556 kJ/mol
# GULP energy per Si atom -12396.067546 kJ/mol
# Density = 1.999767 g / cm^3
# Si number density = 20.043293 Si / 1000 Ang^3
#
#
#
# Elastic Constant Matrix: (Units=GPa)
#
#
# Indices 1 2 3 4 5 6 
#
# 1 76.0892 26.4837 47.1744 0.0000 0.0000 0.0000
# 2 26.4837 86.3968 46.6263 0.0000 0.0000 0.0000
# 3 47.1744 46.6263 130.0534 0.0000 0.0000 0.0000
# 4 0.0000 0.0000 0.0000 4.7524 0.0000 0.0000
# 5 0.0000 0.0000 0.0000 0.0000 33.2530 0.0000
# 6 0.0000 0.0000 0.0000 0.0000 0.0000 14.5336
#
#
#
# Elastic Compliance Matrix: (Units=1/GPa)
#
#
# Indices 1 2 3 4 5 6 
#
# 1 0.017342 -0.002382 -0.005437 0.000000 0.000000 0.000000
# 2 -0.002382 0.014678 -0.004398 0.000000 0.000000 0.000000
# 3 -0.005437 -0.004398 0.011238 0.000000 0.000000 0.000000
# 4 0.000000 0.000000 0.000000 0.210421 0.000000 0.000000
# 5 0.000000 0.000000 0.000000 0.000000 0.030072 0.000000
# 6 0.000000 0.000000 0.000000 0.000000 0.000000 0.068806
#
#
# Mechanical properties :
#
#
# Convention : Reuss Voigt Hill
#
# Bulk Modulus (GPa) = 53.12184 59.23424 56.17804
# Shear Modulus (GPa) = 13.04575 21.99146 17.51860
#
# Velocity S-wave (km/s) = 2.55400 3.31599 2.95962
# Velocity P-wave (km/s) = 5.93787 6.65420 6.30621
#
# Compressibility (1/GPa) = 0.01882465
#
# Stress axis : x y z
#
# Youngs Moduli (GPa) = 57.66293 68.12734 88.98336
#
# Poissons Ratio (x) = 0.16228 0.48376
# Poissons Ratio (y) = 0.13735 0.39139
# Poissons Ratio (z) = 0.31349 0.29965
#
# Static dielectric constant tensor:
#      x y z
#    x 3.534060 0.000000 0.000000 
#    y 0.000000 3.682070 0.000000 
#    z 0.000000 0.000000 3.551360 
# 
# 
# High freq. dielectric constant tensor:
#      x y z
#    x 1.769670 0.000000 0.000000 
#    y 0.000000 1.769620 0.000000 
#    z 0.000000 0.000000 1.774570 
# 
# From -- ./inp_files/31972.got.cif
#   From: 2010.03.12/outbox.cif.g09.slc.cpg/sg51_16_cif.got.tgz:31972.got - 2010.04.16 13:43:02.
