data_PCOD8206072
_publ_section_title
;
Structure prediction by ZEFSAII (Michael W. Deem and Ramdas Pophale) SiO2 
 PCOD8206072
Probable space group: P M M A
;
_chemical_formula_sum "Si O2"
_cell_formula_units_Z 56
_cell_length_a 16.790051
_cell_length_b 17.760178
_cell_length_c 11.521585
_cell_angle_alpha 90.000000
_cell_angle_beta 90.000000
_cell_angle_gamma 90.000000
_cell_volume 3435.670909
_symmetry_space_group_name_H-M "P M M A"
_symmetry_group_IT_number 51
_symmetry_cell_setting 'orthorhombic'
loop_
_space_group_symop_operation_xyz
x,y,z
1/2-x,-y,z
1/2+x,-y,-z
-x,y,-z
-x,-y,-z
1/2+x,y,-z
1/2-x,y,z
x,-y,z
loop_
_atom_site_type_symbol
_atom_site_label
_atom_site_fract_x
_atom_site_fract_y
_atom_site_fract_z
Si Si1 0.339441 0.086453 0.008116
Si Si2 0.342332 0.312369 0.897992
Si Si3 0.417711 0.280897 0.145275
Si Si4 0.434244 0.178747 0.831481
Si Si5 0.513526 0.087585 0.633243
Si Si6 0.160831 0.157366 0.258964
Si Si7 0.980540 0.583055 0.134530
O O1 0.250000 0.098931 0.957962
O O2 0.348621 0.129547 0.127997
O O3 0.356360 0.000000 0.034431
O O4 0.406076 0.114139 0.919135
O O5 0.250000 0.332490 0.889034
O O6 0.363086 0.239951 0.817585
O O7 0.391243 0.384554 0.851645
O O8 0.364971 0.291574 0.030315
O O9 0.489735 0.223132 0.116873
O O10 0.365085 0.245627 0.250310
O O11 0.454438 0.360218 0.190627
O O12 0.454323 0.138974 0.709455
O O13 0.500000 0.107210 0.500000
O O14 0.605315 0.108034 0.658259
O O15 0.497624 0.000000 0.660183
O O16 0.250000 0.149643 0.307507
O O17 0.985765 0.500000 0.192467
O O18 0.000000 0.577655 0.000000
#
# Coordination Sequence:
#
# PCOD8206072 Si02
#       7
#     8   8   8   8   8   8   8
#     4  10  19  28  43  71  97 116 144 188 243 291
#     4  10  17  26  42  65  94 123 152 186 229 278
#     4   9  17  27  44  66  92 122 153 185 230 277
#     4  10  18  30  47  66  90 120 152 194 239 278
#     4  10  22  37  50  65  87 122 167 202 233 279
#     4  10  19  32  50  70  93 119 152 196 239 281
#     4   8  15  26  39  59  91 130 164 184 205 254
#
# _framework density 16.299582000000001
#
# number of rings (size 3 to 8) (size 9 to 14) (size 15 to 20)
#    0.000    2.429    1.429    3.000    2.000    1.143 
#    0.000    3.571    0.000    3.000    0.000    0.000 
#    0.000   46.286    0.000    5.143    0.000    2.571 
#
# Total GULP energy -694055.636550 kJ/mol
# GULP energy per Si atom -12393.850653 kJ/mol
# Density = 1.626248 g / cm^3
# Si number density = 16.299582 Si / 1000 Ang^3
#
#
#
# Elastic Constant Matrix: (Units=GPa)
#
#
# Indices 1 2 3 4 5 6 
#
# 1 100.2632 41.0852 30.8066 0.0000 0.0000 0.0000
# 2 41.0852 109.6861 26.7026 0.0000 0.0000 0.0000
# 3 30.8066 26.7026 47.2039 0.0000 0.0000 0.0000
# 4 0.0000 0.0000 0.0000 11.0390 0.0000 0.0000
# 5 0.0000 0.0000 0.0000 0.0000 11.1019 0.0000
# 6 0.0000 0.0000 0.0000 0.0000 0.0000 18.1044
#
#
#
# Elastic Compliance Matrix: (Units=1/GPa)
#
#
# Indices 1 2 3 4 5 6 
#
# 1 0.013470 -0.003369 -0.006885 0.000000 0.000000 0.000000
# 2 -0.003369 0.011416 -0.004259 0.000000 0.000000 0.000000
# 3 -0.006885 -0.004259 0.028087 0.000000 0.000000 0.000000
# 4 0.000000 0.000000 0.000000 0.090588 0.000000 0.000000
# 5 0.000000 0.000000 0.000000 0.000000 0.090074 0.000000
# 6 0.000000 0.000000 0.000000 0.000000 0.000000 0.055235
#
#
# Mechanical properties :
#
#
# Convention : Reuss Voigt Hill
#
# Bulk Modulus (GPa) = 41.75931 50.48243 46.12087
# Shear Modulus (GPa) = 15.34314 18.61965 16.98140
#
# Velocity S-wave (km/s) = 3.07142 3.38352 3.23124
# Velocity P-wave (km/s) = 6.18496 6.80464 6.50218
#
# Compressibility (1/GPa) = 0.02394675
#
# Stress axis : x y z
#
# Youngs Moduli (GPa) = 74.24005 87.59815 35.60357
#
# Poissons Ratio (x) = 0.29515 0.24512
# Poissons Ratio (y) = 0.25014 0.15163
# Poissons Ratio (z) = 0.51113 0.37306
#
# Static dielectric constant tensor:
#      x y z
#    x 3.311960 0.000000 0.000000 
#    y 0.000000 3.511580 0.000000 
#    z 0.000000 0.000000 2.584880 
# 
# 
# High freq. dielectric constant tensor:
#      x y z
#    x 1.635470 0.000000 0.000000 
#    y 0.000000 1.633900 0.000000 
#    z 0.000000 0.000000 1.562690 
# 
# From -- ./inp_files/17634.got.cif
#   From: 2010.03.12/outbox.cif.g09.slc.cpg/sg51_9_cif.got.tgz:17634.got - 2010.04.16 13:43:02.
