data_PCOD8206292
_publ_section_title
;
Structure prediction by ZEFSAII (Michael W. Deem and Ramdas Pophale) SiO2 
 PCOD8206292
Probable space group: P M M A
;
_chemical_formula_sum "Si O2"
_cell_formula_units_Z 56
_cell_length_a 21.803826
_cell_length_b 9.280206
_cell_length_c 17.611423
_cell_angle_alpha 90.000000
_cell_angle_beta 90.000000
_cell_angle_gamma 90.000000
_cell_volume 3563.565720
_symmetry_space_group_name_H-M "P M M A"
_symmetry_group_IT_number 51
_symmetry_cell_setting 'orthorhombic'
loop_
_space_group_symop_operation_xyz
x,y,z
1/2-x,-y,z
1/2+x,-y,-z
-x,y,-z
-x,-y,-z
1/2+x,y,-z
1/2-x,y,z
x,-y,z
loop_
_atom_site_type_symbol
_atom_site_label
_atom_site_fract_x
_atom_site_fract_y
_atom_site_fract_z
Si Si1 0.678813 0.335152 0.759538
Si Si2 0.527881 0.832201 0.328513
Si Si3 0.570829 0.662963 0.021900
Si Si4 0.601061 0.831976 0.879645
Si Si5 0.538417 0.164761 0.160151
Si Si6 0.572031 0.840505 0.483472
Si Si7 0.091280 0.666576 0.376098
O O1 0.750000 0.299374 0.752287
O O2 0.666911 0.500000 0.784960
O O3 0.650440 0.230056 0.821715
O O4 0.649880 0.307293 0.676894
O O5 0.558436 0.801477 0.246681
O O6 0.577604 0.793550 0.394547
O O7 0.466630 0.739833 0.336407
O O8 0.508508 0.000000 0.335304
O O9 0.595705 0.500000 0.025029
O O10 0.578432 0.734890 0.104766
O O11 0.500000 0.668184 0.000000
O O12 0.609560 0.752336 0.960370
O O13 0.533792 0.802450 0.846282
O O14 0.613709 0.000000 0.892045
O O15 0.551700 0.000000 0.137380
O O16 0.500000 0.839492 0.500000
O O17 0.606330 0.732648 0.540711
O O18 0.599640 0.000000 0.495926
O O19 0.075925 0.500000 0.387445
#
# Coordination Sequence:
#
# PCOD8206292 Si02
#       7
#     8   8   8   8   8   8   8
#     4  10  21  34  45  59  82 113 147 182 220 256
#     4   9  16  27  41  59  84 114 140 166 206 254
#     4   9  17  27  40  59  84 112 140 168 205 254
#     4  10  18  29  45  61  80 108 143 181 214 247
#     4   9  16  26  41  61  85 111 141 172 204 247
#     4   8  15  26  40  56  79 110 139 165 203 254
#     4  10  18  27  41  58  79 107 141 179 213 246
#
# _framework density 15.714598000000001
#
# number of rings (size 3 to 8) (size 9 to 14) (size 15 to 20)
#    0.000    2.714    1.429    2.143    0.000    6.286 
#    0.000    0.000    0.000    0.000    0.000    0.000 
#    0.000    1.143    0.000    9.143    0.000    3.000 
#
# Total GULP energy -694208.673359 kJ/mol
# GULP energy per Si atom -12396.583453 kJ/mol
# Density = 1.567883 g / cm^3
# Si number density = 15.714598 Si / 1000 Ang^3
#
#
#
# Elastic Constant Matrix: (Units=GPa)
#
#
# Indices 1 2 3 4 5 6 
#
# 1 35.1467 33.4602 32.2594 0.0000 0.0000 0.0000
# 2 33.4602 106.1720 74.2463 0.0000 0.0000 0.0000
# 3 32.2594 74.2463 151.7222 0.0000 0.0000 0.0000
# 4 0.0000 0.0000 0.0000 29.6893 0.0000 0.0000
# 5 0.0000 0.0000 0.0000 0.0000 14.5383 0.0000
# 6 0.0000 0.0000 0.0000 0.0000 0.0000 13.4326
#
#
#
# Elastic Compliance Matrix: (Units=1/GPa)
#
#
# Indices 1 2 3 4 5 6 
#
# 1 0.041990 -0.010626 -0.003728 0.000000 0.000000 0.000000
# 2 -0.010626 0.017008 -0.006063 0.000000 0.000000 0.000000
# 3 -0.003728 -0.006063 0.010351 0.000000 0.000000 0.000000
# 4 0.000000 0.000000 0.000000 0.033682 0.000000 0.000000
# 5 0.000000 0.000000 0.000000 0.000000 0.068784 0.000000
# 6 0.000000 0.000000 0.000000 0.000000 0.000000 0.074446
#
#
# Mechanical properties :
#
#
# Convention : Reuss Voigt Hill
#
# Bulk Modulus (GPa) = 35.07122 63.66364 49.36743
# Shear Modulus (GPa) = 16.85767 21.73704 19.29736
#
# Velocity S-wave (km/s) = 3.27882 3.72323 3.50807
# Velocity P-wave (km/s) = 6.05808 7.68658 6.92040
#
# Compressibility (1/GPa) = 0.02851341
#
# Stress axis : x y z
#
# Youngs Moduli (GPa) = 23.81500 58.79664 96.61032
#
# Poissons Ratio (x) = 0.62479 0.36016
# Poissons Ratio (y) = 0.25306 0.58580
# Poissons Ratio (z) = 0.08878 0.35651
#
# Static dielectric constant tensor:
#      x y z
#    x 2.418400 0.000000 0.000000 
#    y 0.000000 3.110420 0.000000 
#    z 0.000000 0.000000 3.418490 
# 
# 
# High freq. dielectric constant tensor:
#      x y z
#    x 1.525440 0.000000 0.000000 
#    y 0.000000 1.613490 0.000000 
#    z 0.000000 0.000000 1.621130 
# 
# From -- ./inp_files/30397.got.cif
#   From: 2010.03.12/outbox.cif.g09.slc.cpg/sg51_16_cif.got.tgz:30397.got - 2010.04.16 13:43:02.
