data_PCOD8206903
_publ_section_title
;
Structure prediction by ZEFSAII (Michael W. Deem and Ramdas Pophale) SiO2 
 PCOD8206903
Probable space group: P M M A
;
_chemical_formula_sum "Si O2"
_cell_formula_units_Z 40
_cell_length_a 14.709944
_cell_length_b 8.773515
_cell_length_c 16.586974
_cell_angle_alpha 90.000000
_cell_angle_beta 90.000000
_cell_angle_gamma 90.000000
_cell_volume 2140.680270
_symmetry_space_group_name_H-M "P M M A"
_symmetry_group_IT_number 51
_symmetry_cell_setting 'orthorhombic'
loop_
_space_group_symop_operation_xyz
x,y,z
1/2-x,-y,z
1/2+x,-y,-z
-x,y,-z
-x,-y,-z
1/2+x,y,-z
1/2-x,y,z
x,-y,z
loop_
_atom_site_type_symbol
_atom_site_label
_atom_site_fract_x
_atom_site_fract_y
_atom_site_fract_z
Si Si1 0.104177 0.178550 0.007611
Si Si2 0.250000 0.679645 0.120588
Si Si3 0.901606 0.680046 0.411793
Si Si4 0.750000 0.174824 0.124614
Si Si5 0.250000 0.319605 0.704276
Si Si6 0.894318 0.680367 0.591717
Si Si7 0.250000 0.821688 0.294604
O O1 0.157135 0.259604 0.080185
O O2 0.104822 0.000000 0.027003
O O3 0.158918 0.213628 0.925468
O O4 0.000000 0.238561 0.000000
O O5 0.250000 0.500000 0.112922
O O6 0.250000 0.728310 0.212563
O O7 0.904866 0.500000 0.407253
O O8 0.837645 0.748741 0.341965
O O9 0.864213 0.723543 0.500586
O O10 0.002980 0.738725 0.396524
O O11 0.750000 0.277637 0.202960
O O12 0.750000 0.000000 0.151284
O O13 0.250000 0.500000 0.696698
O O14 0.881606 0.500000 0.607726
O O15 0.838149 0.777263 0.654917
O O16 0.250000 0.000000 0.275180
#
# Coordination Sequence:
#
# PCOD8206903 Si02
#       7
#     8   4   8   4   4   8   4
#     4   9  19  39  63  81 104 139 174 214 270 328
#     4  11  23  38  57  83 111 139 179 226 267 318
#     4   8  16  31  54  79 103 135 176 221 266 310
#     4   9  19  34  51  77 107 133 165 204 253 314
#     4  10  18  30  49  76 108 137 166 205 254 307
#     4   9  17  34  56  76 100 136 182 225 266 313
#     4  12  24  36  51  76 110 145 180 223 274 319
#
# _framework density 18.685649999999999
#
# number of rings (size 3 to 8) (size 9 to 14) (size 15 to 20)
#    0.000    2.600    0.000    4.200    0.000    5.200 
#    0.000    9.000    0.000    0.000    0.000    0.000 
#    0.000    0.000    0.000    0.000    0.000    0.000 
#
# Total GULP energy -495862.968559 kJ/mol
# GULP energy per Si atom -12396.574214 kJ/mol
# Density = 1.864312 g / cm^3
# Si number density = 18.685650 Si / 1000 Ang^3
#
#
#
# Elastic Constant Matrix: (Units=GPa)
#
#
# Indices 1 2 3 4 5 6 
#
# 1 145.2235 28.8482 67.1193 0.0000 0.0000 0.0000
# 2 28.8482 39.0364 23.8993 0.0000 0.0000 0.0000
# 3 67.1193 23.8993 120.2706 0.0000 0.0000 0.0000
# 4 0.0000 0.0000 0.0000 -13.2548 0.0000 0.0000
# 5 0.0000 0.0000 0.0000 0.0000 33.1224 0.0000
# 6 0.0000 0.0000 0.0000 0.0000 0.0000 23.5855
#
#
#
# Elastic Compliance Matrix: (Units=1/GPa)
#
#
# Indices 1 2 3 4 5 6 
#
# 1 0.009926 -0.004490 -0.004647 0.000000 0.000000 0.000000
# 2 -0.004490 0.031197 -0.003693 0.000000 0.000000 0.000000
# 3 -0.004647 -0.003693 0.011642 0.000000 0.000000 0.000000
# 4 0.000000 0.000000 0.000000 -0.075444 0.000000 0.000000
# 5 0.000000 0.000000 0.000000 0.000000 0.030191 0.000000
# 6 0.000000 0.000000 0.000000 0.000000 0.000000 0.042399
#
#
# Mechanical properties :
#
#
# Convention : Reuss Voigt Hill
#
# Bulk Modulus (GPa) = 36.89607 60.47378 48.68493
# Shear Modulus (GPa) = 59.09828 21.00152 40.04990
#
# Velocity S-wave (km/s) = 5.62995 3.35616 4.63466
# Velocity P-wave (km/s) = 7.87720 6.88857 7.39941
#
# Compressibility (1/GPa) = 0.02710315
#
# Stress axis : x y z
#
# Youngs Moduli (GPa) = 100.74971 32.05486 85.89728
#
# Poissons Ratio (x) = 0.14393 0.39916
# Poissons Ratio (y) = 0.45237 0.31725
# Poissons Ratio (z) = 0.46818 0.11839
#
# Static dielectric constant tensor:
#      x y z
#    x 3.944950 0.000000 0.000000 
#    y 0.000000 3.097590 0.000000 
#    z 0.000000 0.000000 3.441420 
# 
# 
# High freq. dielectric constant tensor:
#      x y z
#    x 1.738370 0.000000 0.000000 
#    y 0.000000 1.694870 0.000000 
#    z 0.000000 0.000000 1.726670 
# 
# From -- ./inp_files/23876.got.cif
#   From: 2010.03.12/outbox.cif.g09.slc.cpg/sg51_12_cif.got.tgz:23876.got - 2010.04.16 13:43:02.
