data_PCOD8206878
_publ_section_title
;
Structure prediction by ZEFSAII (Michael W. Deem and Ramdas Pophale) SiO2 
 PCOD8206878
Probable space group: P M M A
;
_chemical_formula_sum "Si O2"
_cell_formula_units_Z 64
_cell_length_a 9.444525
_cell_length_b 14.170664
_cell_length_c 31.272870
_cell_angle_alpha 90.000000
_cell_angle_beta 90.000000
_cell_angle_gamma 90.000000
_cell_volume 4185.410511
_symmetry_space_group_name_H-M "P M M A"
_symmetry_group_IT_number 51
_symmetry_cell_setting 'orthorhombic'
loop_
_space_group_symop_operation_xyz
x,y,z
1/2-x,-y,z
1/2+x,-y,-z
-x,y,-z
-x,-y,-z
1/2+x,y,-z
1/2-x,y,z
x,-y,z
loop_
_atom_site_type_symbol
_atom_site_label
_atom_site_fract_x
_atom_site_fract_y
_atom_site_fract_z
Si Si1 0.090788 0.612147 0.632322
Si Si2 0.918755 0.273730 0.958509
Si Si3 0.417461 0.394545 0.123324
Si Si4 0.085046 0.608848 0.288313
Si Si5 0.413152 0.106902 0.822321
Si Si6 0.909102 0.612287 0.461493
Si Si7 0.582410 0.278485 0.795432
Si Si8 0.911902 0.891943 0.078195
O O1 0.250000 0.649283 0.639664
O O2 0.088314 0.500000 0.633584
O O3 0.035110 0.645400 0.585405
O O4 0.992383 0.652055 0.670062
O O5 0.750000 0.269471 0.965761
O O6 0.962427 0.342712 0.920056
O O7 0.977717 0.169321 0.948925
O O8 0.000000 0.313774 0.000000
O O9 0.250000 0.400447 0.127003
O O10 0.482415 0.500000 0.123301
O O11 0.476403 0.337455 0.164072
O O12 0.250000 0.620226 0.296878
O O13 0.044271 0.500000 0.280236
O O14 0.035844 0.666756 0.247059
O O15 0.250000 0.130277 0.813134
O O16 0.510670 0.176000 0.794574
O O17 0.447754 0.120689 0.872096
O O18 0.448305 0.000000 0.808420
O O19 0.750000 0.648522 0.467788
O O20 0.914578 0.500000 0.463940
O O21 0.000000 0.657487 0.500000
O O22 0.750000 0.264937 0.798101
O O23 0.750000 0.860239 0.068897
O O24 0.933171 0.000000 0.064330
#
# Coordination Sequence:
#
# PCOD8206878 Si02
#       8
#     8   8   8   8   8   8   8   8
#     4   8  14  24  35  48  72 105 140 179 220 260
#     4  11  22  35  52  72  92 117 144 172 207 247
#     4   9  18  33  51  69  89 114 143 174 209 246
#     4   9  17  27  40  60  85 113 144 179 218 254
#     4   9  18  32  50  71  94 116 135 163 207 252
#     4   8  13  20  30  45  65  93 132 178 223 261
#     4  10  18  30  49  71  90 111 142 177 209 247
#     4   9  18  34  54  73  94 117 138 166 205 247
#
# _framework density 15.291212
#
# number of rings (size 3 to 8) (size 9 to 14) (size 15 to 20)
#    0.000    2.875    1.250    2.250    0.000    3.500 
#    0.000    3.750    0.000    3.750    0.000    0.000 
#    0.000    0.000    0.000    0.000    0.000    0.625 
#
# Total GULP energy -793355.750561 kJ/mol
# GULP energy per Si atom -12396.183603 kJ/mol
# Density = 1.525641 g / cm^3
# Si number density = 15.291212 Si / 1000 Ang^3
#
#
#
# Elastic Constant Matrix: (Units=GPa)
#
#
# Indices 1 2 3 4 5 6 
#
# 1 54.5119 29.5788 55.3222 0.0000 0.0000 0.0000
# 2 29.5788 65.9445 44.3622 0.0000 0.0000 0.0000
# 3 55.3222 44.3622 136.9675 0.0000 0.0000 0.0000
# 4 0.0000 0.0000 0.0000 7.2860 0.0000 0.0000
# 5 0.0000 0.0000 0.0000 0.0000 28.5220 0.0000
# 6 0.0000 0.0000 0.0000 0.0000 0.0000 16.9472
#
#
#
# Elastic Compliance Matrix: (Units=1/GPa)
#
#
# Indices 1 2 3 4 5 6 
#
# 1 0.033863 -0.007656 -0.011198 0.000000 0.000000 0.000000
# 2 -0.007656 0.021120 -0.003748 0.000000 0.000000 0.000000
# 3 -0.011198 -0.003748 0.013038 0.000000 0.000000 0.000000
# 4 0.000000 0.000000 0.000000 0.137249 0.000000 0.000000
# 5 0.000000 0.000000 0.000000 0.000000 0.035061 0.000000
# 6 0.000000 0.000000 0.000000 0.000000 0.000000 0.059007
#
#
# Mechanical properties :
#
#
# Convention : Reuss Voigt Hill
#
# Bulk Modulus (GPa) = 43.82738 57.32782 50.57760
# Shear Modulus (GPa) = 14.19860 19.09508 16.64684
#
# Velocity S-wave (km/s) = 3.05051 3.53762 3.30306
# Velocity P-wave (km/s) = 6.41339 7.36603 6.90615
#
# Compressibility (1/GPa) = 0.02281679
#
# Stress axis : x y z
#
# Youngs Moduli (GPa) = 29.53056 47.34912 76.69945
#
# Poissons Ratio (x) = 0.36250 0.85887
# Poissons Ratio (y) = 0.22609 0.28748
# Poissons Ratio (z) = 0.33068 0.17747
#
# Static dielectric constant tensor:
#      x y z
#    x 2.868520 0.000000 0.000000 
#    y 0.000000 2.693440 0.000000 
#    z 0.000000 0.000000 3.128250 
# 
# 
# High freq. dielectric constant tensor:
#      x y z
#    x 1.578160 0.000000 0.000000 
#    y 0.000000 1.546070 0.000000 
#    z 0.000000 0.000000 1.584540 
# 
# From -- ./inp_files/37580.got.cif
#   From: 2010.03.12/outbox.cif.g09.slc.cpg/sg51_19_cif.got.tgz:37580.got - 2010.04.16 13:43:02.
