data_PCOD8206461
_publ_section_title
;
Structure prediction by ZEFSAII (Michael W. Deem and Ramdas Pophale) SiO2 
 PCOD8206461
Probable space group: P M M A
;
_chemical_formula_sum "Si O2"
_cell_formula_units_Z 56
_cell_length_a 8.937118
_cell_length_b 18.369958
_cell_length_c 21.067321
_cell_angle_alpha 90.000000
_cell_angle_beta 90.000000
_cell_angle_gamma 90.000000
_cell_volume 3458.716519
_symmetry_space_group_name_H-M "P M M A"
_symmetry_group_IT_number 51
_symmetry_cell_setting 'orthorhombic'
loop_
_space_group_symop_operation_xyz
x,y,z
1/2-x,-y,z
1/2+x,-y,-z
-x,y,-z
-x,-y,-z
1/2+x,y,-z
1/2-x,y,z
x,-y,z
loop_
_atom_site_type_symbol
_atom_site_label
_atom_site_fract_x
_atom_site_fract_y
_atom_site_fract_z
Si Si1 0.425011 0.916946 0.309304
Si Si2 0.572534 0.663590 0.565002
Si Si3 0.926030 0.916877 0.065376
Si Si4 0.924611 0.583236 0.320779
Si Si5 0.917309 0.793742 0.374540
Si Si6 0.923929 0.162954 0.820148
Si Si7 0.415577 0.286830 0.758896
O O1 0.250000 0.908341 0.321616
O O2 0.509589 0.873069 0.364726
O O3 0.466440 0.887045 0.239746
O O4 0.478477 0.000000 0.312969
O O5 0.500000 0.634728 0.500000
O O6 0.750000 0.663808 0.559617
O O7 0.523334 0.608111 0.619846
O O8 0.515617 0.745832 0.577422
O O9 0.750000 0.908529 0.058630
O O10 0.983135 0.865052 0.120605
O O11 0.972688 0.000000 0.080685
O O12 0.000000 0.890864 0.000000
O O13 0.750000 0.595482 0.338044
O O14 0.961004 0.500000 0.304566
O O15 0.965430 0.630309 0.257528
O O16 0.750000 0.802778 0.402267
O O17 0.913388 0.753986 0.307699
O O18 0.750000 0.159387 0.836541
O O19 0.969287 0.246947 0.806192
O O20 0.250000 0.285071 0.789790
#
# Coordination Sequence:
#
# PCOD8206461 Si02
#       7
#     8   8   8   8   8   8   8
#     4   9  17  28  43  65  91 117 146 183 227 271
#     4  11  21  33  49  67  88 116 150 183 217 262
#     4  10  20  32  45  62  88 123 160 196 233 271
#     4   9  18  33  51  71  96 122 147 179 220 264
#     4   9  17  30  46  64  86 112 145 184 225 267
#     4  10  18  28  44  65  90 120 154 190 223 259
#     4   8  15  28  45  65  89 117 147 180 219 262
#
# _framework density 16.190977
#
# number of rings (size 3 to 8) (size 9 to 14) (size 15 to 20)
#    0.000    2.571    0.000    3.857    0.000    6.286 
#    0.000    0.000    0.000    0.429    0.000    0.000 
#    0.000    0.571    0.000    1.571    0.000    2.286 
#
# Total GULP energy -694320.922178 kJ/mol
# GULP energy per Si atom -12398.587896 kJ/mol
# Density = 1.615413 g / cm^3
# Si number density = 16.190977 Si / 1000 Ang^3
#
#
#
# Elastic Constant Matrix: (Units=GPa)
#
#
# Indices 1 2 3 4 5 6 
#
# 1 84.7729 39.2886 29.5872 0.0000 0.0000 0.0000
# 2 39.2886 117.2279 35.3297 0.0000 0.0000 0.0000
# 3 29.5872 35.3297 47.0492 0.0000 0.0000 0.0000
# 4 0.0000 0.0000 0.0000 15.1925 0.0000 0.0000
# 5 0.0000 0.0000 0.0000 0.0000 24.8199 0.0000
# 6 0.0000 0.0000 0.0000 0.0000 0.0000 23.6841
#
#
#
# Elastic Compliance Matrix: (Units=1/GPa)
#
#
# Indices 1 2 3 4 5 6 
#
# 1 0.015885 -0.002990 -0.007744 0.000000 0.000000 0.000000
# 2 -0.002990 0.011588 -0.006822 0.000000 0.000000 0.000000
# 3 -0.007744 -0.006822 0.031247 0.000000 0.000000 0.000000
# 4 0.000000 0.000000 0.000000 0.065822 0.000000 0.000000
# 5 0.000000 0.000000 0.000000 0.000000 0.040290 0.000000
# 6 0.000000 0.000000 0.000000 0.000000 0.000000 0.042222
#
#
# Mechanical properties :
#
#
# Convention : Reuss Voigt Hill
#
# Bulk Modulus (GPa) = 42.35740 50.82900 46.59320
# Shear Modulus (GPa) = 19.99724 22.39562 21.19643
#
# Velocity S-wave (km/s) = 3.51819 3.72320 3.62214
# Velocity P-wave (km/s) = 6.53617 7.06714 6.80683
#
# Compressibility (1/GPa) = 0.02360863
#
# Stress axis : x y z
#
# Youngs Moduli (GPa) = 62.95359 86.29406 32.00343
#
# Poissons Ratio (x) = 0.25801 0.24784
# Poissons Ratio (y) = 0.18822 0.21831
# Poissons Ratio (z) = 0.48752 0.58866
#
# Static dielectric constant tensor:
#      x y z
#    x 3.156420 0.000000 0.000000 
#    y 0.000000 3.247980 0.000000 
#    z 0.000000 0.000000 2.836640 
# 
# 
# High freq. dielectric constant tensor:
#      x y z
#    x 1.632620 0.000000 0.000000 
#    y 0.000000 1.613420 0.000000 
#    z 0.000000 0.000000 1.586490 
# 
# From -- ./inp_files/32214.got.cif
#   From: 2010.03.12/outbox.cif.g09.slc.cpg/sg51_17_cif.got.tgz:32214.got - 2010.04.16 13:43:02.
