data_PCOD8206205
_publ_section_title
;
Structure prediction by ZEFSAII (Michael W. Deem and Ramdas Pophale) SiO2 
 PCOD8206205
Probable space group: P M M A
;
_chemical_formula_sum "Si O2"
_cell_formula_units_Z 64
_cell_length_a 8.937873
_cell_length_b 15.534087
_cell_length_c 23.984743
_cell_angle_alpha 90.000000
_cell_angle_beta 90.000000
_cell_angle_gamma 90.000000
_cell_volume 3330.082415
_symmetry_space_group_name_H-M "P M M A"
_symmetry_group_IT_number 51
_symmetry_cell_setting 'orthorhombic'
loop_
_space_group_symop_operation_xyz
x,y,z
1/2-x,-y,z
1/2+x,-y,-z
-x,y,-z
-x,-y,-z
1/2+x,y,-z
1/2-x,y,z
x,-y,z
loop_
_atom_site_type_symbol
_atom_site_label
_atom_site_fract_x
_atom_site_fract_y
_atom_site_fract_z
Si Si1 0.927512 0.904755 0.133077
Si Si2 0.571880 0.746890 0.059954
Si Si3 0.072484 0.850231 0.746437
Si Si4 0.072877 0.343689 0.743120
Si Si5 0.927469 0.249140 0.559589
Si Si6 0.924411 0.597682 0.376289
Si Si7 0.577951 0.095200 0.638090
Si Si8 0.927763 0.595052 0.139232
O O1 0.750000 0.898463 0.135243
O O2 0.987519 0.834077 0.089474
O O3 0.989797 0.886245 0.194970
O O4 0.980221 0.000000 0.113894
O O5 0.750000 0.746430 0.054653
O O6 0.512496 0.665827 0.095839
O O7 0.500000 0.740149 0.000000
O O8 0.250000 0.855399 0.744838
O O9 0.013113 0.753322 0.739037
O O10 0.009675 0.906331 0.696160
O O11 0.250000 0.344073 0.747958
O O12 0.021707 0.394503 0.687918
O O13 0.006245 0.387466 0.798856
O O14 0.750000 0.250247 0.553478
O O15 0.984495 0.168907 0.596975
O O16 0.000000 0.235910 0.500000
O O17 0.980020 0.339410 0.585256
O O18 0.750000 0.622694 0.381577
O O19 0.952783 0.500000 0.396245
O O20 0.750000 0.114603 0.651204
O O21 0.557471 0.000000 0.610919
O O22 0.750000 0.600976 0.141666
O O23 0.980104 0.500000 0.119817
#
# Coordination Sequence:
#
# PCOD8206205 Si02
#       8
#     8   8   8   8   8   8   8   8
#     4   9  17  30  50  76 103 131 168 215 262 307
#     4  10  20  34  50  70  97 133 175 218 260 305
#     4  10  17  30  56  85 109 135 171 216 264 316
#     4   9  15  27  51  82 111 135 167 212 259 312
#     4  11  24  41  60  80 107 145 186 228 267 310
#     4  10  20  35  58  87 116 143 173 216 269 322
#     4  10  22  39  57  81 114 147 176 213 269 328
#     4   9  16  28  49  76 104 134 168 209 259 310
#
# _framework density 19.218744000000001
#
# number of rings (size 3 to 8) (size 9 to 14) (size 15 to 20)
#    0.000    2.250    2.500    1.125    0.000    4.000 
#    0.000    0.625    0.000    1.500    0.000    0.000 
#    0.000    0.000    0.000    0.000    0.000    0.000 
#
# Total GULP energy -793482.839017 kJ/mol
# GULP energy per Si atom -12398.169360 kJ/mol
# Density = 1.917500 g / cm^3
# Si number density = 19.218744 Si / 1000 Ang^3
#
#
#
# Elastic Constant Matrix: (Units=GPa)
#
#
# Indices 1 2 3 4 5 6 
#
# 1 26.9240 21.0949 24.6499 0.0000 0.0000 0.0000
# 2 21.0949 145.4470 56.2624 0.0000 0.0000 0.0000
# 3 24.6499 56.2624 132.2037 0.0000 0.0000 0.0000
# 4 0.0000 0.0000 0.0000 16.3104 0.0000 0.0000
# 5 0.0000 0.0000 0.0000 0.0000 25.3893 0.0000
# 6 0.0000 0.0000 0.0000 0.0000 0.0000 17.1991
#
#
#
# Elastic Compliance Matrix: (Units=1/GPa)
#
#
# Indices 1 2 3 4 5 6 
#
# 1 0.046724 -0.004078 -0.006976 0.000000 0.000000 0.000000
# 2 -0.004078 0.008586 -0.002894 0.000000 0.000000 0.000000
# 3 -0.006976 -0.002894 0.010096 0.000000 0.000000 0.000000
# 4 0.000000 0.000000 0.000000 0.061311 0.000000 0.000000
# 5 0.000000 0.000000 0.000000 0.000000 0.039387 0.000000
# 6 0.000000 0.000000 0.000000 0.000000 0.000000 0.058142
#
#
# Mechanical properties :
#
#
# Convention : Reuss Voigt Hill
#
# Bulk Modulus (GPa) = 26.65939 56.50989 41.58464
# Shear Modulus (GPa) = 18.89322 25.28427 22.08874
#
# Velocity S-wave (km/s) = 3.13878 3.63106 3.39386
# Velocity P-wave (km/s) = 5.19977 6.85907 6.08623
#
# Compressibility (1/GPa) = 0.03751023
#
# Stress axis : x y z
#
# Youngs Moduli (GPa) = 21.40241 116.46660 99.04594
#
# Poissons Ratio (x) = 0.47495 0.69098
# Poissons Ratio (y) = 0.08728 0.28661
# Poissons Ratio (z) = 0.14931 0.33702
#
# Static dielectric constant tensor:
#      x y z
#    x 3.024740 0.000000 0.000000 
#    y 0.000000 3.814260 0.000000 
#    z 0.000000 0.000000 3.549170 
# 
# 
# High freq. dielectric constant tensor:
#      x y z
#    x 1.695150 0.000000 0.000000 
#    y 0.000000 1.766800 0.000000 
#    z 0.000000 0.000000 1.747800 
# 
# From -- ./inp_files/34890.got.cif
#   From: 2010.03.12/outbox.cif.g09.slc.cpg/sg51_18_cif.got.tgz:34890.got - 2010.04.16 13:43:02.
