data_PCOD8206943
_publ_section_title
;
Structure prediction by ZEFSAII (Michael W. Deem and Ramdas Pophale) SiO2 
 PCOD8206943
Probable space group: P M M A
;
_chemical_formula_sum "Si O2"
_cell_formula_units_Z 64
_cell_length_a 23.341161
_cell_length_b 9.165201
_cell_length_c 18.074099
_cell_angle_alpha 90.000000
_cell_angle_beta 90.000000
_cell_angle_gamma 90.000000
_cell_volume 3866.527513
_symmetry_space_group_name_H-M "P M M A"
_symmetry_group_IT_number 51
_symmetry_cell_setting 'orthorhombic'
loop_
_space_group_symop_operation_xyz
x,y,z
1/2-x,-y,z
1/2+x,-y,-z
-x,y,-z
-x,-y,-z
1/2+x,y,-z
1/2-x,y,z
x,-y,z
loop_
_atom_site_type_symbol
_atom_site_label
_atom_site_fract_x
_atom_site_fract_y
_atom_site_fract_z
Si Si1 0.681945 0.662075 0.064897
Si Si2 0.002440 0.173079 0.413950
Si Si3 0.315337 0.329763 0.218777
Si Si4 0.891169 0.326028 0.362381
Si Si5 0.686107 0.673592 0.227481
Si Si6 0.884948 0.670999 0.636034
Si Si7 0.318223 0.836790 0.074143
Si Si8 0.313116 0.671989 0.504539
O O1 0.750000 0.653881 0.058869
O O2 0.656071 0.500000 0.054841
O O3 0.665808 0.726873 0.145916
O O4 0.656291 0.762933 0.000025
O O5 0.059511 0.231476 0.375630
O O6 0.000000 0.221361 0.500000
O O7 0.951587 0.246368 0.367804
O O8 0.999154 0.000000 0.406080
O O9 0.250000 0.282782 0.237572
O O10 0.317657 0.500000 0.201416
O O11 0.356468 0.287740 0.286200
O O12 0.339432 0.248044 0.146730
O O13 0.900270 0.500000 0.364500
O O14 0.859765 0.272847 0.287646
O O15 0.852970 0.267883 0.430291
O O16 0.750000 0.734304 0.246316
O O17 0.689494 0.500000 0.227176
O O18 0.901030 0.500000 0.631013
O O19 0.839135 0.715182 0.574060
O O20 0.250000 0.834514 0.070988
O O21 0.342434 0.000000 0.077962
O O22 0.250000 0.742766 0.510911
O O23 0.307967 0.500000 0.512944
#
# Coordination Sequence:
#
# PCOD8206943 Si02
#       8
#     8   8   8   8   8   8   8   8
#     4   8  13  23  40  62  92 127 157 185 222 270
#     4  11  23  37  50  64  89 124 162 203 241 276
#     4   9  17  29  46  70  99 125 150 188 238 286
#     4  10  18  30  51  73  93 120 157 197 235 277
#     4   8  14  25  44  73 102 124 151 191 237 282
#     4  10  19  32  51  72  92 118 157 198 235 278
#     4   9  16  25  39  62  93 128 163 191 218 264
#     4   9  16  26  45  73  98 118 145 186 233 277
#
# _framework density 16.552319000000001
#
# number of rings (size 3 to 8) (size 9 to 14) (size 15 to 20)
#    0.000    2.750    1.250    2.250    0.000    5.500 
#    0.000    0.625    0.000    4.125    0.000    0.875 
#    0.000    7.000    0.000    0.000    0.000    0.000 
#
# Total GULP energy -793400.323923 kJ/mol
# GULP energy per Si atom -12396.880061 kJ/mol
# Density = 1.651465 g / cm^3
# Si number density = 16.552319 Si / 1000 Ang^3
#
#
#
# Elastic Constant Matrix: (Units=GPa)
#
#
# Indices 1 2 3 4 5 6 
#
# 1 64.5228 25.4735 28.7121 0.0000 0.0000 0.0000
# 2 25.4735 51.5192 43.2592 0.0000 0.0000 0.0000
# 3 28.7121 43.2592 128.3743 0.0000 0.0000 0.0000
# 4 0.0000 0.0000 0.0000 15.3696 0.0000 0.0000
# 5 0.0000 0.0000 0.0000 0.0000 -7.2436 0.0000
# 6 0.0000 0.0000 0.0000 0.0000 0.0000 9.7209
#
#
#
# Elastic Compliance Matrix: (Units=1/GPa)
#
#
# Indices 1 2 3 4 5 6 
#
# 1 0.019476 -0.008329 -0.001549 0.000000 0.000000 0.000000
# 2 -0.008329 0.030631 -0.008459 0.000000 0.000000 0.000000
# 3 -0.001549 -0.008459 0.010987 0.000000 0.000000 0.000000
# 4 0.000000 0.000000 0.000000 0.065063 0.000000 0.000000
# 5 0.000000 0.000000 0.000000 0.000000 -0.138052 0.000000
# 6 0.000000 0.000000 0.000000 0.000000 0.000000 0.102871
#
#
# Mechanical properties :
#
#
# Convention : Reuss Voigt Hill
#
# Bulk Modulus (GPa) = 40.95128 48.81176 44.88152
# Shear Modulus (GPa) = 36.82125 13.36749 25.09437
#
# Velocity S-wave (km/s) = 4.72162 2.84490 3.89789
# Velocity P-wave (km/s) = 7.38371 6.35174 6.88708
#
# Compressibility (1/GPa) = 0.02441926
#
# Stress axis : x y z
#
# Youngs Moduli (GPa) = 51.34499 32.64618 91.01821
#
# Poissons Ratio (x) = 0.27191 0.14102
# Poissons Ratio (y) = 0.42765 0.76995
# Poissons Ratio (z) = 0.07955 0.27616
#
# Static dielectric constant tensor:
#      x y z
#    x 2.816350 0.000000 0.000000 
#    y 0.000000 2.917420 0.000000 
#    z 0.000000 0.000000 3.371090 
# 
# 
# High freq. dielectric constant tensor:
#      x y z
#    x 1.601870 0.000000 0.000000 
#    y 0.000000 1.610760 0.000000 
#    z 0.000000 0.000000 1.648770 
# 
# From -- ./inp_files/30833.got.cif
#   From: 2010.03.12/outbox.cif.g09.slc.cpg/sg51_16_cif.got.tgz:30833.got - 2010.04.16 13:43:02.
