data_PCOD8206483
_publ_section_title
;
Structure prediction by ZEFSAII (Michael W. Deem and Ramdas Pophale) SiO2 
 PCOD8206483
Probable space group: P M M A
;
_chemical_formula_sum "Si O2"
_cell_formula_units_Z 64
_cell_length_a 9.221057
_cell_length_b 14.112986
_cell_length_c 29.200361
_cell_angle_alpha 90.000000
_cell_angle_beta 90.000000
_cell_angle_gamma 90.000000
_cell_volume 3800.037111
_symmetry_space_group_name_H-M "P M M A"
_symmetry_group_IT_number 51
_symmetry_cell_setting 'orthorhombic'
loop_
_space_group_symop_operation_xyz
x,y,z
1/2-x,-y,z
1/2+x,-y,-z
-x,y,-z
-x,-y,-z
1/2+x,y,-z
1/2-x,y,z
x,-y,z
loop_
_atom_site_type_symbol
_atom_site_label
_atom_site_fract_x
_atom_site_fract_y
_atom_site_fract_z
Si Si1 0.922537 0.394035 0.641906
Si Si2 0.915387 0.112069 0.127113
Si Si3 0.418296 0.711235 0.269477
Si Si4 0.915735 0.393365 0.898893
Si Si5 0.089651 0.387343 0.457848
Si Si6 0.083047 0.107003 0.217489
Si Si7 0.081520 0.786136 0.046538
Si Si8 0.413844 0.612176 0.810684
O O1 0.750000 0.397071 0.638384
O O2 0.979451 0.500000 0.654414
O O3 0.975381 0.318735 0.680150
O O4 0.981353 0.361651 0.591770
O O5 0.750000 0.149380 0.124321
O O6 0.983395 0.142982 0.175764
O O7 0.011781 0.153104 0.086689
O O8 0.921255 0.000000 0.122655
O O9 0.250000 0.684511 0.264699
O O10 0.444256 0.823361 0.260694
O O11 0.503178 0.650524 0.232778
O O12 0.750000 0.391305 0.881845
O O13 0.962299 0.500000 0.913091
O O14 0.937519 0.325583 0.942567
O O15 0.012369 0.352236 0.857587
O O16 0.250000 0.343638 0.461628
O O17 0.096600 0.500000 0.461980
O O18 0.000000 0.343035 0.500000
O O19 0.250000 0.112577 0.201221
O O20 0.042656 0.000000 0.232711
O O21 0.250000 0.813802 0.041596
O O22 0.000000 0.810984 0.000000
O O23 0.250000 0.649956 0.810237
O O24 0.421830 0.500000 0.808845
#
# Coordination Sequence:
#
# PCOD8206483 Si02
#       8
#     8   8   8   8   8   8   8   8
#     4   8  14  24  38  58  84 114 150 187 218 255
#     4  10  21  37  56  75  94 118 147 178 215 262
#     4  10  18  28  45  65  87 120 154 181 216 264
#     4   9  19  36  54  70  90 119 154 184 210 250
#     4   8  13  22  36  53  75 106 144 184 222 258
#     4   9  18  32  49  70  94 117 144 181 222 261
#     4  11  23  37  54  75  97 120 145 177 218 260
#     4  10  20  31  44  66  94 120 146 180 220 256
#
# _framework density 16.841942
#
# number of rings (size 3 to 8) (size 9 to 14) (size 15 to 20)
#    0.000    2.625    0.000    3.000    0.000    7.000 
#    0.000    0.625    0.000    2.250    0.000    0.000 
#    0.000    0.500    0.000    0.375    0.000    0.750 
#
# Total GULP energy -793390.319777 kJ/mol
# GULP energy per Si atom -12396.723747 kJ/mol
# Density = 1.680361 g / cm^3
# Si number density = 16.841942 Si / 1000 Ang^3
#
#
#
# Elastic Constant Matrix: (Units=GPa)
#
#
# Indices 1 2 3 4 5 6 
#
# 1 74.3311 26.0582 46.7342 0.0000 0.0000 0.0000
# 2 26.0582 41.8867 53.0399 0.0000 0.0000 0.0000
# 3 46.7342 53.0399 127.7277 0.0000 0.0000 0.0000
# 4 0.0000 0.0000 0.0000 18.8814 0.0000 0.0000
# 5 0.0000 0.0000 0.0000 0.0000 20.9786 0.0000
# 6 0.0000 0.0000 0.0000 0.0000 0.0000 17.1180
#
#
#
# Elastic Compliance Matrix: (Units=1/GPa)
#
#
# Indices 1 2 3 4 5 6 
#
# 1 0.018180 -0.006088 -0.004124 0.000000 0.000000 0.000000
# 2 -0.006088 0.052388 -0.019527 0.000000 0.000000 0.000000
# 3 -0.004124 -0.019527 0.017447 0.000000 0.000000 0.000000
# 4 0.000000 0.000000 0.000000 0.052962 0.000000 0.000000
# 5 0.000000 0.000000 0.000000 0.000000 0.047668 0.000000
# 6 0.000000 0.000000 0.000000 0.000000 0.000000 0.058418
#
#
# Mechanical properties :
#
#
# Convention : Reuss Voigt Hill
#
# Bulk Modulus (GPa) = 35.04233 55.06781 45.05507
# Shear Modulus (GPa) = 15.82012 19.26979 17.54496
#
# Velocity S-wave (km/s) = 3.06817 3.38621 3.23110
# Velocity P-wave (km/s) = 5.77956 6.93227 6.38199
#
# Compressibility (1/GPa) = 0.02853691
#
# Stress axis : x y z
#
# Youngs Moduli (GPa) = 55.00405 19.08845 57.31767
#
# Poissons Ratio (x) = 0.11622 0.23636
# Poissons Ratio (y) = 0.33489 1.11923
# Poissons Ratio (z) = 0.22682 0.37273
#
# Static dielectric constant tensor:
#      x y z
#    x 3.225530 0.000000 0.000000 
#    y 0.000000 3.145970 0.000000 
#    z 0.000000 0.000000 3.275230 
# 
# 
# High freq. dielectric constant tensor:
#      x y z
#    x 1.643160 0.000000 0.000000 
#    y 0.000000 1.630550 0.000000 
#    z 0.000000 0.000000 1.637430 
# 
# From -- ./inp_files/37598.got.cif
#   From: 2010.03.12/outbox.cif.g09.slc.cpg/sg51_19_cif.got.tgz:37598.got - 2010.04.16 13:43:02.
