data_PCOD8206846
_publ_section_title
;
Structure prediction by ZEFSAII (Michael W. Deem and Ramdas Pophale) SiO2 
 PCOD8206846
Probable space group: P M M A
;
_chemical_formula_sum "Si O2"
_cell_formula_units_Z 64
_cell_length_a 25.152505
_cell_length_b 8.919793
_cell_length_c 17.017488
_cell_angle_alpha 90.000000
_cell_angle_beta 90.000000
_cell_angle_gamma 90.000000
_cell_volume 3817.960869
_symmetry_space_group_name_H-M "P M M A"
_symmetry_group_IT_number 51
_symmetry_cell_setting 'orthorhombic'
loop_
_space_group_symop_operation_xyz
x,y,z
1/2-x,-y,z
1/2+x,-y,-z
-x,y,-z
-x,-y,-z
1/2+x,y,-z
1/2-x,y,z
x,-y,z
loop_
_atom_site_type_symbol
_atom_site_label
_atom_site_fract_x
_atom_site_fract_y
_atom_site_fract_z
Si Si1 0.310635 0.827432 0.925916
Si Si2 0.898194 0.177724 0.812659
Si Si3 0.061867 0.676006 0.656544
Si Si4 0.561208 0.676488 0.659264
Si Si5 0.063155 0.169027 0.498820
Si Si6 0.811929 0.673627 0.913739
Si Si7 0.001524 0.822016 0.087901
Si Si8 0.402623 0.824412 0.809727
O O1 0.250000 0.794211 0.901369
O O2 0.346919 0.787350 0.851508
O O3 0.318904 0.000000 0.950877
O O4 0.328564 0.727930 0.999579
O O5 0.904270 0.248033 0.726987
O O6 0.842760 0.232361 0.848278
O O7 0.945752 0.236098 0.868505
O O8 0.898542 0.000000 0.804886
O O9 0.068768 0.500000 0.647092
O O10 0.084481 0.752197 0.577640
O O11 0.097000 0.735146 0.728429
O O12 0.000488 0.720359 0.671309
O O13 0.569800 0.500000 0.660699
O O14 0.583298 0.739464 0.576821
O O15 0.000000 0.171216 0.500000
O O16 0.085270 0.000000 0.494894
O O17 0.750000 0.704550 0.899456
O O18 0.826573 0.500000 0.905773
O O19 0.950044 0.764897 0.134852
O O20 0.001377 0.000000 0.083496
O O21 0.000000 0.754051 0.000000
O O22 0.409421 0.000000 0.791841
#
# Coordination Sequence:
#
# PCOD8206846 Si02
#       8
#     8   8   8   8   8   8   8   8
#     4   9  18  33  53  74  94 123 167 213 251 287
#     4  11  20  31  50  72  97 128 165 203 240 288
#     4  10  19  30  45  68 100 132 163 198 240 289
#     4  10  19  31  46  68 101 132 160 197 242 289
#     4   9  17  29  47  68  93 127 167 200 235 284
#     4  10  21  36  52  70  95 127 163 206 254 296
#     4   9  17  28  43  65  93 126 160 193 236 286
#     4  10  18  30  48  69  98 130 163 202 243 289
#
# _framework density 16.762874
#
# number of rings (size 3 to 8) (size 9 to 14) (size 15 to 20)
#    0.000    2.250    1.250    2.625    0.000    5.750 
#    0.000    0.000    0.000    1.875    0.000    0.875 
#    0.000    5.000    0.000    0.000    0.000    0.000 
#
# Total GULP energy -793785.411318 kJ/mol
# GULP energy per Si atom -12402.897052 kJ/mol
# Density = 1.672472 g / cm^3
# Si number density = 16.762874 Si / 1000 Ang^3
#
#
#
# Elastic Constant Matrix: (Units=GPa)
#
#
# Indices 1 2 3 4 5 6 
#
# 1 60.2082 31.1221 49.2079 0.0000 0.0000 0.0000
# 2 31.1221 76.8396 54.6502 0.0000 0.0000 0.0000
# 3 49.2079 54.6502 152.3628 0.0000 0.0000 0.0000
# 4 0.0000 0.0000 0.0000 27.2603 0.0000 0.0000
# 5 0.0000 0.0000 0.0000 0.0000 21.2668 0.0000
# 6 0.0000 0.0000 0.0000 0.0000 0.0000 18.3305
#
#
#
# Elastic Compliance Matrix: (Units=1/GPa)
#
#
# Indices 1 2 3 4 5 6 
#
# 1 0.024304 -0.005721 -0.005798 0.000000 0.000000 0.000000
# 2 -0.005721 0.018818 -0.004902 0.000000 0.000000 0.000000
# 3 -0.005798 -0.004902 0.010194 0.000000 0.000000 0.000000
# 4 0.000000 0.000000 0.000000 0.036683 0.000000 0.000000
# 5 0.000000 0.000000 0.000000 0.000000 0.047022 0.000000
# 6 0.000000 0.000000 0.000000 0.000000 0.000000 0.054554
#
#
# Mechanical properties :
#
#
# Convention : Reuss Voigt Hill
#
# Bulk Modulus (GPa) = 48.83867 62.15233 55.49550
# Shear Modulus (GPa) = 21.62253 23.66688 22.64471
#
# Velocity S-wave (km/s) = 3.59542 3.76155 3.67943
# Velocity P-wave (km/s) = 6.81428 7.48489 7.15744
#
# Compressibility (1/GPa) = 0.02047558
#
# Stress axis : x y z
#
# Youngs Moduli (GPa) = 41.14481 53.14194 98.09700
#
# Poissons Ratio (x) = 0.30400 0.56873
# Poissons Ratio (y) = 0.23537 0.48087
# Poissons Ratio (z) = 0.23854 0.26050
#
# Static dielectric constant tensor:
#      x y z
#    x 2.922320 0.000000 0.000000 
#    y 0.000000 3.097090 0.000000 
#    z 0.000000 0.000000 3.237630 
# 
# 
# High freq. dielectric constant tensor:
#      x y z
#    x 1.608720 0.000000 0.000000 
#    y 0.000000 1.645580 0.000000 
#    z 0.000000 0.000000 1.652660 
# 
# From -- ./inp_files/26202.got.cif
#   From: 2010.03.12/outbox.cif.g09.slc.cpg/sg51_14_cif.got.tgz:26202.got - 2010.04.16 13:43:02.
