data_PCOD8206008
_publ_section_title
;
Structure prediction by ZEFSAII (Michael W. Deem and Ramdas Pophale) SiO2 
 PCOD8206008
Probable space group: P M M A
;
_chemical_formula_sum "Si O2"
_cell_formula_units_Z 64
_cell_length_a 22.792996
_cell_length_b 9.161419
_cell_length_c 20.088945
_cell_angle_alpha 90.000000
_cell_angle_beta 90.000000
_cell_angle_gamma 90.000000
_cell_volume 4194.896888
_symmetry_space_group_name_H-M "P M M A"
_symmetry_group_IT_number 51
_symmetry_cell_setting 'orthorhombic'
loop_
_space_group_symop_operation_xyz
x,y,z
1/2-x,-y,z
1/2+x,-y,-z
-x,y,-z
-x,-y,-z
1/2+x,y,-z
1/2-x,y,z
x,-y,z
loop_
_atom_site_type_symbol
_atom_site_label
_atom_site_fract_x
_atom_site_fract_y
_atom_site_fract_z
Si Si1 0.027134 0.328740 0.650043
Si Si2 0.024015 0.829066 0.784980
Si Si3 0.434212 0.834920 0.525973
Si Si4 0.397550 0.329174 0.401434
Si Si5 0.551813 0.665634 0.090548
Si Si6 0.818867 0.169058 0.701155
Si Si7 0.392229 0.831317 0.174168
Si Si8 0.583164 0.663784 0.949239
O O1 0.040625 0.500000 0.651555
O O2 0.044507 0.257007 0.719853
O O3 0.068437 0.253902 0.594831
O O4 0.959021 0.297239 0.634896
O O5 0.063272 0.772055 0.846962
O O6 0.956103 0.791740 0.797496
O O7 0.034927 0.000000 0.774904
O O8 0.500000 0.837114 0.500000
O O9 0.393990 0.752089 0.472311
O O10 0.410986 0.000000 0.536521
O O11 0.388328 0.500000 0.413726
O O12 0.345220 0.267210 0.357029
O O13 0.569487 0.500000 0.109527
O O14 0.484091 0.671108 0.071617
O O15 0.588990 0.720043 0.025869
O O16 0.750000 0.194126 0.702759
O O17 0.844777 0.221641 0.771882
O O18 0.835716 0.000000 0.688374
O O19 0.378868 0.756323 0.103148
O O20 0.386355 0.000000 0.159370
O O21 0.607015 0.500000 0.945541
#
# Coordination Sequence:
#
# PCOD8206008 Si02
#       8
#     8   8   8   8   8   8   8   8
#     4  10  18  27  40  59  82 108 136 167 204 245
#     4  10  17  24  37  56  79 106 136 168 201 237
#     4   9  17  28  43  60  79 103 132 166 202 245
#     4  10  19  30  44  60  79 103 134 173 211 249
#     4   8  14  24  35  51  74 100 130 161 194 235
#     4  10  20  33  46  59  79 108 141 177 216 253
#     4   9  17  27  39  55  74  99 134 173 208 242
#     4   8  14  24  38  52  70  98 130 162 198 239
#
# _framework density 15.256632
#
# number of rings (size 3 to 8) (size 9 to 14) (size 15 to 20)
#    0.000    2.750    1.250    2.250    0.000    4.250 
#    0.000    2.500    0.000    0.000    0.000    0.000 
#    0.000    0.000    0.000    1.125    0.000   19.250 
#
# Total GULP energy -793374.816762 kJ/mol
# GULP energy per Si atom -12396.481512 kJ/mol
# Density = 1.522191 g / cm^3
# Si number density = 15.256632 Si / 1000 Ang^3
#
#
#
# Elastic Constant Matrix: (Units=GPa)
#
#
# Indices 1 2 3 4 5 6 
#
# 1 30.5212 23.3589 33.3334 0.0000 0.0000 0.0000
# 2 23.3589 92.1554 76.4556 0.0000 0.0000 0.0000
# 3 33.3334 76.4556 153.0393 0.0000 0.0000 0.0000
# 4 0.0000 0.0000 0.0000 35.3476 0.0000 0.0000
# 5 0.0000 0.0000 0.0000 0.0000 11.3844 0.0000
# 6 0.0000 0.0000 0.0000 0.0000 0.0000 12.1607
#
#
#
# Elastic Compliance Matrix: (Units=1/GPa)
#
#
# Indices 1 2 3 4 5 6 
#
# 1 0.044588 -0.005541 -0.006943 0.000000 0.000000 0.000000
# 2 -0.005541 0.019221 -0.008396 0.000000 0.000000 0.000000
# 3 -0.006943 -0.008396 0.012241 0.000000 0.000000 0.000000
# 4 0.000000 0.000000 0.000000 0.028290 0.000000 0.000000
# 5 0.000000 0.000000 0.000000 0.000000 0.087839 0.000000
# 6 0.000000 0.000000 0.000000 0.000000 0.000000 0.082232
#
#
# Mechanical properties :
#
#
# Convention : Reuss Voigt Hill
#
# Bulk Modulus (GPa) = 29.16340 60.22352 44.69346
# Shear Modulus (GPa) = 15.26238 21.28307 18.27272
#
# Velocity S-wave (km/s) = 3.16630 3.73903 3.46452
# Velocity P-wave (km/s) = 5.70298 7.62888 6.73513
#
# Compressibility (1/GPa) = 0.03428955
#
# Stress axis : x y z
#
# Youngs Moduli (GPa) = 22.42742 52.02622 81.69385
#
# Poissons Ratio (x) = 0.28830 0.56723
# Poissons Ratio (y) = 0.12428 0.68586
# Poissons Ratio (z) = 0.15572 0.43679
#
# Static dielectric constant tensor:
#      x y z
#    x 2.386070 0.000000 0.000000 
#    y 0.000000 3.037340 0.000000 
#    z 0.000000 0.000000 3.249580 
# 
# 
# High freq. dielectric constant tensor:
#      x y z
#    x 1.504200 0.000000 0.000000 
#    y 0.000000 1.594620 0.000000 
#    z 0.000000 0.000000 1.599400 
# 
# From -- ./inp_files/34099.got.cif
#   From: 2010.03.12/outbox.cif.g09.slc.cpg/sg51_18_cif.got.tgz:34099.got - 2010.04.16 13:43:02.
