data_PCOD8206782
_publ_section_title
;
Structure prediction by ZEFSAII (Michael W. Deem and Ramdas Pophale) SiO2 
 PCOD8206782
Probable space group: P M M A
;
_chemical_formula_sum "Si O2"
_cell_formula_units_Z 64
_cell_length_a 22.024383
_cell_length_b 8.972343
_cell_length_c 19.080227
_cell_angle_alpha 90.000000
_cell_angle_beta 90.000000
_cell_angle_gamma 90.000000
_cell_volume 3770.449737
_symmetry_space_group_name_H-M "P M M A"
_symmetry_group_IT_number 51
_symmetry_cell_setting 'orthorhombic'
loop_
_space_group_symop_operation_xyz
x,y,z
1/2-x,-y,z
1/2+x,-y,-z
-x,y,-z
-x,-y,-z
1/2+x,y,-z
1/2-x,y,z
x,-y,z
loop_
_atom_site_type_symbol
_atom_site_label
_atom_site_fract_x
_atom_site_fract_y
_atom_site_fract_z
Si Si1 0.485210 0.175279 0.169216
Si Si2 0.497321 0.672969 0.317346
Si Si3 0.104722 0.827711 0.915979
Si Si4 0.619627 0.177100 0.342656
Si Si5 0.181154 0.676099 0.532830
Si Si6 0.059015 0.672199 0.459756
Si Si7 0.184794 0.175381 0.793058
Si Si8 0.937676 0.329393 0.958155
O O1 0.478103 0.246327 0.245793
O O2 0.549487 0.218065 0.135196
O O3 0.435142 0.241483 0.115546
O O4 0.476051 0.000000 0.177400
O O5 0.509180 0.500000 0.301081
O O6 0.555593 0.744083 0.355610
O O7 0.444833 0.695067 0.375676
O O8 0.164186 0.788005 0.871775
O O9 0.098509 0.000000 0.936466
O O10 0.111719 0.735912 0.987938
O O11 0.671322 0.237253 0.394459
O O12 0.637663 0.231403 0.264802
O O13 0.612538 0.000000 0.349845
O O14 0.250000 0.715125 0.505134
O O15 0.176455 0.500000 0.545401
O O16 0.125851 0.734494 0.482584
O O17 0.058198 0.500000 0.480313
O O18 0.000000 0.745347 0.500000
O O19 0.250000 0.252261 0.781706
O O20 0.190260 0.000000 0.783043
O O21 0.923979 0.500000 0.941515
O O22 0.000000 0.304261 0.000000
#
# Coordination Sequence:
#
# PCOD8206782 Si02
#       8
#     8   8   8   8   8   8   8   8
#     4  10  18  30  46  68  96 123 155 196 243 293
#     4  11  20  31  50  71  97 132 167 202 249 300
#     4   9  16  28  44  63  89 124 158 192 235 282
#     4  11  20  32  48  70 100 133 169 205 246 290
#     4  10  20  35  54  74  95 126 169 210 248 298
#     4   9  17  32  51  71  98 130 162 201 251 302
#     4   9  17  29  44  63  91 129 167 197 231 283
#     4   9  17  28  43  66  91 119 153 189 231 279
#
# _framework density 16.974101999999998
#
# number of rings (size 3 to 8) (size 9 to 14) (size 15 to 20)
#    0.000    2.250    2.500    1.875    0.000    2.750 
#    0.000    1.875    0.000    1.875    0.000    0.875 
#    0.000    3.000    0.000    0.000    0.000    0.000 
#
# Total GULP energy -793056.162315 kJ/mol
# GULP energy per Si atom -12391.502536 kJ/mol
# Density = 1.693547 g / cm^3
# Si number density = 16.974102 Si / 1000 Ang^3
#
#
#
# Elastic Constant Matrix: (Units=GPa)
#
#
# Indices 1 2 3 4 5 6 
#
# 1 86.1247 23.7904 46.8454 0.0000 0.0000 0.0000
# 2 23.7904 63.9964 42.0513 0.0000 0.0000 0.0000
# 3 46.8454 42.0513 103.3802 0.0000 0.0000 0.0000
# 4 0.0000 0.0000 0.0000 27.7632 0.0000 0.0000
# 5 0.0000 0.0000 0.0000 0.0000 0.5506 0.0000
# 6 0.0000 0.0000 0.0000 0.0000 0.0000 13.0775
#
#
#
# Elastic Compliance Matrix: (Units=1/GPa)
#
#
# Indices 1 2 3 4 5 6 
#
# 1 0.015523 -0.001568 -0.006397 0.000000 0.000000 0.000000
# 2 -0.001568 0.021484 -0.008029 0.000000 0.000000 0.000000
# 3 -0.006397 -0.008029 0.015837 0.000000 0.000000 0.000000
# 4 0.000000 0.000000 0.000000 0.036019 0.000000 0.000000
# 5 0.000000 0.000000 0.000000 0.000000 1.816204 0.000000
# 6 0.000000 0.000000 0.000000 0.000000 0.000000 0.076467
#
#
# Mechanical properties :
#
#
# Convention : Reuss Voigt Hill
#
# Bulk Modulus (GPa) = 47.94049 53.20839 50.57444
# Shear Modulus (GPa) = 2.47467 17.66587 10.07027
#
# Velocity S-wave (km/s) = 1.20875 3.22957 2.43836
# Velocity P-wave (km/s) = 5.50025 6.73214 6.14713
#
# Compressibility (1/GPa) = 0.02085919
#
# Stress axis : x y z
#
# Youngs Moduli (GPa) = 64.41912 46.54591 63.14208
#
# Poissons Ratio (x) = 0.07297 0.40389
# Poissons Ratio (y) = 0.10099 0.50694
# Poissons Ratio (z) = 0.41206 0.37370
#
# Static dielectric constant tensor:
#      x y z
#    x 3.213500 0.000000 0.000000 
#    y 0.000000 3.012980 0.000000 
#    z 0.000000 0.000000 3.263710 
# 
# 
# High freq. dielectric constant tensor:
#      x y z
#    x 1.620350 0.000000 0.000000 
#    y 0.000000 1.640800 0.000000 
#    z 0.000000 0.000000 1.656400 
# 
# From -- ./inp_files/30868.got.cif
#   From: 2010.03.12/outbox.cif.g09.slc.cpg/sg51_16_cif.got.tgz:30868.got - 2010.04.16 13:43:02.
