data_PCOD8206424
_publ_section_title
;
Structure prediction by ZEFSAII (Michael W. Deem and Ramdas Pophale) SiO2 
 PCOD8206424
Probable space group: P M M A
;
_chemical_formula_sum "Si O2"
_cell_formula_units_Z 56
_cell_length_a 8.825297
_cell_length_b 18.389742
_cell_length_c 21.358234
_cell_angle_alpha 90.000000
_cell_angle_beta 90.000000
_cell_angle_gamma 90.000000
_cell_volume 3466.333197
_symmetry_space_group_name_H-M "P M M A"
_symmetry_group_IT_number 51
_symmetry_cell_setting 'orthorhombic'
loop_
_space_group_symop_operation_xyz
x,y,z
1/2-x,-y,z
1/2+x,-y,-z
-x,y,-z
-x,-y,-z
1/2+x,y,-z
1/2-x,y,z
x,-y,z
loop_
_atom_site_type_symbol
_atom_site_label
_atom_site_fract_x
_atom_site_fract_y
_atom_site_fract_z
Si Si1 0.084370 0.787841 0.624376
Si Si2 0.930880 0.917754 0.303095
Si Si3 0.428424 0.917622 0.063787
Si Si4 0.918060 0.705240 0.245220
Si Si5 0.575886 0.416608 0.685126
Si Si6 0.570655 0.162425 0.811751
Si Si7 0.931700 0.352720 0.434954
O O1 0.250000 0.803694 0.596397
O O2 0.006114 0.865975 0.639580
O O3 0.096422 0.747967 0.690456
O O4 0.004247 0.730325 0.577423
O O5 0.750000 0.907937 0.296808
O O6 0.005811 0.894586 0.238285
O O7 0.976934 0.000000 0.319212
O O8 0.250000 0.916039 0.056426
O O9 0.481033 0.866413 0.120578
O O10 0.485525 0.000000 0.076424
O O11 0.500000 0.886609 0.000000
O O12 0.750000 0.687065 0.219382
O O13 0.008484 0.630621 0.257743
O O14 0.005638 0.756152 0.195765
O O15 0.750000 0.394435 0.674372
O O16 0.558948 0.500000 0.705308
O O17 0.486850 0.405249 0.620096
O O18 0.750000 0.164777 0.803982
O O19 0.750000 0.353992 0.436302
O O20 0.000000 0.381225 0.500000
#
# Coordination Sequence:
#
# PCOD8206424 Si02
#       7
#     8   8   8   8   8   8   8
#     4   7  13  26  41  58  79 104 136 175 217 258
#     4   9  16  26  42  63  84 108 142 184 229 274
#     4   9  18  30  42  59  87 124 162 197 232 267
#     4   9  17  30  47  66  88 115 147 179 215 261
#     4  10  20  33  49  70  95 119 142 172 215 264
#     4  10  18  28  43  63  89 118 150 189 228 265
#     4  10  19  31  47  64  85 115 151 186 218 259
#
# _framework density 16.1554
#
# number of rings (size 3 to 8) (size 9 to 14) (size 15 to 20)
#    0.000    2.857    0.000    3.857    0.000    3.429 
#    0.000    2.143    0.000    0.429    0.000    0.000 
#    0.000    0.571    0.000    1.857    0.000    2.714 
#
# Total GULP energy -693877.561572 kJ/mol
# GULP energy per Si atom -12390.670742 kJ/mol
# Density = 1.611863 g / cm^3
# Si number density = 16.155400 Si / 1000 Ang^3
#
#
#
# Elastic Constant Matrix: (Units=GPa)
#
#
# Indices 1 2 3 4 5 6 
#
# 1 67.6240 35.1779 21.9029 0.0000 0.0000 0.0000
# 2 35.1779 102.8135 30.6084 0.0000 0.0000 0.0000
# 3 21.9029 30.6084 49.9614 0.0000 0.0000 0.0000
# 4 0.0000 0.0000 0.0000 19.7513 0.0000 0.0000
# 5 0.0000 0.0000 0.0000 0.0000 20.7984 0.0000
# 6 0.0000 0.0000 0.0000 0.0000 0.0000 22.4759
#
#
#
# Elastic Compliance Matrix: (Units=1/GPa)
#
#
# Indices 1 2 3 4 5 6 
#
# 1 0.019088 -0.004941 -0.005341 0.000000 0.000000 0.000000
# 2 -0.004941 0.013175 -0.005905 0.000000 0.000000 0.000000
# 3 -0.005341 -0.005905 0.025975 0.000000 0.000000 0.000000
# 4 0.000000 0.000000 0.000000 0.050630 0.000000 0.000000
# 5 0.000000 0.000000 0.000000 0.000000 0.048081 0.000000
# 6 0.000000 0.000000 0.000000 0.000000 0.000000 0.044492
#
#
# Mechanical properties :
#
#
# Convention : Reuss Voigt Hill
#
# Bulk Modulus (GPa) = 38.66541 43.97523 41.32032
# Shear Modulus (GPa) = 20.62402 21.45243 21.03822
#
# Velocity S-wave (km/s) = 3.57683 3.64796 3.61257
# Velocity P-wave (km/s) = 6.40654 6.70990 6.55997
#
# Compressibility (1/GPa) = 0.02586291
#
# Stress axis : x y z
#
# Youngs Moduli (GPa) = 52.38944 75.90136 38.49875
#
# Poissons Ratio (x) = 0.37502 0.20562
# Poissons Ratio (y) = 0.25885 0.22735
# Poissons Ratio (z) = 0.27981 0.44823
#
# Static dielectric constant tensor:
#      x y z
#    x 3.069520 0.000000 0.000000 
#    y 0.000000 3.259950 0.000000 
#    z 0.000000 0.000000 2.897660 
# 
# 
# High freq. dielectric constant tensor:
#      x y z
#    x 1.620250 0.000000 0.000000 
#    y 0.000000 1.617390 0.000000 
#    z 0.000000 0.000000 1.582780 
# 
# From -- ./inp_files/32248.got.cif
#   From: 2010.03.12/outbox.cif.g09.slc.cpg/sg51_17_cif.got.tgz:32248.got - 2010.04.16 13:43:02.
