data_PCOD8206073
_publ_section_title
;
Structure prediction by ZEFSAII (Michael W. Deem and Ramdas Pophale) SiO2 
 PCOD8206073
Probable space group: P M M A
;
_chemical_formula_sum "Si O2"
_cell_formula_units_Z 56
_cell_length_a 17.558654
_cell_length_b 14.108729
_cell_length_c 14.043930
_cell_angle_alpha 90.000000
_cell_angle_beta 90.000000
_cell_angle_gamma 90.000000
_cell_volume 3479.106864
_symmetry_space_group_name_H-M "P M M A"
_symmetry_group_IT_number 51
_symmetry_cell_setting 'orthorhombic'
loop_
_space_group_symop_operation_xyz
x,y,z
1/2-x,-y,z
1/2+x,-y,-z
-x,y,-z
-x,-y,-z
1/2+x,y,-z
1/2-x,y,z
x,-y,z
loop_
_atom_site_type_symbol
_atom_site_label
_atom_site_fract_x
_atom_site_fract_y
_atom_site_fract_z
Si Si1 0.660272 0.611141 0.181886
Si Si2 0.010700 0.110401 0.393230
Si Si3 0.943278 0.219027 0.218452
Si Si4 0.085657 0.894229 0.961864
Si Si5 0.160986 0.398578 0.031469
Si Si6 0.166470 0.106634 0.301460
Si Si7 0.109857 0.226912 0.135851
O O1 0.750000 0.631868 0.200742
O O2 0.643176 0.500000 0.207367
O O3 0.606848 0.685864 0.239867
O O4 0.634990 0.634144 0.073629
O O5 0.100348 0.128220 0.376392
O O6 0.000000 0.148133 0.500000
O O7 0.957691 0.168189 0.319894
O O8 0.988649 0.000000 0.383171
O O9 0.901881 0.148131 0.144236
O O10 0.023236 0.239156 0.167677
O O11 0.120272 0.000000 0.959693
O O12 0.128210 0.829997 0.039040
O O13 0.000000 0.898737 0.000000
O O14 0.250000 0.410146 0.026428
O O15 0.123152 0.500000 0.054295
O O16 0.137297 0.332577 0.117815
O O17 0.250000 0.117962 0.349752
O O18 0.161569 0.179102 0.215087
O O19 0.155518 0.000000 0.261074
#
# Coordination Sequence:
#
# PCOD8206073 Si02
#       7
#     8   8   8   8   8   8   8
#     4   9  18  32  47  63  88 123 160 197 236 279
#     4   9  18  33  52  72  95 123 156 198 244 284
#     4  10  18  29  47  68  89 118 157 194 234 279
#     4   9  16  25  38  60  90 121 149 178 217 266
#     4   9  17  28  41  59  89 127 158 186 224 268
#     4   9  17  29  46  69  95 124 158 191 227 279
#     4  10  17  26  42  66  94 122 152 190 225 269
#
# _framework density 16.096084000000001
#
# number of rings (size 3 to 8) (size 9 to 14) (size 15 to 20)
#    0.000    2.714    1.429    2.143    0.000    4.000 
#    0.000    2.143    0.000    3.857    0.000    0.000 
#    0.000    9.143    0.000    0.000    0.000    0.000 
#
# Total GULP energy -693821.527933 kJ/mol
# GULP energy per Si atom -12389.670142 kJ/mol
# Density = 1.605945 g / cm^3
# Si number density = 16.096084 Si / 1000 Ang^3
#
#
#
# Elastic Constant Matrix: (Units=GPa)
#
#
# Indices 1 2 3 4 5 6 
#
# 1 56.4798 38.2639 33.0095 0.0000 0.0000 0.0000
# 2 38.2639 99.2850 50.6575 0.0000 0.0000 0.0000
# 3 33.0095 50.6575 104.8792 0.0000 0.0000 0.0000
# 4 0.0000 0.0000 0.0000 24.9439 0.0000 0.0000
# 5 0.0000 0.0000 0.0000 0.0000 11.3655 0.0000
# 6 0.0000 0.0000 0.0000 0.0000 0.0000 25.9000
#
#
#
# Elastic Compliance Matrix: (Units=1/GPa)
#
#
# Indices 1 2 3 4 5 6 
#
# 1 0.025360 -0.007566 -0.004328 0.000000 0.000000 0.000000
# 2 -0.007566 0.015623 -0.005165 0.000000 0.000000 0.000000
# 3 -0.004328 -0.005165 0.013391 0.000000 0.000000 0.000000
# 4 0.000000 0.000000 0.000000 0.040090 0.000000 0.000000
# 5 0.000000 0.000000 0.000000 0.000000 0.087986 0.000000
# 6 0.000000 0.000000 0.000000 0.000000 0.000000 0.038610
#
#
# Mechanical properties :
#
#
# Convention : Reuss Voigt Hill
#
# Bulk Modulus (GPa) = 49.36172 56.05621 52.70896
# Shear Modulus (GPa) = 19.08910 21.68941 20.38926
#
# Velocity S-wave (km/s) = 3.44749 3.67481 3.56296
# Velocity P-wave (km/s) = 6.82499 7.27373 7.05293
#
# Compressibility (1/GPa) = 0.02025861
#
# Stress axis : x y z
#
# Youngs Moduli (GPa) = 39.43171 64.00816 74.67428
#
# Poissons Ratio (x) = 0.48427 0.32316
# Poissons Ratio (y) = 0.29833 0.38568
# Poissons Ratio (z) = 0.17064 0.33059
#
# Static dielectric constant tensor:
#      x y z
#    x 2.900080 0.000000 0.000000 
#    y 0.000000 3.042000 0.000000 
#    z 0.000000 0.000000 2.846310 
# 
# 
# High freq. dielectric constant tensor:
#      x y z
#    x 1.606780 0.000000 0.000000 
#    y 0.000000 1.622450 0.000000 
#    z 0.000000 0.000000 1.582900 
# 
# From -- ./inp_files/25265.got.cif
#   From: 2010.03.12/outbox.cif.g09.slc.cpg/sg51_13_cif.got.tgz:25265.got - 2010.04.16 13:43:02.
