data_PCOD8206832
_publ_section_title
;
Structure prediction by ZEFSAII (Michael W. Deem and Ramdas Pophale) SiO2 
 PCOD8206832
Probable space group: P M M A
;
_chemical_formula_sum "Si O2"
_cell_formula_units_Z 64
_cell_length_a 9.198284
_cell_length_b 22.093892
_cell_length_c 18.102704
_cell_angle_alpha 90.000000
_cell_angle_beta 90.000000
_cell_angle_gamma 90.000000
_cell_volume 3678.938191
_symmetry_space_group_name_H-M "P M M A"
_symmetry_group_IT_number 51
_symmetry_cell_setting 'orthorhombic'
loop_
_space_group_symop_operation_xyz
x,y,z
1/2-x,-y,z
1/2+x,-y,-z
-x,y,-z
-x,-y,-z
1/2+x,y,-z
1/2-x,y,z
x,-y,z
loop_
_atom_site_type_symbol
_atom_site_label
_atom_site_fract_x
_atom_site_fract_y
_atom_site_fract_z
Si Si1 0.589559 0.432105 0.212982
Si Si2 0.576693 0.312126 0.572522
Si Si3 0.582294 0.431991 0.385585
Si Si4 0.414197 0.329386 0.150882
Si Si5 0.407892 0.756109 0.936827
Si Si6 0.583688 0.236906 0.715632
Si Si7 0.917190 0.928516 0.924938
Si Si8 0.912513 0.148878 0.190171
O O1 0.750000 0.403986 0.198891
O O2 0.584203 0.500000 0.182751
O O3 0.554656 0.430606 0.298942
O O4 0.467567 0.396024 0.169592
O O5 0.500000 0.284026 0.500000
O O6 0.750000 0.313309 0.564573
O O7 0.521842 0.381416 0.579552
O O8 0.528332 0.268543 0.640168
O O9 0.750000 0.416646 0.404479
O O10 0.543644 0.500000 0.414821
O O11 0.250000 0.332831 0.124129
O O12 0.507930 0.305314 0.082564
O O13 0.432813 0.287141 0.221900
O O14 0.250000 0.740026 0.968449
O O15 0.395134 0.796499 0.865535
O O16 0.500000 0.790865 0.000000
O O17 0.750000 0.215551 0.707602
O O18 0.490669 0.176461 0.736553
O O19 0.750000 0.905570 0.930330
O O20 0.992178 0.902294 0.850811
O O21 0.923104 0.000000 0.915935
O O22 0.000000 0.908610 0.000000
O O23 0.750000 0.124257 0.210487
#
# Coordination Sequence:
#
# PCOD8206832 Si02
#       8
#     8   8   8   8   8   8   8   8
#     4   9  17  29  46  67  89 113 144 185 232 283
#     4  11  22  35  50  70  95 128 162 201 251 301
#     4   9  18  32  49  68  91 121 156 196 242 295
#     4  10  18  30  48  68  89 115 148 190 235 282
#     4  10  20  32  46  68  94 122 155 192 236 282
#     4   9  19  34  49  68  95 124 160 202 244 289
#     4  10  20  33  50  74 108 148 183 213 245 282
#     4  10  20  32  51  75  99 132 169 206 245 281
#
# _framework density 17.396322999999999
#
# number of rings (size 3 to 8) (size 9 to 14) (size 15 to 20)
#    0.000    2.250    1.250    3.000    0.000    5.500 
#    0.000    1.250    0.000    0.375    0.000    0.000 
#    0.000    0.500    0.000    1.625    0.000    2.000 
#
# Total GULP energy -793270.739255 kJ/mol
# GULP energy per Si atom -12394.855301 kJ/mol
# Density = 1.735673 g / cm^3
# Si number density = 17.396323 Si / 1000 Ang^3
#
#
#
# Elastic Constant Matrix: (Units=GPa)
#
#
# Indices 1 2 3 4 5 6 
#
# 1 125.1245 37.6770 41.8791 0.0000 0.0000 0.0000
# 2 37.6770 50.8974 25.0384 0.0000 0.0000 0.0000
# 3 41.8791 25.0384 59.1579 0.0000 0.0000 0.0000
# 4 0.0000 0.0000 0.0000 16.8102 0.0000 0.0000
# 5 0.0000 0.0000 0.0000 0.0000 26.0775 0.0000
# 6 0.0000 0.0000 0.0000 0.0000 0.0000 -11.2387
#
#
#
# Elastic Compliance Matrix: (Units=1/GPa)
#
#
# Indices 1 2 3 4 5 6 
#
# 1 0.011682 -0.005784 -0.005822 0.000000 0.000000 0.000000
# 2 -0.005784 0.027677 -0.007620 0.000000 0.000000 0.000000
# 3 -0.005822 -0.007620 0.024251 0.000000 0.000000 0.000000
# 4 0.000000 0.000000 0.000000 0.059488 0.000000 0.000000
# 5 0.000000 0.000000 0.000000 0.000000 0.038347 0.000000
# 6 0.000000 0.000000 0.000000 0.000000 0.000000 -0.088978
#
#
# Mechanical properties :
#
#
# Convention : Reuss Voigt Hill
#
# Bulk Modulus (GPa) = 39.74784 49.37431 44.56108
# Shear Modulus (GPa) = 41.90934 15.03549 28.47242
#
# Velocity S-wave (km/s) = 4.91357 2.94307 4.04999
# Velocity P-wave (km/s) = 7.42219 6.32397 6.89498
#
# Compressibility (1/GPa) = 0.02515860
#
# Stress axis : x y z
#
# Youngs Moduli (GPa) = 85.59974 36.13071 41.23588
#
# Poissons Ratio (x) = 0.20897 0.24008
# Poissons Ratio (y) = 0.49508 0.31422
# Poissons Ratio (z) = 0.49838 0.27532
#
# Static dielectric constant tensor:
#      x y z
#    x 3.547210 0.000000 0.000000 
#    y 0.000000 3.080940 0.000000 
#    z 0.000000 0.000000 3.184250 
# 
# 
# High freq. dielectric constant tensor:
#      x y z
#    x 1.687110 0.000000 0.000000 
#    y 0.000000 1.644550 0.000000 
#    z 0.000000 0.000000 1.647670 
# 
# From -- ./inp_files/28321.got.cif
#   From: 2010.03.12/outbox.cif.g09.slc.cpg/sg51_15_cif.got.tgz:28321.got - 2010.04.16 13:43:02.
