data_PCOD8206058
_publ_section_title
;
Structure prediction by ZEFSAII (Michael W. Deem and Ramdas Pophale) SiO2 
 PCOD8206058
Probable space group: P M M A
;
_chemical_formula_sum "Si O2"
_cell_formula_units_Z 64
_cell_length_a 22.351412
_cell_length_b 9.098465
_cell_length_c 20.317227
_cell_angle_alpha 90.000000
_cell_angle_beta 90.000000
_cell_angle_gamma 90.000000
_cell_volume 4131.783201
_symmetry_space_group_name_H-M "P M M A"
_symmetry_group_IT_number 51
_symmetry_cell_setting 'orthorhombic'
loop_
_space_group_symop_operation_xyz
x,y,z
1/2-x,-y,z
1/2+x,-y,-z
-x,y,-z
-x,-y,-z
1/2+x,y,-z
1/2-x,y,z
x,-y,z
loop_
_atom_site_type_symbol
_atom_site_label
_atom_site_fract_x
_atom_site_fract_y
_atom_site_fract_z
Si Si1 0.100164 0.173437 0.743019
Si Si2 0.085767 0.826331 0.959718
Si Si3 0.040490 0.826543 0.096419
Si Si4 0.522653 0.673872 0.775907
Si Si5 0.570619 0.164761 0.511803
Si Si6 0.552487 0.337353 0.634828
Si Si7 0.411309 0.334819 0.613390
Si Si8 0.183641 0.173467 0.862184
O O1 0.117923 0.241910 0.672564
O O2 0.154366 0.210713 0.792005
O O3 0.040628 0.244092 0.772951
O O4 0.089471 0.000000 0.735139
O O5 0.143351 0.759914 0.921835
O O6 0.025240 0.770813 0.924998
O O7 0.085154 0.000000 0.952464
O O8 0.086298 0.784675 0.037238
O O9 0.059147 0.735976 0.161468
O O10 0.042025 0.000000 0.111360
O O11 0.511266 0.500000 0.781121
O O12 0.562267 0.710259 0.710820
O O13 0.500000 0.168764 0.500000
O O14 0.585404 0.228291 0.584321
O O15 0.604529 0.259428 0.456271
O O16 0.595561 0.000000 0.508610
O O17 0.578355 0.500000 0.622011
O O18 0.481967 0.337503 0.622669
O O19 0.385257 0.500000 0.613734
O O20 0.250000 0.243900 0.865351
O O21 0.188000 0.000000 0.871102
#
# Coordination Sequence:
#
# PCOD8206058 Si02
#       8
#     8   8   8   8   8   8   8   8
#     4  10  17  26  40  56  74  98 132 169 200 236
#     4   8  14  25  40  59  78  99 128 164 204 244
#     4   9  15  25  42  58  76 101 131 165 201 239
#     4  10  18  26  37  55  79 104 131 163 200 239
#     4   9  15  22  33  50  69  93 128 163 189 220
#     4   8  15  24  32  45  69 100 127 154 190 230
#     4   9  16  25  36  49  70  99 128 161 196 229
#     4   9  16  26  42  62  80 100 130 169 208 243
#
# _framework density 15.489679000000001
#
# number of rings (size 3 to 8) (size 9 to 14) (size 15 to 20)
#    0.000    3.000    1.250    3.000    0.000    5.000 
#    0.000    1.250    0.000    1.500    0.000    0.000 
#    0.000    0.000    0.000    1.125    0.000   22.125 
#
# Total GULP energy -793139.516306 kJ/mol
# GULP energy per Si atom -12392.804942 kJ/mol
# Density = 1.545442 g / cm^3
# Si number density = 15.489679 Si / 1000 Ang^3
#
#
#
# Elastic Constant Matrix: (Units=GPa)
#
#
# Indices 1 2 3 4 5 6 
#
# 1 41.7176 17.3742 36.1110 0.0000 0.0000 0.0000
# 2 17.3742 82.7804 62.7606 0.0000 0.0000 0.0000
# 3 36.1110 62.7606 157.8400 0.0000 0.0000 0.0000
# 4 0.0000 0.0000 0.0000 24.1435 0.0000 0.0000
# 5 0.0000 0.0000 0.0000 0.0000 10.9565 0.0000
# 6 0.0000 0.0000 0.0000 0.0000 0.0000 4.3076
#
#
#
# Elastic Compliance Matrix: (Units=1/GPa)
#
#
# Indices 1 2 3 4 5 6 
#
# 1 0.030031 -0.001566 -0.006248 0.000000 0.000000 0.000000
# 2 -0.001566 0.017375 -0.006550 0.000000 0.000000 0.000000
# 3 -0.006248 -0.006550 0.010370 0.000000 0.000000 0.000000
# 4 0.000000 0.000000 0.000000 0.041419 0.000000 0.000000
# 5 0.000000 0.000000 0.000000 0.000000 0.091270 0.000000
# 6 0.000000 0.000000 0.000000 0.000000 0.000000 0.232149
#
#
# Mechanical properties :
#
#
# Convention : Reuss Voigt Hill
#
# Bulk Modulus (GPa) = 34.42706 57.20328 45.81517
# Shear Modulus (GPa) = 10.84539 18.95432 14.89986
#
# Velocity S-wave (km/s) = 2.64894 3.50190 3.10485
# Velocity P-wave (km/s) = 5.62405 7.30487 6.51886
#
# Compressibility (1/GPa) = 0.02904692
#
# Stress axis : x y z
#
# Youngs Moduli (GPa) = 33.29879 57.55361 96.43659
#
# Poissons Ratio (x) = 0.09014 0.60252
# Poissons Ratio (y) = 0.05215 0.63170
# Poissons Ratio (z) = 0.20805 0.37700
#
# Static dielectric constant tensor:
#      x y z
#    x 2.561760 0.000000 0.000000 
#    y 0.000000 2.892990 0.000000 
#    z 0.000000 0.000000 3.347350 
# 
# 
# High freq. dielectric constant tensor:
#      x y z
#    x 1.510640 0.000000 0.000000 
#    y 0.000000 1.583930 0.000000 
#    z 0.000000 0.000000 1.614610 
# 
# From -- ./inp_files/34123.got.cif
#   From: 2010.03.12/outbox.cif.g09.slc.cpg/sg51_18_cif.got.tgz:34123.got - 2010.04.16 13:43:02.
