data_PCOD8206988
_publ_section_title
;
Structure prediction by ZEFSAII (Michael W. Deem and Ramdas Pophale) SiO2 
 PCOD8206988
Probable space group: P M M A
;
_chemical_formula_sum "Si O2"
_cell_formula_units_Z 48
_cell_length_a 20.184146
_cell_length_b 9.301477
_cell_length_c 13.582782
_cell_angle_alpha 90.000000
_cell_angle_beta 90.000000
_cell_angle_gamma 90.000000
_cell_volume 2550.063681
_symmetry_space_group_name_H-M "P M M A"
_symmetry_group_IT_number 51
_symmetry_cell_setting 'orthorhombic'
loop_
_space_group_symop_operation_xyz
x,y,z
1/2-x,-y,z
1/2+x,-y,-z
-x,y,-z
-x,-y,-z
1/2+x,y,-z
1/2-x,y,z
x,-y,z
loop_
_atom_site_type_symbol
_atom_site_label
_atom_site_fract_x
_atom_site_fract_y
_atom_site_fract_z
Si Si1 0.674898 0.164048 0.882638
Si Si2 0.250000 0.329927 0.460173
Si Si3 0.250000 0.329158 0.680304
Si Si4 0.570763 0.831679 0.044895
Si Si5 0.361050 0.670338 0.311193
Si Si6 0.889788 0.669944 0.239532
Si Si7 0.000613 0.329933 0.390479
O O1 0.750000 0.178842 0.920959
O O2 0.665404 0.261049 0.787935
O O3 0.657712 0.000000 0.854565
O O4 0.627229 0.218611 0.969164
O O5 0.250000 0.500000 0.469329
O O6 0.250000 0.262950 0.569928
O O7 0.184704 0.278669 0.401994
O O8 0.250000 0.500000 0.672507
O O9 0.315089 0.276597 0.738863
O O10 0.580830 0.746325 0.144860
O O11 0.575415 0.000000 0.068242
O O12 0.500000 0.789622 0.000000
O O13 0.357411 0.500000 0.297679
O O14 0.435098 0.726672 0.331978
O O15 0.892763 0.500000 0.221873
O O16 0.934448 0.715385 0.332952
O O17 0.005979 0.500000 0.399548
O O18 0.000000 0.262158 0.500000
#
# Coordination Sequence:
#
# PCOD8206988 Si02
#       7
#     8   4   4   8   8   8   8
#     4  10  21  36  53  74 102 138 173 210 263 318
#     4   9  16  28  48  75 106 138 171 209 256 307
#     4   9  18  32  50  75 108 140 171 209 256 311
#     4  10  22  39  57  76 102 138 176 214 263 319
#     4  10  18  30  52  80 105 133 173 218 257 297
#     4  10  20  34  54  80 106 137 176 217 260 303
#     4   9  17  30  51  79 109 139 172 211 257 309
#
# _framework density 18.823059000000001
#
# number of rings (size 3 to 8) (size 9 to 14) (size 15 to 20)
#    0.000    2.333    0.833    2.000    1.167    5.000 
#    0.000    0.000    0.000    6.000    0.000    0.000 
#    0.000    0.000    0.000    0.000    0.000    0.000 
#
# Total GULP energy -595238.138855 kJ/mol
# GULP energy per Si atom -12400.794559 kJ/mol
# Density = 1.878022 g / cm^3
# Si number density = 18.823059 Si / 1000 Ang^3
#
#
#
# Elastic Constant Matrix: (Units=GPa)
#
#
# Indices 1 2 3 4 5 6 
#
# 1 158.5559 27.7025 67.7982 0.0000 0.0000 0.0000
# 2 27.7025 28.8626 39.6137 0.0000 0.0000 0.0000
# 3 67.7982 39.6137 146.2770 0.0000 0.0000 0.0000
# 4 0.0000 0.0000 0.0000 -25.1207 0.0000 0.0000
# 5 0.0000 0.0000 0.0000 0.0000 34.2399 0.0000
# 6 0.0000 0.0000 0.0000 0.0000 0.0000 15.1576
#
#
#
# Elastic Compliance Matrix: (Units=1/GPa)
#
#
# Indices 1 2 3 4 5 6 
#
# 1 0.008175 -0.004211 -0.002649 0.000000 0.000000 0.000000
# 2 -0.004211 0.057312 -0.013569 0.000000 0.000000 0.000000
# 3 -0.002649 -0.013569 0.011739 0.000000 0.000000 0.000000
# 4 0.000000 0.000000 0.000000 -0.039808 0.000000 0.000000
# 5 0.000000 0.000000 0.000000 0.000000 0.029206 0.000000
# 6 0.000000 0.000000 0.000000 0.000000 0.000000 0.065974
#
#
# Mechanical properties :
#
#
# Convention : Reuss Voigt Hill
#
# Bulk Modulus (GPa) = 27.49655 67.10270 47.29963
# Shear Modulus (GPa) = 26.94272 18.09407 22.51840
#
# Velocity S-wave (km/s) = 3.78745 3.10380 3.46254
# Velocity P-wave (km/s) = 5.81085 6.96932 6.41628
#
# Compressibility (1/GPa) = 0.03636819
#
# Stress axis : x y z
#
# Youngs Moduli (GPa) = 122.31955 17.44823 85.18872
#
# Poissons Ratio (x) = 0.07348 0.22564
# Poissons Ratio (y) = 0.51514 1.15592
# Poissons Ratio (z) = 0.32399 0.23675
#
# Static dielectric constant tensor:
#      x y z
#    x 3.923820 0.000000 0.000000 
#    y 0.000000 3.016400 0.000000 
#    z 0.000000 0.000000 3.497490 
# 
# 
# High freq. dielectric constant tensor:
#      x y z
#    x 1.754200 0.000000 0.000000 
#    y 0.000000 1.681820 0.000000 
#    z 0.000000 0.000000 1.738750 
# 
# From -- ./inp_files/24905.got.cif
#   From: 2010.03.12/outbox.cif.g09.slc.cpg/sg51_13_cif.got.tgz:24905.got - 2010.04.16 13:43:02.
