data_PCOD8206778
_publ_section_title
;
Structure prediction by ZEFSAII (Michael W. Deem and Ramdas Pophale) SiO2 
 PCOD8206778
Probable space group: P M M A
;
_chemical_formula_sum "Si O2"
_cell_formula_units_Z 64
_cell_length_a 28.328471
_cell_length_b 8.907872
_cell_length_c 15.496218
_cell_angle_alpha 90.000000
_cell_angle_beta 90.000000
_cell_angle_gamma 90.000000
_cell_volume 3910.414727
_symmetry_space_group_name_H-M "P M M A"
_symmetry_group_IT_number 51
_symmetry_cell_setting 'orthorhombic'
loop_
_space_group_symop_operation_xyz
x,y,z
1/2-x,-y,z
1/2+x,-y,-z
-x,y,-z
-x,-y,-z
1/2+x,y,-z
1/2-x,y,z
x,-y,z
loop_
_atom_site_type_symbol
_atom_site_label
_atom_site_fract_x
_atom_site_fract_y
_atom_site_fract_z
Si Si1 0.055877 0.824268 0.169276
Si Si2 0.446913 0.176553 0.822352
Si Si3 0.604856 0.325911 0.673453
Si Si4 0.947242 0.678090 0.500988
Si Si5 0.608221 0.321954 0.333660
Si Si6 0.302803 0.671097 0.419071
Si Si7 0.444026 0.331268 0.996186
Si Si8 0.803751 0.175384 0.402598
O O1 0.088889 0.774859 0.247410
O O2 0.075380 0.743133 0.083651
O O3 0.001827 0.779546 0.189682
O O4 0.060341 0.000000 0.153603
O O5 0.417372 0.258340 0.749530
O O6 0.438857 0.000000 0.816478
O O7 0.427424 0.234311 0.914237
O O8 0.593432 0.500000 0.692918
O O9 0.577846 0.268771 0.588302
O O10 0.660703 0.298495 0.658567
O O11 0.948454 0.500000 0.496494
O O12 0.919009 0.739393 0.418265
O O13 0.000000 0.745314 0.500000
O O14 0.608184 0.500000 0.328357
O O15 0.661919 0.262801 0.337200
O O16 0.250000 0.699621 0.383309
O O17 0.309096 0.500000 0.452349
O O18 0.314339 0.777425 0.499229
O O19 0.423999 0.500000 0.988202
O O20 0.500000 0.331490 0.000000
O O21 0.750000 0.217128 0.377790
O O22 0.813292 0.000000 0.393756
#
# Coordination Sequence:
#
# PCOD8206778 Si02
#       8
#     8   8   8   8   8   8   8   8
#     4  10  20  32  47  70 100 132 162 197 241 287
#     4  10  20  33  48  70 101 131 160 198 242 288
#     4  10  18  30  46  67  94 127 164 201 241 285
#     4   9  17  28  42  63  93 127 162 197 232 272
#     4  11  20  32  50  71  95 128 167 204 240 285
#     4   9  17  31  50  69  90 120 162 208 248 286
#     4   9  17  31  51  72  93 123 163 203 240 281
#     4  10  20  33  49  69  95 126 159 201 251 295
#
# _framework density 16.366551000000001
#
# number of rings (size 3 to 8) (size 9 to 14) (size 15 to 20)
#    0.000    2.250    1.250    2.625    0.000    5.250 
#    0.000    0.000    0.000    2.625    0.000    0.875 
#    0.000    5.000    0.000    0.000    0.000    0.000 
#
# Total GULP energy -793658.895604 kJ/mol
# GULP energy per Si atom -12400.920244 kJ/mol
# Density = 1.632930 g / cm^3
# Si number density = 16.366551 Si / 1000 Ang^3
#
#
#
# Elastic Constant Matrix: (Units=GPa)
#
#
# Indices 1 2 3 4 5 6 
#
# 1 91.9122 36.8605 49.6398 0.0000 0.0000 0.0000
# 2 36.8605 69.8031 39.7848 0.0000 0.0000 0.0000
# 3 49.6398 39.7848 111.4636 0.0000 0.0000 0.0000
# 4 0.0000 0.0000 0.0000 27.0406 0.0000 0.0000
# 5 0.0000 0.0000 0.0000 0.0000 9.7816 0.0000
# 6 0.0000 0.0000 0.0000 0.0000 0.0000 21.0540
#
#
#
# Elastic Compliance Matrix: (Units=1/GPa)
#
#
# Indices 1 2 3 4 5 6 
#
# 1 0.015819 -0.005446 -0.005101 0.000000 0.000000 0.000000
# 2 -0.005446 0.019860 -0.004663 0.000000 0.000000 0.000000
# 3 -0.005101 -0.004663 0.012908 0.000000 0.000000 0.000000
# 4 0.000000 0.000000 0.000000 0.036981 0.000000 0.000000
# 5 0.000000 0.000000 0.000000 0.000000 0.102232 0.000000
# 6 0.000000 0.000000 0.000000 0.000000 0.000000 0.047497
#
#
# Mechanical properties :
#
#
# Convention : Reuss Voigt Hill
#
# Bulk Modulus (GPa) = 55.04838 58.41657 56.73248
# Shear Modulus (GPa) = 18.39772 21.36818 19.88295
#
# Velocity S-wave (km/s) = 3.35640 3.61723 3.48925
# Velocity P-wave (km/s) = 6.98057 7.29493 7.13948
#
# Compressibility (1/GPa) = 0.01816584
#
# Stress axis : x y z
#
# Youngs Moduli (GPa) = 63.21509 50.35334 77.47320
#
# Poissons Ratio (x) = 0.27423 0.39520
# Poissons Ratio (y) = 0.34427 0.36127
# Poissons Ratio (z) = 0.32246 0.23481
#
# Static dielectric constant tensor:
#      x y z
#    x 3.140200 0.000000 0.000000 
#    y 0.000000 3.073220 0.000000 
#    z 0.000000 0.000000 3.042530 
# 
# 
# High freq. dielectric constant tensor:
#      x y z
#    x 1.612180 0.000000 0.000000 
#    y 0.000000 1.630440 0.000000 
#    z 0.000000 0.000000 1.617420 
# 
# From -- ./inp_files/26734.got.cif
#   From: 2010.03.12/outbox.cif.g09.slc.cpg/sg51_14_cif.got.tgz:26734.got - 2010.04.16 13:43:02.
