data_PCOD8206671
_publ_section_title
;
Structure prediction by ZEFSAII (Michael W. Deem and Ramdas Pophale) SiO2 
 PCOD8206671
Probable space group: P M M A
;
_chemical_formula_sum "Si O2"
_cell_formula_units_Z 48
_cell_length_a 20.562473
_cell_length_b 8.641645
_cell_length_c 15.183664
_cell_angle_alpha 90.000000
_cell_angle_beta 90.000000
_cell_angle_gamma 90.000000
_cell_volume 2698.039796
_symmetry_space_group_name_H-M "P M M A"
_symmetry_group_IT_number 51
_symmetry_cell_setting 'orthorhombic'
loop_
_space_group_symop_operation_xyz
x,y,z
1/2-x,-y,z
1/2+x,-y,-z
-x,y,-z
-x,-y,-z
1/2+x,y,-z
1/2-x,y,z
x,-y,z
loop_
_atom_site_type_symbol
_atom_site_label
_atom_site_fract_x
_atom_site_fract_y
_atom_site_fract_z
Si Si1 0.178823 0.820238 0.626966
Si Si2 0.178339 0.676304 0.996203
Si Si3 0.552195 0.818816 0.931396
Si Si4 0.488040 0.179645 0.759170
Si Si5 0.641933 0.321656 0.197781
Si Si6 0.454172 0.681917 0.578084
O O1 0.250000 0.797624 0.580061
O O2 0.184687 0.729727 0.719142
O O3 0.118004 0.756663 0.570068
O O4 0.165336 0.000000 0.645349
O O5 0.250000 0.717429 0.033307
O O6 0.159685 0.500000 0.018015
O O7 0.125819 0.783843 0.042514
O O8 0.181842 0.701550 0.891403
O O9 0.541409 0.761622 0.830439
O O10 0.539938 0.000000 0.931886
O O11 0.500000 0.742404 0.000000
O O12 0.419949 0.209407 0.807782
O O13 0.490517 0.276915 0.669159
O O14 0.496157 0.000000 0.735078
O O15 0.620290 0.500000 0.210645
O O16 0.500000 0.745193 0.500000
O O17 0.444782 0.500000 0.570733
#
# Coordination Sequence:
#
# PCOD8206671 Si02
#       6
#     8   8   8   8   8   8
#     4  10  20  32  49  75 105 136 168 203 250 307
#     4  10  21  33  46  69 101 137 177 217 256 299
#     4  10  20  34  51  73 102 134 173 213 249 297
#     4  10  19  32  52  76 102 132 169 211 253 299
#     4  10  18  29  47  71 102 136 169 204 248 300
#     4  10  21  36  55  79 105 133 168 210 258 309
#
# _framework density 17.790693000000001
#
# number of rings (size 3 to 8) (size 9 to 14) (size 15 to 20)
#    0.000    2.000    1.667    4.500    0.000    6.000 
#    0.000    0.000    0.000    1.000    0.000    0.000 
#    0.000    0.000    0.000    0.000    0.000    0.000 
#
# Total GULP energy -594893.575303 kJ/mol
# GULP energy per Si atom -12393.616152 kJ/mol
# Density = 1.775020 g / cm^3
# Si number density = 17.790693 Si / 1000 Ang^3
#
#
#
# Elastic Constant Matrix: (Units=GPa)
#
#
# Indices 1 2 3 4 5 6 
#
# 1 116.5746 19.8404 61.3191 0.0000 0.0000 0.0000
# 2 19.8404 39.7592 22.7984 0.0000 0.0000 0.0000
# 3 61.3191 22.7984 82.5735 0.0000 0.0000 0.0000
# 4 0.0000 0.0000 0.0000 21.7265 0.0000 0.0000
# 5 0.0000 0.0000 0.0000 0.0000 24.8506 0.0000
# 6 0.0000 0.0000 0.0000 0.0000 0.0000 21.2524
#
#
#
# Elastic Compliance Matrix: (Units=1/GPa)
#
#
# Indices 1 2 3 4 5 6 
#
# 1 0.014127 -0.001229 -0.010152 0.000000 0.000000 0.000000
# 2 -0.001229 0.029989 -0.007368 0.000000 0.000000 0.000000
# 3 -0.010152 -0.007368 0.021683 0.000000 0.000000 0.000000
# 4 0.000000 0.000000 0.000000 0.046027 0.000000 0.000000
# 5 0.000000 0.000000 0.000000 0.000000 0.040240 0.000000
# 6 0.000000 0.000000 0.000000 0.000000 0.000000 0.047054
#
#
# Mechanical properties :
#
#
# Convention : Reuss Voigt Hill
#
# Bulk Modulus (GPa) = 35.33086 49.64702 42.48894
# Shear Modulus (GPa) = 20.32105 22.56253 21.44179
#
# Velocity S-wave (km/s) = 3.38335 3.56507 3.47540
# Velocity P-wave (km/s) = 5.93002 6.70172 6.32764
#
# Compressibility (1/GPa) = 0.02830387
#
# Stress axis : x y z
#
# Youngs Moduli (GPa) = 70.78589 33.34540 46.11866
#
# Poissons Ratio (x) = 0.04097 0.46818
# Poissons Ratio (y) = 0.08697 0.33978
# Poissons Ratio (z) = 0.71859 0.24568
#
# Static dielectric constant tensor:
#      x y z
#    x 3.260760 0.000000 0.000000 
#    y 0.000000 3.272990 0.000000 
#    z 0.000000 0.000000 3.221140 
# 
# 
# High freq. dielectric constant tensor:
#      x y z
#    x 1.683030 0.000000 0.000000 
#    y 0.000000 1.692120 0.000000 
#    z 0.000000 0.000000 1.659360 
# 
# From -- ./inp_files/25441.got.cif
#   From: 2010.03.12/outbox.cif.g09.slc.cpg/sg51_13_cif.got.tgz:25441.got - 2010.04.16 13:43:02.
