data_PCOD8206542
_publ_section_title
;
Structure prediction by ZEFSAII (Michael W. Deem and Ramdas Pophale) SiO2 
 PCOD8206542
Probable space group: P M M A
;
_chemical_formula_sum "Si O2"
_cell_formula_units_Z 48
_cell_length_a 14.667417
_cell_length_b 8.799014
_cell_length_c 19.809890
_cell_angle_alpha 90.000000
_cell_angle_beta 90.000000
_cell_angle_gamma 90.000000
_cell_volume 2556.640781
_symmetry_space_group_name_H-M "P M M A"
_symmetry_group_IT_number 51
_symmetry_cell_setting 'orthorhombic'
loop_
_space_group_symop_operation_xyz
x,y,z
1/2-x,-y,z
1/2+x,-y,-z
-x,y,-z
-x,-y,-z
1/2+x,y,-z
1/2-x,y,z
x,-y,z
loop_
_atom_site_type_symbol
_atom_site_label
_atom_site_fract_x
_atom_site_fract_y
_atom_site_fract_z
Si Si1 0.750000 0.674289 0.068690
Si Si2 0.947675 0.178696 0.209049
Si Si3 0.444570 0.824761 0.568564
Si Si4 0.250000 0.180099 0.518854
Si Si5 0.750000 0.177582 0.210123
Si Si6 0.250000 0.180781 0.366434
Si Si7 0.935269 0.678207 0.681302
Si Si8 0.423857 0.175054 0.946553
O O1 0.750000 0.500000 0.091041
O O2 0.750000 0.787500 0.131571
O O3 0.841050 0.717675 0.028277
O O4 0.847808 0.235849 0.238820
O O5 0.955921 0.215058 0.129524
O O6 0.025997 0.273170 0.246009
O O7 0.961057 0.000000 0.223099
O O8 0.500000 0.805369 0.500000
O O9 0.340796 0.765801 0.558047
O O10 0.491055 0.723204 0.625078
O O11 0.445794 0.000000 0.592244
O O12 0.250000 0.245809 0.442860
O O13 0.250000 0.000000 0.513064
O O14 0.750000 0.000000 0.219687
O O15 0.339586 0.238372 0.328698
O O16 0.250000 0.000000 0.365753
O O17 0.918129 0.500000 0.679100
O O18 0.394321 0.000000 0.950857
O O19 0.500000 0.215827 0.000000
#
# Coordination Sequence:
#
# PCOD8206542 Si02
#       8
#     4   8   8   4   4   4   8   8
#     4  10  18  28  48  80 114 146 177 216 278 345
#     4   9  18  35  58  83 110 146 188 231 277 329
#     4  10  19  36  60  83 107 141 189 234 272 321
#     4   9  18  34  60  88 107 134 185 239 275 316
#     4   8  16  33  57  79 104 141 189 232 268 316
#     4  11  21  41  65  81 101 143 195 233 271 329
#     4  12  25  38  54  83 118 149 181 226 284 336
#     4   9  18  35  59  83 108 143 192 241 278 321
#
# _framework density 18.774636999999998
#
# number of rings (size 3 to 8) (size 9 to 14) (size 15 to 20)
#    0.000    2.167    1.667    3.500    0.000    4.000 
#    0.000    4.583    0.000    2.000    0.000    0.000 
#    0.000    0.000    0.000    0.000    0.000    0.000 
#
# Total GULP energy -594928.682338 kJ/mol
# GULP energy per Si atom -12394.347549 kJ/mol
# Density = 1.873190 g / cm^3
# Si number density = 18.774637 Si / 1000 Ang^3
#
#
#
# Elastic Constant Matrix: (Units=GPa)
#
#
# Indices 1 2 3 4 5 6 
#
# 1 164.7604 44.5145 60.5155 0.0000 0.0000 0.0000
# 2 44.5145 44.1892 35.9955 0.0000 0.0000 0.0000
# 3 60.5155 35.9955 79.2912 0.0000 0.0000 0.0000
# 4 0.0000 0.0000 0.0000 7.9764 0.0000 0.0000
# 5 0.0000 0.0000 0.0000 0.0000 28.0645 0.0000
# 6 0.0000 0.0000 0.0000 0.0000 0.0000 18.7911
#
#
#
# Elastic Compliance Matrix: (Units=1/GPa)
#
#
# Indices 1 2 3 4 5 6 
#
# 1 0.009247 -0.005659 -0.004488 0.000000 0.000000 0.000000
# 2 -0.005659 0.039372 -0.013554 0.000000 0.000000 0.000000
# 3 -0.004488 -0.013554 0.022191 0.000000 0.000000 0.000000
# 4 0.000000 0.000000 0.000000 0.125369 0.000000 0.000000
# 5 0.000000 0.000000 0.000000 0.000000 0.035632 0.000000
# 6 0.000000 0.000000 0.000000 0.000000 0.000000 0.053217
#
#
# Mechanical properties :
#
#
# Convention : Reuss Voigt Hill
#
# Bulk Modulus (GPa) = 42.72470 63.36577 53.04524
# Shear Modulus (GPa) = 14.69584 20.78077 17.73830
#
# Velocity S-wave (km/s) = 2.80080 3.33055 3.07710
# Velocity P-wave (km/s) = 5.76761 6.97238 6.39841
#
# Compressibility (1/GPa) = 0.02340566
#
# Stress axis : x y z
#
# Youngs Moduli (GPa) = 108.14496 25.39903 45.06428
#
# Poissons Ratio (x) = 0.14373 0.20226
# Poissons Ratio (y) = 0.61197 0.61082
# Poissons Ratio (z) = 0.48539 0.34427
#
# Static dielectric constant tensor:
#      x y z
#    x 3.944140 0.000000 0.000000 
#    y 0.000000 3.213520 0.000000 
#    z 0.000000 0.000000 3.294460 
# 
# 
# High freq. dielectric constant tensor:
#      x y z
#    x 1.746770 0.000000 0.000000 
#    y 0.000000 1.707820 0.000000 
#    z 0.000000 0.000000 1.708280 
# 
# From -- ./inp_files/29710.got.cif
#   From: 2010.03.12/outbox.cif.g09.slc.cpg/sg51_15_cif.got.tgz:29710.got - 2010.04.16 13:43:02.
