data_PCOD8206803
_publ_section_title
;
Structure prediction by ZEFSAII (Michael W. Deem and Ramdas Pophale) SiO2 
 PCOD8206803
Probable space group: P M M A
;
_chemical_formula_sum "Si O2"
_cell_formula_units_Z 48
_cell_length_a 22.447051
_cell_length_b 13.686198
_cell_length_c 10.226306
_cell_angle_alpha 90.000000
_cell_angle_beta 90.000000
_cell_angle_gamma 90.000000
_cell_volume 3141.672394
_symmetry_space_group_name_H-M "P M M A"
_symmetry_group_IT_number 51
_symmetry_cell_setting 'orthorhombic'
loop_
_space_group_symop_operation_xyz
x,y,z
1/2-x,-y,z
1/2+x,-y,-z
-x,y,-z
-x,-y,-z
1/2+x,y,-z
1/2-x,y,z
x,-y,z
loop_
_atom_site_type_symbol
_atom_site_label
_atom_site_fract_x
_atom_site_fract_y
_atom_site_fract_z
Si Si1 0.181521 0.113681 0.489599
Si Si2 0.816120 0.214932 0.028846
Si Si3 0.181909 0.390195 0.132751
Si Si4 0.884752 0.889136 0.248761
Si Si5 0.513320 0.111455 0.851037
Si Si6 0.870122 0.790162 0.766061
O O1 0.250000 0.142107 0.519623
O O2 0.139930 0.143940 0.611046
O O3 0.157511 0.170894 0.366005
O O4 0.175365 0.000000 0.458868
O O5 0.750000 0.180319 0.066569
O O6 0.819617 0.333093 0.007422
O O7 0.860161 0.184787 0.142079
O O8 0.834932 0.164010 0.891072
O O9 0.250000 0.391070 0.185274
O O10 0.157038 0.500000 0.116923
O O11 0.139993 0.328257 0.232927
O O12 0.955882 0.881476 0.242371
O O13 0.863773 0.000000 0.217790
O O14 0.560753 0.182434 0.782263
O O15 0.537439 0.000000 0.854151
O O16 0.500000 0.145606 0.000000
#
# Coordination Sequence:
#
# PCOD8206803 Si02
#       6
#     8   8   8   8   8   8
#     4  10  20  32  45  68 102 130 156 195 237 280
#     4   9  17  29  48  71  90 119 160 200 240 281
#     4   8  15  29  49  72  94 116 152 204 253 290
#     4  10  20  32  46  66  98 137 164 187 230 283
#     4  10  18  30  47  68  96 128 166 202 226 271
#     4  10  18  30  49  71  94 122 160 199 236 277
#
# _framework density 15.278485999999999
#
# number of rings (size 3 to 8) (size 9 to 14) (size 15 to 20)
#    1.000    1.500    1.667    2.000    0.000    2.333 
#    0.000    2.500    0.000    5.500    0.000    3.500 
#    0.000    0.000    0.000    0.000    0.000    0.000 
#
# Total GULP energy -594744.670507 kJ/mol
# GULP energy per Si atom -12390.513969 kJ/mol
# Density = 1.524371 g / cm^3
# Si number density = 15.278486 Si / 1000 Ang^3
#
#
#
# Elastic Constant Matrix: (Units=GPa)
#
#
# Indices 1 2 3 4 5 6 
#
# 1 81.2087 51.2945 27.1061 0.0000 0.0000 0.0000
# 2 51.2945 81.0031 53.2666 0.0000 0.0000 0.0000
# 3 27.1061 53.2666 74.2844 0.0000 0.0000 0.0000
# 4 0.0000 0.0000 0.0000 0.8059 0.0000 0.0000
# 5 0.0000 0.0000 0.0000 0.0000 27.5695 0.0000
# 6 0.0000 0.0000 0.0000 0.0000 0.0000 17.6743
#
#
#
# Elastic Compliance Matrix: (Units=1/GPa)
#
#
# Indices 1 2 3 4 5 6 
#
# 1 0.021004 -0.015632 0.003544 0.000000 0.000000 0.000000
# 2 -0.015632 0.034994 -0.019389 0.000000 0.000000 0.000000
# 3 0.003544 -0.019389 0.026071 0.000000 0.000000 0.000000
# 4 0.000000 0.000000 0.000000 1.240918 0.000000 0.000000
# 5 0.000000 0.000000 0.000000 0.000000 0.036272 0.000000
# 6 0.000000 0.000000 0.000000 0.000000 0.000000 0.056579
#
#
# Mechanical properties :
#
#
# Convention : Reuss Voigt Hill
#
# Bulk Modulus (GPa) = 52.30790 55.53672 53.92231
# Shear Modulus (GPa) = 3.36663 16.19853 9.78258
#
# Velocity S-wave (km/s) = 1.48603 3.25963 2.53313
# Velocity P-wave (km/s) = 6.10369 7.11305 6.62761
#
# Compressibility (1/GPa) = 0.01911757
#
# Stress axis : x y z
#
# Youngs Moduli (GPa) = 47.60901 28.57670 38.35636
#
# Poissons Ratio (x) = 0.44670 -0.13595
# Poissons Ratio (y) = 0.74421 0.74368
# Poissons Ratio (z) = -0.16875 0.55406
#
# Static dielectric constant tensor:
#      x y z
#    x 3.071430 0.000000 0.000000 
#    y 0.000000 2.769280 0.000000 
#    z 0.000000 0.000000 2.766420 
# 
# 
# High freq. dielectric constant tensor:
#      x y z
#    x 1.590620 0.000000 0.000000 
#    y 0.000000 1.555050 0.000000 
#    z 0.000000 0.000000 1.571100 
# 
# From -- ./inp_files/10840.got.cif
#   From: 2010.03.12/outbox.cif.g09.slc.cpg/sg51_6_cif.got.tgz:10840.got - 2010.04.16 13:43:02.
