data_PCOD8206308
_publ_section_title
;
Structure prediction by ZEFSAII (Michael W. Deem and Ramdas Pophale) SiO2 
 PCOD8206308
Probable space group: P M M A
;
_chemical_formula_sum "Si O2"
_cell_formula_units_Z 52
_cell_length_a 8.650652
_cell_length_b 26.900795
_cell_length_c 13.559478
_cell_angle_alpha 90.000000
_cell_angle_beta 90.000000
_cell_angle_gamma 90.000000
_cell_volume 3155.418208
_symmetry_space_group_name_H-M "P M M A"
_symmetry_group_IT_number 51
_symmetry_cell_setting 'orthorhombic'
loop_
_space_group_symop_operation_xyz
x,y,z
1/2-x,-y,z
1/2+x,-y,-z
-x,y,-z
-x,-y,-z
1/2+x,y,-z
1/2-x,y,z
x,-y,z
loop_
_atom_site_type_symbol
_atom_site_label
_atom_site_fract_x
_atom_site_fract_y
_atom_site_fract_z
Si Si1 0.433232 0.160101 0.109237
Si Si2 0.067435 0.500000 0.390622
Si Si3 0.566503 0.351132 0.894452
Si Si4 0.429728 0.304766 0.602222
Si Si5 0.566133 0.596860 0.292125
Si Si6 0.931287 0.947550 0.892605
Si Si7 0.067962 0.744366 0.800915
O O1 0.250000 0.168773 0.106320
O O2 0.478156 0.105500 0.156012
O O3 0.513430 0.200000 0.179006
O O4 0.500000 0.165871 0.000000
O O5 0.250000 0.500000 0.399753
O O6 0.000000 0.500000 0.500000
O O7 0.012563 0.452835 0.329253
O O8 0.750000 0.355655 0.893553
O O9 0.494082 0.389469 0.816362
O O10 0.518152 0.294367 0.872020
O O11 0.500000 0.366867 0.000000
O O12 0.500000 0.286646 0.500000
O O13 0.250000 0.305655 0.586703
O O14 0.486142 0.359784 0.632573
O O15 0.477191 0.266286 0.687665
O O16 0.750000 0.590738 0.288386
O O17 0.750000 0.947191 0.905477
O O18 0.981476 0.000000 0.837541
O O19 0.000000 0.948566 0.000000
O O20 0.250000 0.737918 0.819005
#
# Coordination Sequence:
#
# PCOD8206308 Si02
#       7
#     8   4   8   8   8   8   8
#     4  10  18  27  41  62  88 121 157 193 232 273
#     4  12  24  38  57  82 107 134 164 200 244 286
#     4  11  21  35  54  75  99 130 164 198 235 279
#     4   9  19  33  51  71  93 120 150 185 229 277
#     4  10  21  38  56  78 104 130 160 196 236 283
#     4   8  14  24  37  54  79 112 150 189 228 271
#     4  10  20  33  46  66  95 125 157 194 233 276
#
# _framework density 16.479589000000001
#
# number of rings (size 3 to 8) (size 9 to 14) (size 15 to 20)
#    0.000    2.154    0.000    5.308    0.000    5.538 
#    0.000    0.385    0.000    0.000    0.000    0.000 
#    0.000    0.615    0.000    1.385    0.000    2.462 
#
# Total GULP energy -644411.619118 kJ/mol
# GULP energy per Si atom -12392.531137 kJ/mol
# Density = 1.644208 g / cm^3
# Si number density = 16.479589 Si / 1000 Ang^3
#
#
#
# Elastic Constant Matrix: (Units=GPa)
#
#
# Indices 1 2 3 4 5 6 
#
# 1 77.3329 40.5671 34.9839 0.0000 0.0000 0.0000
# 2 40.5671 149.4647 57.9196 0.0000 0.0000 0.0000
# 3 34.9839 57.9196 101.9722 0.0000 0.0000 0.0000
# 4 0.0000 0.0000 0.0000 24.7511 0.0000 0.0000
# 5 0.0000 0.0000 0.0000 0.0000 27.3898 0.0000
# 6 0.0000 0.0000 0.0000 0.0000 0.0000 19.2742
#
#
#
# Elastic Compliance Matrix: (Units=1/GPa)
#
#
# Indices 1 2 3 4 5 6 
#
# 1 0.016219 -0.002880 -0.003929 0.000000 0.000000 0.000000
# 2 -0.002880 0.009090 -0.004175 0.000000 0.000000 0.000000
# 3 -0.003929 -0.004175 0.013526 0.000000 0.000000 0.000000
# 4 0.000000 0.000000 0.000000 0.040402 0.000000 0.000000
# 5 0.000000 0.000000 0.000000 0.000000 0.036510 0.000000
# 6 0.000000 0.000000 0.000000 0.000000 0.000000 0.051883
#
#
# Mechanical properties :
#
#
# Convention : Reuss Voigt Hill
#
# Bulk Modulus (GPa) = 59.28413 66.19011 62.73712
# Shear Modulus (GPa) = 25.61220 27.30298 26.45759
#
# Velocity S-wave (km/s) = 3.94658 4.07477 4.01119
# Velocity P-wave (km/s) = 7.53789 7.89876 7.72043
#
# Compressibility (1/GPa) = 0.01686792
#
# Stress axis : x y z
#
# Youngs Moduli (GPa) = 61.65624 110.01030 73.93233
#
# Poissons Ratio (x) = 0.31679 0.29046
# Poissons Ratio (y) = 0.17755 0.30868
# Poissons Ratio (z) = 0.24223 0.45931
#
# Static dielectric constant tensor:
#      x y z
#    x 3.206130 0.000000 0.000000 
#    y 0.000000 3.562080 0.000000 
#    z 0.000000 0.000000 3.500920 
# 
# 
# High freq. dielectric constant tensor:
#      x y z
#    x 1.649460 0.000000 0.000000 
#    y 0.000000 1.640770 0.000000 
#    z 0.000000 0.000000 1.603570 
# 
# From -- ./inp_files/14620.got.cif
#   From: 2010.03.12/outbox.cif.g09.slc.cpg/sg51_8_cif.got.tgz:14620.got - 2010.04.16 13:43:02.
