data_PCOD8206685
_publ_section_title
;
Structure prediction by ZEFSAII (Michael W. Deem and Ramdas Pophale) SiO2 
 PCOD8206685
Probable space group: P M M A
;
_chemical_formula_sum "Si O2"
_cell_formula_units_Z 64
_cell_length_a 30.272293
_cell_length_b 9.048235
_cell_length_c 14.300618
_cell_angle_alpha 90.000000
_cell_angle_beta 90.000000
_cell_angle_gamma 90.000000
_cell_volume 3917.094018
_symmetry_space_group_name_H-M "P M M A"
_symmetry_group_IT_number 51
_symmetry_cell_setting 'orthorhombic'
loop_
_space_group_symop_operation_xyz
x,y,z
1/2-x,-y,z
1/2+x,-y,-z
-x,y,-z
-x,-y,-z
1/2+x,y,-z
1/2-x,y,z
x,-y,z
loop_
_atom_site_type_symbol
_atom_site_label
_atom_site_fract_x
_atom_site_fract_y
_atom_site_fract_z
Si Si1 0.298094 0.324090 0.848498
Si Si2 0.959682 0.674071 0.932110
Si Si3 0.887792 0.673368 0.074374
Si Si4 0.119808 0.829966 0.567593
Si Si5 0.972945 0.170073 0.736963
Si Si6 0.545276 0.675430 0.550295
Si Si7 0.926744 0.163834 0.241090
Si Si8 0.800373 0.329404 0.364731
O O1 0.250000 0.264667 0.883630
O O2 0.297258 0.500000 0.850868
O O3 0.337845 0.260705 0.914440
O O4 0.306097 0.272501 0.742000
O O5 0.962428 0.500000 0.911198
O O6 0.960426 0.763473 0.836822
O O7 0.912813 0.719822 0.979619
O O8 0.000000 0.721575 0.000000
O O9 0.884307 0.500000 0.079359
O O10 0.918255 0.718743 0.160809
O O11 0.087464 0.734340 0.504568
O O12 0.106591 0.811218 0.674965
O O13 0.169443 0.765182 0.563996
O O14 0.118790 0.000000 0.534418
O O15 0.949742 0.260110 0.654367
O O16 0.024692 0.186859 0.718368
O O17 0.957581 0.000000 0.733825
O O18 0.500000 0.728853 0.500000
O O19 0.547098 0.500000 0.555180
O O20 0.921488 0.000000 0.197941
O O21 0.750000 0.307614 0.397322
O O22 0.814600 0.500000 0.371590
#
# Coordination Sequence:
#
# PCOD8206685 Si02
#       8
#     8   8   8   8   8   8   8   8
#     4   8  14  25  43  68  95 124 160 199 237 279
#     4  10  20  32  47  71  98 126 163 204 244 288
#     4  10  18  29  48  69  94 130 166 201 238 284
#     4  11  21  33  49  72 103 136 168 204 246 299
#     4  11  22  36  51  68  97 133 166 205 248 291
#     4  11  23  36  53  74  97 129 168 209 252 298
#     4  10  20  30  44  68  99 131 163 200 240 287
#     4   9  17  30  49  73 101 132 168 208 246 292
#
# _framework density 16.338643000000001
#
# number of rings (size 3 to 8) (size 9 to 14) (size 15 to 20)
#    0.000    2.000    3.750    1.875    0.000    2.500 
#    0.000    0.000    0.000    0.375    0.000    0.875 
#    0.000    5.000    0.000    0.000    0.000    0.000 
#
# Total GULP energy -793356.995200 kJ/mol
# GULP energy per Si atom -12396.203050 kJ/mol
# Density = 1.630146 g / cm^3
# Si number density = 16.338643 Si / 1000 Ang^3
#
#
#
# Elastic Constant Matrix: (Units=GPa)
#
#
# Indices 1 2 3 4 5 6 
#
# 1 105.1509 43.5978 45.8737 0.0000 0.0000 0.0000
# 2 43.5978 43.0385 37.3507 0.0000 0.0000 0.0000
# 3 45.8737 37.3507 68.0800 0.0000 0.0000 0.0000
# 4 0.0000 0.0000 0.0000 23.0444 0.0000 0.0000
# 5 0.0000 0.0000 0.0000 0.0000 21.7015 0.0000
# 6 0.0000 0.0000 0.0000 0.0000 0.0000 16.8438
#
#
#
# Elastic Compliance Matrix: (Units=1/GPa)
#
#
# Indices 1 2 3 4 5 6 
#
# 1 0.016899 -0.013814 -0.003808 0.000000 0.000000 0.000000
# 2 -0.013814 0.055643 -0.021220 0.000000 0.000000 0.000000
# 3 -0.003808 -0.021220 0.028897 0.000000 0.000000 0.000000
# 4 0.000000 0.000000 0.000000 0.043394 0.000000 0.000000
# 5 0.000000 0.000000 0.000000 0.000000 0.046080 0.000000
# 6 0.000000 0.000000 0.000000 0.000000 0.000000 0.059369
#
#
# Mechanical properties :
#
#
# Convention : Reuss Voigt Hill
#
# Bulk Modulus (GPa) = 42.09529 52.21264 47.15396
# Shear Modulus (GPa) = 14.88608 18.28108 16.58358
#
# Velocity S-wave (km/s) = 3.02171 3.34860 3.18935
# Velocity P-wave (km/s) = 6.16397 6.85396 6.51810
#
# Compressibility (1/GPa) = 0.02375563
#
# Stress axis : x y z
#
# Youngs Moduli (GPa) = 59.17508 17.97156 34.60622
#
# Poissons Ratio (x) = 0.24825 0.13179
# Poissons Ratio (y) = 0.81742 0.73434
# Poissons Ratio (z) = 0.22536 0.38135
#
# Static dielectric constant tensor:
#      x y z
#    x 3.411110 0.000000 0.000000 
#    y 0.000000 3.001970 0.000000 
#    z 0.000000 0.000000 2.896500 
# 
# 
# High freq. dielectric constant tensor:
#      x y z
#    x 1.628080 0.000000 0.000000 
#    y 0.000000 1.622950 0.000000 
#    z 0.000000 0.000000 1.598560 
# 
# From -- ./inp_files/26601.got.cif
#   From: 2010.03.12/outbox.cif.g09.slc.cpg/sg51_14_cif.got.tgz:26601.got - 2010.04.16 13:43:02.
