data_PCOD8206678
_publ_section_title
;
Structure prediction by ZEFSAII (Michael W. Deem and Ramdas Pophale) SiO2 
 PCOD8206678
Probable space group: P M M A
;
_chemical_formula_sum "Si O2"
_cell_formula_units_Z 64
_cell_length_a 31.105274
_cell_length_b 9.342510
_cell_length_c 12.265820
_cell_angle_alpha 90.000000
_cell_angle_beta 90.000000
_cell_angle_gamma 90.000000
_cell_volume 3564.463647
_symmetry_space_group_name_H-M "P M M A"
_symmetry_group_IT_number 51
_symmetry_cell_setting 'orthorhombic'
loop_
_space_group_symop_operation_xyz
x,y,z
1/2-x,-y,z
1/2+x,-y,-z
-x,y,-z
-x,-y,-z
1/2+x,y,-z
1/2-x,y,z
x,-y,z
loop_
_atom_site_type_symbol
_atom_site_label
_atom_site_fract_x
_atom_site_fract_y
_atom_site_fract_z
Si Si1 0.063091 0.169676 0.747082
Si Si2 0.369973 0.169480 0.122200
Si Si3 0.483743 0.829454 0.385048
Si Si4 0.800343 0.341245 0.262375
Si Si5 0.548515 0.830247 0.013965
Si Si6 0.860585 0.170035 0.405044
Si Si7 0.700554 0.331536 0.016222
Si Si8 0.610901 0.169476 0.638563
O O1 0.068516 0.222987 0.871022
O O2 0.099915 0.230772 0.667602
O O3 0.016493 0.223751 0.707553
O O4 0.065193 0.000000 0.740252
O O5 0.365803 0.214612 0.249348
O O6 0.364922 0.000000 0.105512
O O7 0.417121 0.219229 0.077830
O O8 0.330852 0.245759 0.062461
O O9 0.500000 0.769280 0.500000
O O10 0.437009 0.764757 0.360007
O O11 0.481620 0.000000 0.388473
O O12 0.750000 0.347048 0.278445
O O13 0.819764 0.500000 0.280176
O O14 0.817706 0.233308 0.353103
O O15 0.811135 0.287587 0.140165
O O16 0.544312 0.000000 0.011976
O O17 0.500000 0.766097 0.000000
O O18 0.864441 0.224506 0.530305
O O19 0.858143 0.000000 0.400643
O O20 0.750000 0.290041 0.989824
O O21 0.693808 0.500000 0.999217
O O22 0.607204 0.000000 0.632273
#
# Coordination Sequence:
#
# PCOD8206678 Si02
#       8
#     8   8   8   8   8   8   8   8
#     4   9  15  22  37  63  92 122 160 200 234 273
#     4  10  19  31  49  74 104 136 168 205 251 296
#     4   9  13  21  37  60  94 135 168 194 232 280
#     4   9  19  36  55  73  94 120 151 192 244 300
#     4   9  16  25  38  63 100 133 160 199 246 287
#     4  10  18  29  47  73 100 124 157 199 238 278
#     4   9  19  37  58  76  95 123 161 205 254 307
#     4   9  17  28  42  67 104 138 165 198 239 283
#
# _framework density 17.955016000000001
#
# number of rings (size 3 to 8) (size 9 to 14) (size 15 to 20)
#    0.000    2.750    1.250    2.250    0.000    5.000 
#    0.000    2.500    0.000    4.125    0.000    4.375 
#    0.000    0.000    0.000    0.000    0.000    0.000 
#
# Total GULP energy -793161.238460 kJ/mol
# GULP energy per Si atom -12393.144351 kJ/mol
# Density = 1.791415 g / cm^3
# Si number density = 17.955016 Si / 1000 Ang^3
#
#
#
# Elastic Constant Matrix: (Units=GPa)
#
#
# Indices 1 2 3 4 5 6 
#
# 1 89.4689 28.5829 66.1862 0.0000 0.0000 0.0000
# 2 28.5829 21.9941 30.8973 0.0000 0.0000 0.0000
# 3 66.1862 30.8973 157.1122 0.0000 0.0000 0.0000
# 4 0.0000 0.0000 0.0000 10.7042 0.0000 0.0000
# 5 0.0000 0.0000 0.0000 0.0000 33.9644 0.0000
# 6 0.0000 0.0000 0.0000 0.0000 0.0000 0.7115
#
#
#
# Elastic Compliance Matrix: (Units=1/GPa)
#
#
# Indices 1 2 3 4 5 6 
#
# 1 0.021569 -0.021093 -0.004938 0.000000 0.000000 0.000000
# 2 -0.021093 0.083451 -0.007525 0.000000 0.000000 0.000000
# 3 -0.004938 -0.007525 0.009925 0.000000 0.000000 0.000000
# 4 0.000000 0.000000 0.000000 0.093421 0.000000 0.000000
# 5 0.000000 0.000000 0.000000 0.000000 0.029443 0.000000
# 6 0.000000 0.000000 0.000000 0.000000 0.000000 1.405570
#
#
# Mechanical properties :
#
#
# Convention : Reuss Voigt Hill
#
# Bulk Modulus (GPa) = 20.90686 57.76756 39.33721
# Shear Modulus (GPa) = 2.89614 18.60326 10.74970
#
# Velocity S-wave (km/s) = 1.27142 3.22235 2.44949
# Velocity P-wave (km/s) = 3.71815 6.78882 5.47324
#
# Compressibility (1/GPa) = 0.04783119
#
# Stress axis : x y z
#
# Youngs Moduli (GPa) = 46.36311 11.98312 100.75522
#
# Poissons Ratio (x) = 0.25276 0.49754
# Poissons Ratio (y) = 0.97795 0.75821
# Poissons Ratio (z) = 0.22895 0.09018
#
# Static dielectric constant tensor:
#      x y z
#    x 3.314030 0.000000 0.000000 
#    y 0.000000 2.756670 0.000000 
#    z 0.000000 0.000000 3.595380 
# 
# 
# High freq. dielectric constant tensor:
#      x y z
#    x 1.695000 0.000000 0.000000 
#    y 0.000000 1.627660 0.000000 
#    z 0.000000 0.000000 1.707380 
# 
# From -- ./inp_files/19217.got.cif
#   From: 2010.03.12/outbox.cif.g09.slc.cpg/sg51_10_cif.got.tgz:19217.got - 2010.04.16 13:43:02.
