data_PCOD8206410
_publ_section_title
;
Structure prediction by ZEFSAII (Michael W. Deem and Ramdas Pophale) SiO2 
 PCOD8206410
Probable space group: P M M A
;
_chemical_formula_sum "Si O2"
_cell_formula_units_Z 64
_cell_length_a 20.480057
_cell_length_b 9.184650
_cell_length_c 19.258394
_cell_angle_alpha 90.000000
_cell_angle_beta 90.000000
_cell_angle_gamma 90.000000
_cell_volume 3622.545423
_symmetry_space_group_name_H-M "P M M A"
_symmetry_group_IT_number 51
_symmetry_cell_setting 'orthorhombic'
loop_
_space_group_symop_operation_xyz
x,y,z
1/2-x,-y,z
1/2+x,-y,-z
-x,y,-z
-x,-y,-z
1/2+x,y,-z
1/2-x,y,z
x,-y,z
loop_
_atom_site_type_symbol
_atom_site_label
_atom_site_fract_x
_atom_site_fract_y
_atom_site_fract_z
Si Si1 0.547046 0.164593 0.347025
Si Si2 0.044117 0.670208 0.937045
Si Si3 0.368362 0.335145 0.261074
Si Si4 0.017373 0.665582 0.784099
Si Si5 0.175808 0.668480 0.004765
Si Si6 0.897003 0.164544 0.608884
Si Si7 0.075118 0.335177 0.521814
Si Si8 0.675785 0.841516 0.864338
O O1 0.557077 0.237489 0.271446
O O2 0.472172 0.163143 0.369569
O O3 0.586354 0.258741 0.403829
O O4 0.574494 0.000000 0.344603
O O5 0.028565 0.500000 0.935125
O O6 0.025065 0.734512 0.861367
O O7 0.121992 0.700563 0.945581
O O8 0.000000 0.738266 0.000000
O O9 0.343111 0.500000 0.267880
O O10 0.442304 0.330538 0.236052
O O11 0.357196 0.255901 0.334304
O O12 0.325835 0.249514 0.205740
O O13 0.044256 0.500000 0.781114
O O14 0.250000 0.715027 0.981996
O O15 0.175897 0.500000 0.025505
O O16 0.146436 0.752039 0.071411
O O17 0.885436 0.242743 0.535241
O O18 0.869974 0.000000 0.604514
O O19 0.102169 0.500000 0.525524
O O20 0.000000 0.337580 0.500000
O O21 0.750000 0.868014 0.883973
O O22 0.640791 0.000000 0.856208
#
# Coordination Sequence:
#
# PCOD8206410 Si02
#       8
#     8   8   8   8   8   8   8   8
#     4   9  16  25  37  54  79 110 141 174 212 252
#     4   9  16  27  44  65  88 114 144 179 221 267
#     4  10  18  28  43  61  82 110 144 178 210 249
#     4   9  17  28  42  60  83 112 143 174 213 262
#     4   9  17  30  48  67  85 109 145 185 220 258
#     4   9  16  25  37  55  81 111 140 171 209 251
#     4   9  15  23  36  54  77 107 144 178 206 245
#     4  10  20  32  45  61  82 109 140 175 217 261
#
# _framework density 17.667134999999998
#
# number of rings (size 3 to 8) (size 9 to 14) (size 15 to 20)
#    0.000    2.750    0.000    2.625    0.000    7.750 
#    0.000    0.625    0.000    1.500    0.000    0.000 
#    0.000    1.000    0.000    5.000    0.000    4.125 
#
# Total GULP energy -793202.058439 kJ/mol
# GULP energy per Si atom -12393.782163 kJ/mol
# Density = 1.762692 g / cm^3
# Si number density = 17.667135 Si / 1000 Ang^3
#
#
#
# Elastic Constant Matrix: (Units=GPa)
#
#
# Indices 1 2 3 4 5 6 
#
# 1 27.1386 11.1670 15.4907 0.0000 0.0000 0.0000
# 2 11.1670 120.0397 57.5487 0.0000 0.0000 0.0000
# 3 15.4907 57.5487 146.7177 0.0000 0.0000 0.0000
# 4 0.0000 0.0000 0.0000 17.4688 0.0000 0.0000
# 5 0.0000 0.0000 0.0000 0.0000 17.8971 0.0000
# 6 0.0000 0.0000 0.0000 0.0000 0.0000 9.8034
#
#
#
# Elastic Compliance Matrix: (Units=1/GPa)
#
#
# Indices 1 2 3 4 5 6 
#
# 1 0.039624 -0.002070 -0.003372 0.000000 0.000000 0.000000
# 2 -0.002070 0.010368 -0.003848 0.000000 0.000000 0.000000
# 3 -0.003372 -0.003848 0.008681 0.000000 0.000000 0.000000
# 4 0.000000 0.000000 0.000000 0.057245 0.000000 0.000000
# 5 0.000000 0.000000 0.000000 0.000000 0.055875 0.000000
# 6 0.000000 0.000000 0.000000 0.000000 0.000000 0.102005
#
#
# Mechanical properties :
#
#
# Convention : Reuss Voigt Hill
#
# Bulk Modulus (GPa) = 24.94140 51.36764 38.15452
# Shear Modulus (GPa) = 16.35363 23.01317 19.68340
#
# Velocity S-wave (km/s) = 3.04575 3.61307 3.34147
# Velocity P-wave (km/s) = 5.14945 6.82232 6.04404
#
# Compressibility (1/GPa) = 0.04009398
#
# Stress axis : x y z
#
# Youngs Moduli (GPa) = 25.23720 96.45054 115.19090
#
# Poissons Ratio (x) = 0.19962 0.38840
# Poissons Ratio (y) = 0.05223 0.44328
# Poissons Ratio (z) = 0.08509 0.37116
#
# Static dielectric constant tensor:
#      x y z
#    x 2.792110 0.000000 0.000000 
#    y 0.000000 3.520690 0.000000 
#    z 0.000000 0.000000 3.426670 
# 
# 
# High freq. dielectric constant tensor:
#      x y z
#    x 1.617860 0.000000 0.000000 
#    y 0.000000 1.684790 0.000000 
#    z 0.000000 0.000000 1.686500 
# 
# From -- ./inp_files/30858.got.cif
#   From: 2010.03.12/outbox.cif.g09.slc.cpg/sg51_16_cif.got.tgz:30858.got - 2010.04.16 13:43:02.
