data_PCOD8206578
_publ_section_title
;
Structure prediction by ZEFSAII (Michael W. Deem and Ramdas Pophale) SiO2 
 PCOD8206578
Probable space group: P M M A
;
_chemical_formula_sum "Si O2"
_cell_formula_units_Z 64
_cell_length_a 9.089313
_cell_length_b 18.241018
_cell_length_c 26.176658
_cell_angle_alpha 90.000000
_cell_angle_beta 90.000000
_cell_angle_gamma 90.000000
_cell_volume 4340.045973
_symmetry_space_group_name_H-M "P M M A"
_symmetry_group_IT_number 51
_symmetry_cell_setting 'orthorhombic'
loop_
_space_group_symop_operation_xyz
x,y,z
1/2-x,-y,z
1/2+x,-y,-z
-x,y,-z
-x,-y,-z
1/2+x,y,-z
1/2-x,y,z
x,-y,z
loop_
_atom_site_type_symbol
_atom_site_label
_atom_site_fract_x
_atom_site_fract_y
_atom_site_fract_z
Si Si1 0.423138 0.416114 0.949061
Si Si2 0.584611 0.205948 0.800250
Si Si3 0.921453 0.916436 0.252053
Si Si4 0.083323 0.707484 0.305188
Si Si5 0.576862 0.166388 0.355791
Si Si6 0.077606 0.668329 0.849106
Si Si7 0.577919 0.915141 0.552657
Si Si8 0.078116 0.584264 0.746910
O O1 0.250000 0.409217 0.956208
O O2 0.470049 0.500000 0.938991
O O3 0.478462 0.368481 0.901260
O O4 0.500000 0.385461 0.000000
O O5 0.750000 0.191359 0.818686
O O6 0.505577 0.128027 0.792132
O O7 0.579032 0.249825 0.747773
O O8 0.502445 0.253539 0.843274
O O9 0.750000 0.908747 0.240580
O O10 0.958930 0.885822 0.308002
O O11 0.975320 0.000000 0.249786
O O12 0.250000 0.698251 0.325146
O O13 0.987839 0.752441 0.346333
O O14 0.010819 0.627900 0.296707
O O15 0.750000 0.172027 0.366292
O O16 0.495481 0.133504 0.404138
O O17 0.250000 0.683853 0.850345
O O18 0.037028 0.613379 0.803139
O O19 0.500000 0.893988 0.500000
O O20 0.750000 0.896994 0.548529
O O21 0.550768 0.000000 0.566024
O O22 0.250000 0.595172 0.736118
O O23 0.030508 0.500000 0.743688
#
# Coordination Sequence:
#
# PCOD8206578 Si02
#       8
#     8   8   8   8   8   8   8   8
#     4   9  17  28  41  58  80 106 137 172 207 241
#     4   9  17  27  39  57  80 105 134 169 205 240
#     4   9  17  28  42  60  82 109 139 168 200 242
#     4   9  17  28  40  57  82 109 137 169 206 247
#     4  10  18  29  45  62  82 110 143 175 207 243
#     4   9  16  27  42  57  77 108 141 170 203 244
#     4  10  20  32  45  62  85 112 142 176 211 245
#     4   9  16  26  41  60  81 107 140 174 206 243
#
# _framework density 14.746388
#
# number of rings (size 3 to 8) (size 9 to 14) (size 15 to 20)
#    0.000    2.750    0.000    2.250    0.000    7.250 
#    0.000    0.000    0.000    2.250    0.000    0.000 
#    0.000    1.000    0.000    3.500    0.000    4.875 
#
# Total GULP energy -793612.043907 kJ/mol
# GULP energy per Si atom -12400.188186 kJ/mol
# Density = 1.471282 g / cm^3
# Si number density = 14.746388 Si / 1000 Ang^3
#
#
#
# Elastic Constant Matrix: (Units=GPa)
#
#
# Indices 1 2 3 4 5 6 
#
# 1 78.0877 54.5370 49.1859 0.0000 0.0000 0.0000
# 2 54.5370 111.1464 56.8866 0.0000 0.0000 0.0000
# 3 49.1859 56.8866 84.3627 0.0000 0.0000 0.0000
# 4 0.0000 0.0000 0.0000 25.4990 0.0000 0.0000
# 5 0.0000 0.0000 0.0000 0.0000 23.9426 0.0000
# 6 0.0000 0.0000 0.0000 0.0000 0.0000 23.0598
#
#
#
# Elastic Compliance Matrix: (Units=1/GPa)
#
#
# Indices 1 2 3 4 5 6 
#
# 1 0.023182 -0.006806 -0.008926 0.000000 0.000000 0.000000
# 2 -0.006806 0.015737 -0.006643 0.000000 0.000000 0.000000
# 3 -0.008926 -0.006643 0.021538 0.000000 0.000000 0.000000
# 4 0.000000 0.000000 0.000000 0.039217 0.000000 0.000000
# 5 0.000000 0.000000 0.000000 0.000000 0.041767 0.000000
# 6 0.000000 0.000000 0.000000 0.000000 0.000000 0.043366
#
#
# Mechanical properties :
#
#
# Convention : Reuss Voigt Hill
#
# Bulk Modulus (GPa) = 63.67481 66.09064 64.88272
# Shear Modulus (GPa) = 21.29535 22.03277 21.66406
#
# Velocity S-wave (km/s) = 3.80426 3.86957 3.83705
# Velocity P-wave (km/s) = 7.91013 8.05483 7.98281
#
# Compressibility (1/GPa) = 0.01570480
#
# Stress axis : x y z
#
# Youngs Moduli (GPa) = 43.13653 63.54442 46.43049
#
# Poissons Ratio (x) = 0.43250 0.41445
# Poissons Ratio (y) = 0.29360 0.30845
# Poissons Ratio (z) = 0.38505 0.42215
#
# Static dielectric constant tensor:
#      x y z
#    x 2.948130 0.000000 0.000000 
#    y 0.000000 2.881540 0.000000 
#    z 0.000000 0.000000 2.678060 
# 
# 
# High freq. dielectric constant tensor:
#      x y z
#    x 1.574110 0.000000 0.000000 
#    y 0.000000 1.553070 0.000000 
#    z 0.000000 0.000000 1.530570 
# 
# From -- ./inp_files/35106.got.cif
#   From: 2010.03.12/outbox.cif.g09.slc.cpg/sg51_18_cif.got.tgz:35106.got - 2010.04.16 13:43:02.
