data_PCOD8206977
_publ_section_title
;
Structure prediction by ZEFSAII (Michael W. Deem and Ramdas Pophale) SiO2 
 PCOD8206977
Probable space group: P M M A
;
_chemical_formula_sum "Si O2"
_cell_formula_units_Z 64
_cell_length_a 19.441908
_cell_length_b 8.823357
_cell_length_c 21.312266
_cell_angle_alpha 90.000000
_cell_angle_beta 90.000000
_cell_angle_gamma 90.000000
_cell_volume 3655.967810
_symmetry_space_group_name_H-M "P M M A"
_symmetry_group_IT_number 51
_symmetry_cell_setting 'orthorhombic'
loop_
_space_group_symop_operation_xyz
x,y,z
1/2-x,-y,z
1/2+x,-y,-z
-x,y,-z
-x,-y,-z
1/2+x,y,-z
1/2-x,y,z
x,-y,z
loop_
_atom_site_type_symbol
_atom_site_label
_atom_site_fract_x
_atom_site_fract_y
_atom_site_fract_z
Si Si1 0.036167 0.822633 0.064849
Si Si2 0.329405 0.175830 0.464783
Si Si3 0.449731 0.180143 0.690999
Si Si4 0.139571 0.664075 0.230392
Si Si5 0.174591 0.320280 0.099549
Si Si6 0.674342 0.820148 0.393857
Si Si7 0.485322 0.666871 0.813963
Si Si8 0.588519 0.680860 0.644465
O O1 0.113991 0.757930 0.060589
O O2 0.989214 0.751970 0.119477
O O3 0.041210 0.000000 0.076836
O O4 0.000000 0.781334 0.000000
O O5 0.250000 0.204989 0.447245
O O6 0.344251 0.231675 0.535518
O O7 0.378911 0.274569 0.421311
O O8 0.348151 0.000000 0.456076
O O9 0.381954 0.239932 0.655003
O O10 0.442406 0.238178 0.762624
O O11 0.513981 0.245247 0.652382
O O12 0.455355 0.000000 0.691818
O O13 0.175132 0.500000 0.237224
O O14 0.175577 0.747778 0.171402
O O15 0.139500 0.743299 0.299083
O O16 0.060355 0.646152 0.213232
O O17 0.250000 0.286869 0.069608
O O18 0.159310 0.500000 0.102043
O O19 0.750000 0.756892 0.375010
O O20 0.676764 0.000000 0.393484
O O21 0.451871 0.500000 0.823832
O O22 0.581089 0.500000 0.649926
#
# Coordination Sequence:
#
# PCOD8206977 Si02
#       8
#     8   8   8   8   8   8   8   8
#     4  10  20  33  51  76 104 135 172 208 241 281
#     4   9  18  33  49  64  88 124 166 208 247 294
#     4  10  18  30  52  76  96 121 159 206 249 292
#     4   7  13  26  42  61  87 120 152 182 221 273
#     4   9  17  30  49  72  98 131 170 207 245 291
#     4   8  16  32  52  71  91 121 162 206 254 306
#     4   9  17  31  50  72  99 126 153 189 237 289
#     4  10  19  30  45  68  99 131 162 196 241 294
#
# _framework density 17.505624999999998
#
# number of rings (size 3 to 8) (size 9 to 14) (size 15 to 20)
#    0.000    3.000    0.000    3.750    0.000    2.500 
#    0.000    5.625    0.000    3.750    0.000    1.750 
#    0.000    0.000    0.000    0.000    0.000    0.000 
#
# Total GULP energy -792881.443595 kJ/mol
# GULP energy per Si atom -12388.772556 kJ/mol
# Density = 1.746578 g / cm^3
# Si number density = 17.505625 Si / 1000 Ang^3
#
#
#
# Elastic Constant Matrix: (Units=GPa)
#
#
# Indices 1 2 3 4 5 6 
#
# 1 98.2417 41.5570 71.0504 0.0000 0.0000 0.0000
# 2 41.5570 71.0248 49.6328 0.0000 0.0000 0.0000
# 3 71.0504 49.6328 125.9243 0.0000 0.0000 0.0000
# 4 0.0000 0.0000 0.0000 20.1845 0.0000 0.0000
# 5 0.0000 0.0000 0.0000 0.0000 20.5857 0.0000
# 6 0.0000 0.0000 0.0000 0.0000 0.0000 12.2143
#
#
#
# Elastic Compliance Matrix: (Units=1/GPa)
#
#
# Indices 1 2 3 4 5 6 
#
# 1 0.018320 -0.004825 -0.008435 0.000000 0.000000 0.000000
# 2 -0.004825 0.020702 -0.005438 0.000000 0.000000 0.000000
# 3 -0.008435 -0.005438 0.014844 0.000000 0.000000 0.000000
# 4 0.000000 0.000000 0.000000 0.049543 0.000000 0.000000
# 5 0.000000 0.000000 0.000000 0.000000 0.048577 0.000000
# 6 0.000000 0.000000 0.000000 0.000000 0.000000 0.081872
#
#
# Mechanical properties :
#
#
# Convention : Reuss Voigt Hill
#
# Bulk Modulus (GPa) = 60.71048 68.85235 64.78141
# Shear Modulus (GPa) = 18.06722 19.46027 18.76374
#
# Velocity S-wave (km/s) = 3.21609 3.33777 3.27749
# Velocity P-wave (km/s) = 6.96755 7.36690 7.17001
#
# Compressibility (1/GPa) = 0.01647162
#
# Stress axis : x y z
#
# Youngs Moduli (GPa) = 54.58384 48.30364 67.36757
#
# Poissons Ratio (x) = 0.23305 0.56827
# Poissons Ratio (y) = 0.26335 0.36631
# Poissons Ratio (z) = 0.46043 0.26265
#
# Static dielectric constant tensor:
#      x y z
#    x 3.252730 0.000000 0.000000 
#    y 0.000000 3.105160 0.000000 
#    z 0.000000 0.000000 3.413250 
# 
# 
# High freq. dielectric constant tensor:
#      x y z
#    x 1.657090 0.000000 0.000000 
#    y 0.000000 1.658800 0.000000 
#    z 0.000000 0.000000 1.673270 
# 
# From -- ./inp_files/33991.got.cif
#   From: 2010.03.12/outbox.cif.g09.slc.cpg/sg51_17_cif.got.tgz:33991.got - 2010.04.16 13:43:02.
