data_PCOD8206264
_publ_section_title
;
Structure prediction by ZEFSAII (Michael W. Deem and Ramdas Pophale) SiO2 
 PCOD8206264
Probable space group: P M M A
;
_chemical_formula_sum "Si O2"
_cell_formula_units_Z 48
_cell_length_a 8.974034
_cell_length_b 24.123677
_cell_length_c 13.609113
_cell_angle_alpha 90.000000
_cell_angle_beta 90.000000
_cell_angle_gamma 90.000000
_cell_volume 2946.191931
_symmetry_space_group_name_H-M "P M M A"
_symmetry_group_IT_number 51
_symmetry_cell_setting 'orthorhombic'
loop_
_space_group_symop_operation_xyz
x,y,z
1/2-x,-y,z
1/2+x,-y,-z
-x,y,-z
-x,-y,-z
1/2+x,y,-z
1/2-x,y,z
x,-y,z
loop_
_atom_site_type_symbol
_atom_site_label
_atom_site_fract_x
_atom_site_fract_y
_atom_site_fract_z
Si Si1 0.420271 0.775934 0.707752
Si Si2 0.578434 0.936439 0.787180
Si Si3 0.925156 0.157935 0.099680
Si Si4 0.575290 0.111152 0.397042
Si Si5 0.423715 0.558462 0.396132
Si Si6 0.424894 0.678622 0.394402
O O1 0.250000 0.756970 0.699495
O O2 0.457972 0.796216 0.817420
O O3 0.454338 0.825044 0.631201
O O4 0.522519 0.723661 0.683975
O O5 0.750000 0.917692 0.777623
O O6 0.497873 0.900490 0.870672
O O7 0.498120 0.928886 0.682866
O O8 0.565461 0.000000 0.819834
O O9 0.750000 0.148547 0.085618
O O10 0.000000 0.179842 0.000000
O O11 0.500000 0.097702 0.500000
O O12 0.750000 0.098149 0.401746
O O13 0.500000 0.556480 0.500000
O O14 0.250000 0.559304 0.416414
O O15 0.465631 0.500000 0.338742
O O16 0.467221 0.617717 0.347355
O O17 0.500000 0.688179 0.500000
O O18 0.250000 0.685301 0.410346
#
# Coordination Sequence:
#
# PCOD8206264 Si02
#       6
#     8   8   8   8   8   8
#     4   9  19  33  47  66  91 117 147 184 223 265
#     4  10  21  36  53  73  95 119 149 184 221 264
#     4  10  21  37  56  74  92 116 144 179 226 274
#     4  10  20  33  49  68  92 124 157 188 225 266
#     4   8  14  24  36  53  81 117 156 192 222 254
#     4  10  18  26  41  64  90 124 159 190 224 260
#
# _framework density 16.292217999999998
#
# number of rings (size 3 to 8) (size 9 to 14) (size 15 to 20)
#    0.000    2.500    0.000    3.500    0.000    8.000 
#    0.000    0.000    0.000    0.000    0.000    0.000 
#    0.000    0.667    0.000    1.500    0.000    2.667 
#
# Total GULP energy -594856.545320 kJ/mol
# GULP energy per Si atom -12392.844694 kJ/mol
# Density = 1.625514 g / cm^3
# Si number density = 16.292218 Si / 1000 Ang^3
#
#
#
# Elastic Constant Matrix: (Units=GPa)
#
#
# Indices 1 2 3 4 5 6 
#
# 1 88.9743 50.0525 34.9064 0.0000 0.0000 0.0000
# 2 50.0525 110.2915 29.8216 0.0000 0.0000 0.0000
# 3 34.9064 29.8216 74.3436 0.0000 0.0000 0.0000
# 4 0.0000 0.0000 0.0000 13.0810 0.0000 0.0000
# 5 0.0000 0.0000 0.0000 0.0000 27.9668 0.0000
# 6 0.0000 0.0000 0.0000 0.0000 0.0000 20.9217
#
#
#
# Elastic Compliance Matrix: (Units=1/GPa)
#
#
# Indices 1 2 3 4 5 6 
#
# 1 0.016844 -0.006176 -0.005432 0.000000 0.000000 0.000000
# 2 -0.006176 0.012434 -0.002088 0.000000 0.000000 0.000000
# 3 -0.005432 -0.002088 0.016839 0.000000 0.000000 0.000000
# 4 0.000000 0.000000 0.000000 0.076447 0.000000 0.000000
# 5 0.000000 0.000000 0.000000 0.000000 0.035757 0.000000
# 6 0.000000 0.000000 0.000000 0.000000 0.000000 0.047797
#
#
# Mechanical properties :
#
#
# Convention : Reuss Voigt Hill
#
# Bulk Modulus (GPa) = 53.39981 55.90783 54.65382
# Shear Modulus (GPa) = 20.85499 22.98249 21.91874
#
# Velocity S-wave (km/s) = 3.58167 3.75993 3.67188
# Velocity P-wave (km/s) = 7.06767 7.29654 7.18302
#
# Compressibility (1/GPa) = 0.01872666
#
# Stress axis : x y z
#
# Youngs Moduli (GPa) = 59.36754 80.42401 59.38611
#
# Poissons Ratio (x) = 0.49667 0.32256
# Poissons Ratio (y) = 0.36663 0.12400
# Poissons Ratio (z) = 0.32246 0.16793
#
# Static dielectric constant tensor:
#      x y z
#    x 3.186860 0.000000 0.000000 
#    y 0.000000 3.464670 0.000000 
#    z 0.000000 0.000000 2.688520 
# 
# 
# High freq. dielectric constant tensor:
#      x y z
#    x 1.643730 0.000000 0.000000 
#    y 0.000000 1.630530 0.000000 
#    z 0.000000 0.000000 1.587520 
# 
# From -- ./inp_files/14456.got.cif
#   From: 2010.03.12/outbox.cif.g09.slc.cpg/sg51_8_cif.got.tgz:14456.got - 2010.04.16 13:43:02.
