data_PCOD8206826
_publ_section_title
;
Structure prediction by ZEFSAII (Michael W. Deem and Ramdas Pophale) SiO2 
 PCOD8206826
Probable space group: P M M A
;
_chemical_formula_sum "Si O2"
_cell_formula_units_Z 52
_cell_length_a 8.964465
_cell_length_b 10.378746
_cell_length_c 30.620778
_cell_angle_alpha 90.000000
_cell_angle_beta 90.000000
_cell_angle_gamma 90.000000
_cell_volume 2848.954284
_symmetry_space_group_name_H-M "P M M A"
_symmetry_group_IT_number 51
_symmetry_cell_setting 'orthorhombic'
loop_
_space_group_symop_operation_xyz
x,y,z
1/2-x,-y,z
1/2+x,-y,-z
-x,y,-z
-x,-y,-z
1/2+x,y,-z
1/2-x,y,z
x,-y,z
loop_
_atom_site_type_symbol
_atom_site_label
_atom_site_fract_x
_atom_site_fract_y
_atom_site_fract_z
Si Si1 0.574111 0.350449 0.389375
Si Si2 0.571468 0.000000 0.047621
Si Si3 0.425224 0.747461 0.045851
Si Si4 0.915046 0.346004 0.216554
Si Si5 0.911537 0.646021 0.864792
Si Si6 0.074686 0.853572 0.453468
Si Si7 0.084177 0.652039 0.300822
O O1 0.750000 0.329942 0.392595
O O2 0.531833 0.500000 0.399808
O O3 0.492938 0.253974 0.422031
O O4 0.521092 0.310556 0.341129
O O5 0.503902 0.871509 0.068535
O O6 0.750000 0.000000 0.047595
O O7 0.500000 0.000000 0.000000
O O8 0.250000 0.769421 0.036639
O O9 0.459125 0.644969 0.084025
O O10 0.500000 0.704939 0.000000
O O11 0.750000 0.289374 0.222397
O O12 0.909992 0.500000 0.217389
O O13 0.975456 0.290965 0.170023
O O14 0.015294 0.291443 0.256132
O O15 0.750000 0.715690 0.860877
O O16 0.895120 0.500000 0.849856
O O17 0.250000 0.828948 0.457867
O O18 0.000000 0.832944 0.500000
O O19 0.042990 0.000000 0.436564
O O20 0.250000 0.710331 0.307676
O O21 0.094737 0.500000 0.296527
#
# Coordination Sequence:
#
# PCOD8206826 Si02
#       7
#     8   4   8   8   8   8   8
#     4  10  20  33  51  78 109 138 172 216 264 310
#     4  10  18  30  48  66  84 106 140 184 226 268
#     4  10  19  31  47  66  89 116 149 189 231 276
#     4   9  16  26  42  65  93 124 158 196 235 279
#     4   9  18  31  45  64  92 125 157 187 225 278
#     4  10  21  37  56  77 103 139 182 222 261 310
#     4   9  16  27  45  69  98 130 162 200 246 293
#
# _framework density 18.252312
#
# number of rings (size 3 to 8) (size 9 to 14) (size 15 to 20)
#    0.000    2.462    0.000    3.923    0.000    7.385 
#    0.000    0.000    0.000    0.000    2.000    0.000 
#    0.000    0.000    0.000    0.000    0.000    0.000 
#
# Total GULP energy -644253.466452 kJ/mol
# GULP energy per Si atom -12389.489739 kJ/mol
# Density = 1.821077 g / cm^3
# Si number density = 18.252312 Si / 1000 Ang^3
#
#
#
# Elastic Constant Matrix: (Units=GPa)
#
#
# Indices 1 2 3 4 5 6 
#
# 1 141.0881 37.1264 71.3707 0.0000 0.0000 0.0000
# 2 37.1264 44.0452 40.4392 0.0000 0.0000 0.0000
# 3 71.3707 40.4392 135.5692 0.0000 0.0000 0.0000
# 4 0.0000 0.0000 0.0000 2.5650 0.0000 0.0000
# 5 0.0000 0.0000 0.0000 0.0000 36.2891 0.0000
# 6 0.0000 0.0000 0.0000 0.0000 0.0000 18.8023
#
#
#
# Elastic Compliance Matrix: (Units=1/GPa)
#
#
# Indices 1 2 3 4 5 6 
#
# 1 0.010452 -0.005176 -0.003959 0.000000 0.000000 0.000000
# 2 -0.005176 0.033830 -0.007366 0.000000 0.000000 0.000000
# 3 -0.003959 -0.007366 0.011658 0.000000 0.000000 0.000000
# 4 0.000000 0.000000 0.000000 0.389857 0.000000 0.000000
# 5 0.000000 0.000000 0.000000 0.000000 0.027556 0.000000
# 6 0.000000 0.000000 0.000000 0.000000 0.000000 0.053185
#
#
# Mechanical properties :
#
#
# Convention : Reuss Voigt Hill
#
# Bulk Modulus (GPa) = 43.59542 68.73057 56.16300
# Shear Modulus (GPa) = 8.81545 22.98237 15.89891
#
# Velocity S-wave (km/s) = 2.20006 3.55230 2.95458
# Velocity P-wave (km/s) = 5.51275 7.38665 6.51740
#
# Compressibility (1/GPa) = 0.02293819
#
# Stress axis : x y z
#
# Youngs Moduli (GPa) = 95.67260 29.55951 85.77978
#
# Poissons Ratio (x) = 0.15299 0.33958
# Poissons Ratio (y) = 0.49518 0.63189
# Poissons Ratio (z) = 0.37874 0.21775
#
# Static dielectric constant tensor:
#      x y z
#    x 3.703450 0.000000 0.000000 
#    y 0.000000 5.484420 0.000000 
#    z 0.000000 0.000000 3.464250 
# 
# 
# High freq. dielectric constant tensor:
#      x y z
#    x 1.726410 0.000000 0.000000 
#    y 0.000000 1.654770 0.000000 
#    z 0.000000 0.000000 1.710030 
# 
# From -- ./inp_files/37346.got.cif
#   From: 2010.03.12/outbox.cif.g09.slc.cpg/sg51_19_cif.got.tgz:37346.got - 2010.04.16 13:43:02.
