data_PCOD8206028
_publ_section_title
;
Structure prediction by ZEFSAII (Michael W. Deem and Ramdas Pophale) SiO2 
 PCOD8206028
Probable space group: P M M A
;
_chemical_formula_sum "Si O2"
_cell_formula_units_Z 36
_cell_length_a 8.681198
_cell_length_b 23.842022
_cell_length_c 9.538627
_cell_angle_alpha 90.000000
_cell_angle_beta 90.000000
_cell_angle_gamma 90.000000
_cell_volume 1974.279393
_symmetry_space_group_name_H-M "P M M A"
_symmetry_group_IT_number 51
_symmetry_cell_setting 'orthorhombic'
loop_
_space_group_symop_operation_xyz
x,y,z
1/2-x,-y,z
1/2+x,-y,-z
-x,y,-z
-x,-y,-z
1/2+x,y,-z
1/2-x,y,z
x,-y,z
loop_
_atom_site_type_symbol
_atom_site_label
_atom_site_fract_x
_atom_site_fract_y
_atom_site_fract_z
Si Si1 0.931493 0.216414 0.346879
Si Si2 0.431698 0.112946 0.846747
Si Si3 0.432858 0.000000 0.155423
Si Si4 0.929711 0.439216 0.346526
Si Si5 0.932066 0.670585 0.655806
O O1 0.750000 0.223461 0.360146
O O2 0.979312 0.164796 0.249732
O O3 0.000000 0.205702 0.500000
O O4 0.001482 0.272684 0.274410
O O5 0.250000 0.105431 0.859365
O O6 0.503406 0.057014 0.773634
O O7 0.500000 0.123692 0.000000
O O8 0.250000 0.000000 0.156361
O O9 0.500000 0.000000 0.000000
O O10 0.750000 0.426223 0.358901
O O11 0.958171 0.500000 0.271101
O O12 0.000000 0.443298 0.500000
O O13 0.010589 0.386679 0.265661
O O14 0.750000 0.672984 0.655165
O O15 0.000000 0.668817 0.500000
#
# Coordination Sequence:
#
# PCOD8206028 Si02
#       5
#     8   8   4   8   8
#     4  10  20  33  49  69  95 127 160 194 233 279
#     4  10  20  34  53  75  98 124 156 194 234 277
#     4  10  18  30  51  74  97 124 154 190 232 278
#     4   9  15  22  33  50  75 108 146 187 228 271
#     4  10  17  25  39  57  82 116 151 188 229 276
#
# _framework density 18.234500000000001
#
# number of rings (size 3 to 8) (size 9 to 14) (size 15 to 20)
#    0.000    2.222    0.000    9.000    0.000    4.889 
#    0.000    0.556    0.000    0.000    0.000    0.000 
#    0.000    0.889    0.000    2.889    0.000   10.889 
#
# Total GULP energy -446050.814919 kJ/mol
# GULP energy per Si atom -12390.300414 kJ/mol
# Density = 1.819300 g / cm^3
# Si number density = 18.234500 Si / 1000 Ang^3
#
#
#
# Elastic Constant Matrix: (Units=GPa)
#
#
# Indices 1 2 3 4 5 6 
#
# 1 132.7446 91.6998 22.6316 0.0000 0.0000 0.0000
# 2 91.6998 234.0214 45.0475 0.0000 0.0000 0.0000
# 3 22.6316 45.0475 30.6244 0.0000 0.0000 0.0000
# 4 0.0000 0.0000 0.0000 0.4731 0.0000 0.0000
# 5 0.0000 0.0000 0.0000 0.0000 15.1143 0.0000
# 6 0.0000 0.0000 0.0000 0.0000 0.0000 36.7743
#
#
#
# Elastic Compliance Matrix: (Units=1/GPa)
#
#
# Indices 1 2 3 4 5 6 
#
# 1 0.010451 -0.003639 -0.002371 0.000000 0.000000 0.000000
# 2 -0.003639 0.007228 -0.007943 0.000000 0.000000 0.000000
# 3 -0.002371 -0.007943 0.046090 0.000000 0.000000 0.000000
# 4 0.000000 0.000000 0.000000 2.113669 0.000000 0.000000
# 5 0.000000 0.000000 0.000000 0.000000 0.066163 0.000000
# 6 0.000000 0.000000 0.000000 0.000000 0.000000 0.027193
#
#
# Mechanical properties :
#
#
# Convention : Reuss Voigt Hill
#
# Bulk Modulus (GPa) = 27.88356 79.57204 53.72780
# Shear Modulus (GPa) = 2.16389 26.33978 14.25183
#
# Velocity S-wave (km/s) = 1.09054 3.80478 2.79872
# Velocity P-wave (km/s) = 4.11224 7.93944 6.32239
#
# Compressibility (1/GPa) = 0.03586342
#
# Stress axis : x y z
#
# Youngs Moduli (GPa) = 95.68288 138.35200 21.69690
#
# Poissons Ratio (x) = 0.50344 0.05144
# Poissons Ratio (y) = 0.34818 0.17234
# Poissons Ratio (z) = 0.22685 1.09892
#
# Static dielectric constant tensor:
#      x y z
#    x 3.477630 0.000000 0.000000 
#    y 0.000000 5.041120 0.000000 
#    z 0.000000 0.000000 2.665880 
# 
# 
# High freq. dielectric constant tensor:
#      x y z
#    x 1.729540 0.000000 0.000000 
#    y 0.000000 1.749160 0.000000 
#    z 0.000000 0.000000 1.613680 
# 
# From -- ./inp_files/14157.got.cif
#   From: 2010.03.12/outbox.cif.g09.slc.cpg/sg51_8_cif.got.tgz:14157.got - 2010.04.16 13:43:02.
