data_PCOD8206111
_publ_section_title
;
Structure prediction by ZEFSAII (Michael W. Deem and Ramdas Pophale) SiO2 
 PCOD8206111
Probable space group: P M M A
;
_chemical_formula_sum "Si O2"
_cell_formula_units_Z 64
_cell_length_a 17.573565
_cell_length_b 14.460983
_cell_length_c 15.574772
_cell_angle_alpha 90.000000
_cell_angle_beta 90.000000
_cell_angle_gamma 90.000000
_cell_volume 3958.032768
_symmetry_space_group_name_H-M "P M M A"
_symmetry_group_IT_number 51
_symmetry_cell_setting 'orthorhombic'
loop_
_space_group_symop_operation_xyz
x,y,z
1/2-x,-y,z
1/2+x,-y,-z
-x,y,-z
-x,-y,-z
1/2+x,y,-z
1/2-x,y,z
x,-y,z
loop_
_atom_site_type_symbol
_atom_site_label
_atom_site_fract_x
_atom_site_fract_y
_atom_site_fract_z
Si Si1 0.660279 0.294814 0.015395
Si Si2 0.159565 0.100594 0.238331
Si Si3 0.165476 0.609693 0.657685
Si Si4 0.159842 0.100386 0.044884
Si Si5 0.159624 0.710415 0.307234
Si Si6 0.340706 0.603335 0.470503
Si Si7 0.410751 0.391176 0.147562
Si Si8 0.414336 0.608627 0.828312
O O1 0.750000 0.303222 0.999892
O O2 0.633026 0.187072 0.012844
O O3 0.639095 0.335791 0.107032
O O4 0.618305 0.351784 0.941900
O O5 0.250000 0.103014 0.237376
O O6 0.128614 0.184300 0.297393
O O7 0.131491 0.000000 0.273045
O O8 0.129238 0.116041 0.141603
O O9 0.250000 0.650083 0.676233
O O10 0.171052 0.500000 0.653185
O O11 0.134621 0.643187 0.564167
O O12 0.108210 0.641365 0.732398
O O13 0.250000 0.097216 0.047191
O O14 0.129749 0.000000 0.009976
O O15 0.250000 0.708855 0.310058
O O16 0.125847 0.668883 0.395597
O O17 0.135316 0.649367 0.226792
O O18 0.250000 0.599938 0.467212
O O19 0.373445 0.500000 0.455403
O O20 0.398092 0.500000 0.147140
O O21 0.498867 0.364801 0.156288
O O22 0.399073 0.500000 0.841388
#
# Coordination Sequence:
#
# PCOD8206111 Si02
#       8
#     8   8   8   8   8   8   8   8
#     4  11  20  31  49  69  85 113 152 184 216 259
#     4   8  13  23  40  62  88 114 140 174 215 259
#     4   8  14  28  48  65  82 111 152 190 216 243
#     4   8  14  26  44  66  89 109 135 177 223 261
#     4  10  17  27  44  67  91 117 145 174 216 270
#     4   8  14  24  41  66  92 113 138 179 221 251
#     4  11  22  32  41  60  94 126 146 174 221 266
#     4  10  21  34  45  60  88 123 155 187 219 251
#
# _framework density 16.169649
#
# number of rings (size 3 to 8) (size 9 to 14) (size 15 to 20)
#    0.000    2.750    1.250    3.375    0.000    3.750 
#    0.000    0.625    0.000    5.250    0.000    0.875 
#    0.000    6.000    0.000    0.000    0.000    0.000 
#
# Total GULP energy -793101.846952 kJ/mol
# GULP energy per Si atom -12392.216359 kJ/mol
# Density = 1.613285 g / cm^3
# Si number density = 16.169649 Si / 1000 Ang^3
#
#
#
# Elastic Constant Matrix: (Units=GPa)
#
#
# Indices 1 2 3 4 5 6 
#
# 1 12.0807 11.8756 -0.3607 0.0000 0.0000 0.0000
# 2 11.8756 92.1684 40.2013 0.0000 0.0000 0.0000
# 3 -0.3607 40.2013 92.6057 0.0000 0.0000 0.0000
# 4 0.0000 0.0000 0.0000 9.2942 0.0000 0.0000
# 5 0.0000 0.0000 0.0000 0.0000 9.6626 0.0000
# 6 0.0000 0.0000 0.0000 0.0000 0.0000 7.5286
#
#
#
# Elastic Compliance Matrix: (Units=1/GPa)
#
#
# Indices 1 2 3 4 5 6 
#
# 1 0.098603 -0.015879 0.007277 0.000000 0.000000 0.000000
# 2 -0.015879 0.015941 -0.006982 0.000000 0.000000 0.000000
# 3 0.007277 -0.006982 0.013858 0.000000 0.000000 0.000000
# 4 0.000000 0.000000 0.000000 0.107594 0.000000 0.000000
# 5 0.000000 0.000000 0.000000 0.000000 0.103492 0.000000
# 6 0.000000 0.000000 0.000000 0.000000 0.000000 0.132828
#
#
# Mechanical properties :
#
#
# Convention : Reuss Voigt Hill
#
# Bulk Modulus (GPa) = 10.28438 33.36524 21.82481
# Shear Modulus (GPa) = 9.33020 14.97298 12.15159
#
# Velocity S-wave (km/s) = 2.40473 3.04631 2.74433
# Velocity P-wave (km/s) = 3.75292 5.74914 4.85474
#
# Compressibility (1/GPa) = 0.09723480
#
# Stress axis : x y z
#
# Youngs Moduli (GPa) = 10.14166 62.73121 72.16144
#
# Poissons Ratio (x) = 0.99610 -0.52514
# Poissons Ratio (y) = 0.16104 0.50384
# Poissons Ratio (z) = -0.07380 0.43799
#
# Static dielectric constant tensor:
#      x y z
#    x 2.758300 0.000000 0.000000 
#    y 0.000000 3.383630 0.000000 
#    z 0.000000 0.000000 3.270960 
# 
# 
# High freq. dielectric constant tensor:
#      x y z
#    x 1.586080 0.000000 0.000000 
#    y 0.000000 1.610530 0.000000 
#    z 0.000000 0.000000 1.616970 
# 
# From -- ./inp_files/25358.got.cif
#   From: 2010.03.12/outbox.cif.g09.slc.cpg/sg51_13_cif.got.tgz:25358.got - 2010.04.16 13:43:02.
