data_PCOD8206795
_publ_section_title
;
Structure prediction by ZEFSAII (Michael W. Deem and Ramdas Pophale) SiO2 
 PCOD8206795
Probable space group: P M M A
;
_chemical_formula_sum "Si O2"
_cell_formula_units_Z 64
_cell_length_a 9.344004
_cell_length_b 23.444578
_cell_length_c 18.716485
_cell_angle_alpha 90.000000
_cell_angle_beta 90.000000
_cell_angle_gamma 90.000000
_cell_volume 4100.149819
_symmetry_space_group_name_H-M "P M M A"
_symmetry_group_IT_number 51
_symmetry_cell_setting 'orthorhombic'
loop_
_space_group_symop_operation_xyz
x,y,z
1/2-x,-y,z
1/2+x,-y,-z
-x,y,-z
-x,-y,-z
1/2+x,y,-z
1/2-x,y,z
x,-y,z
loop_
_atom_site_type_symbol
_atom_site_label
_atom_site_fract_x
_atom_site_fract_y
_atom_site_fract_z
Si Si1 0.087659 0.225646 0.069887
Si Si2 0.417439 0.331330 0.164528
Si Si3 0.083654 0.111696 0.568000
Si Si4 0.916486 0.162610 0.788523
Si Si5 0.415820 0.564408 0.070055
Si Si6 0.582042 0.267444 0.276929
Si Si7 0.415130 0.065805 0.719857
Si Si8 0.413324 0.757276 0.566185
O O1 0.250000 0.231406 0.044921
O O2 0.037015 0.285409 0.104548
O O3 0.067524 0.175137 0.127250
O O4 0.000000 0.210092 0.000000
O O5 0.250000 0.323885 0.183729
O O6 0.454074 0.394355 0.135929
O O7 0.511629 0.320762 0.235317
O O8 0.250000 0.104165 0.552035
O O9 0.037702 0.076976 0.638247
O O10 0.040446 0.177478 0.580419
O O11 0.000000 0.086249 0.500000
O O12 0.750000 0.164331 0.765710
O O13 0.002811 0.209304 0.743622
O O14 0.984448 0.101021 0.773539
O O15 0.250000 0.569548 0.050438
O O16 0.457658 0.500000 0.092562
O O17 0.500000 0.584128 0.000000
O O18 0.750000 0.261875 0.258400
O O19 0.559208 0.278283 0.361367
O O20 0.250000 0.084537 0.730214
O O21 0.437613 0.000000 0.738741
O O22 0.500000 0.730289 0.500000
O O23 0.250000 0.754285 0.542864
#
# Coordination Sequence:
#
# PCOD8206795 Si02
#       8
#     8   8   8   8   8   8   8   8
#     4   9  18  30  45  67  90 113 140 178 222 264
#     4   9  18  30  43  66  97 124 155 191 227 263
#     4   9  17  30  44  63  88 114 145 180 216 257
#     4  10  20  33  48  67  91 114 142 180 223 270
#     4   9  17  29  45  65  94 132 169 201 230 264
#     4  10  18  30  47  67  90 118 152 186 225 269
#     4  10  20  34  50  66  87 115 147 183 220 263
#     4   9  17  28  43  63  88 116 147 180 218 267
#
# _framework density 15.609185
#
# number of rings (size 3 to 8) (size 9 to 14) (size 15 to 20)
#    0.000    2.625    1.250    1.875    0.000    5.000 
#    0.000    0.000    0.000    0.375    0.000    0.000 
#    0.000    0.500    0.000    1.125    0.000    1.750 
#
# Total GULP energy -793568.345343 kJ/mol
# GULP energy per Si atom -12399.505396 kJ/mol
# Density = 1.557366 g / cm^3
# Si number density = 15.609185 Si / 1000 Ang^3
#
#
#
# Elastic Constant Matrix: (Units=GPa)
#
#
# Indices 1 2 3 4 5 6 
#
# 1 76.0050 38.9996 56.4878 0.0000 0.0000 0.0000
# 2 38.9996 72.5619 42.8919 0.0000 0.0000 0.0000
# 3 56.4878 42.8919 95.2558 0.0000 0.0000 0.0000
# 4 0.0000 0.0000 0.0000 21.9344 0.0000 0.0000
# 5 0.0000 0.0000 0.0000 0.0000 32.5966 0.0000
# 6 0.0000 0.0000 0.0000 0.0000 0.0000 19.9773
#
#
#
# Elastic Compliance Matrix: (Units=1/GPa)
#
#
# Indices 1 2 3 4 5 6 
#
# 1 0.025607 -0.006523 -0.012248 0.000000 0.000000 0.000000
# 2 -0.006523 0.020442 -0.005336 0.000000 0.000000 0.000000
# 3 -0.012248 -0.005336 0.020164 0.000000 0.000000 0.000000
# 4 0.000000 0.000000 0.000000 0.045591 0.000000 0.000000
# 5 0.000000 0.000000 0.000000 0.000000 0.030678 0.000000
# 6 0.000000 0.000000 0.000000 0.000000 0.000000 0.050057
#
#
# Mechanical properties :
#
#
# Convention : Reuss Voigt Hill
#
# Bulk Modulus (GPa) = 55.56156 57.84236 56.70196
# Shear Modulus (GPa) = 20.26327 21.93122 21.09725
#
# Velocity S-wave (km/s) = 3.60691 3.75243 3.68039
# Velocity P-wave (km/s) = 7.28142 7.47739 7.38006
#
# Compressibility (1/GPa) = 0.01799806
#
# Stress axis : x y z
#
# Youngs Moduli (GPa) = 39.05190 48.92008 49.59308
#
# Poissons Ratio (x) = 0.31910 0.60742
# Poissons Ratio (y) = 0.25473 0.26464
# Poissons Ratio (z) = 0.47831 0.26105
#
# Static dielectric constant tensor:
#      x y z
#    x 3.032830 0.000000 0.000000 
#    y 0.000000 2.827880 0.000000 
#    z 0.000000 0.000000 2.967200 
# 
# 
# High freq. dielectric constant tensor:
#      x y z
#    x 1.605710 0.000000 0.000000 
#    y 0.000000 1.566390 0.000000 
#    z 0.000000 0.000000 1.591070 
# 
# From -- ./inp_files/28569.got.cif
#   From: 2010.03.12/outbox.cif.g09.slc.cpg/sg51_15_cif.got.tgz:28569.got - 2010.04.16 13:43:02.
