data_PCOD8206106
_publ_section_title
;
Structure prediction by ZEFSAII (Michael W. Deem and Ramdas Pophale) SiO2 
 PCOD8206106
Probable space group: P M M A
;
_chemical_formula_sum "Si O2"
_cell_formula_units_Z 56
_cell_length_a 28.424618
_cell_length_b 8.822515
_cell_length_c 13.867529
_cell_angle_alpha 90.000000
_cell_angle_beta 90.000000
_cell_angle_gamma 90.000000
_cell_volume 3477.652032
_symmetry_space_group_name_H-M "P M M A"
_symmetry_group_IT_number 51
_symmetry_cell_setting 'orthorhombic'
loop_
_space_group_symop_operation_xyz
x,y,z
1/2-x,-y,z
1/2+x,-y,-z
-x,y,-z
-x,-y,-z
1/2+x,y,-z
1/2-x,y,z
x,-y,z
loop_
_atom_site_type_symbol
_atom_site_label
_atom_site_fract_x
_atom_site_fract_y
_atom_site_fract_z
Si Si1 0.603766 0.321311 0.421497
Si Si2 0.395961 0.669890 0.201162
Si Si3 0.698366 0.679663 0.513639
Si Si4 0.198723 0.681121 0.269236
Si Si5 0.988136 0.680910 0.892717
Si Si6 0.047106 0.329949 0.390007
Si Si7 0.535574 0.177554 0.284543
O O1 0.604603 0.500000 0.402940
O O2 0.656254 0.258757 0.445840
O O3 0.568702 0.278737 0.508738
O O4 0.585290 0.237676 0.325705
O O5 0.391042 0.500000 0.161682
O O6 0.343735 0.746947 0.201303
O O7 0.436202 0.748370 0.135047
O O8 0.411341 0.672498 0.312426
O O9 0.750000 0.726421 0.471962
O O10 0.693995 0.500000 0.519262
O O11 0.693415 0.744705 0.622116
O O12 0.250000 0.729444 0.227426
O O13 0.194318 0.500000 0.272007
O O14 0.988617 0.500000 0.881935
O O15 0.026627 0.745854 0.819243
O O16 0.000000 0.735295 0.000000
O O17 0.025806 0.500000 0.396493
O O18 0.005425 0.217783 0.360359
O O19 0.538183 0.000000 0.269201
#
# Coordination Sequence:
#
# PCOD8206106 Si02
#       7
#     8   8   8   8   8   8   8
#     4  10  17  27  44  63  87 120 152 181 212 248
#     4   8  12  21  37  59  85 110 136 167 207 255
#     4   8  13  21  36  61  89 115 145 178 213 250
#     4   8  11  16  30  56  88 114 134 162 203 251
#     4   9  18  33  51  66  81 105 142 184 225 271
#     4   9  16  27  42  60  85 118 151 177 206 246
#     4  11  22  31  41  61  88 115 144 180 218 260
#
# _framework density 16.102817999999999
#
# number of rings (size 3 to 8) (size 9 to 14) (size 15 to 20)
#    0.000    3.000    1.429    3.429    0.000    2.571 
#    0.000    0.000    0.000    0.429    0.000    1.000 
#    0.000   14.857    0.000    0.000    0.000    0.000 
#
# Total GULP energy -693750.931433 kJ/mol
# GULP energy per Si atom -12388.409490 kJ/mol
# Density = 1.606617 g / cm^3
# Si number density = 16.102818 Si / 1000 Ang^3
#
#
#
# Elastic Constant Matrix: (Units=GPa)
#
#
# Indices 1 2 3 4 5 6 
#
# 1 121.3554 20.5265 63.9164 0.0000 0.0000 0.0000
# 2 20.5265 29.1334 20.1439 0.0000 0.0000 0.0000
# 3 63.9164 20.1439 93.0382 0.0000 0.0000 0.0000
# 4 0.0000 0.0000 0.0000 7.6148 0.0000 0.0000
# 5 0.0000 0.0000 0.0000 0.0000 18.1492 0.0000
# 6 0.0000 0.0000 0.0000 0.0000 0.0000 0.7297
#
#
#
# Elastic Compliance Matrix: (Units=1/GPa)
#
#
# Indices 1 2 3 4 5 6 
#
# 1 0.013221 -0.003569 -0.008310 0.000000 0.000000 0.000000
# 2 -0.003569 0.041332 -0.006497 0.000000 0.000000 0.000000
# 3 -0.008310 -0.006497 0.017864 0.000000 0.000000 0.000000
# 4 0.000000 0.000000 0.000000 0.131323 0.000000 0.000000
# 5 0.000000 0.000000 0.000000 0.000000 0.055099 0.000000
# 6 0.000000 0.000000 0.000000 0.000000 0.000000 1.370401
#
#
# Mechanical properties :
#
#
# Convention : Reuss Voigt Hill
#
# Bulk Modulus (GPa) = 28.03900 50.30006 39.16953
# Shear Modulus (GPa) = 2.97995 14.56142 8.77069
#
# Velocity S-wave (km/s) = 1.36184 3.01038 2.33634
# Velocity P-wave (km/s) = 4.46353 6.58694 5.62632
#
# Compressibility (1/GPa) = 0.03566461
#
# Stress axis : x y z
#
# Youngs Moduli (GPa) = 75.63981 24.19442 55.97995
#
# Poissons Ratio (x) = 0.08636 0.46517
# Poissons Ratio (y) = 0.26998 0.36369
# Poissons Ratio (z) = 0.62854 0.15719
#
# Static dielectric constant tensor:
#      x y z
#    x 3.466250 0.000000 0.000000 
#    y 0.000000 2.556330 0.000000 
#    z 0.000000 0.000000 2.826930 
# 
# 
# High freq. dielectric constant tensor:
#      x y z
#    x 1.628880 0.000000 0.000000 
#    y 0.000000 1.568790 0.000000 
#    z 0.000000 0.000000 1.577700 
# 
# From -- ./inp_files/26538.got.cif
#   From: 2010.03.12/outbox.cif.g09.slc.cpg/sg51_14_cif.got.tgz:26538.got - 2010.04.16 13:43:02.
