data_PCOD8206980
_publ_section_title
;
Structure prediction by ZEFSAII (Michael W. Deem and Ramdas Pophale) SiO2 
 PCOD8206980
Probable space group: P M M A
;
_chemical_formula_sum "Si O2"
_cell_formula_units_Z 48
_cell_length_a 20.514193
_cell_length_b 8.862257
_cell_length_c 14.582345
_cell_angle_alpha 90.000000
_cell_angle_beta 90.000000
_cell_angle_gamma 90.000000
_cell_volume 2651.100222
_symmetry_space_group_name_H-M "P M M A"
_symmetry_group_IT_number 51
_symmetry_cell_setting 'orthorhombic'
loop_
_space_group_symop_operation_xyz
x,y,z
1/2-x,-y,z
1/2+x,-y,-z
-x,y,-z
-x,-y,-z
1/2+x,y,-z
1/2-x,y,z
x,-y,z
loop_
_atom_site_type_symbol
_atom_site_label
_atom_site_fract_x
_atom_site_fract_y
_atom_site_fract_z
Si Si1 0.322317 0.179993 0.061444
Si Si2 0.175517 0.175471 0.445209
Si Si3 0.476303 0.179148 0.740401
Si Si4 0.062589 0.678055 0.556948
Si Si5 0.376720 0.178063 0.251747
Si Si6 0.560240 0.179370 0.059376
O O1 0.250000 0.239950 0.037703
O O2 0.343669 0.245904 0.160489
O O3 0.322941 0.000000 0.064804
O O4 0.372150 0.239363 0.983920
O O5 0.250000 0.207241 0.473236
O O6 0.129335 0.273925 0.508967
O O7 0.165753 0.224980 0.339638
O O8 0.157376 0.000000 0.457413
O O9 0.436152 0.251940 0.657976
O O10 0.550189 0.240879 0.736930
O O11 0.444247 0.234234 0.835751
O O12 0.473531 0.000000 0.730246
O O13 0.059979 0.500000 0.565097
O O14 0.000000 0.739034 0.500000
O O15 0.380437 0.000000 0.240368
O O16 0.557264 0.000000 0.055615
O O17 0.500000 0.244533 0.000000
#
# Coordination Sequence:
#
# PCOD8206980 Si02
#       6
#     8   8   8   8   8   8
#     4   9  15  23  38  66 104 135 158 196 252 307
#     4  10  20  34  54  80 106 132 169 217 267 317
#     4  10  18  30  52  77 101 132 172 216 257 301
#     4  11  23  37  53  74 103 139 178 216 256 312
#     4   9  15  25  45  74 104 131 160 204 260 312
#     4   9  15  25  42  68  98 129 165 202 248 304
#
# _framework density 18.105689999999999
#
# number of rings (size 3 to 8) (size 9 to 14) (size 15 to 20)
#    0.000    2.333    3.333    1.000    0.000    3.000 
#    0.000    0.833    0.000    3.500    0.000    0.000 
#    0.000    2.667    0.000    0.000    0.000    0.000 
#
# Total GULP energy -595142.800739 kJ/mol
# GULP energy per Si atom -12398.808349 kJ/mol
# Density = 1.806448 g / cm^3
# Si number density = 18.105690 Si / 1000 Ang^3
#
#
#
# Elastic Constant Matrix: (Units=GPa)
#
#
# Indices 1 2 3 4 5 6 
#
# 1 124.1296 18.2149 61.7382 0.0000 0.0000 0.0000
# 2 18.2149 22.7201 26.3932 0.0000 0.0000 0.0000
# 3 61.7382 26.3932 141.6908 0.0000 0.0000 0.0000
# 4 0.0000 0.0000 0.0000 2.6402 0.0000 0.0000
# 5 0.0000 0.0000 0.0000 0.0000 33.5297 0.0000
# 6 0.0000 0.0000 0.0000 0.0000 0.0000 11.5450
#
#
#
# Elastic Compliance Matrix: (Units=1/GPa)
#
#
# Indices 1 2 3 4 5 6 
#
# 1 0.010560 -0.003983 -0.003859 0.000000 0.000000 0.000000
# 2 -0.003983 0.057670 -0.009007 0.000000 0.000000 0.000000
# 3 -0.003859 -0.009007 0.010417 0.000000 0.000000 0.000000
# 4 0.000000 0.000000 0.000000 0.378766 0.000000 0.000000
# 5 0.000000 0.000000 0.000000 0.000000 0.029824 0.000000
# 6 0.000000 0.000000 0.000000 0.000000 0.000000 0.086618
#
#
# Mechanical properties :
#
#
# Convention : Reuss Voigt Hill
#
# Bulk Modulus (GPa) = 22.24752 55.69257 38.97005
# Shear Modulus (GPa) = 8.03165 21.68924 14.86045
#
# Velocity S-wave (km/s) = 2.10846 3.46486 2.86800
# Velocity P-wave (km/s) = 4.27104 6.84350 5.70417
#
# Compressibility (1/GPa) = 0.04494883
#
# Stress axis : x y z
#
# Youngs Moduli (GPa) = 94.69625 17.34002 95.99669
#
# Poissons Ratio (x) = 0.06906 0.37049
# Poissons Ratio (y) = 0.37715 0.86464
# Poissons Ratio (z) = 0.36547 0.15618
#
# Static dielectric constant tensor:
#      x y z
#    x 3.469120 0.000000 0.000000 
#    y 0.000000 2.738520 0.000000 
#    z 0.000000 0.000000 3.481280 
# 
# 
# High freq. dielectric constant tensor:
#      x y z
#    x 1.703580 0.000000 0.000000 
#    y 0.000000 1.639690 0.000000 
#    z 0.000000 0.000000 1.708560 
# 
# From -- ./inp_files/24690.got.cif
#   From: 2010.03.12/outbox.cif.g09.slc.cpg/sg51_13_cif.got.tgz:24690.got - 2010.04.16 13:43:02.
