data_PCOD8206625
_publ_section_title
;
Structure prediction by ZEFSAII (Michael W. Deem and Ramdas Pophale) SiO2 
 PCOD8206625
Probable space group: P M M A
;
_chemical_formula_sum "Si O2"
_cell_formula_units_Z 56
_cell_length_a 28.199298
_cell_length_b 8.713577
_cell_length_c 13.647994
_cell_angle_alpha 90.000000
_cell_angle_beta 90.000000
_cell_angle_gamma 90.000000
_cell_volume 3353.540791
_symmetry_space_group_name_H-M "P M M A"
_symmetry_group_IT_number 51
_symmetry_cell_setting 'orthorhombic'
loop_
_space_group_symop_operation_xyz
x,y,z
1/2-x,-y,z
1/2+x,-y,-z
-x,y,-z
-x,-y,-z
1/2+x,y,-z
1/2-x,y,z
x,-y,z
loop_
_atom_site_type_symbol
_atom_site_label
_atom_site_fract_x
_atom_site_fract_y
_atom_site_fract_z
Si Si1 0.802006 0.817851 0.020899
Si Si2 0.604548 0.319247 0.294501
Si Si3 0.983479 0.181611 0.393515
Si Si4 0.303308 0.820267 0.757060
Si Si5 0.893903 0.176499 0.916307
Si Si6 0.533268 0.319349 0.788842
Si Si7 0.446237 0.822649 0.883210
O O1 0.750000 0.769396 0.980573
O O2 0.842766 0.753842 0.948536
O O3 0.806938 0.000000 0.025773
O O4 0.808275 0.757251 0.131652
O O5 0.599308 0.500000 0.301930
O O6 0.569347 0.245085 0.374134
O O7 0.659091 0.268015 0.312453
O O8 0.591469 0.260875 0.186262
O O9 0.000000 0.237194 0.500000
O O10 0.021328 0.246743 0.316079
O O11 0.982532 0.000000 0.384945
O O12 0.250000 0.786975 0.718581
O O13 0.314596 0.000000 0.752899
O O14 0.913926 0.271859 0.823915
O O15 0.889117 0.000000 0.884210
O O16 0.930206 0.194284 0.005785
O O17 0.528702 0.500000 0.780025
O O18 0.497215 0.255841 0.870740
O O19 0.449841 0.000000 0.851471
#
# Coordination Sequence:
#
# PCOD8206625 Si02
#       7
#     8   8   8   8   8   8   8
#     4   8  14  26  45  67  90 123 168 208 237 265
#     4  11  20  29  46  72 103 132 157 193 244 298
#     4  10  21  38  58  74  90 117 158 203 244 292
#     4   9  16  29  48  68  94 131 173 207 233 271
#     4  10  18  29  46  66  92 128 166 201 232 270
#     4  11  22  32  45  68  97 125 153 191 238 290
#     4  10  18  30  46  64  91 129 168 199 229 269
#
# _framework density 16.698768000000001
#
# number of rings (size 3 to 8) (size 9 to 14) (size 15 to 20)
#    0.000    2.143    1.429    6.429    0.000    4.286 
#    0.000    0.000    0.000    0.429    0.000    1.000 
#    0.000    3.429    0.000    0.000    0.000    0.000 
#
# Total GULP energy -694204.454471 kJ/mol
# GULP energy per Si atom -12396.508116 kJ/mol
# Density = 1.666076 g / cm^3
# Si number density = 16.698768 Si / 1000 Ang^3
#
#
#
# Elastic Constant Matrix: (Units=GPa)
#
#
# Indices 1 2 3 4 5 6 
#
# 1 128.3315 39.2597 58.0735 0.0000 0.0000 0.0000
# 2 39.2597 87.9070 32.4527 0.0000 0.0000 0.0000
# 3 58.0735 32.4527 72.0303 0.0000 0.0000 0.0000
# 4 0.0000 0.0000 0.0000 2.9758 0.0000 0.0000
# 5 0.0000 0.0000 0.0000 0.0000 18.4701 0.0000
# 6 0.0000 0.0000 0.0000 0.0000 0.0000 13.2653
#
#
#
# Elastic Compliance Matrix: (Units=1/GPa)
#
#
# Indices 1 2 3 4 5 6 
#
# 1 0.012631 -0.002257 -0.009167 0.000000 0.000000 0.000000
# 2 -0.002257 0.014049 -0.004510 0.000000 0.000000 0.000000
# 3 -0.009167 -0.004510 0.023305 0.000000 0.000000 0.000000
# 4 0.000000 0.000000 0.000000 0.336040 0.000000 0.000000
# 5 0.000000 0.000000 0.000000 0.000000 0.054142 0.000000
# 6 0.000000 0.000000 0.000000 0.000000 0.000000 0.075384
#
#
# Mechanical properties :
#
#
# Convention : Reuss Voigt Hill
#
# Bulk Modulus (GPa) = 55.19378 60.87118 58.03248
# Shear Modulus (GPa) = 9.03412 17.50777 13.27094
#
# Velocity S-wave (km/s) = 2.32848 3.24149 2.82215
# Velocity P-wave (km/s) = 6.35243 7.10924 6.74146
#
# Compressibility (1/GPa) = 0.01811798
#
# Stress axis : x y z
#
# Youngs Moduli (GPa) = 79.17056 71.18186 42.90849
#
# Poissons Ratio (x) = 0.16066 0.39333
# Poissons Ratio (y) = 0.17869 0.19351
# Poissons Ratio (z) = 0.72573 0.32102
#
# Static dielectric constant tensor:
#      x y z
#    x 3.374800 0.000000 0.000000 
#    y 0.000000 3.007970 0.000000 
#    z 0.000000 0.000000 2.837330 
# 
# 
# High freq. dielectric constant tensor:
#      x y z
#    x 1.649780 0.000000 0.000000 
#    y 0.000000 1.636310 0.000000 
#    z 0.000000 0.000000 1.595780 
# 
# From -- ./inp_files/26477.got.cif
#   From: 2010.03.12/outbox.cif.g09.slc.cpg/sg51_14_cif.got.tgz:26477.got - 2010.04.16 13:43:02.
