data_PCOD8206123
_publ_section_title
;
Structure prediction by ZEFSAII (Michael W. Deem and Ramdas Pophale) SiO2 
 PCOD8206123
Probable space group: P M M A
;
_chemical_formula_sum "Si O2"
_cell_formula_units_Z 64
_cell_length_a 20.149789
_cell_length_b 9.379936
_cell_length_c 19.212127
_cell_angle_alpha 90.000000
_cell_angle_beta 90.000000
_cell_angle_gamma 90.000000
_cell_volume 3631.163688
_symmetry_space_group_name_H-M "P M M A"
_symmetry_group_IT_number 51
_symmetry_cell_setting 'orthorhombic'
loop_
_space_group_symop_operation_xyz
x,y,z
1/2-x,-y,z
1/2+x,-y,-z
-x,y,-z
-x,-y,-z
1/2+x,y,-z
1/2-x,y,z
x,-y,z
loop_
_atom_site_type_symbol
_atom_site_label
_atom_site_fract_x
_atom_site_fract_y
_atom_site_fract_z
Si Si1 0.062353 0.164476 0.915662
Si Si2 0.072981 0.331409 0.785038
Si Si3 0.177651 0.330490 0.520805
Si Si4 0.672839 0.331235 0.817383
Si Si5 0.448083 0.669903 0.442428
Si Si6 0.939563 0.668310 0.713467
Si Si7 0.409112 0.835074 0.069646
Si Si8 0.176466 0.669150 0.674899
O O1 0.095824 0.261694 0.857149
O O2 0.985110 0.208293 0.917491
O O3 0.068488 0.000000 0.895043
O O4 0.101748 0.193203 0.987386
O O5 0.078747 0.500000 0.792396
O O6 0.122528 0.267981 0.727285
O O7 0.998761 0.283139 0.764226
O O8 0.250000 0.275747 0.496565
O O9 0.177052 0.500000 0.523971
O O10 0.124012 0.275547 0.466248
O O11 0.160844 0.271656 0.597784
O O12 0.750000 0.286041 0.807218
O O13 0.666687 0.500000 0.828029
O O14 0.630087 0.282494 0.749121
O O15 0.642342 0.258704 0.886173
O O16 0.500000 0.730456 0.500000
O O17 0.454824 0.500000 0.440978
O O18 0.454191 0.732425 0.363854
O O19 0.938779 0.500000 0.704871
O O20 0.396548 0.000000 0.088206
O O21 0.250000 0.716926 0.698455
O O22 0.171073 0.500000 0.673927
#
# Coordination Sequence:
#
# PCOD8206123 Si02
#       8
#     8   8   8   8   8   8   8   8
#     4   9  18  32  51  73  94 116 148 195 239 273
#     4  10  17  27  46  69  93 125 156 186 229 285
#     4   8  13  21  33  50  76 114 154 186 222 271
#     4  10  20  33  48  69 101 134 161 196 239 279
#     4   9  15  22  34  54  83 119 155 193 231 271
#     4   9  17  27  39  61  92 124 160 194 232 279
#     4   9  18  34  53  71  92 120 156 195 235 279
#     4   8  14  24  38  59  88 119 152 191 232 275
#
# _framework density 17.625202999999999
#
# number of rings (size 3 to 8) (size 9 to 14) (size 15 to 20)
#    0.000    3.000    1.250    2.250    0.000    4.250 
#    0.000    4.375    0.000    2.625    0.000    0.000 
#    0.000    9.000    0.000    2.000    0.000    0.500 
#
# Total GULP energy -792995.985417 kJ/mol
# GULP energy per Si atom -12390.562272 kJ/mol
# Density = 1.758509 g / cm^3
# Si number density = 17.625203 Si / 1000 Ang^3
#
#
#
# Elastic Constant Matrix: (Units=GPa)
#
#
# Indices 1 2 3 4 5 6 
#
# 1 84.6023 16.4800 50.7445 0.0000 0.0000 0.0000
# 2 16.4800 18.2494 25.0255 0.0000 0.0000 0.0000
# 3 50.7445 25.0255 124.8474 0.0000 0.0000 0.0000
# 4 0.0000 0.0000 0.0000 0.6097 0.0000 0.0000
# 5 0.0000 0.0000 0.0000 0.0000 32.3308 0.0000
# 6 0.0000 0.0000 0.0000 0.0000 0.0000 12.5457
#
#
#
# Elastic Compliance Matrix: (Units=1/GPa)
#
#
# Indices 1 2 3 4 5 6 
#
# 1 0.016402 -0.007819 -0.005099 0.000000 0.000000 0.000000
# 2 -0.007819 0.079296 -0.012717 0.000000 0.000000 0.000000
# 3 -0.005099 -0.012717 0.012631 0.000000 0.000000 0.000000
# 4 0.000000 0.000000 0.000000 1.640093 0.000000 0.000000
# 5 0.000000 0.000000 0.000000 0.000000 0.030930 0.000000
# 6 0.000000 0.000000 0.000000 0.000000 0.000000 0.079709
#
#
# Mechanical properties :
#
#
# Convention : Reuss Voigt Hill
#
# Bulk Modulus (GPa) = 17.52564 45.79988 31.66276
# Shear Modulus (GPa) = 2.59155 18.12718 10.35936
#
# Velocity S-wave (km/s) = 1.21390 3.21047 2.42700
# Velocity P-wave (km/s) = 3.45396 6.30751 5.08500
#
# Compressibility (1/GPa) = 0.05705924
#
# Stress axis : x y z
#
# Youngs Moduli (GPa) = 60.96983 12.61101 79.16773
#
# Poissons Ratio (x) = 0.09860 0.40369
# Poissons Ratio (y) = 0.47671 1.00676
# Poissons Ratio (z) = 0.31090 0.16037
#
# Static dielectric constant tensor:
#      x y z
#    x 3.437550 0.000000 0.000000 
#    y 0.000000 2.659640 0.000000 
#    z 0.000000 0.000000 3.508750 
# 
# 
# High freq. dielectric constant tensor:
#      x y z
#    x 1.678950 0.000000 0.000000 
#    y 0.000000 1.614270 0.000000 
#    z 0.000000 0.000000 1.692290 
# 
# From -- ./inp_files/30730.got.cif
#   From: 2010.03.12/outbox.cif.g09.slc.cpg/sg51_16_cif.got.tgz:30730.got - 2010.04.16 13:43:02.
