data_PCOD8206516
_publ_section_title
;
Structure prediction by ZEFSAII (Michael W. Deem and Ramdas Pophale) SiO2 
 PCOD8206516
Probable space group: P M M A
;
_chemical_formula_sum "Si O2"
_cell_formula_units_Z 48
_cell_length_a 19.725216
_cell_length_b 9.311572
_cell_length_c 15.128227
_cell_angle_alpha 90.000000
_cell_angle_beta 90.000000
_cell_angle_gamma 90.000000
_cell_volume 2778.643343
_symmetry_space_group_name_H-M "P M M A"
_symmetry_group_IT_number 51
_symmetry_cell_setting 'orthorhombic'
loop_
_space_group_symop_operation_xyz
x,y,z
1/2-x,-y,z
1/2+x,-y,-z
-x,y,-z
-x,-y,-z
1/2+x,y,-z
1/2-x,y,z
x,-y,z
loop_
_atom_site_type_symbol
_atom_site_label
_atom_site_fract_x
_atom_site_fract_y
_atom_site_fract_z
Si Si1 0.171377 0.664320 0.077780
Si Si2 0.893835 0.335419 0.741662
Si Si3 0.908944 0.839140 0.578734
Si Si4 0.571386 0.830708 0.044546
Si Si5 0.451900 0.669052 0.779198
Si Si6 0.432032 0.162859 0.612879
O O1 0.250000 0.683767 0.056711
O O2 0.147568 0.500000 0.059412
O O3 0.158308 0.702229 0.180392
O O4 0.131080 0.775301 0.017766
O O5 0.892340 0.500000 0.714935
O O6 0.870633 0.254203 0.652606
O O7 0.968749 0.291961 0.774559
O O8 0.894866 0.785989 0.477930
O O9 0.988330 0.831906 0.596724
O O10 0.881633 0.000000 0.588710
O O11 0.579102 0.748703 0.136722
O O12 0.579380 0.000000 0.060060
O O13 0.500000 0.792150 0.000000
O O14 0.438488 0.500000 0.786985
O O15 0.413067 0.729681 0.692503
O O16 0.410209 0.000000 0.637023
#
# Coordination Sequence:
#
# PCOD8206516 Si02
#       6
#     8   8   8   8   8   8
#     4  10  21  37  54  72  99 134 169 208 254 302
#     4   9  17  28  44  68  95 125 161 201 242 291
#     4   8  14  24  40  61  90 128 159 189 235 288
#     4  11  22  34  51  74  99 131 169 211 257 305
#     4  10  18  28  46  70  97 128 163 204 250 299
#     4   8  14  25  39  61  94 126 158 195 238 288
#
# _framework density 17.274619000000001
#
# number of rings (size 3 to 8) (size 9 to 14) (size 15 to 20)
#    0.000    2.667    1.667    2.000    0.000    3.000 
#    0.000    3.333    0.000    0.000    0.000    1.167 
#    0.000    4.000    0.000    0.000    0.000    0.000 
#
# Total GULP energy -595022.105370 kJ/mol
# GULP energy per Si atom -12396.293862 kJ/mol
# Density = 1.723530 g / cm^3
# Si number density = 17.274619 Si / 1000 Ang^3
#
#
#
# Elastic Constant Matrix: (Units=GPa)
#
#
# Indices 1 2 3 4 5 6 
#
# 1 39.1297 26.8710 29.0947 0.0000 0.0000 0.0000
# 2 26.8710 87.1363 69.2302 0.0000 0.0000 0.0000
# 3 29.0947 69.2302 133.2059 0.0000 0.0000 0.0000
# 4 0.0000 0.0000 0.0000 39.9008 0.0000 0.0000
# 5 0.0000 0.0000 0.0000 0.0000 14.9425 0.0000
# 6 0.0000 0.0000 0.0000 0.0000 0.0000 11.3432
#
#
#
# Elastic Compliance Matrix: (Units=1/GPa)
#
#
# Indices 1 2 3 4 5 6 
#
# 1 0.033249 -0.007637 -0.003293 0.000000 0.000000 0.000000
# 2 -0.007637 0.021302 -0.009403 0.000000 0.000000 0.000000
# 3 -0.003293 -0.009403 0.013114 0.000000 0.000000 0.000000
# 4 0.000000 0.000000 0.000000 0.025062 0.000000 0.000000
# 5 0.000000 0.000000 0.000000 0.000000 0.066923 0.000000
# 6 0.000000 0.000000 0.000000 0.000000 0.000000 0.088159
#
#
# Mechanical properties :
#
#
# Convention : Reuss Voigt Hill
#
# Bulk Modulus (GPa) = 37.03944 56.65155 46.84550
# Shear Modulus (GPa) = 16.80813 22.18902 19.49858
#
# Velocity S-wave (km/s) = 3.12267 3.58786 3.36332
# Velocity P-wave (km/s) = 5.87278 7.07316 6.50073
#
# Compressibility (1/GPa) = 0.02699825
#
# Stress axis : x y z
#
# Youngs Moduli (GPa) = 30.07611 46.94339 76.25703
#
# Poissons Ratio (x) = 0.35850 0.25113
# Poissons Ratio (y) = 0.22969 0.71706
# Poissons Ratio (z) = 0.09905 0.44142
#
# Static dielectric constant tensor:
#      x y z
#    x 2.722940 0.000000 0.000000 
#    y 0.000000 3.292770 0.000000 
#    z 0.000000 0.000000 3.583560 
# 
# 
# High freq. dielectric constant tensor:
#      x y z
#    x 1.602400 0.000000 0.000000 
#    y 0.000000 1.669350 0.000000 
#    z 0.000000 0.000000 1.683730 
# 
# From -- ./inp_files/25452.got.cif
#   From: 2010.03.12/outbox.cif.g09.slc.cpg/sg51_13_cif.got.tgz:25452.got - 2010.04.16 13:43:02.
