data_PCOD8206486
_publ_section_title
;
Structure prediction by ZEFSAII (Michael W. Deem and Ramdas Pophale) SiO2 
 PCOD8206486
Probable space group: P M M A
;
_chemical_formula_sum "Si O2"
_cell_formula_units_Z 64
_cell_length_a 8.862680
_cell_length_b 23.323550
_cell_length_c 18.917989
_cell_angle_alpha 90.000000
_cell_angle_beta 90.000000
_cell_angle_gamma 90.000000
_cell_volume 3910.521617
_symmetry_space_group_name_H-M "P M M A"
_symmetry_group_IT_number 51
_symmetry_cell_setting 'orthorhombic'
loop_
_space_group_symop_operation_xyz
x,y,z
1/2-x,-y,z
1/2+x,-y,-z
-x,y,-z
-x,-y,-z
1/2+x,y,-z
1/2-x,y,z
x,-y,z
loop_
_atom_site_type_symbol
_atom_site_label
_atom_site_fract_x
_atom_site_fract_y
_atom_site_fract_z
Si Si1 0.073779 0.433915 0.574361
Si Si2 0.927106 0.665732 0.649901
Si Si3 0.573533 0.249787 0.070913
Si Si4 0.929424 0.772375 0.425062
Si Si5 0.574380 0.066395 0.216840
Si Si6 0.073015 0.881549 0.929270
Si Si7 0.576754 0.271417 0.790097
Si Si8 0.572893 0.837098 0.698647
O O1 0.250000 0.419784 0.570534
O O2 0.043441 0.500000 0.592974
O O3 0.000000 0.417084 0.500000
O O4 0.994121 0.397062 0.635480
O O5 0.750000 0.668477 0.632966
O O6 0.958108 0.679866 0.732012
O O7 0.010119 0.710753 0.599503
O O8 0.750000 0.256022 0.063186
O O9 0.520304 0.184085 0.080537
O O10 0.520314 0.284536 0.140075
O O11 0.500000 0.275978 0.000000
O O12 0.750000 0.770485 0.429690
O O13 0.000000 0.788096 0.500000
O O14 0.981697 0.822352 0.372058
O O15 0.750000 0.082621 0.224854
O O16 0.517672 0.082194 0.138138
O O17 0.478415 0.100824 0.274540
O O18 0.544325 0.000000 0.231100
O O19 0.250000 0.885998 0.938681
O O20 0.000000 0.908043 0.000000
O O21 0.750000 0.272054 0.812877
O O22 0.531889 0.209698 0.758172
O O23 0.750000 0.836211 0.681359
#
# Coordination Sequence:
#
# PCOD8206486 Si02
#       8
#     8   8   8   8   8   8   8   8
#     4  10  20  33  49  70  99 138 179 213 244 281
#     4  10  20  33  49  73 103 133 166 204 244 283
#     4  10  18  28  45  66  92 124 158 193 236 286
#     4  11  21  34  53  75 100 126 155 192 238 286
#     4  10  20  34  50  68  92 122 157 195 235 284
#     4   9  18  30  44  65  90 120 156 193 233 278
#     4   9  18  31  47  68  94 123 156 197 240 284
#     4  10  20  34  51  71  95 120 153 193 237 288
#
# _framework density 16.366104
#
# number of rings (size 3 to 8) (size 9 to 14) (size 15 to 20)
#    0.000    2.125    1.250    3.750    0.000    4.750 
#    0.000    0.000    0.000    0.375    0.000    0.000 
#    0.000    0.500    0.000    1.625    0.000    2.375 
#
# Total GULP energy -793771.098045 kJ/mol
# GULP energy per Si atom -12402.673407 kJ/mol
# Density = 1.632885 g / cm^3
# Si number density = 16.366104 Si / 1000 Ang^3
#
#
#
# Elastic Constant Matrix: (Units=GPa)
#
#
# Indices 1 2 3 4 5 6 
#
# 1 97.2349 39.0374 62.6491 0.0000 0.0000 0.0000
# 2 39.0374 72.7362 48.6410 0.0000 0.0000 0.0000
# 3 62.6491 48.6410 123.8115 0.0000 0.0000 0.0000
# 4 0.0000 0.0000 0.0000 23.4153 0.0000 0.0000
# 5 0.0000 0.0000 0.0000 0.0000 32.9334 0.0000
# 6 0.0000 0.0000 0.0000 0.0000 0.0000 23.7085
#
#
#
# Elastic Compliance Matrix: (Units=1/GPa)
#
#
# Indices 1 2 3 4 5 6 
#
# 1 0.016220 -0.004363 -0.006493 0.000000 0.000000 0.000000
# 2 -0.004363 0.019821 -0.005579 0.000000 0.000000 0.000000
# 3 -0.006493 -0.005579 0.013554 0.000000 0.000000 0.000000
# 4 0.000000 0.000000 0.000000 0.042707 0.000000 0.000000
# 5 0.000000 0.000000 0.000000 0.000000 0.030364 0.000000
# 6 0.000000 0.000000 0.000000 0.000000 0.000000 0.042179
#
#
# Mechanical properties :
#
#
# Convention : Reuss Voigt Hill
#
# Bulk Modulus (GPa) = 59.79385 66.04862 62.92124
# Shear Modulus (GPa) = 24.59539 25.57514 25.08527
#
# Velocity S-wave (km/s) = 3.88083 3.95738 3.91929
# Velocity P-wave (km/s) = 7.52965 7.83107 7.68184
#
# Compressibility (1/GPa) = 0.01672413
#
# Stress axis : x y z
#
# Youngs Moduli (GPa) = 61.65417 50.45185 73.77764
#
# Poissons Ratio (x) = 0.22011 0.47905
# Poissons Ratio (y) = 0.26899 0.41163
# Poissons Ratio (z) = 0.40033 0.28149
#
# Static dielectric constant tensor:
#      x y z
#    x 3.114760 0.000000 0.000000 
#    y 0.000000 2.854950 0.000000 
#    z 0.000000 0.000000 3.124380 
# 
# 
# High freq. dielectric constant tensor:
#      x y z
#    x 1.641950 0.000000 0.000000 
#    y 0.000000 1.593440 0.000000 
#    z 0.000000 0.000000 1.628810 
# 
# From -- ./inp_files/28486.got.cif
#   From: 2010.03.12/outbox.cif.g09.slc.cpg/sg51_15_cif.got.tgz:28486.got - 2010.04.16 13:43:02.
