data_PCOD8206990
_publ_section_title
;
Structure prediction by ZEFSAII (Michael W. Deem and Ramdas Pophale) SiO2 
 PCOD8206990
Probable space group: P M M A
;
_chemical_formula_sum "Si O2"
_cell_formula_units_Z 48
_cell_length_a 16.297087
_cell_length_b 9.419810
_cell_length_c 15.688391
_cell_angle_alpha 90.000000
_cell_angle_beta 90.000000
_cell_angle_gamma 90.000000
_cell_volume 2408.410610
_symmetry_space_group_name_H-M "P M M A"
_symmetry_group_IT_number 51
_symmetry_cell_setting 'orthorhombic'
loop_
_space_group_symop_operation_xyz
x,y,z
1/2-x,-y,z
1/2+x,-y,-z
-x,y,-z
-x,-y,-z
1/2+x,y,-z
1/2-x,y,z
x,-y,z
loop_
_atom_site_type_symbol
_atom_site_label
_atom_site_fract_x
_atom_site_fract_y
_atom_site_fract_z
Si Si1 0.250000 0.335771 0.739147
Si Si2 0.501106 0.339745 0.781697
Si Si3 0.432098 0.833439 0.933415
Si Si4 0.158418 0.662852 0.302292
Si Si5 0.844924 0.165012 0.530099
Si Si6 0.400505 0.338746 0.622239
Si Si7 0.750000 0.164921 0.088639
O O1 0.250000 0.500000 0.765371
O O2 0.327674 0.293297 0.684232
O O3 0.250000 0.247359 0.824259
O O4 0.480148 0.500000 0.811742
O O5 0.451274 0.235101 0.842106
O O6 0.599009 0.309560 0.779473
O O7 0.480212 0.320314 0.681222
O O8 0.336644 0.798647 0.960580
O O9 0.444886 0.000000 0.923018
O O10 0.500000 0.772912 0.000000
O O11 0.250000 0.695678 0.269435
O O12 0.150160 0.500000 0.333809
O O13 0.135117 0.765585 0.379610
O O14 0.750000 0.191700 0.505330
O O15 0.903192 0.235990 0.458994
O O16 0.866377 0.000000 0.535461
O O17 0.389989 0.500000 0.588999
O O18 0.750000 0.000000 0.111193
#
# Coordination Sequence:
#
# PCOD8206990 Si02
#       7
#     4   8   8   8   8   8   4
#     4  10  18  30  52  80 109 142 179 220 271 328
#     4  10  21  37  58  83 109 140 181 230 278 328
#     4  10  22  40  60  85 117 149 181 221 272 331
#     4   9  19  37  57  74 102 146 190 230 276 328
#     4  10  20  32  49  75 107 144 188 232 272 321
#     4  10  19  31  50  77 108 141 178 221 274 329
#     4  10  20  36  60  84 111 148 183 218 269 330
#
# _framework density 19.930156
#
# number of rings (size 3 to 8) (size 9 to 14) (size 15 to 20)
#    0.000    2.167    2.500    0.500    0.000    3.667 
#    1.500    3.333    0.000    0.000    0.000    0.000 
#    0.000    0.000    0.000    0.000    0.000    0.000 
#
# Total GULP energy -594924.643566 kJ/mol
# GULP energy per Si atom -12394.263408 kJ/mol
# Density = 1.988479 g / cm^3
# Si number density = 19.930156 Si / 1000 Ang^3
#
#
#
# Elastic Constant Matrix: (Units=GPa)
#
#
# Indices 1 2 3 4 5 6 
#
# 1 123.3148 32.9619 40.6353 0.0000 0.0000 0.0000
# 2 32.9619 65.2475 30.2291 0.0000 0.0000 0.0000
# 3 40.6353 30.2291 46.7744 0.0000 0.0000 0.0000
# 4 0.0000 0.0000 0.0000 26.2455 0.0000 0.0000
# 5 0.0000 0.0000 0.0000 0.0000 13.0086 0.0000
# 6 0.0000 0.0000 0.0000 0.0000 0.0000 23.5540
#
#
#
# Elastic Compliance Matrix: (Units=1/GPa)
#
#
# Indices 1 2 3 4 5 6 
#
# 1 0.011490 -0.001684 -0.008894 0.000000 0.000000 0.000000
# 2 -0.001684 0.022123 -0.012835 0.000000 0.000000 0.000000
# 3 -0.008894 -0.012835 0.037400 0.000000 0.000000 0.000000
# 4 0.000000 0.000000 0.000000 0.038102 0.000000 0.000000
# 5 0.000000 0.000000 0.000000 0.000000 0.076872 0.000000
# 6 0.000000 0.000000 0.000000 0.000000 0.000000 0.042456
#
#
# Mechanical properties :
#
#
# Convention : Reuss Voigt Hill
#
# Bulk Modulus (GPa) = 41.34132 49.22104 45.28118
# Shear Modulus (GPa) = 17.64720 21.32898 19.48809
#
# Velocity S-wave (km/s) = 2.97888 3.27492 3.13040
# Velocity P-wave (km/s) = 5.71137 6.24904 5.98625
#
# Compressibility (1/GPa) = 0.02418887
#
# Stress axis : x y z
#
# Youngs Moduli (GPa) = 87.03080 45.20114 26.73784
#
# Poissons Ratio (x) = 0.07613 0.23780
# Poissons Ratio (y) = 0.14658 0.34317
# Poissons Ratio (z) = 0.77402 0.58014
#
# Static dielectric constant tensor:
#      x y z
#    x 3.996060 0.000000 0.000000 
#    y 0.000000 3.514010 0.000000 
#    z 0.000000 0.000000 3.247020 
# 
# 
# High freq. dielectric constant tensor:
#      x y z
#    x 1.799070 0.000000 0.000000 
#    y 0.000000 1.768580 0.000000 
#    z 0.000000 0.000000 1.741700 
# 
# From -- ./inp_files/25009.got.cif
#   From: 2010.03.12/outbox.cif.g09.slc.cpg/sg51_13_cif.got.tgz:25009.got - 2010.04.16 13:43:02.
