data_PCOD8206855
_publ_section_title
;
Structure prediction by ZEFSAII (Michael W. Deem and Ramdas Pophale) SiO2 
 PCOD8206855
Probable space group: P M M A
;
_chemical_formula_sum "Si O2"
_cell_formula_units_Z 64
_cell_length_a 8.813252
_cell_length_b 19.796888
_cell_length_c 20.490378
_cell_angle_alpha 90.000000
_cell_angle_beta 90.000000
_cell_angle_gamma 90.000000
_cell_volume 3575.057938
_symmetry_space_group_name_H-M "P M M A"
_symmetry_group_IT_number 51
_symmetry_cell_setting 'orthorhombic'
loop_
_space_group_symop_operation_xyz
x,y,z
1/2-x,-y,z
1/2+x,-y,-z
-x,y,-z
-x,-y,-z
1/2+x,y,-z
1/2-x,y,z
x,-y,z
loop_
_atom_site_type_symbol
_atom_site_label
_atom_site_fract_x
_atom_site_fract_y
_atom_site_fract_z
Si Si1 0.928365 0.922406 0.432623
Si Si2 0.426161 0.426134 0.268911
Si Si3 0.926448 0.284323 0.124348
Si Si4 0.070697 0.147630 0.932458
Si Si5 0.924927 0.571838 0.131638
Si Si6 0.071013 0.157985 0.314733
Si Si7 0.571663 0.708435 0.274256
Si Si8 0.425145 0.077838 0.186684
O O1 0.750000 0.912411 0.436618
O O2 0.000000 0.896151 0.500000
O O3 0.993499 0.879020 0.374310
O O4 0.974111 0.000000 0.420352
O O5 0.250000 0.408541 0.276342
O O6 0.462326 0.500000 0.301016
O O7 0.465716 0.431238 0.192928
O O8 0.522794 0.365543 0.301596
O O9 0.750000 0.268997 0.124156
O O10 0.999928 0.222375 0.084319
O O11 0.963628 0.358669 0.091991
O O12 0.983018 0.285065 0.199100
O O13 0.250000 0.147992 0.939949
O O14 0.025245 0.095855 0.875969
O O15 0.000000 0.122373 0.000000
O O16 0.750000 0.578622 0.156166
O O17 0.944613 0.500000 0.092114
O O18 0.250000 0.154182 0.323532
O O19 0.018751 0.122192 0.247734
O O20 0.015272 0.235083 0.315493
O O21 0.750000 0.718125 0.282856
O O22 0.250000 0.092663 0.170401
O O23 0.451657 0.000000 0.204849
#
# Coordination Sequence:
#
# PCOD8206855 Si02
#       8
#     8   8   8   8   8   8   8   8
#     4  10  21  37  57  81 111 148 187 222 258 303
#     4   9  16  25  38  62  97 133 168 208 256 306
#     4   8  15  28  46  67  92 121 158 204 250 302
#     4  11  22  37  54  72  95 125 166 212 262 316
#     4   8  13  23  41  64  88 118 156 197 244 298
#     4  11  21  34  55  82 112 141 172 213 263 313
#     4  10  18  30  48  71 100 134 174 214 256 308
#     4  10  22  39  57  78 102 128 162 206 259 317
#
# _framework density 17.901807999999999
#
# number of rings (size 3 to 8) (size 9 to 14) (size 15 to 20)
#    0.000    2.375    1.250    3.000    0.000    3.000 
#    0.000    0.625    0.000    0.375    0.000    0.000 
#    0.000    0.500    0.000    1.875    0.000    3.125 
#
# Total GULP energy -793108.360283 kJ/mol
# GULP energy per Si atom -12392.318129 kJ/mol
# Density = 1.786106 g / cm^3
# Si number density = 17.901808 Si / 1000 Ang^3
#
#
#
# Elastic Constant Matrix: (Units=GPa)
#
#
# Indices 1 2 3 4 5 6 
#
# 1 45.8831 27.8560 24.9547 0.0000 0.0000 0.0000
# 2 27.8560 108.6212 33.4071 0.0000 0.0000 0.0000
# 3 24.9547 33.4071 75.7044 0.0000 0.0000 0.0000
# 4 0.0000 0.0000 0.0000 25.2946 0.0000 0.0000
# 5 0.0000 0.0000 0.0000 0.0000 20.0081 0.0000
# 6 0.0000 0.0000 0.0000 0.0000 0.0000 28.0088
#
#
#
# Elastic Compliance Matrix: (Units=1/GPa)
#
#
# Indices 1 2 3 4 5 6 
#
# 1 0.028873 -0.005180 -0.007231 0.000000 0.000000 0.000000
# 2 -0.005180 0.011581 -0.003403 0.000000 0.000000 0.000000
# 3 -0.007231 -0.003403 0.017095 0.000000 0.000000 0.000000
# 4 0.000000 0.000000 0.000000 0.039534 0.000000 0.000000
# 5 0.000000 0.000000 0.000000 0.000000 0.049980 0.000000
# 6 0.000000 0.000000 0.000000 0.000000 0.000000 0.035703
#
#
# Mechanical properties :
#
#
# Convention : Reuss Voigt Hill
#
# Bulk Modulus (GPa) = 38.58160 44.73827 41.65994
# Shear Modulus (GPa) = 22.41801 24.26168 23.33985
#
# Velocity S-wave (km/s) = 3.54259 3.68539 3.61469
# Velocity P-wave (km/s) = 6.19127 6.56922 6.38304
#
# Compressibility (1/GPa) = 0.02591909
#
# Stress axis : x y z
#
# Youngs Moduli (GPa) = 34.63501 86.34501 58.49767
#
# Poissons Ratio (x) = 0.44730 0.42302
# Poissons Ratio (y) = 0.17942 0.19907
# Poissons Ratio (z) = 0.25046 0.29384
#
# Static dielectric constant tensor:
#      x y z
#    x 3.234120 0.000000 0.000000 
#    y 0.000000 3.820970 0.000000 
#    z 0.000000 0.000000 2.762240 
# 
# 
# High freq. dielectric constant tensor:
#      x y z
#    x 1.692280 0.000000 0.000000 
#    y 0.000000 1.715870 0.000000 
#    z 0.000000 0.000000 1.633170 
# 
# From -- ./inp_files/28403.got.cif
#   From: 2010.03.12/outbox.cif.g09.slc.cpg/sg51_15_cif.got.tgz:28403.got - 2010.04.16 13:43:02.
