data_PCOD8206474
_publ_section_title
;
Structure prediction by ZEFSAII (Michael W. Deem and Ramdas Pophale) SiO2 
 PCOD8206474
Probable space group: P M M A
;
_chemical_formula_sum "Si O2"
_cell_formula_units_Z 52
_cell_length_a 9.633240
_cell_length_b 13.376696
_cell_length_c 24.503775
_cell_angle_alpha 90.000000
_cell_angle_beta 90.000000
_cell_angle_gamma 90.000000
_cell_volume 3157.579063
_symmetry_space_group_name_H-M "P M M A"
_symmetry_group_IT_number 51
_symmetry_cell_setting 'orthorhombic'
loop_
_space_group_symop_operation_xyz
x,y,z
1/2-x,-y,z
1/2+x,-y,-z
-x,y,-z
-x,-y,-z
1/2+x,y,-z
1/2-x,y,z
x,-y,z
loop_
_atom_site_type_symbol
_atom_site_label
_atom_site_fract_x
_atom_site_fract_y
_atom_site_fract_z
Si Si1 0.088061 0.389256 0.661260
Si Si2 0.910254 0.884425 0.948937
Si Si3 0.589724 0.200189 0.834809
Si Si4 0.583388 0.000000 0.444443
Si Si5 0.907702 0.388659 0.767348
Si Si6 0.596727 0.885224 0.254881
Si Si7 0.412341 0.819443 0.630391
O O1 0.250000 0.386702 0.675999
O O2 0.047182 0.500000 0.637783
O O3 0.055179 0.299051 0.617663
O O4 0.007634 0.366420 0.716903
O O5 0.750000 0.868734 0.964087
O O6 0.954812 0.816923 0.897334
O O7 0.941796 0.000000 0.934983
O O8 0.000000 0.847187 0.000000
O O9 0.750000 0.170270 0.827455
O O10 0.559932 0.314556 0.817494
O O11 0.501715 0.127749 0.796683
O O12 0.500000 0.000000 0.500000
O O13 0.529703 0.100766 0.413295
O O14 0.750000 0.000000 0.454160
O O15 0.750000 0.374547 0.746466
O O16 0.932177 0.500000 0.790166
O O17 0.750000 0.839495 0.242585
O O18 0.527379 0.836543 0.308827
O O19 0.612443 0.000000 0.268731
O O20 0.250000 0.841098 0.632997
#
# Coordination Sequence:
#
# PCOD8206474 Si02
#       7
#     8   8   8   4   8   8   8
#     4   9  16  27  46  70  93 121 157 192 228 275
#     4   9  18  32  47  62  83 113 151 191 231 274
#     4  10  19  30  45  66  93 123 151 187 234 279
#     4  10  20  36  54  70  94 130 165 198 231 270
#     4   9  17  28  42  64  95 126 152 181 226 281
#     4  10  18  28  44  68  95 123 151 181 227 282
#     4   9  16  29  48  68  94 124 152 188 231 271
#
# _framework density 16.468312999999998
#
# number of rings (size 3 to 8) (size 9 to 14) (size 15 to 20)
#    0.000    2.615    2.308    0.462    0.000    1.538 
#    0.000    3.077    0.000    0.923    0.000    0.000 
#    0.000    0.000    0.000    0.000    0.000    0.000 
#
# Total GULP energy -644325.366712 kJ/mol
# GULP energy per Si atom -12390.872437 kJ/mol
# Density = 1.643083 g / cm^3
# Si number density = 16.468313 Si / 1000 Ang^3
#
#
#
# Elastic Constant Matrix: (Units=GPa)
#
#
# Indices 1 2 3 4 5 6 
#
# 1 40.1885 30.9174 36.7756 0.0000 0.0000 0.0000
# 2 30.9174 129.4987 59.7439 0.0000 0.0000 0.0000
# 3 36.7756 59.7439 93.7155 0.0000 0.0000 0.0000
# 4 0.0000 0.0000 0.0000 19.1031 0.0000 0.0000
# 5 0.0000 0.0000 0.0000 0.0000 25.7034 0.0000
# 6 0.0000 0.0000 0.0000 0.0000 0.0000 17.7476
#
#
#
# Elastic Compliance Matrix: (Units=1/GPa)
#
#
# Indices 1 2 3 4 5 6 
#
# 1 0.039768 -0.003251 -0.013533 0.000000 0.000000 0.000000
# 2 -0.003251 0.011205 -0.005868 0.000000 0.000000 0.000000
# 3 -0.013533 -0.005868 0.019722 0.000000 0.000000 0.000000
# 4 0.000000 0.000000 0.000000 0.052348 0.000000 0.000000
# 5 0.000000 0.000000 0.000000 0.000000 0.038905 0.000000
# 6 0.000000 0.000000 0.000000 0.000000 0.000000 0.056346
#
#
# Mechanical properties :
#
#
# Convention : Reuss Voigt Hill
#
# Bulk Modulus (GPa) = 39.38343 57.58629 48.48486
# Shear Modulus (GPa) = 18.37827 21.57518 19.97672
#
# Velocity S-wave (km/s) = 3.34425 3.62346 3.48665
# Velocity P-wave (km/s) = 6.23527 7.24912 6.76123
#
# Compressibility (1/GPa) = 0.02539139
#
# Stress axis : x y z
#
# Youngs Moduli (GPa) = 25.14616 89.24370 50.70523
#
# Poissons Ratio (x) = 0.29013 0.68619
# Poissons Ratio (y) = 0.08175 0.29752
# Poissons Ratio (z) = 0.34030 0.52365
#
# Static dielectric constant tensor:
#      x y z
#    x 3.033710 0.000000 0.000000 
#    y 0.000000 3.431290 0.000000 
#    z 0.000000 0.000000 2.879960 
# 
# 
# High freq. dielectric constant tensor:
#      x y z
#    x 1.620730 0.000000 0.000000 
#    y 0.000000 1.645790 0.000000 
#    z 0.000000 0.000000 1.599280 
# 
# From -- ./inp_files/31721.got.cif
#   From: 2010.03.12/outbox.cif.g09.slc.cpg/sg51_16_cif.got.tgz:31721.got - 2010.04.16 13:43:02.
