data_PCOD8206780
_publ_section_title
;
Structure prediction by ZEFSAII (Michael W. Deem and Ramdas Pophale) SiO2 
 PCOD8206780
Probable space group: P M M A
;
_chemical_formula_sum "Si O2"
_cell_formula_units_Z 52
_cell_length_a 8.660175
_cell_length_b 23.482841
_cell_length_c 14.495553
_cell_angle_alpha 90.000000
_cell_angle_beta 90.000000
_cell_angle_gamma 90.000000
_cell_volume 2947.895566
_symmetry_space_group_name_H-M "P M M A"
_symmetry_group_IT_number 51
_symmetry_cell_setting 'orthorhombic'
loop_
_space_group_symop_operation_xyz
x,y,z
1/2-x,-y,z
1/2+x,-y,-z
-x,y,-z
-x,-y,-z
1/2+x,y,-z
1/2-x,y,z
x,-y,z
loop_
_atom_site_type_symbol
_atom_site_label
_atom_site_fract_x
_atom_site_fract_y
_atom_site_fract_z
Si Si1 0.067261 0.774825 0.710668
Si Si2 0.071993 0.563887 0.729409
Si Si3 0.933907 0.115386 0.398067
Si Si4 0.567241 0.334463 0.398886
Si Si5 0.432394 0.734921 0.905360
Si Si6 0.566329 0.000000 0.602410
Si Si7 0.431408 0.610707 0.094051
O O1 0.250000 0.772700 0.703802
O O2 0.005531 0.832752 0.664856
O O3 0.000503 0.720162 0.656143
O O4 0.015744 0.773225 0.817978
O O5 0.250000 0.576635 0.753932
O O6 0.050254 0.500000 0.690374
O O7 0.011965 0.608215 0.652802
O O8 0.972352 0.569315 0.822060
O O9 0.750000 0.111794 0.403069
O O10 0.000000 0.124745 0.500000
O O11 0.001125 0.057668 0.350835
O O12 0.500000 0.334648 0.500000
O O13 0.750000 0.331936 0.405533
O O14 0.250000 0.731883 0.914311
O O15 0.494192 0.671959 0.887405
O O16 0.500000 0.761414 0.000000
O O17 0.500000 0.000000 0.500000
O O18 0.750000 0.000000 0.602947
O O19 0.250000 0.617626 0.083571
O O20 0.500000 0.584123 0.000000
#
# Coordination Sequence:
#
# PCOD8206780 Si02
#       7
#     8   8   8   8   8   4   8
#     4   9  18  32  52  74 103 135 165 204 253 298
#     4  10  21  38  57  73  96 132 169 206 253 305
#     4  10  18  30  48  73 102 139 175 208 246 293
#     4  10  20  36  53  73 100 131 165 207 253 299
#     4  10  18  33  53  76 104 134 165 202 248 304
#     4  10  18  30  46  68 101 140 173 212 249 286
#     4  11  21  34  54  78 102 129 160 203 253 307
#
# _framework density 17.639703000000001
#
# number of rings (size 3 to 8) (size 9 to 14) (size 15 to 20)
#    0.000    2.000    1.538    5.308    0.000    1.538 
#    0.000    3.846    0.000    0.000    0.000    0.538 
#    0.000    0.000    0.000    0.000    0.000    0.000 
#
# Total GULP energy -644726.851863 kJ/mol
# GULP energy per Si atom -12398.593305 kJ/mol
# Density = 1.759955 g / cm^3
# Si number density = 17.639703 Si / 1000 Ang^3
#
#
#
# Elastic Constant Matrix: (Units=GPa)
#
#
# Indices 1 2 3 4 5 6 
#
# 1 76.0643 34.3578 35.5143 0.0000 0.0000 0.0000
# 2 34.3578 144.4319 75.1393 0.0000 0.0000 0.0000
# 3 35.5143 75.1393 130.9779 0.0000 0.0000 0.0000
# 4 0.0000 0.0000 0.0000 25.7754 0.0000 0.0000
# 5 0.0000 0.0000 0.0000 0.0000 26.9628 0.0000
# 6 0.0000 0.0000 0.0000 0.0000 0.0000 18.8536
#
#
#
# Elastic Compliance Matrix: (Units=1/GPa)
#
#
# Indices 1 2 3 4 5 6 
#
# 1 0.015503 -0.002140 -0.002976 0.000000 0.000000 0.000000
# 2 -0.002140 0.010164 -0.005251 0.000000 0.000000 0.000000
# 3 -0.002976 -0.005251 0.011454 0.000000 0.000000 0.000000
# 4 0.000000 0.000000 0.000000 0.038797 0.000000 0.000000
# 5 0.000000 0.000000 0.000000 0.000000 0.037088 0.000000
# 6 0.000000 0.000000 0.000000 0.000000 0.000000 0.053040
#
#
# Mechanical properties :
#
#
# Convention : Reuss Voigt Hill
#
# Bulk Modulus (GPa) = 61.01988 71.27743 66.14866
# Shear Modulus (GPa) = 26.00882 28.08254 27.04568
#
# Velocity S-wave (km/s) = 3.84402 3.99433 3.91989
# Velocity P-wave (km/s) = 7.37356 7.85926 7.62028
#
# Compressibility (1/GPa) = 0.01638810
#
# Stress axis : x y z
#
# Youngs Moduli (GPa) = 64.50475 98.38258 87.30405
#
# Poissons Ratio (x) = 0.21049 0.25983
# Poissons Ratio (y) = 0.13801 0.45843
# Poissons Ratio (z) = 0.19197 0.51660
#
# Static dielectric constant tensor:
#      x y z
#    x 3.066160 0.000000 0.000000 
#    y 0.000000 3.623780 0.000000 
#    z 0.000000 0.000000 3.397980 
# 
# 
# High freq. dielectric constant tensor:
#      x y z
#    x 1.677330 0.000000 0.000000 
#    y 0.000000 1.673460 0.000000 
#    z 0.000000 0.000000 1.671660 
# 
# From -- ./inp_files/22059.got.cif
#   From: 2010.03.12/outbox.cif.g09.slc.cpg/sg51_12_cif.got.tgz:22059.got - 2010.04.16 13:43:02.
