data_PCOD8206212
_publ_section_title
;
Structure prediction by ZEFSAII (Michael W. Deem and Ramdas Pophale) SiO2 
 PCOD8206212
Probable space group: P M M A
;
_chemical_formula_sum "Si O2"
_cell_formula_units_Z 64
_cell_length_a 8.757619
_cell_length_b 15.500541
_cell_length_c 24.105082
_cell_angle_alpha 90.000000
_cell_angle_beta 90.000000
_cell_angle_gamma 90.000000
_cell_volume 3272.212631
_symmetry_space_group_name_H-M "P M M A"
_symmetry_group_IT_number 51
_symmetry_cell_setting 'orthorhombic'
loop_
_space_group_symop_operation_xyz
x,y,z
1/2-x,-y,z
1/2+x,-y,-z
-x,y,-z
-x,-y,-z
1/2+x,y,-z
1/2-x,y,z
x,-y,z
loop_
_atom_site_type_symbol
_atom_site_label
_atom_site_fract_x
_atom_site_fract_y
_atom_site_fract_z
Si Si1 0.930858 0.904374 0.134008
Si Si2 0.431728 0.747708 0.939492
Si Si3 0.071991 0.855649 0.744854
Si Si4 0.072323 0.345872 0.743704
Si Si5 0.069918 0.241470 0.559747
Si Si6 0.931568 0.595411 0.373127
Si Si7 0.574927 0.097131 0.633905
Si Si8 0.931339 0.596099 0.139002
O O1 0.750000 0.895161 0.136085
O O2 0.995044 0.833655 0.091058
O O3 0.992356 0.887318 0.195939
O O4 0.981545 0.000000 0.114296
O O5 0.250000 0.748316 0.943120
O O6 0.493200 0.664582 0.905735
O O7 0.500000 0.743830 0.000000
O O8 0.250000 0.878584 0.737796
O O9 0.041938 0.754831 0.739683
O O10 0.977122 0.903643 0.697695
O O11 0.250000 0.367565 0.745550
O O12 0.000723 0.389908 0.688808
O O13 0.998146 0.383472 0.800142
O O14 0.250000 0.245719 0.554061
O O15 0.004815 0.331219 0.585376
O O16 0.000000 0.226086 0.500000
O O17 0.029048 0.161487 0.598757
O O18 0.750000 0.603917 0.370439
O O19 0.981415 0.500000 0.394030
O O20 0.750000 0.127202 0.629602
O O21 0.555503 0.000000 0.610577
O O22 0.750000 0.605068 0.142166
O O23 0.981365 0.500000 0.120649
#
# Coordination Sequence:
#
# PCOD8206212 Si02
#       8
#     8   8   8   8   8   8   8   8
#     4   9  17  30  51  77 103 132 170 219 268 317
#     4  10  20  34  50  70  99 134 179 223 265 315
#     4  10  17  31  57  86 110 137 174 218 272 327
#     4   9  14  25  49  81 110 135 169 214 264 318
#     4  11  23  40  61  84 112 148 191 233 275 319
#     4   9  17  30  52  84 117 144 173 215 268 324
#     4  11  24  40  58  83 115 149 183 222 273 330
#     4   9  16  27  47  75 105 135 168 213 265 314
#
# _framework density 19.558630999999998
#
# number of rings (size 3 to 8) (size 9 to 14) (size 15 to 20)
#    0.000    2.250    2.500    1.500    0.000    4.000 
#    0.000    0.625    0.000    1.875    0.000    0.000 
#    0.000    0.000    0.000    0.000    0.000    0.000 
#
# Total GULP energy -793443.278795 kJ/mol
# GULP energy per Si atom -12397.551231 kJ/mol
# Density = 1.951411 g / cm^3
# Si number density = 19.558631 Si / 1000 Ang^3
#
#
#
# Elastic Constant Matrix: (Units=GPa)
#
#
# Indices 1 2 3 4 5 6 
#
# 1 27.3201 25.9460 16.6808 0.0000 0.0000 0.0000
# 2 25.9460 101.7858 63.7699 0.0000 0.0000 0.0000
# 3 16.6808 63.7699 124.1746 0.0000 0.0000 0.0000
# 4 0.0000 0.0000 0.0000 15.2871 0.0000 0.0000
# 5 0.0000 0.0000 0.0000 0.0000 24.8661 0.0000
# 6 0.0000 0.0000 0.0000 0.0000 0.0000 11.2636
#
#
#
# Elastic Compliance Matrix: (Units=1/GPa)
#
#
# Indices 1 2 3 4 5 6 
#
# 1 0.048300 -0.012159 -0.000244 0.000000 0.000000 0.000000
# 2 -0.012159 0.017546 -0.007377 0.000000 0.000000 0.000000
# 3 -0.000244 -0.007377 0.011875 0.000000 0.000000 0.000000
# 4 0.000000 0.000000 0.000000 0.065415 0.000000 0.000000
# 5 0.000000 0.000000 0.000000 0.000000 0.040215 0.000000
# 6 0.000000 0.000000 0.000000 0.000000 0.000000 0.088782
#
#
# Mechanical properties :
#
#
# Convention : Reuss Voigt Hill
#
# Bulk Modulus (GPa) = 26.20587 51.78600 38.99594
# Shear Modulus (GPa) = 15.41245 20.07560 17.74402
#
# Velocity S-wave (km/s) = 2.81020 3.20727 3.01528
# Velocity P-wave (km/s) = 4.89462 6.34431 5.66602
#
# Compressibility (1/GPa) = 0.03815939
#
# Stress axis : x y z
#
# Youngs Moduli (GPa) = 20.70405 56.99294 84.21337
#
# Poissons Ratio (x) = 0.69299 0.02054
# Poissons Ratio (y) = 0.25174 0.62127
# Poissons Ratio (z) = 0.00505 0.42046
#
# Static dielectric constant tensor:
#      x y z
#    x 2.997320 0.000000 0.000000 
#    y 0.000000 3.776490 0.000000 
#    z 0.000000 0.000000 3.672750 
# 
# 
# High freq. dielectric constant tensor:
#      x y z
#    x 1.699540 0.000000 0.000000 
#    y 0.000000 1.780700 0.000000 
#    z 0.000000 0.000000 1.764920 
# 
# From -- ./inp_files/34889.got.cif
#   From: 2010.03.12/outbox.cif.g09.slc.cpg/sg51_18_cif.got.tgz:34889.got - 2010.04.16 13:43:02.
