data_PCOD8206016
_publ_section_title
;
Structure prediction by ZEFSAII (Michael W. Deem and Ramdas Pophale) SiO2 
 PCOD8206016
Probable space group: P M M A
;
_chemical_formula_sum "Si O2"
_cell_formula_units_Z 64
_cell_length_a 26.236573
_cell_length_b 8.934999
_cell_length_c 18.523292
_cell_angle_alpha 90.000000
_cell_angle_beta 90.000000
_cell_angle_gamma 90.000000
_cell_volume 4342.299638
_symmetry_space_group_name_H-M "P M M A"
_symmetry_group_IT_number 51
_symmetry_cell_setting 'orthorhombic'
loop_
_space_group_symop_operation_xyz
x,y,z
1/2-x,-y,z
1/2+x,-y,-z
-x,y,-z
-x,-y,-z
1/2+x,y,-z
1/2-x,y,z
x,-y,z
loop_
_atom_site_type_symbol
_atom_site_label
_atom_site_fract_x
_atom_site_fract_y
_atom_site_fract_z
Si Si1 0.308966 0.825257 0.171171
Si Si2 0.950758 0.665019 0.049878
Si Si3 0.009963 0.823666 0.164235
Si Si4 0.948311 0.836318 0.455667
Si Si5 0.392319 0.821011 0.409703
Si Si6 0.104821 0.322567 0.087370
Si Si7 0.508165 0.178108 0.672997
Si Si8 0.808973 0.326204 0.679300
O O1 0.250000 0.792556 0.154634
O O2 0.340887 0.746791 0.107943
O O3 0.325442 0.757458 0.247741
O O4 0.321382 0.000000 0.172968
O O5 0.939106 0.500000 0.081781
O O6 0.960947 0.778488 0.115732
O O7 0.905052 0.719155 0.997122
O O8 0.000000 0.656162 0.000000
O O9 0.061236 0.744453 0.138394
O O10 0.998544 0.768753 0.245488
O O11 0.018458 0.000000 0.159769
O O12 0.907030 0.759449 0.509448
O O13 0.000000 0.854909 0.500000
O O14 0.963493 0.753503 0.379996
O O15 0.926335 0.000000 0.436766
O O16 0.435944 0.769870 0.353067
O O17 0.339960 0.742299 0.387419
O O18 0.385962 0.000000 0.409933
O O19 0.104946 0.500000 0.098011
O O20 0.505343 0.000000 0.666093
O O21 0.750000 0.298057 0.661881
O O22 0.821447 0.500000 0.689149
#
# Coordination Sequence:
#
# PCOD8206016 Si02
#       8
#     8   8   8   8   8   8   8   8
#     4  10  20  32  45  61  80 101 130 169 202 230
#     4   8  16  29  40  53  77 107 136 165 197 234
#     4  10  17  24  39  61  83 108 138 170 199 231
#     4   7  11  21  37  56  77 101 128 158 193 232
#     4   9  15  25  43  60  75 102 137 168 194 224
#     4  10  19  30  43  57  78 109 138 164 198 239
#     4   8  14  23  36  58  83 103 128 161 197 235
#     4  10  20  31  41  55  79 109 135 161 196 234
#
# _framework density 14.738733999999999
#
# number of rings (size 3 to 8) (size 9 to 14) (size 15 to 20)
#    0.000    3.000    0.000    4.500    0.000    5.250 
#    0.000    0.625    0.000    4.875    0.000    0.000 
#    0.000    1.000    0.000    5.000    0.000    3.500 
#
# Total GULP energy -792980.167501 kJ/mol
# GULP energy per Si atom -12390.315117 kJ/mol
# Density = 1.470519 g / cm^3
# Si number density = 14.738734 Si / 1000 Ang^3
#
#
#
# Elastic Constant Matrix: (Units=GPa)
#
#
# Indices 1 2 3 4 5 6 
#
# 1 66.3589 32.0073 49.3055 0.0000 0.0000 0.0000
# 2 32.0073 56.7030 38.3233 0.0000 0.0000 0.0000
# 3 49.3055 38.3233 106.0595 0.0000 0.0000 0.0000
# 4 0.0000 0.0000 0.0000 7.9395 0.0000 0.0000
# 5 0.0000 0.0000 0.0000 0.0000 28.2807 0.0000
# 6 0.0000 0.0000 0.0000 0.0000 0.0000 18.2923
#
#
#
# Elastic Compliance Matrix: (Units=1/GPa)
#
#
# Indices 1 2 3 4 5 6 
#
# 1 0.025814 -0.008548 -0.008912 0.000000 0.000000 0.000000
# 2 -0.008548 0.026165 -0.005480 0.000000 0.000000 0.000000
# 3 -0.008912 -0.005480 0.015552 0.000000 0.000000 0.000000
# 4 0.000000 0.000000 0.000000 0.125953 0.000000 0.000000
# 5 0.000000 0.000000 0.000000 0.000000 0.035360 0.000000
# 6 0.000000 0.000000 0.000000 0.000000 0.000000 0.054668
#
#
# Mechanical properties :
#
#
# Convention : Reuss Voigt Hill
#
# Bulk Modulus (GPa) = 46.18914 52.04372 49.11643
# Shear Modulus (GPa) = 14.85400 18.20152 16.52776
#
# Velocity S-wave (km/s) = 3.17806 3.51799 3.35234
# Velocity P-wave (km/s) = 6.69876 7.20341 6.95567
#
# Compressibility (1/GPa) = 0.02165011
#
# Stress axis : x y z
#
# Youngs Moduli (GPa) = 38.73809 38.21891 64.30054
#
# Poissons Ratio (x) = 0.32671 0.57304
# Poissons Ratio (y) = 0.33115 0.35240
# Poissons Ratio (z) = 0.34523 0.20946
#
# Static dielectric constant tensor:
#      x y z
#    x 2.780120 0.000000 0.000000 
#    y 0.000000 2.732340 0.000000 
#    z 0.000000 0.000000 3.138960 
# 
# 
# High freq. dielectric constant tensor:
#      x y z
#    x 1.531980 0.000000 0.000000 
#    y 0.000000 1.552460 0.000000 
#    z 0.000000 0.000000 1.556980 
# 
# From -- ./inp_files/30996.got.cif
#   From: 2010.03.12/outbox.cif.g09.slc.cpg/sg51_16_cif.got.tgz:30996.got - 2010.04.16 13:43:02.
