data_PCOD8206560
_publ_section_title
;
Structure prediction by ZEFSAII (Michael W. Deem and Ramdas Pophale) SiO2 
 PCOD8206560
Probable space group: P M M A
;
_chemical_formula_sum "Si O2"
_cell_formula_units_Z 64
_cell_length_a 24.599687
_cell_length_b 17.139052
_cell_length_c 9.629856
_cell_angle_alpha 90.000000
_cell_angle_beta 90.000000
_cell_angle_gamma 90.000000
_cell_volume 4060.094768
_symmetry_space_group_name_H-M "P M M A"
_symmetry_group_IT_number 51
_symmetry_cell_setting 'orthorhombic'
loop_
_space_group_symop_operation_xyz
x,y,z
1/2-x,-y,z
1/2+x,-y,-z
-x,y,-z
-x,-y,-z
1/2+x,y,-z
1/2-x,y,z
x,-y,z
loop_
_atom_site_type_symbol
_atom_site_label
_atom_site_fract_x
_atom_site_fract_y
_atom_site_fract_z
Si Si1 0.815295 0.587612 0.288087
Si Si2 0.184930 0.771889 0.216939
Si Si3 0.189628 0.163205 0.741549
Si Si4 0.314271 0.719815 0.513368
Si Si5 0.310357 0.306307 0.947941
Si Si6 0.503563 0.091693 0.655692
Si Si7 0.892433 0.091743 0.836320
Si Si8 0.412189 0.089231 0.855062
O O1 0.750000 0.589504 0.284574
O O2 0.837751 0.500000 0.305039
O O3 0.837317 0.640249 0.416444
O O4 0.838307 0.624727 0.143013
O O5 0.250000 0.781683 0.209722
O O6 0.164598 0.729696 0.357107
O O7 0.161537 0.715481 0.094509
O O8 0.160502 0.858764 0.205762
O O9 0.250000 0.126007 0.724310
O O10 0.168904 0.203166 0.599397
O O11 0.147241 0.097033 0.785844
O O12 0.191512 0.228245 0.858943
O O13 0.250000 0.713572 0.516982
O O14 0.250000 0.335111 0.983929
O O15 0.500000 0.128111 0.500000
O O16 0.561964 0.109397 0.721773
O O17 0.457462 0.130119 0.756371
O O18 0.492546 0.000000 0.644743
O O19 0.876609 0.000000 0.840009
O O20 0.913233 0.121642 0.987432
O O21 0.428384 0.000000 0.866000
#
# Coordination Sequence:
#
# PCOD8206560 Si02
#       8
#     8   8   8   8   8   8   8   8
#     4   8  13  24  42  61  82 115 156 186 206 246
#     4  10  18  29  43  63  91 122 151 182 226 269
#     4   9  16  28  42  61  87 117 148 177 215 265
#     4   8  16  27  40  58  86 120 148 176 216 262
#     4   8  14  25  40  58  85 116 144 173 212 260
#     4   9  19  34  48  61  80 107 144 190 238 281
#     4  10  20  32  46  63  84 115 155 192 227 267
#     4  10  19  30  46  64  83 112 149 189 230 267
#
# _framework density 15.763178
#
# number of rings (size 3 to 8) (size 9 to 14) (size 15 to 20)
#    0.000    3.000    1.250    1.875    1.750    2.000 
#    0.000    1.875    0.000    6.000    0.000    0.000 
#    0.000    0.000    0.000   18.000    0.500    8.000 
#
# Total GULP energy -792871.525335 kJ/mol
# GULP energy per Si atom -12388.617583 kJ/mol
# Density = 1.572730 g / cm^3
# Si number density = 15.763178 Si / 1000 Ang^3
#
#
#
# Elastic Constant Matrix: (Units=GPa)
#
#
# Indices 1 2 3 4 5 6 
#
# 1 42.3916 19.3116 29.6998 0.0000 0.0000 0.0000
# 2 19.3116 53.0855 44.1054 0.0000 0.0000 0.0000
# 3 29.6998 44.1054 144.3788 0.0000 0.0000 0.0000
# 4 0.0000 0.0000 0.0000 15.1686 0.0000 0.0000
# 5 0.0000 0.0000 0.0000 0.0000 17.4295 0.0000
# 6 0.0000 0.0000 0.0000 0.0000 0.0000 3.5364
#
#
#
# Elastic Compliance Matrix: (Units=1/GPa)
#
#
# Indices 1 2 3 4 5 6 
#
# 1 0.029730 -0.007685 -0.003768 0.000000 0.000000 0.000000
# 2 -0.007685 0.027231 -0.006738 0.000000 0.000000 0.000000
# 3 -0.003768 -0.006738 0.009760 0.000000 0.000000 0.000000
# 4 0.000000 0.000000 0.000000 0.065926 0.000000 0.000000
# 5 0.000000 0.000000 0.000000 0.000000 0.057374 0.000000
# 6 0.000000 0.000000 0.000000 0.000000 0.000000 0.282771
#
#
# Mechanical properties :
#
#
# Convention : Reuss Voigt Hill
#
# Bulk Modulus (GPa) = 32.96011 47.34329 40.15170
# Shear Modulus (GPa) = 9.62859 17.00951 13.31905
#
# Velocity S-wave (km/s) = 2.47417 3.28848 2.90995
# Velocity P-wave (km/s) = 5.39602 6.67219 6.06775
#
# Compressibility (1/GPa) = 0.03033971
#
# Stress axis : x y z
#
# Youngs Moduli (GPa) = 33.63567 36.72264 102.46218
#
# Poissons Ratio (x) = 0.28220 0.38610
# Poissons Ratio (y) = 0.25848 0.69038
# Poissons Ratio (z) = 0.12675 0.24743
#
# Static dielectric constant tensor:
#      x y z
#    x 2.727090 0.000000 0.000000 
#    y 0.000000 2.827200 0.000000 
#    z 0.000000 0.000000 3.547750 
# 
# 
# High freq. dielectric constant tensor:
#      x y z
#    x 1.559100 0.000000 0.000000 
#    y 0.000000 1.565350 0.000000 
#    z 0.000000 0.000000 1.625910 
# 
# From -- ./inp_files/11957.got.cif
#   From: 2010.03.12/outbox.cif.g09.slc.cpg/sg51_6_cif.got.tgz:11957.got - 2010.04.16 13:43:02.
