data_PCOD8206839
_publ_section_title
;
Structure prediction by ZEFSAII (Michael W. Deem and Ramdas Pophale) SiO2 
 PCOD8206839
Probable space group: P M M A
;
_chemical_formula_sum "Si O2"
_cell_formula_units_Z 64
_cell_length_a 9.182045
_cell_length_b 14.263401
_cell_length_c 31.791065
_cell_angle_alpha 90.000000
_cell_angle_beta 90.000000
_cell_angle_gamma 90.000000
_cell_volume 4163.586445
_symmetry_space_group_name_H-M "P M M A"
_symmetry_group_IT_number 51
_symmetry_cell_setting 'orthorhombic'
loop_
_space_group_symop_operation_xyz
x,y,z
1/2-x,-y,z
1/2+x,-y,-z
-x,y,-z
-x,-y,-z
1/2+x,y,-z
1/2-x,y,z
x,-y,z
loop_
_atom_site_type_symbol
_atom_site_label
_atom_site_fract_x
_atom_site_fract_y
_atom_site_fract_z
Si Si1 0.418784 0.392708 0.079243
Si Si2 0.077177 0.105169 0.878611
Si Si3 0.586473 0.887654 0.539557
Si Si4 0.915465 0.604473 0.164315
Si Si5 0.577092 0.103503 0.629131
Si Si6 0.418564 0.792851 0.794954
Si Si7 0.421081 0.108715 0.279599
Si Si8 0.576359 0.225238 0.041531
O O1 0.250000 0.362918 0.076955
O O2 0.440703 0.500000 0.065213
O O3 0.473694 0.377839 0.126626
O O4 0.514969 0.329990 0.048051
O O5 0.250000 0.103654 0.878053
O O6 0.019085 0.155581 0.836513
O O7 0.024174 0.161406 0.919529
O O8 0.013356 0.000000 0.880323
O O9 0.500000 0.845363 0.500000
O O10 0.750000 0.852869 0.533005
O O11 0.524211 0.848655 0.584958
O O12 0.577281 0.000000 0.540520
O O13 0.750000 0.617728 0.146972
O O14 0.936379 0.500000 0.183387
O O15 0.945078 0.681083 0.200490
O O16 0.750000 0.095391 0.625993
O O17 0.534859 0.150603 0.673938
O O18 0.509055 0.000000 0.631045
O O19 0.250000 0.817398 0.788950
O O20 0.501137 0.826961 0.754086
O O21 0.250000 0.117198 0.272556
O O22 0.469091 0.000000 0.274977
O O23 0.750000 0.227572 0.036178
O O24 0.500000 0.182795 0.000000
#
# Coordination Sequence:
#
# PCOD8206839 Si02
#       8
#     8   8   8   8   8   8   8   8
#     4  10  20  34  53  76  98 117 137 166 205 245
#     4   9  18  33  51  69  90 115 141 170 207 247
#     4   8  12  18  29  44  62  89 127 171 214 252
#     4   9  17  31  51  72  92 115 141 166 199 248
#     4   7  11  21  34  46  67 101 137 171 210 252
#     4  10  18  30  48  69  89 112 139 170 210 249
#     4   9  17  28  41  59  83 113 148 182 213 247
#     4  11  22  37  54  72  93 119 146 172 204 244
#
# _framework density 15.371364
#
# number of rings (size 3 to 8) (size 9 to 14) (size 15 to 20)
#    0.000    2.875    1.250    2.625    0.000    2.500 
#    0.000    0.625    0.000    4.125    0.000    0.000 
#    0.000    0.000    0.000    0.000    0.000    0.625 
#
# Total GULP energy -792948.029285 kJ/mol
# GULP energy per Si atom -12389.812958 kJ/mol
# Density = 1.533638 g / cm^3
# Si number density = 15.371364 Si / 1000 Ang^3
#
#
#
# Elastic Constant Matrix: (Units=GPa)
#
#
# Indices 1 2 3 4 5 6 
#
# 1 45.4230 22.3406 40.2774 0.0000 0.0000 0.0000
# 2 22.3406 67.8437 46.1019 0.0000 0.0000 0.0000
# 3 40.2774 46.1019 150.5889 0.0000 0.0000 0.0000
# 4 0.0000 0.0000 0.0000 8.9953 0.0000 0.0000
# 5 0.0000 0.0000 0.0000 0.0000 25.6335 0.0000
# 6 0.0000 0.0000 0.0000 0.0000 0.0000 14.3675
#
#
#
# Elastic Compliance Matrix: (Units=1/GPa)
#
#
# Indices 1 2 3 4 5 6 
#
# 1 0.030501 -0.005682 -0.006418 0.000000 0.000000 0.000000
# 2 -0.005682 0.019670 -0.004502 0.000000 0.000000 0.000000
# 3 -0.006418 -0.004502 0.009736 0.000000 0.000000 0.000000
# 4 0.000000 0.000000 0.000000 0.111169 0.000000 0.000000
# 5 0.000000 0.000000 0.000000 0.000000 0.039011 0.000000
# 6 0.000000 0.000000 0.000000 0.000000 0.000000 0.069601
#
#
# Mechanical properties :
#
#
# Convention : Reuss Voigt Hill
#
# Bulk Modulus (GPa) = 37.45125 53.47726 45.46426
# Shear Modulus (GPa) = 15.53781 20.14165 17.83973
#
# Velocity S-wave (km/s) = 3.18280 3.62378 3.41043
# Velocity P-wave (km/s) = 6.15826 7.23704 6.71934
#
# Compressibility (1/GPa) = 0.02670138
#
# Stress axis : x y z
#
# Youngs Moduli (GPa) = 32.78529 50.83812 102.71582
#
# Poissons Ratio (x) = 0.28889 0.65928
# Poissons Ratio (y) = 0.18630 0.46243
# Poissons Ratio (z) = 0.21043 0.22888
#
# Static dielectric constant tensor:
#      x y z
#    x 2.810580 0.000000 0.000000 
#    y 0.000000 2.814790 0.000000 
#    z 0.000000 0.000000 3.177980 
# 
# 
# High freq. dielectric constant tensor:
#      x y z
#    x 1.572450 0.000000 0.000000 
#    y 0.000000 1.550010 0.000000 
#    z 0.000000 0.000000 1.590190 
# 
# From -- ./inp_files/37660.got.cif
#   From: 2010.03.12/outbox.cif.g09.slc.cpg/sg51_19_cif.got.tgz:37660.got - 2010.04.16 13:43:02.
