data_PCOD8206142
_publ_section_title
;
Structure prediction by ZEFSAII (Michael W. Deem and Ramdas Pophale) SiO2 
 PCOD8206142
Probable space group: P M M A
;
_chemical_formula_sum "Si O2"
_cell_formula_units_Z 36
_cell_length_a 10.249492
_cell_length_b 12.543732
_cell_length_c 17.984424
_cell_angle_alpha 90.000000
_cell_angle_beta 90.000000
_cell_angle_gamma 90.000000
_cell_volume 2312.201296
_symmetry_space_group_name_H-M "P M M A"
_symmetry_group_IT_number 51
_symmetry_cell_setting 'orthorhombic'
loop_
_space_group_symop_operation_xyz
x,y,z
1/2-x,-y,z
1/2+x,-y,-z
-x,y,-z
-x,-y,-z
1/2+x,y,-z
1/2-x,y,z
x,-y,z
loop_
_atom_site_type_symbol
_atom_site_label
_atom_site_fract_x
_atom_site_fract_y
_atom_site_fract_z
Si Si1 0.493760 0.126742 0.673014
Si Si2 0.098552 0.000000 0.932191
Si Si3 0.750000 0.126523 0.588941
Si Si4 0.100655 0.194474 0.825639
Si Si5 0.100977 0.622635 0.936416
Si Si6 0.750000 0.873443 0.422483
O O1 0.624462 0.166582 0.633485
O O2 0.488636 0.183203 0.753064
O O3 0.376825 0.167087 0.620926
O O4 0.488325 0.000000 0.684768
O O5 0.065694 0.895952 0.884750
O O6 0.250000 0.000000 0.958855
O O7 0.000000 0.000000 0.000000
O O8 0.750000 0.174895 0.505750
O O9 0.750000 0.000000 0.583561
O O10 0.250000 0.181336 0.799856
O O11 0.073487 0.308942 0.862674
O O12 0.250000 0.642091 0.964441
O O13 0.078188 0.500000 0.914592
O O14 0.000000 0.658598 0.000000
O O15 0.750000 0.000000 0.427368
#
# Coordination Sequence:
#
# PCOD8206142 Si02
#       6
#     8   4   4   8   8   4
#     4  10  17  28  43  62  91 122 152 180 223 258
#     4  10  20  32  44  62  87 119 152 178 209 265
#     4   9  18  28  38  64  93 118 151 191 214 254
#     4  10  18  30  47  64  89 120 151 179 216 270
#     4   9  18  33  51  68  87 112 148 192 230 263
#     4   9  16  26  46  60  83 124 159 179 212 266
#
# _framework density 15.569578999999999
#
# number of rings (size 3 to 8) (size 9 to 14) (size 15 to 20)
#    0.000    2.444    2.222    1.333    0.000    2.667 
#    4.000    0.000    0.000    0.000    0.000    0.000 
#    0.000    5.333    0.000    0.000    0.000    0.000 
#
# Total GULP energy -446400.448386 kJ/mol
# GULP energy per Si atom -12400.012455 kJ/mol
# Density = 1.553414 g / cm^3
# Si number density = 15.569579 Si / 1000 Ang^3
#
#
#
# Elastic Constant Matrix: (Units=GPa)
#
#
# Indices 1 2 3 4 5 6 
#
# 1 119.0399 25.3515 80.1222 0.0000 0.0000 0.0000
# 2 25.3515 46.1801 36.7191 0.0000 0.0000 0.0000
# 3 80.1222 36.7191 142.2051 0.0000 0.0000 0.0000
# 4 0.0000 0.0000 0.0000 16.6946 0.0000 0.0000
# 5 0.0000 0.0000 0.0000 0.0000 28.6823 0.0000
# 6 0.0000 0.0000 0.0000 0.0000 0.0000 12.4774
#
#
#
# Elastic Compliance Matrix: (Units=1/GPa)
#
#
# Indices 1 2 3 4 5 6 
#
# 1 0.013642 -0.001733 -0.007239 0.000000 0.000000 0.000000
# 2 -0.001733 0.027469 -0.006116 0.000000 0.000000 0.000000
# 3 -0.007239 -0.006116 0.012690 0.000000 0.000000 0.000000
# 4 0.000000 0.000000 0.000000 0.059900 0.000000 0.000000
# 5 0.000000 0.000000 0.000000 0.000000 0.034865 0.000000
# 6 0.000000 0.000000 0.000000 0.000000 0.000000 0.080145
#
#
# Mechanical properties :
#
#
# Convention : Reuss Voigt Hill
#
# Bulk Modulus (GPa) = 42.32922 65.75676 54.04299
# Shear Modulus (GPa) = 18.74338 22.58636 20.66487
#
# Velocity S-wave (km/s) = 3.47341 3.81290 3.64711
# Velocity P-wave (km/s) = 6.58273 7.85558 7.24715
#
# Compressibility (1/GPa) = 0.02362434
#
# Stress axis : x y z
#
# Youngs Moduli (GPa) = 73.30449 36.40452 78.80359
#
# Poissons Ratio (x) = 0.06310 0.57042
# Poissons Ratio (y) = 0.12706 0.48198
# Poissons Ratio (z) = 0.53062 0.22266
#
# Static dielectric constant tensor:
#      x y z
#    x 3.068280 0.000000 0.000000 
#    y 0.000000 2.672170 0.000000 
#    z 0.000000 0.000000 2.980060 
# 
# 
# High freq. dielectric constant tensor:
#      x y z
#    x 1.601950 0.000000 0.000000 
#    y 0.000000 1.551770 0.000000 
#    z 0.000000 0.000000 1.601420 
# 
# From -- ./inp_files/31335.got.cif
#   From: 2010.03.12/outbox.cif.g09.slc.cpg/sg51_16_cif.got.tgz:31335.got - 2010.04.16 13:43:02.
