data_PCOD8206196
_publ_section_title
;
Structure prediction by ZEFSAII (Michael W. Deem and Ramdas Pophale) SiO2 
 PCOD8206196
Probable space group: P M M A
;
_chemical_formula_sum "Si O2"
_cell_formula_units_Z 56
_cell_length_a 18.725913
_cell_length_b 17.654518
_cell_length_c 9.430475
_cell_angle_alpha 90.000000
_cell_angle_beta 90.000000
_cell_angle_gamma 90.000000
_cell_volume 3117.686443
_symmetry_space_group_name_H-M "P M M A"
_symmetry_group_IT_number 51
_symmetry_cell_setting 'orthorhombic'
loop_
_space_group_symop_operation_xyz
x,y,z
1/2-x,-y,z
1/2+x,-y,-z
-x,y,-z
-x,-y,-z
1/2+x,y,-z
1/2-x,y,z
x,-y,z
loop_
_atom_site_type_symbol
_atom_site_label
_atom_site_fract_x
_atom_site_fract_y
_atom_site_fract_z
Si Si1 0.667115 0.585962 0.267445
Si Si2 0.920284 0.681652 0.475054
Si Si3 0.832433 0.710582 0.040720
Si Si4 0.333575 0.913933 0.339500
Si Si5 0.064930 0.085292 0.588518
Si Si6 0.557377 0.211004 0.219384
Si Si7 0.895930 0.239188 0.765829
O O1 0.750000 0.593126 0.303513
O O2 0.644399 0.500000 0.235163
O O3 0.626275 0.613897 0.408326
O O4 0.648333 0.632908 0.124019
O O5 0.918809 0.749453 0.364398
O O6 0.887245 0.715547 0.618866
O O7 0.000000 0.649978 0.500000
O O8 0.750000 0.732362 0.067080
O O9 0.885820 0.775100 0.096287
O O10 0.849144 0.708981 0.873290
O O11 0.250000 0.899586 0.344342
O O12 0.362083 0.906630 0.500330
O O13 0.368121 0.847832 0.242903
O O14 0.350990 0.000000 0.282750
O O15 0.066128 0.122766 0.743502
O O16 0.000000 0.124088 0.500000
O O17 0.043972 0.000000 0.621397
O O18 0.477473 0.236139 0.177717
#
# Coordination Sequence:
#
# PCOD8206196 Si02
#       7
#     8   8   8   8   8   8   8
#     4   9  19  37  57  77 105 140 174 211 264 327
#     4   9  18  32  55  82 107 131 171 217 266 311
#     4  10  22  36  53  77 106 143 180 218 265 317
#     4  10  20  31  48  77 111 143 174 219 274 315
#     4  10  17  30  52  77 104 135 178 225 269 315
#     4  10  18  34  53  78 103 141 180 220 262 316
#     4  11  19  34  55  79 108 140 180 223 264 315
#
# _framework density 17.962036000000001
#
# number of rings (size 3 to 8) (size 9 to 14) (size 15 to 20)
#    0.000    2.143    2.857    1.286    0.000    2.000 
#    0.000    1.429    0.000   15.429    0.000    0.000 
#    0.000    0.000    0.000    0.000    0.000    0.000 
#
# Total GULP energy -694079.904862 kJ/mol
# GULP energy per Si atom -12394.284015 kJ/mol
# Density = 1.792115 g / cm^3
# Si number density = 17.962036 Si / 1000 Ang^3
#
#
#
# Elastic Constant Matrix: (Units=GPa)
#
#
# Indices 1 2 3 4 5 6 
#
# 1 94.5773 40.7946 41.7099 0.0000 0.0000 0.0000
# 2 40.7946 95.3741 42.8966 0.0000 0.0000 0.0000
# 3 41.7099 42.8966 82.2900 0.0000 0.0000 0.0000
# 4 0.0000 0.0000 0.0000 21.7613 0.0000 0.0000
# 5 0.0000 0.0000 0.0000 0.0000 32.1285 0.0000
# 6 0.0000 0.0000 0.0000 0.0000 0.0000 24.7341
#
#
#
# Elastic Compliance Matrix: (Units=1/GPa)
#
#
# Indices 1 2 3 4 5 6 
#
# 1 0.014606 -0.003811 -0.005417 0.000000 0.000000 0.000000
# 2 -0.003811 0.014691 -0.005726 0.000000 0.000000 0.000000
# 3 -0.005417 -0.005726 0.017883 0.000000 0.000000 0.000000
# 4 0.000000 0.000000 0.000000 0.045953 0.000000 0.000000
# 5 0.000000 0.000000 0.000000 0.000000 0.031125 0.000000
# 6 0.000000 0.000000 0.000000 0.000000 0.000000 0.040430
#
#
# Mechanical properties :
#
#
# Convention : Reuss Voigt Hill
#
# Bulk Modulus (GPa) = 57.89967 58.11597 58.00782
# Shear Modulus (GPa) = 24.95599 25.51415 25.23507
#
# Velocity S-wave (km/s) = 3.73147 3.77297 3.75228
# Velocity P-wave (km/s) = 7.13230 7.16977 7.15106
#
# Compressibility (1/GPa) = 0.01727125
#
# Stress axis : x y z
#
# Youngs Moduli (GPa) = 68.46469 68.07004 55.92022
#
# Poissons Ratio (x) = 0.25943 0.30289
# Poissons Ratio (y) = 0.26094 0.32021
# Poissons Ratio (z) = 0.37084 0.38979
#
# Static dielectric constant tensor:
#      x y z
#    x 3.419990 0.000000 0.000000 
#    y 0.000000 3.351600 0.000000 
#    z 0.000000 0.000000 3.290940 
# 
# 
# High freq. dielectric constant tensor:
#      x y z
#    x 1.703510 0.000000 0.000000 
#    y 0.000000 1.683930 0.000000 
#    z 0.000000 0.000000 1.677080 
# 
# From -- ./inp_files/9969.got.cif
#   From: 2010.03.12/outbox.cif.g09.slc.cpg/sg51_5_cif.got.tgz:9969.got - 2010.04.16 13:43:02.
