data_PCOD8206925
_publ_section_title
;
Structure prediction by ZEFSAII (Michael W. Deem and Ramdas Pophale) SiO2 
 PCOD8206925
Probable space group: P M M A
;
_chemical_formula_sum "Si O2"
_cell_formula_units_Z 52
_cell_length_a 26.938166
_cell_length_b 9.684940
_cell_length_c 11.103971
_cell_angle_alpha 90.000000
_cell_angle_beta 90.000000
_cell_angle_gamma 90.000000
_cell_volume 2896.965200
_symmetry_space_group_name_H-M "P M M A"
_symmetry_group_IT_number 51
_symmetry_cell_setting 'orthorhombic'
loop_
_space_group_symop_operation_xyz
x,y,z
1/2-x,-y,z
1/2+x,-y,-z
-x,y,-z
-x,-y,-z
1/2+x,y,-z
1/2-x,y,z
x,-y,z
loop_
_atom_site_type_symbol
_atom_site_label
_atom_site_fract_x
_atom_site_fract_y
_atom_site_fract_z
Si Si1 0.000000 0.756751 0.000000
Si Si2 0.602528 0.657855 0.098198
Si Si3 0.693862 0.662869 0.947424
Si Si4 0.103970 0.155092 0.433798
Si Si5 0.432768 0.334859 0.648834
Si Si6 0.305486 0.845000 0.281349
Si Si7 0.016574 0.151720 0.263066
O O1 0.013702 0.844861 0.117981
O O2 0.950021 0.670351 0.027876
O O3 0.615814 0.500000 0.107581
O O4 0.598550 0.714954 0.234331
O O5 0.650991 0.725604 0.035166
O O6 0.750000 0.696984 0.994866
O O7 0.687512 0.500000 0.927754
O O8 0.683694 0.734458 0.821084
O O9 0.090996 0.270719 0.530704
O O10 0.160348 0.183887 0.396583
O O11 0.072465 0.170754 0.310488
O O12 0.097147 0.000000 0.487325
O O13 0.436765 0.500000 0.636758
O O14 0.487367 0.272574 0.668223
O O15 0.250000 0.828770 0.330553
O O16 0.314860 0.000000 0.230356
O O17 0.996364 0.000000 0.301530
#
# Coordination Sequence:
#
# PCOD8206925 Si02
#       7
#     4   8   8   8   8   8   8
#     4  10  18  30  50  74  99 128 161 196 239 296
#     4   9  18  32  48  70 100 129 158 197 245 289
#     4   9  17  31  52  75  98 125 158 197 242 291
#     4  10  20  34  51  71  97 131 165 198 242 289
#     4  10  21  35  50  70  97 130 168 205 239 283
#     4   9  18  33  52  74 100 127 157 198 245 290
#     4  10  20  33  50  73 101 129 159 198 243 292
#
# _framework density 17.949819000000002
#
# number of rings (size 3 to 8) (size 9 to 14) (size 15 to 20)
#    0.000    2.462    0.000    2.308    0.000    3.692 
#    0.000    4.615    0.000    0.923    0.000    0.000 
#    0.000    0.000    0.000    0.000    0.000    0.000 
#
# Total GULP energy -644329.589619 kJ/mol
# GULP energy per Si atom -12390.953647 kJ/mol
# Density = 1.790896 g / cm^3
# Si number density = 17.949819 Si / 1000 Ang^3
#
#
#
# Elastic Constant Matrix: (Units=GPa)
#
#
# Indices 1 2 3 4 5 6 
#
# 1 111.2015 36.8623 60.5520 0.0000 0.0000 0.0000
# 2 36.8623 76.6292 43.0103 0.0000 0.0000 0.0000
# 3 60.5520 43.0103 100.9980 0.0000 0.0000 0.0000
# 4 0.0000 0.0000 0.0000 25.2848 0.0000 0.0000
# 5 0.0000 0.0000 0.0000 0.0000 27.1209 0.0000
# 6 0.0000 0.0000 0.0000 0.0000 0.0000 21.9606
#
#
#
# Elastic Compliance Matrix: (Units=1/GPa)
#
#
# Indices 1 2 3 4 5 6 
#
# 1 0.013737 -0.002609 -0.007125 0.000000 0.000000 0.000000
# 2 -0.002609 0.017644 -0.005950 0.000000 0.000000 0.000000
# 3 -0.007125 -0.005950 0.016706 0.000000 0.000000 0.000000
# 4 0.000000 0.000000 0.000000 0.039549 0.000000 0.000000
# 5 0.000000 0.000000 0.000000 0.000000 0.036872 0.000000
# 6 0.000000 0.000000 0.000000 0.000000 0.000000 0.045536
#
#
# Mechanical properties :
#
#
# Convention : Reuss Voigt Hill
#
# Bulk Modulus (GPa) = 59.80592 63.29756 61.55174
# Shear Modulus (GPa) = 24.15614 24.76685 24.46149
#
# Velocity S-wave (km/s) = 3.67244 3.71857 3.69558
# Velocity P-wave (km/s) = 7.16751 7.33330 7.25087
#
# Compressibility (1/GPa) = 0.01672075
#
# Stress axis : x y z
#
# Youngs Moduli (GPa) = 72.79450 56.67516 59.85714
#
# Poissons Ratio (x) = 0.14788 0.42647
# Poissons Ratio (y) = 0.18994 0.35612
# Poissons Ratio (z) = 0.51865 0.33719
#
# Static dielectric constant tensor:
#      x y z
#    x 3.609140 0.000000 0.000000 
#    y 0.000000 3.284940 0.000000 
#    z 0.000000 0.000000 3.319960 
# 
# 
# High freq. dielectric constant tensor:
#      x y z
#    x 1.698860 0.000000 0.000000 
#    y 0.000000 1.689760 0.000000 
#    z 0.000000 0.000000 1.684360 
# 
# From -- ./inp_files/19056.got.cif
#   From: 2010.03.12/outbox.cif.g09.slc.cpg/sg51_10_cif.got.tgz:19056.got - 2010.04.16 13:43:02.
