data_PCOD8206566
_publ_section_title
;
Structure prediction by ZEFSAII (Michael W. Deem and Ramdas Pophale) SiO2 
 PCOD8206566
Probable space group: P M M A
;
_chemical_formula_sum "Si O2"
_cell_formula_units_Z 64
_cell_length_a 19.215893
_cell_length_b 9.302633
_cell_length_c 20.728163
_cell_angle_alpha 90.000000
_cell_angle_beta 90.000000
_cell_angle_gamma 90.000000
_cell_volume 3705.333260
_symmetry_space_group_name_H-M "P M M A"
_symmetry_group_IT_number 51
_symmetry_cell_setting 'orthorhombic'
loop_
_space_group_symop_operation_xyz
x,y,z
1/2-x,-y,z
1/2+x,-y,-z
-x,y,-z
-x,-y,-z
1/2+x,y,-z
1/2-x,y,z
x,-y,z
loop_
_atom_site_type_symbol
_atom_site_label
_atom_site_fract_x
_atom_site_fract_y
_atom_site_fract_z
Si Si1 0.332437 0.341009 0.043903
Si Si2 0.830211 0.830950 0.217718
Si Si3 0.089406 0.829635 0.294615
Si Si4 0.565857 0.170420 0.326382
Si Si5 0.667401 0.336463 0.094518
Si Si6 0.827704 0.829064 0.579726
Si Si7 0.928265 0.828542 0.470157
Si Si8 0.830181 0.328516 0.816380
O O1 0.250000 0.353145 0.044424
O O2 0.364680 0.500000 0.042709
O O3 0.353798 0.268704 0.112204
O O4 0.356378 0.268671 0.975581
O O5 0.750000 0.788651 0.230304
O O6 0.874901 0.772121 0.277952
O O7 0.861684 0.759152 0.153018
O O8 0.839053 0.000000 0.208955
O O9 0.130611 0.775998 0.357688
O O10 0.120216 0.750166 0.233222
O O11 0.009716 0.780266 0.301912
O O12 0.096568 0.000000 0.285108
O O13 0.581103 0.233016 0.397812
O O14 0.568129 0.000000 0.329980
O O15 0.750000 0.333819 0.098080
O O16 0.640338 0.500000 0.101924
O O17 0.750000 0.764521 0.581553
O O18 0.865250 0.772549 0.514894
O O19 0.825833 0.000000 0.579226
O O20 0.000000 0.769774 0.500000
O O21 0.930192 0.000000 0.468967
O O22 0.750000 0.287263 0.802019
O O23 0.839711 0.500000 0.812662
#
# Coordination Sequence:
#
# PCOD8206566 Si02
#       8
#     8   8   8   8   8   8   8   8
#     4   7  11  22  41  63  85 111 144 180 218 259
#     4   9  17  28  42  64  92 116 142 182 228 269
#     4  10  18  29  44  63  90 121 150 181 219 264
#     4   9  17  28  43  61  87 123 152 177 219 271
#     4   8  13  24  44  66  86 111 144 181 221 264
#     4   9  16  24  38  63  89 110 140 186 227 255
#     4   9  14  24  40  58  82 114 147 176 213 261
#     4   9  17  29  45  66  92 119 147 182 222 262
#
# _framework density 17.272400000000001
#
# number of rings (size 3 to 8) (size 9 to 14) (size 15 to 20)
#    0.000    3.250    1.250    1.875    0.000    1.250 
#    0.000    3.750    0.000    3.000    0.000    7.875 
#    0.000    2.000    0.000    0.000    0.000    0.000 
#
# Total GULP energy -792853.044772 kJ/mol
# GULP energy per Si atom -12388.328825 kJ/mol
# Density = 1.723309 g / cm^3
# Si number density = 17.272400 Si / 1000 Ang^3
#
#
#
# Elastic Constant Matrix: (Units=GPa)
#
#
# Indices 1 2 3 4 5 6 
#
# 1 95.7518 17.8943 77.3515 0.0000 0.0000 0.0000
# 2 17.8943 18.2204 32.3963 0.0000 0.0000 0.0000
# 3 77.3515 32.3963 205.9371 0.0000 0.0000 0.0000
# 4 0.0000 0.0000 0.0000 -1.9476 0.0000 0.0000
# 5 0.0000 0.0000 0.0000 0.0000 21.2094 0.0000
# 6 0.0000 0.0000 0.0000 0.0000 0.0000 10.3977
#
#
#
# Elastic Compliance Matrix: (Units=1/GPa)
#
#
# Indices 1 2 3 4 5 6 
#
# 1 0.015576 -0.006796 -0.004782 0.000000 0.000000 0.000000
# 2 -0.006796 0.079161 -0.009900 0.000000 0.000000 0.000000
# 3 -0.004782 -0.009900 0.008209 0.000000 0.000000 0.000000
# 4 0.000000 0.000000 0.000000 -0.513448 0.000000 0.000000
# 5 0.000000 0.000000 0.000000 0.000000 0.047149 0.000000
# 6 0.000000 0.000000 0.000000 0.000000 0.000000 0.096175
#
#
# Mechanical properties :
#
#
# Convention : Reuss Voigt Hill
#
# Bulk Modulus (GPa) = 16.66918 63.91039 40.28978
# Shear Modulus (GPa) = -24.48270 18.74972 -2.86649
#
# Velocity S-wave (km/s) = -3.76898 3.29831 -1.28964
# Velocity P-wave (km/s) = 3.04444 7.18241 4.59991
#
# Compressibility (1/GPa) = 0.05999096
#
# Stress axis : x y z
#
# Youngs Moduli (GPa) = 64.19983 12.63250 121.81355
#
# Poissons Ratio (x) = 0.08585 0.58245
# Poissons Ratio (y) = 0.43630 1.20600
# Poissons Ratio (z) = 0.30697 0.12507
#
# Static dielectric constant tensor:
#      x y z
#    x 3.111020 0.000000 0.000000 
#    y 0.000000 2.690140 0.000000 
#    z 0.000000 0.000000 3.800750 
# 
# 
# High freq. dielectric constant tensor:
#      x y z
#    x 1.641980 0.000000 0.000000 
#    y 0.000000 1.602730 0.000000 
#    z 0.000000 0.000000 1.692590 
# 
# From -- ./inp_files/33954.got.cif
#   From: 2010.03.12/outbox.cif.g09.slc.cpg/sg51_17_cif.got.tgz:33954.got - 2010.04.16 13:43:02.
