data_PCOD8206261
_publ_section_title
;
Structure prediction by ZEFSAII (Michael W. Deem and Ramdas Pophale) SiO2 
 PCOD8206261
Probable space group: P M M A
;
_chemical_formula_sum "Si O2"
_cell_formula_units_Z 64
_cell_length_a 25.478664
_cell_length_b 9.421713
_cell_length_c 16.949551
_cell_angle_alpha 90.000000
_cell_angle_beta 90.000000
_cell_angle_gamma 90.000000
_cell_volume 4068.784800
_symmetry_space_group_name_H-M "P M M A"
_symmetry_group_IT_number 51
_symmetry_cell_setting 'orthorhombic'
loop_
_space_group_symop_operation_xyz
x,y,z
1/2-x,-y,z
1/2+x,-y,-z
-x,y,-z
-x,-y,-z
1/2+x,y,-z
1/2-x,y,z
x,-y,z
loop_
_atom_site_type_symbol
_atom_site_label
_atom_site_fract_x
_atom_site_fract_y
_atom_site_fract_z
Si Si1 0.444501 0.164826 0.839400
Si Si2 0.062294 0.156953 0.010135
Si Si3 0.307546 0.331506 0.411984
Si Si4 0.591099 0.335841 0.677101
Si Si5 0.189318 0.337151 0.588893
Si Si6 0.000359 0.833791 0.408594
Si Si7 0.449833 0.664200 0.154414
Si Si8 0.894838 0.835690 0.322615
O O1 0.415913 0.200242 0.923199
O O2 0.495642 0.259907 0.825676
O O3 0.403404 0.195424 0.770034
O O4 0.462840 0.000000 0.838398
O O5 0.082228 0.000000 0.034396
O O6 0.078973 0.267339 0.078059
O O7 0.000000 0.157748 0.000000
O O8 0.250000 0.271978 0.386344
O O9 0.304410 0.500000 0.413767
O O10 0.352048 0.278592 0.351382
O O11 0.321280 0.278820 0.500415
O O12 0.583394 0.500000 0.653629
O O13 0.546721 0.247692 0.633966
O O14 0.588623 0.315990 0.771249
O O15 0.250000 0.318527 0.611221
O O16 0.171893 0.500000 0.595336
O O17 0.156074 0.249050 0.651309
O O18 0.000000 0.792995 0.500000
O O19 0.945495 0.783811 0.371363
O O20 0.009621 0.000000 0.394650
O O21 0.461072 0.500000 0.136282
O O22 0.884275 0.000000 0.339068
#
# Coordination Sequence:
#
# PCOD8206261 Si02
#       8
#     8   8   8   8   8   8   8   8
#     4   9  17  30  44  60  85 119 153 178 208 262
#     4   8  15  27  43  59  80 115 152 177 208 259
#     4   8  15  30  49  65  84 114 152 190 222 255
#     4  10  19  29  44  67  90 116 150 184 219 265
#     4   9  18  32  49  67  86 112 149 190 228 262
#     4  10  20  31  43  62  90 122 150 177 218 268
#     4  10  18  26  39  64  93 115 142 181 223 263
#     4  10  19  30  45  65  90 118 148 182 218 262
#
# _framework density 15.729512
#
# number of rings (size 3 to 8) (size 9 to 14) (size 15 to 20)
#    0.000    2.750    1.250    2.625    0.000    4.250 
#    0.000    0.000    0.000    1.125    0.000    0.875 
#    0.000    3.000    0.000    0.000    0.000    0.000 
#
# Total GULP energy -793364.958944 kJ/mol
# GULP energy per Si atom -12396.327483 kJ/mol
# Density = 1.569371 g / cm^3
# Si number density = 15.729512 Si / 1000 Ang^3
#
#
#
# Elastic Constant Matrix: (Units=GPa)
#
#
# Indices 1 2 3 4 5 6 
#
# 1 75.1840 38.2529 54.3432 0.0000 0.0000 0.0000
# 2 38.2529 59.3476 49.1404 0.0000 0.0000 0.0000
# 3 54.3432 49.1404 126.2624 0.0000 0.0000 0.0000
# 4 0.0000 0.0000 0.0000 25.7926 0.0000 0.0000
# 5 0.0000 0.0000 0.0000 0.0000 15.9280 0.0000
# 6 0.0000 0.0000 0.0000 0.0000 0.0000 13.4283
#
#
#
# Elastic Compliance Matrix: (Units=1/GPa)
#
#
# Indices 1 2 3 4 5 6 
#
# 1 0.022461 -0.009550 -0.005950 0.000000 0.000000 0.000000
# 2 -0.009550 0.028923 -0.007146 0.000000 0.000000 0.000000
# 3 -0.005950 -0.007146 0.013262 0.000000 0.000000 0.000000
# 4 0.000000 0.000000 0.000000 0.038771 0.000000 0.000000
# 5 0.000000 0.000000 0.000000 0.000000 0.062783 0.000000
# 6 0.000000 0.000000 0.000000 0.000000 0.000000 0.074470
#
#
# Mechanical properties :
#
#
# Convention : Reuss Voigt Hill
#
# Bulk Modulus (GPa) = 51.67330 60.47412 56.07371
# Shear Modulus (GPa) = 17.09917 18.96694 18.03306
#
# Velocity S-wave (km/s) = 3.30066 3.47626 3.38960
# Velocity P-wave (km/s) = 6.88827 7.39204 7.14460
#
# Compressibility (1/GPa) = 0.01935236
#
# Stress axis : x y z
#
# Youngs Moduli (GPa) = 44.52249 34.57512 75.40298
#
# Poissons Ratio (x) = 0.33021 0.44865
# Poissons Ratio (y) = 0.42521 0.53883
# Poissons Ratio (z) = 0.26491 0.24707
#
# Static dielectric constant tensor:
#      x y z
#    x 2.857120 0.000000 0.000000 
#    y 0.000000 2.917760 0.000000 
#    z 0.000000 0.000000 3.402180 
# 
# 
# High freq. dielectric constant tensor:
#      x y z
#    x 1.566530 0.000000 0.000000 
#    y 0.000000 1.595270 0.000000 
#    z 0.000000 0.000000 1.614020 
# 
# From -- ./inp_files/30844.got.cif
#   From: 2010.03.12/outbox.cif.g09.slc.cpg/sg51_16_cif.got.tgz:30844.got - 2010.04.16 13:43:02.
