data_PCOD8206252
_publ_section_title
;
Structure prediction by ZEFSAII (Michael W. Deem and Ramdas Pophale) SiO2 
 PCOD8206252
Probable space group: P M M A
;
_chemical_formula_sum "Si O2"
_cell_formula_units_Z 64
_cell_length_a 25.911065
_cell_length_b 9.376097
_cell_length_c 18.294115
_cell_angle_alpha 90.000000
_cell_angle_beta 90.000000
_cell_angle_gamma 90.000000
_cell_volume 4444.457527
_symmetry_space_group_name_H-M "P M M A"
_symmetry_group_IT_number 51
_symmetry_cell_setting 'orthorhombic'
loop_
_space_group_symop_operation_xyz
x,y,z
1/2-x,-y,z
1/2+x,-y,-z
-x,y,-z
-x,-y,-z
1/2+x,y,-z
1/2-x,y,z
x,-y,z
loop_
_atom_site_type_symbol
_atom_site_label
_atom_site_fract_x
_atom_site_fract_y
_atom_site_fract_z
Si Si1 0.308063 0.336141 0.822049
Si Si2 0.947659 0.661282 0.545466
Si Si3 0.554796 0.157069 0.960551
Si Si4 0.101955 0.164741 0.574133
Si Si5 0.999625 0.835118 0.663428
Si Si6 0.691252 0.165837 0.320104
Si Si7 0.903982 0.666177 0.083354
Si Si8 0.989830 0.167322 0.169943
O O1 0.250000 0.292363 0.845722
O O2 0.310603 0.500000 0.797976
O O3 0.326788 0.246803 0.752425
O O4 0.345555 0.306781 0.890247
O O5 0.929810 0.500000 0.561250
O O6 0.903665 0.741025 0.498781
O O7 0.956481 0.742258 0.621891
O O8 0.000000 0.665907 0.500000
O O9 0.542132 0.200270 0.876601
O O10 0.580612 0.000000 0.964179
O O11 0.500000 0.153673 0.000000
O O12 0.591726 0.269543 0.001380
O O13 0.155310 0.211087 0.612294
O O14 0.056204 0.194500 0.631325
O O15 0.102346 0.000000 0.550155
O O16 0.999274 0.786477 0.747378
O O17 0.984302 0.000000 0.654613
O O18 0.750000 0.204598 0.341104
O O19 0.684156 0.000000 0.302840
O O20 0.918128 0.500000 0.080218
O O21 0.942022 0.742384 0.140001
O O22 0.975304 0.000000 0.164034
#
# Coordination Sequence:
#
# PCOD8206252 Si02
#       8
#     8   8   8   8   8   8   8   8
#     4   9  18  30  40  53  77 106 133 162 196 230
#     4   9  17  27  38  54  76 100 127 159 190 221
#     4   8  15  27  40  54  75 102 128 155 189 229
#     4   9  16  26  40  56  76 103 130 156 188 225
#     4   9  16  26  40  56  75 101 131 157 185 226
#     4   9  17  28  42  60  79 100 131 168 197 222
#     4  10  18  26  39  57  76 102 134 164 192 223
#     4   9  17  28  41  57  78 104 130 156 191 234
#
# _framework density 14.399958
#
# number of rings (size 3 to 8) (size 9 to 14) (size 15 to 20)
#    0.000    3.000    0.000    2.250    0.000    6.750 
#    0.000    2.500    0.000    0.000    0.000    0.000 
#    0.000    1.000    0.000    4.750    0.000    2.750 
#
# Total GULP energy -793422.109339 kJ/mol
# GULP energy per Si atom -12397.220458 kJ/mol
# Density = 1.436718 g / cm^3
# Si number density = 14.399958 Si / 1000 Ang^3
#
#
#
# Elastic Constant Matrix: (Units=GPa)
#
#
# Indices 1 2 3 4 5 6 
#
# 1 58.7433 38.0917 41.4612 0.0000 0.0000 0.0000
# 2 38.0917 73.0808 48.7307 0.0000 0.0000 0.0000
# 3 41.4612 48.7307 100.1614 0.0000 0.0000 0.0000
# 4 0.0000 0.0000 0.0000 16.1719 0.0000 0.0000
# 5 0.0000 0.0000 0.0000 0.0000 22.1038 0.0000
# 6 0.0000 0.0000 0.0000 0.0000 0.0000 16.5474
#
#
#
# Elastic Compliance Matrix: (Units=1/GPa)
#
#
# Indices 1 2 3 4 5 6 
#
# 1 0.028509 -0.010348 -0.006767 0.000000 0.000000 0.000000
# 2 -0.010348 0.024010 -0.007398 0.000000 0.000000 0.000000
# 3 -0.006767 -0.007398 0.016384 0.000000 0.000000 0.000000
# 4 0.000000 0.000000 0.000000 0.061836 0.000000 0.000000
# 5 0.000000 0.000000 0.000000 0.000000 0.045241 0.000000
# 6 0.000000 0.000000 0.000000 0.000000 0.000000 0.060432
#
#
# Mechanical properties :
#
#
# Convention : Reuss Voigt Hill
#
# Bulk Modulus (GPa) = 50.30580 54.28364 52.29472
# Shear Modulus (GPa) = 17.11956 17.87808 17.49882
#
# Velocity S-wave (km/s) = 3.45173 3.52737 3.48975
# Velocity P-wave (km/s) = 7.13417 7.37351 7.25483
#
# Compressibility (1/GPa) = 0.01987842
#
# Stress axis : x y z
#
# Youngs Moduli (GPa) = 35.07653 41.64935 61.03404
#
# Poissons Ratio (x) = 0.43097 0.41301
# Poissons Ratio (y) = 0.36296 0.45153
# Poissons Ratio (z) = 0.23736 0.30812
#
# Static dielectric constant tensor:
#      x y z
#    x 2.662170 0.000000 0.000000 
#    y 0.000000 2.897890 0.000000 
#    z 0.000000 0.000000 2.934830 
# 
# 
# High freq. dielectric constant tensor:
#      x y z
#    x 1.513610 0.000000 0.000000 
#    y 0.000000 1.556890 0.000000 
#    z 0.000000 0.000000 1.539920 
# 
# From -- ./inp_files/30989.got.cif
#   From: 2010.03.12/outbox.cif.g09.slc.cpg/sg51_16_cif.got.tgz:30989.got - 2010.04.16 13:43:02.
