data_PCOD8206068
_publ_section_title
;
Structure prediction by ZEFSAII (Michael W. Deem and Ramdas Pophale) SiO2 
 PCOD8206068
Probable space group: P M M A
;
_chemical_formula_sum "Si O2"
_cell_formula_units_Z 64
_cell_length_a 18.581419
_cell_length_b 9.128147
_cell_length_c 21.845316
_cell_angle_alpha 90.000000
_cell_angle_beta 90.000000
_cell_angle_gamma 90.000000
_cell_volume 3705.269770
_symmetry_space_group_name_H-M "P M M A"
_symmetry_group_IT_number 51
_symmetry_cell_setting 'orthorhombic'
loop_
_space_group_symop_operation_xyz
x,y,z
1/2-x,-y,z
1/2+x,-y,-z
-x,y,-z
-x,-y,-z
1/2+x,y,-z
1/2-x,y,z
x,-y,z
loop_
_atom_site_type_symbol
_atom_site_label
_atom_site_fract_x
_atom_site_fract_y
_atom_site_fract_z
Si Si1 0.971723 0.675392 0.935638
Si Si2 0.085743 0.161751 0.499895
Si Si3 0.045466 0.330652 0.816179
Si Si4 0.829727 0.325997 0.265592
Si Si5 0.670511 0.325706 0.873296
Si Si6 0.601299 0.331363 0.749076
Si Si7 0.432201 0.827319 0.366803
Si Si8 0.416994 0.672153 0.616934
O O1 0.973076 0.500000 0.935826
O O2 0.889803 0.729823 0.921792
O O3 0.023956 0.738098 0.882060
O O4 0.000000 0.739421 0.000000
O O5 0.109070 0.207855 0.430903
O O6 0.113632 0.275443 0.550925
O O7 0.000000 0.158100 0.500000
O O8 0.115846 0.000000 0.515820
O O9 0.060247 0.500000 0.827823
O O10 0.117384 0.259029 0.786855
O O11 0.981631 0.310738 0.767757
O O12 0.750000 0.259749 0.256267
O O13 0.828463 0.500000 0.259338
O O14 0.857623 0.284260 0.332926
O O15 0.750000 0.266282 0.891549
O O16 0.669235 0.500000 0.873146
O O17 0.651225 0.273112 0.804558
O O18 0.618446 0.500000 0.734025
O O19 0.616327 0.235244 0.688606
O O20 0.509488 0.751001 0.365428
O O21 0.443793 0.000000 0.359086
O O22 0.431891 0.500000 0.614802
#
# Coordination Sequence:
#
# PCOD8206068 Si02
#       8
#     8   8   8   8   8   8   8   8
#     4   8  13  21  35  56  85 120 151 177 210 257
#     4   8  16  28  39  56  83 110 133 168 222 271
#     4   8  13  23  37  55  80 108 143 181 212 246
#     4   9  16  25  38  57  81 109 142 181 223 258
#     4   8  14  24  39  60  86 114 146 187 228 260
#     4   9  15  25  43  63  82 110 148 181 213 260
#     4  10  18  27  41  62  87 111 137 177 229 269
#     4  10  17  26  42  61  81 108 146 185 219 261
#
# _framework density 17.272697000000001
#
# number of rings (size 3 to 8) (size 9 to 14) (size 15 to 20)
#    0.000    3.250    1.250    3.000    0.000    2.750 
#    0.000    0.625    0.000    6.375    0.000    5.250 
#    0.000    8.000    0.000    0.000    0.500    0.000 
#
# Total GULP energy -792930.745238 kJ/mol
# GULP energy per Si atom -12389.542894 kJ/mol
# Density = 1.723338 g / cm^3
# Si number density = 17.272697 Si / 1000 Ang^3
#
#
#
# Elastic Constant Matrix: (Units=GPa)
#
#
# Indices 1 2 3 4 5 6 
#
# 1 104.1367 15.5160 61.0956 0.0000 0.0000 0.0000
# 2 15.5160 37.5625 32.1427 0.0000 0.0000 0.0000
# 3 61.0956 32.1427 151.0730 0.0000 0.0000 0.0000
# 4 0.0000 0.0000 0.0000 5.9664 0.0000 0.0000
# 5 0.0000 0.0000 0.0000 0.0000 17.9839 0.0000
# 6 0.0000 0.0000 0.0000 0.0000 0.0000 2.7636
#
#
#
# Elastic Compliance Matrix: (Units=1/GPa)
#
#
# Indices 1 2 3 4 5 6 
#
# 1 0.012623 -0.001034 -0.004885 0.000000 0.000000 0.000000
# 2 -0.001034 0.032633 -0.006525 0.000000 0.000000 0.000000
# 3 -0.004885 -0.006525 0.009983 0.000000 0.000000 0.000000
# 4 0.000000 0.000000 0.000000 0.167605 0.000000 0.000000
# 5 0.000000 0.000000 0.000000 0.000000 0.055605 0.000000
# 6 0.000000 0.000000 0.000000 0.000000 0.000000 0.361851
#
#
# Mechanical properties :
#
#
# Convention : Reuss Voigt Hill
#
# Bulk Modulus (GPa) = 32.94776 56.69786 44.82281
# Shear Modulus (GPa) = 7.40407 17.61064 12.50735
#
# Velocity S-wave (km/s) = 2.07265 3.19653 2.69385
# Velocity P-wave (km/s) = 4.98441 6.82057 5.97346
#
# Compressibility (1/GPa) = 0.03035108
#
# Stress axis : x y z
#
# Youngs Moduli (GPa) = 79.22277 30.64401 100.17051
#
# Poissons Ratio (x) = 0.03169 0.48930
# Poissons Ratio (y) = 0.08193 0.65359
# Poissons Ratio (z) = 0.38698 0.19995
#
# Static dielectric constant tensor:
#      x y z
#    x 3.210240 0.000000 0.000000 
#    y 0.000000 2.771970 0.000000 
#    z 0.000000 0.000000 3.636600 
# 
# 
# High freq. dielectric constant tensor:
#      x y z
#    x 1.635790 0.000000 0.000000 
#    y 0.000000 1.613500 0.000000 
#    z 0.000000 0.000000 1.675540 
# 
# From -- ./inp_files/35957.got.cif
#   From: 2010.03.12/outbox.cif.g09.slc.cpg/sg51_18_cif.got.tgz:35957.got - 2010.04.16 13:43:02.
