data_PCOD8206393
_publ_section_title
;
Structure prediction by ZEFSAII (Michael W. Deem and Ramdas Pophale) SiO2 
 PCOD8206393
Probable space group: P M M A
;
_chemical_formula_sum "Si O2"
_cell_formula_units_Z 56
_cell_length_a 22.248979
_cell_length_b 8.975614
_cell_length_c 17.586246
_cell_angle_alpha 90.000000
_cell_angle_beta 90.000000
_cell_angle_gamma 90.000000
_cell_volume 3511.942505
_symmetry_space_group_name_H-M "P M M A"
_symmetry_group_IT_number 51
_symmetry_cell_setting 'orthorhombic'
loop_
_space_group_symop_operation_xyz
x,y,z
1/2-x,-y,z
1/2+x,-y,-z
-x,y,-z
-x,-y,-z
1/2+x,y,-z
1/2-x,y,z
x,-y,z
loop_
_atom_site_type_symbol
_atom_site_label
_atom_site_fract_x
_atom_site_fract_y
_atom_site_fract_z
Si Si1 0.067428 0.835739 0.969913
Si Si2 0.818841 0.671291 0.755899
Si Si3 0.031161 0.176225 0.677400
Si Si4 0.970371 0.324240 0.171196
Si Si5 0.595393 0.175517 0.867816
Si Si6 0.070122 0.835134 0.518141
Si Si7 0.589204 0.671640 0.626399
O O1 0.072281 0.721541 0.899681
O O2 0.086585 0.000000 0.940954
O O3 0.107403 0.786502 0.042743
O O4 0.000000 0.840827 0.000000
O O5 0.750000 0.717934 0.745054
O O6 0.825610 0.500000 0.781311
O O7 0.846354 0.774096 0.821691
O O8 0.851062 0.698463 0.675326
O O9 0.963573 0.232073 0.663222
O O10 0.058038 0.256089 0.751943
O O11 0.075023 0.216893 0.606318
O O12 0.028213 0.000000 0.689813
O O13 0.972874 0.500000 0.177315
O O14 0.037681 0.262992 0.163022
O O15 0.583341 0.000000 0.857585
O O16 0.103270 0.723012 0.460324
O O17 0.000000 0.840122 0.500000
O O18 0.098036 0.000000 0.507689
O O19 0.569264 0.500000 0.625844
#
# Coordination Sequence:
#
# PCOD8206393 Si02
#       7
#     8   8   8   8   8   8   8
#     4   8  16  29  42  59  83 112 144 176 213 257
#     4  10  21  34  46  63  88 117 150 187 224 258
#     4  10  18  28  42  60  86 117 145 175 213 259
#     4  11  19  26  41  65  89 115 145 176 214 260
#     4  10  19  31  46  61  82 114 149 184 219 257
#     4   8  16  28  41  58  81 112 143 173 214 259
#     4  10  18  28  43  61  82 112 146 182 220 256
#
# _framework density 15.945591
#
# number of rings (size 3 to 8) (size 9 to 14) (size 15 to 20)
#    0.000    2.429    1.429    4.286    0.000    7.143 
#    0.000    0.000    0.000    0.000    0.000    0.000 
#    0.000    1.143    0.000    8.571    0.000    4.429 
#
# Total GULP energy -694142.901989 kJ/mol
# GULP energy per Si atom -12395.408964 kJ/mol
# Density = 1.590930 g / cm^3
# Si number density = 15.945591 Si / 1000 Ang^3
#
#
#
# Elastic Constant Matrix: (Units=GPa)
#
#
# Indices 1 2 3 4 5 6 
#
# 1 40.0007 24.9786 35.3999 0.0000 0.0000 0.0000
# 2 24.9786 104.2556 71.7997 0.0000 0.0000 0.0000
# 3 35.3999 71.7997 149.8652 0.0000 0.0000 0.0000
# 4 0.0000 0.0000 0.0000 27.7537 0.0000 0.0000
# 5 0.0000 0.0000 0.0000 0.0000 14.7538 0.0000
# 6 0.0000 0.0000 0.0000 0.0000 0.0000 9.9441
#
#
#
# Elastic Compliance Matrix: (Units=1/GPa)
#
#
# Indices 1 2 3 4 5 6 
#
# 1 0.032554 -0.003737 -0.005899 0.000000 0.000000 0.000000
# 2 -0.003737 0.014744 -0.006181 0.000000 0.000000 0.000000
# 3 -0.005899 -0.006181 0.011027 0.000000 0.000000 0.000000
# 4 0.000000 0.000000 0.000000 0.036031 0.000000 0.000000
# 5 0.000000 0.000000 0.000000 0.000000 0.067779 0.000000
# 6 0.000000 0.000000 0.000000 0.000000 0.000000 0.100562
#
#
# Mechanical properties :
#
#
# Convention : Reuss Voigt Hill
#
# Bulk Modulus (GPa) = 37.46601 62.05309 49.75955
# Shear Modulus (GPa) = 16.48919 21.28656 18.88788
#
# Velocity S-wave (km/s) = 3.21922 3.65766 3.44542
# Velocity P-wave (km/s) = 6.11269 7.53910 6.86305
#
# Compressibility (1/GPa) = 0.02669086
#
# Stress axis : x y z
#
# Youngs Moduli (GPa) = 30.71845 67.82450 90.68266
#
# Poissons Ratio (x) = 0.25344 0.53496
# Poissons Ratio (y) = 0.11479 0.56052
# Poissons Ratio (z) = 0.18122 0.41923
#
# Static dielectric constant tensor:
#      x y z
#    x 2.499380 0.000000 0.000000 
#    y 0.000000 3.098840 0.000000 
#    z 0.000000 0.000000 3.650660 
# 
# 
# High freq. dielectric constant tensor:
#      x y z
#    x 1.532260 0.000000 0.000000 
#    y 0.000000 1.623000 0.000000 
#    z 0.000000 0.000000 1.632880 
# 
# From -- ./inp_files/30779.got.cif
#   From: 2010.03.12/outbox.cif.g09.slc.cpg/sg51_16_cif.got.tgz:30779.got - 2010.04.16 13:43:02.
