data_PCOD8206090
_publ_section_title
;
Structure prediction by ZEFSAII (Michael W. Deem and Ramdas Pophale) SiO2 
 PCOD8206090
Probable space group: P M M A
;
_chemical_formula_sum "Si O2"
_cell_formula_units_Z 64
_cell_length_a 27.598001
_cell_length_b 9.226928
_cell_length_c 14.687071
_cell_angle_alpha 90.000000
_cell_angle_beta 90.000000
_cell_angle_gamma 90.000000
_cell_volume 3739.985790
_symmetry_space_group_name_H-M "P M M A"
_symmetry_group_IT_number 51
_symmetry_cell_setting 'orthorhombic'
loop_
_space_group_symop_operation_xyz
x,y,z
1/2-x,-y,z
1/2+x,-y,-z
-x,y,-z
-x,-y,-z
1/2+x,y,-z
1/2-x,y,z
x,-y,z
loop_
_atom_site_type_symbol
_atom_site_label
_atom_site_fract_x
_atom_site_fract_y
_atom_site_fract_z
Si Si1 0.889891 0.172132 0.525900
Si Si2 0.882128 0.671858 0.969083
Si Si3 0.967216 0.669645 0.843823
Si Si4 0.581519 0.332422 0.355886
Si Si5 0.532053 0.665489 0.636940
Si Si6 0.806475 0.835493 0.857636
Si Si7 0.073944 0.671903 0.845288
Si Si8 0.303764 0.827633 0.345958
O O1 0.886335 0.236910 0.424430
O O2 0.939222 0.226871 0.571744
O O3 0.843451 0.230035 0.582603
O O4 0.890763 0.000000 0.520886
O O5 0.878742 0.500000 0.959655
O O6 0.926748 0.736956 0.910128
O O7 0.832619 0.739120 0.933295
O O8 0.889695 0.718771 0.074417
O O9 0.969606 0.500000 0.862801
O O10 0.952536 0.701808 0.739972
O O11 0.020248 0.737038 0.864991
O O12 0.595918 0.500000 0.367777
O O13 0.524874 0.309690 0.377153
O O14 0.593300 0.276051 0.253369
O O15 0.545621 0.500000 0.612000
O O16 0.750000 0.826167 0.879123
O O17 0.817174 0.774024 0.756015
O O18 0.825118 0.000000 0.865851
O O19 0.067931 0.500000 0.839600
O O20 0.250000 0.770280 0.373495
O O21 0.302804 0.000000 0.344207
#
# Coordination Sequence:
#
# PCOD8206090 Si02
#       8
#     8   8   8   8   8   8   8   8
#     4  11  20  28  45  70  89 110 147 194 232 257
#     4  10  17  26  47  74  93 112 145 190 227 251
#     4   8  14  25  43  68  94 118 148 182 214 257
#     4   9  18  32  46  60  87 127 159 178 207 261
#     4   9  17  29  44  63  91 126 153 173 210 267
#     4   9  18  33  50  66  89 121 148 171 212 274
#     4   8  15  28  45  65  90 122 154 179 211 259
#     4   8  16  32  50  66  87 116 146 175 217 275
#
# _framework density 17.112363999999999
#
# number of rings (size 3 to 8) (size 9 to 14) (size 15 to 20)
#    0.000    3.000    0.000    4.125    0.000    3.750 
#    0.000    1.250    0.000    6.750    0.000    3.500 
#    0.000    0.000    0.000    0.000    0.000    0.000 
#
# Total GULP energy -793309.117384 kJ/mol
# GULP energy per Si atom -12395.454959 kJ/mol
# Density = 1.707342 g / cm^3
# Si number density = 17.112364 Si / 1000 Ang^3
#
#
#
# Elastic Constant Matrix: (Units=GPa)
#
#
# Indices 1 2 3 4 5 6 
#
# 1 68.3022 27.4230 65.5989 0.0000 0.0000 0.0000
# 2 27.4230 38.8682 39.5472 0.0000 0.0000 0.0000
# 3 65.5989 39.5472 132.1905 0.0000 0.0000 0.0000
# 4 0.0000 0.0000 0.0000 19.1904 0.0000 0.0000
# 5 0.0000 0.0000 0.0000 0.0000 28.4988 0.0000
# 6 0.0000 0.0000 0.0000 0.0000 0.0000 20.7196
#
#
#
# Elastic Compliance Matrix: (Units=1/GPa)
#
#
# Indices 1 2 3 4 5 6 
#
# 1 0.029851 -0.008609 -0.012238 0.000000 0.000000 0.000000
# 2 -0.008609 0.039469 -0.007536 0.000000 0.000000 0.000000
# 3 -0.012238 -0.007536 0.015892 0.000000 0.000000 0.000000
# 4 0.000000 0.000000 0.000000 0.052109 0.000000 0.000000
# 5 0.000000 0.000000 0.000000 0.000000 0.035089 0.000000
# 6 0.000000 0.000000 0.000000 0.000000 0.000000 0.048263
#
#
# Mechanical properties :
#
#
# Convention : Reuss Voigt Hill
#
# Bulk Modulus (GPa) = 35.15310 56.05543 45.60427
# Shear Modulus (GPa) = 17.42634 20.80122 19.11378
#
# Velocity S-wave (km/s) = 3.19462 3.49028 3.34572
# Velocity P-wave (km/s) = 5.84761 7.00508 6.45235
#
# Compressibility (1/GPa) = 0.02844700
#
# Stress axis : x y z
#
# Youngs Moduli (GPa) = 33.50005 25.33605 62.92435
#
# Poissons Ratio (x) = 0.21813 0.77004
# Poissons Ratio (y) = 0.28842 0.47417
# Poissons Ratio (z) = 0.40996 0.19092
#
# Static dielectric constant tensor:
#      x y z
#    x 3.157880 0.000000 0.000000 
#    y 0.000000 2.798620 0.000000 
#    z 0.000000 0.000000 3.443030 
# 
# 
# High freq. dielectric constant tensor:
#      x y z
#    x 1.640320 0.000000 0.000000 
#    y 0.000000 1.619340 0.000000 
#    z 0.000000 0.000000 1.668480 
# 
# From -- ./inp_files/26617.got.cif
#   From: 2010.03.12/outbox.cif.g09.slc.cpg/sg51_14_cif.got.tgz:26617.got - 2010.04.16 13:43:02.
