data_PCOD8206206
_publ_section_title
;
Structure prediction by ZEFSAII (Michael W. Deem and Ramdas Pophale) SiO2 
 PCOD8206206
Probable space group: P M M A
;
_chemical_formula_sum "Si O2"
_cell_formula_units_Z 64
_cell_length_a 14.309702
_cell_length_b 23.604484
_cell_length_c 9.587549
_cell_angle_alpha 90.000000
_cell_angle_beta 90.000000
_cell_angle_gamma 90.000000
_cell_volume 3238.416453
_symmetry_space_group_name_H-M "P M M A"
_symmetry_group_IT_number 51
_symmetry_cell_setting 'orthorhombic'
loop_
_space_group_symop_operation_xyz
x,y,z
1/2-x,-y,z
1/2+x,-y,-z
-x,y,-z
-x,-y,-z
1/2+x,y,-z
1/2-x,y,z
x,-y,z
loop_
_atom_site_type_symbol
_atom_site_label
_atom_site_fract_x
_atom_site_fract_y
_atom_site_fract_z
Si Si1 0.647363 0.829392 0.643873
Si Si2 0.639914 0.633168 0.357817
Si Si3 0.986173 0.565615 0.158957
Si Si4 0.022093 0.170222 0.849067
Si Si5 0.139819 0.762916 0.629242
Si Si6 0.644929 0.935978 0.178198
Si Si7 0.107651 0.063108 0.502471
Si Si8 0.856033 0.435036 0.625666
O O1 0.750000 0.806769 0.691522
O O2 0.576749 0.829809 0.771456
O O3 0.607144 0.791489 0.516054
O O4 0.662843 0.893824 0.594704
O O5 0.750000 0.626974 0.339607
O O6 0.594545 0.604374 0.223009
O O7 0.608027 0.697916 0.371189
O O8 0.605343 0.601758 0.497484
O O9 0.955980 0.500000 0.170263
O O10 0.083307 0.577339 0.237873
O O11 0.000000 0.584190 0.000000
O O12 0.094951 0.207496 0.763177
O O13 0.067320 0.108043 0.876817
O O14 0.000000 0.197276 0.000000
O O15 0.250000 0.769937 0.645812
O O16 0.750000 0.921772 0.122951
O O17 0.649004 0.932256 0.344394
O O18 0.616318 0.000000 0.132492
O O19 0.000000 0.081772 0.500000
O O20 0.120148 0.000000 0.441263
O O21 0.750000 0.418349 0.663849
O O22 0.863700 0.500000 0.578078
#
# Coordination Sequence:
#
# PCOD8206206 Si02
#       8
#     8   8   8   8   8   8   8   8
#     4  11  22  38  59  84 111 143 187 237 283 334
#     4  10  21  37  60  87 111 144 190 241 288 333
#     4  10  21  35  54  84 122 160 193 227 275 334
#     4  12  25  39  58  84 117 151 185 228 282 342
#     4  10  22  42  64  83 108 144 191 240 287 336
#     4  10  20  36  59  84 111 147 187 227 278 336
#     4  10  17  30  57  87 112 140 181 233 284 332
#     4   9  18  34  56  83 115 151 192 237 283 329
#
# _framework density 19.762744999999999
#
# number of rings (size 3 to 8) (size 9 to 14) (size 15 to 20)
#    0.000    1.750    2.500    1.875    0.000    6.750 
#    0.000    1.250    0.000    3.000    0.000    0.000 
#    0.000    0.000    0.000    0.000    0.000    0.000 
#
# Total GULP energy -793634.379282 kJ/mol
# GULP energy per Si atom -12400.537176 kJ/mol
# Density = 1.971776 g / cm^3
# Si number density = 19.762745 Si / 1000 Ang^3
#
#
#
# Elastic Constant Matrix: (Units=GPa)
#
#
# Indices 1 2 3 4 5 6 
#
# 1 84.4072 41.2503 47.4983 0.0000 0.0000 0.0000
# 2 41.2503 108.3557 56.9608 0.0000 0.0000 0.0000
# 3 47.4983 56.9608 126.8066 0.0000 0.0000 0.0000
# 4 0.0000 0.0000 0.0000 9.2314 0.0000 0.0000
# 5 0.0000 0.0000 0.0000 0.0000 15.3552 0.0000
# 6 0.0000 0.0000 0.0000 0.0000 0.0000 25.0119
#
#
#
# Elastic Compliance Matrix: (Units=1/GPa)
#
#
# Indices 1 2 3 4 5 6 
#
# 1 0.016175 -0.003892 -0.004311 0.000000 0.000000 0.000000
# 2 -0.003892 0.013018 -0.004390 0.000000 0.000000 0.000000
# 3 -0.004311 -0.004390 0.011473 0.000000 0.000000 0.000000
# 4 0.000000 0.000000 0.000000 0.108325 0.000000 0.000000
# 5 0.000000 0.000000 0.000000 0.000000 0.065125 0.000000
# 6 0.000000 0.000000 0.000000 0.000000 0.000000 0.039981
#
#
# Mechanical properties :
#
#
# Convention : Reuss Voigt Hill
#
# Bulk Modulus (GPa) = 64.59437 67.88758 66.24097
# Shear Modulus (GPa) = 17.57831 21.51037 19.54434
#
# Velocity S-wave (km/s) = 2.98563 3.30272 3.14817
# Velocity P-wave (km/s) = 6.68141 6.99784 6.84145
#
# Compressibility (1/GPa) = 0.01548123
#
# Stress axis : x y z
#
# Youngs Moduli (GPa) = 61.82425 76.81593 87.16440
#
# Poissons Ratio (x) = 0.29894 0.37573
# Poissons Ratio (y) = 0.24060 0.38265
# Poissons Ratio (z) = 0.26650 0.33722
#
# Static dielectric constant tensor:
#      x y z
#    x 3.091150 0.000000 0.000000 
#    y 0.000000 3.735840 0.000000 
#    z 0.000000 0.000000 3.354170 
# 
# 
# High freq. dielectric constant tensor:
#      x y z
#    x 1.784350 0.000000 0.000000 
#    y 0.000000 1.767910 0.000000 
#    z 0.000000 0.000000 1.744780 
# 
# From -- ./inp_files/8746.got.cif
#   From: 2010.03.12/outbox.cif.g09.slc.cpg/sg51_5_cif.got.tgz:8746.got - 2010.04.16 13:43:02.
