data_PCOD8206149
_publ_section_title
;
Structure prediction by ZEFSAII (Michael W. Deem and Ramdas Pophale) SiO2 
 PCOD8206149
Probable space group: P M M A
;
_chemical_formula_sum "Si O2"
_cell_formula_units_Z 64
_cell_length_a 9.217162
_cell_length_b 20.133261
_cell_length_c 20.038745
_cell_angle_alpha 90.000000
_cell_angle_beta 90.000000
_cell_angle_gamma 90.000000
_cell_volume 3718.620533
_symmetry_space_group_name_H-M "P M M A"
_symmetry_group_IT_number 51
_symmetry_cell_setting 'orthorhombic'
loop_
_space_group_symop_operation_xyz
x,y,z
1/2-x,-y,z
1/2+x,-y,-z
-x,y,-z
-x,-y,-z
1/2+x,y,-z
1/2-x,y,z
x,-y,z
loop_
_atom_site_type_symbol
_atom_site_label
_atom_site_fract_x
_atom_site_fract_y
_atom_site_fract_z
Si Si1 0.078507 0.111458 0.738418
Si Si2 0.578431 0.071556 0.116234
Si Si3 0.416659 0.242314 0.290764
Si Si4 0.576971 0.210659 0.065763
Si Si5 0.080908 0.425026 0.066207
Si Si6 0.416918 0.692446 0.159680
Si Si7 0.082538 0.786262 0.436593
Si Si8 0.083098 0.071991 0.387041
O O1 0.250000 0.114209 0.729763
O O2 0.030346 0.077716 0.807164
O O3 0.018443 0.185791 0.738349
O O4 0.011429 0.068034 0.679569
O O5 0.750000 0.072680 0.112513
O O6 0.521707 0.134389 0.074061
O O7 0.519170 0.000000 0.088969
O O8 0.250000 0.217594 0.289373
O O9 0.437058 0.305724 0.240898
O O10 0.457545 0.254980 0.368835
O O11 0.750000 0.216907 0.060412
O O12 0.522329 0.252659 0.128492
O O13 0.500000 0.239691 0.000000
O O14 0.250000 0.421898 0.049863
O O15 0.031255 0.500000 0.083613
O O16 0.040877 0.379711 0.130231
O O17 0.000000 0.398739 0.000000
O O18 0.250000 0.709348 0.141331
O O19 0.250000 0.779786 0.453529
O O20 0.034606 0.864076 0.430146
O O21 0.000000 0.755112 0.500000
O O22 0.250000 0.082424 0.366586
O O23 0.061974 0.000000 0.423981
#
# Coordination Sequence:
#
# PCOD8206149 Si02
#       8
#     8   8   8   8   8   8   8   8
#     4  10  17  28  46  67  87 110 145 190 239 286
#     4   9  18  31  45  61  84 112 144 191 246 288
#     4   9  18  32  49  68  93 120 151 189 235 280
#     4  11  22  35  49  67  91 120 156 199 242 286
#     4   9  18  32  50  75 106 138 167 193 226 270
#     4  10  19  33  54  75  97 127 160 196 233 276
#     4   9  18  31  45  63  88 119 149 187 234 286
#     4   9  18  31  44  60  85 115 146 184 234 291
#
# _framework density 17.210681999999998
#
# number of rings (size 3 to 8) (size 9 to 14) (size 15 to 20)
#    0.000    2.500    1.250    2.250    0.000    4.750 
#    0.000    0.000    0.000    3.375    0.000    0.000 
#    0.000    0.500    0.000    0.375    0.000    0.750 
#
# Total GULP energy -792980.567752 kJ/mol
# GULP energy per Si atom -12390.321371 kJ/mol
# Density = 1.717151 g / cm^3
# Si number density = 17.210682 Si / 1000 Ang^3
#
#
#
# Elastic Constant Matrix: (Units=GPa)
#
#
# Indices 1 2 3 4 5 6 
#
# 1 46.7671 17.8754 34.4899 0.0000 0.0000 0.0000
# 2 17.8754 70.4104 47.2444 0.0000 0.0000 0.0000
# 3 34.4899 47.2444 118.4303 0.0000 0.0000 0.0000
# 4 0.0000 0.0000 0.0000 18.0282 0.0000 0.0000
# 5 0.0000 0.0000 0.0000 0.0000 24.3827 0.0000
# 6 0.0000 0.0000 0.0000 0.0000 0.0000 14.9375
#
#
#
# Elastic Compliance Matrix: (Units=1/GPa)
#
#
# Indices 1 2 3 4 5 6 
#
# 1 0.027477 -0.002194 -0.007127 0.000000 0.000000 0.000000
# 2 -0.002194 0.019569 -0.007168 0.000000 0.000000 0.000000
# 3 -0.007127 -0.007168 0.013379 0.000000 0.000000 0.000000
# 4 0.000000 0.000000 0.000000 0.055469 0.000000 0.000000
# 5 0.000000 0.000000 0.000000 0.000000 0.041013 0.000000
# 6 0.000000 0.000000 0.000000 0.000000 0.000000 0.066946
#
#
# Mechanical properties :
#
#
# Convention : Reuss Voigt Hill
#
# Bulk Modulus (GPa) = 36.43239 48.31414 42.37326
# Shear Modulus (GPa) = 18.79864 20.53622 19.66743
#
# Velocity S-wave (km/s) = 3.30853 3.45806 3.38412
# Velocity P-wave (km/s) = 5.98411 6.63908 6.32008
#
# Compressibility (1/GPa) = 0.02744810
#
# Stress axis : x y z
#
# Youngs Moduli (GPa) = 36.39417 51.10213 74.74630
#
# Poissons Ratio (x) = 0.11210 0.53271
# Poissons Ratio (y) = 0.07984 0.53575
# Poissons Ratio (z) = 0.25938 0.36628
#
# Static dielectric constant tensor:
#      x y z
#    x 3.103730 0.000000 0.000000 
#    y 0.000000 -81.907330 0.000000 
#    z 0.000000 0.000000 3.225930 
# 
# 
# High freq. dielectric constant tensor:
#      x y z
#    x 1.657470 0.000000 0.000000 
#    y 0.000000 1.628210 0.000000 
#    z 0.000000 0.000000 1.658680 
# 
# From -- ./inp_files/32376.got.cif
#   From: 2010.03.12/outbox.cif.g09.slc.cpg/sg51_17_cif.got.tgz:32376.got - 2010.04.16 13:43:02.
