data_PCOD8206644
_publ_section_title
;
Structure prediction by ZEFSAII (Michael W. Deem and Ramdas Pophale) SiO2 
 PCOD8206644
Probable space group: P M M A
;
_chemical_formula_sum "Si O2"
_cell_formula_units_Z 64
_cell_length_a 9.377943
_cell_length_b 19.460288
_cell_length_c 20.177642
_cell_angle_alpha 90.000000
_cell_angle_beta 90.000000
_cell_angle_gamma 90.000000
_cell_volume 3682.368648
_symmetry_space_group_name_H-M "P M M A"
_symmetry_group_IT_number 51
_symmetry_cell_setting 'orthorhombic'
loop_
_space_group_symop_operation_xyz
x,y,z
1/2-x,-y,z
1/2+x,-y,-z
-x,y,-z
-x,-y,-z
1/2+x,y,-z
1/2-x,y,z
x,-y,z
loop_
_atom_site_type_symbol
_atom_site_label
_atom_site_fract_x
_atom_site_fract_y
_atom_site_fract_z
Si Si1 0.915876 0.348061 0.936073
Si Si2 0.584606 0.421443 0.436413
Si Si3 0.910234 0.075170 0.115678
Si Si4 0.910219 0.923957 0.273216
Si Si5 0.581121 0.663231 0.306607
Si Si6 0.414032 0.796856 0.118730
Si Si7 0.915825 0.204583 0.725197
Si Si8 0.086860 0.580327 0.198682
O O1 0.750000 0.346646 0.953381
O O2 0.970207 0.271921 0.916460
O O3 0.948358 0.400864 0.876978
O O4 0.000000 0.374625 0.000000
O O5 0.500000 0.393409 0.500000
O O6 0.750000 0.414856 0.453160
O O7 0.541645 0.500000 0.420728
O O8 0.541912 0.376607 0.373405
O O9 0.750000 0.086624 0.090020
O O10 0.914694 0.076401 0.194431
O O11 0.005352 0.137341 0.087805
O O12 0.966402 0.000000 0.091306
O O13 0.750000 0.905645 0.297159
O O14 0.022090 0.868182 0.300780
O O15 0.953647 0.000000 0.299216
O O16 0.750000 0.672985 0.297301
O O17 0.503849 0.736345 0.311678
O O18 0.521586 0.620320 0.245173
O O19 0.250000 0.809859 0.103896
O O20 0.440921 0.787175 0.196637
O O21 0.750000 0.209126 0.706190
O O22 0.250000 0.602470 0.215330
O O23 0.063876 0.500000 0.209210
#
# Coordination Sequence:
#
# PCOD8206644 Si02
#       8
#     8   8   8   8   8   8   8   8
#     4  10  21  37  52  71  95 122 161 205 252 304
#     4   9  19  35  53  75 104 137 172 209 247 292
#     4   8  14  24  40  64  91 117 150 191 235 288
#     4   8  14  25  40  62  95 131 165 203 249 297
#     4  11  21  33  52  78 108 136 168 210 250 292
#     4   9  17  30  46  64  92 122 155 200 242 291
#     4  10  18  29  46  69  99 133 169 207 250 299
#     4  10  21  38  57  75  99 129 160 201 254 308
#
# _framework density 17.380116999999998
#
# number of rings (size 3 to 8) (size 9 to 14) (size 15 to 20)
#    0.000    2.625    1.250    1.875    0.000    4.000 
#    0.000    3.750    0.000    0.375    0.000    0.000 
#    0.000    0.500    0.000    1.625    0.000    2.000 
#
# Total GULP energy -793500.977059 kJ/mol
# GULP energy per Si atom -12398.452767 kJ/mol
# Density = 1.734056 g / cm^3
# Si number density = 17.380117 Si / 1000 Ang^3
#
#
#
# Elastic Constant Matrix: (Units=GPa)
#
#
# Indices 1 2 3 4 5 6 
#
# 1 86.4281 55.4991 41.1934 0.0000 0.0000 0.0000
# 2 55.4991 98.8987 32.8088 0.0000 0.0000 0.0000
# 3 41.1934 32.8088 59.6557 0.0000 0.0000 0.0000
# 4 0.0000 0.0000 0.0000 15.9331 0.0000 0.0000
# 5 0.0000 0.0000 0.0000 0.0000 23.7829 0.0000
# 6 0.0000 0.0000 0.0000 0.0000 0.0000 28.4010
#
#
#
# Elastic Compliance Matrix: (Units=1/GPa)
#
#
# Indices 1 2 3 4 5 6 
#
# 1 0.022401 -0.009099 -0.010464 0.000000 0.000000 0.000000
# 2 -0.009099 0.016064 -0.002552 0.000000 0.000000 0.000000
# 3 -0.010464 -0.002552 0.025391 0.000000 0.000000 0.000000
# 4 0.000000 0.000000 0.000000 0.062763 0.000000 0.000000
# 5 0.000000 0.000000 0.000000 0.000000 0.042047 0.000000
# 6 0.000000 0.000000 0.000000 0.000000 0.000000 0.035210
#
#
# Mechanical properties :
#
#
# Convention : Reuss Voigt Hill
#
# Bulk Modulus (GPa) = 50.94985 55.99833 53.47409
# Shear Modulus (GPa) = 19.63501 21.32212 20.47857
#
# Velocity S-wave (km/s) = 3.36481 3.50639 3.43633
# Velocity P-wave (km/s) = 6.66893 6.97730 6.82485
#
# Compressibility (1/GPa) = 0.01962714
#
# Stress axis : x y z
#
# Youngs Moduli (GPa) = 44.64181 62.25074 39.38330
#
# Poissons Ratio (x) = 0.56644 0.41209
# Poissons Ratio (y) = 0.40621 0.10049
# Poissons Ratio (z) = 0.46712 0.15883
#
# Static dielectric constant tensor:
#      x y z
#    x 3.284240 0.000000 0.000000 
#    y 0.000000 3.539180 0.000000 
#    z 0.000000 0.000000 2.836970 
# 
# 
# High freq. dielectric constant tensor:
#      x y z
#    x 1.672950 0.000000 0.000000 
#    y 0.000000 1.683030 0.000000 
#    z 0.000000 0.000000 1.623180 
# 
# From -- ./inp_files/32654.got.cif
#   From: 2010.03.12/outbox.cif.g09.slc.cpg/sg51_17_cif.got.tgz:32654.got - 2010.04.16 13:43:02.
