data_PCOD8206853
_publ_section_title
;
Structure prediction by ZEFSAII (Michael W. Deem and Ramdas Pophale) SiO2 
 PCOD8206853
Probable space group: P M M A
;
_chemical_formula_sum "Si O2"
_cell_formula_units_Z 64
_cell_length_a 19.489948
_cell_length_b 9.288312
_cell_length_c 19.773075
_cell_angle_alpha 90.000000
_cell_angle_beta 90.000000
_cell_angle_gamma 90.000000
_cell_volume 3579.494416
_symmetry_space_group_name_H-M "P M M A"
_symmetry_group_IT_number 51
_symmetry_cell_setting 'orthorhombic'
loop_
_space_group_symop_operation_xyz
x,y,z
1/2-x,-y,z
1/2+x,-y,-z
-x,y,-z
-x,-y,-z
1/2+x,y,-z
1/2-x,y,z
x,-y,z
loop_
_atom_site_type_symbol
_atom_site_label
_atom_site_fract_x
_atom_site_fract_y
_atom_site_fract_z
Si Si1 0.827672 0.166552 0.397701
Si Si2 0.578011 0.337302 0.023946
Si Si3 0.114600 0.165488 0.100906
Si Si4 0.919254 0.329649 0.656789
Si Si5 0.040397 0.164946 0.852160
Si Si6 0.328375 0.331063 0.468907
Si Si7 0.327439 0.663190 0.218512
Si Si8 0.949649 0.168153 0.301219
O O1 0.750000 0.209308 0.377086
O O2 0.852846 0.254757 0.462665
O O3 0.876380 0.203237 0.334570
O O4 0.832665 0.000000 0.417326
O O5 0.606102 0.500000 0.028689
O O6 0.585027 0.262655 0.097162
O O7 0.500000 0.335379 0.000000
O O8 0.622640 0.247523 0.970293
O O9 0.167127 0.235542 0.153409
O O10 0.039312 0.182868 0.131706
O O11 0.134154 0.000000 0.089024
O O12 0.929962 0.500000 0.655887
O O13 0.877439 0.277626 0.591171
O O14 0.876818 0.280235 0.722483
O O15 0.992592 0.253061 0.657279
O O16 0.053924 0.220717 0.776328
O O17 0.063832 0.000000 0.861374
O O18 0.250000 0.288851 0.451071
O O19 0.335515 0.500000 0.480262
O O20 0.250000 0.669412 0.246262
O O21 0.347314 0.500000 0.197879
O O22 0.968141 0.000000 0.304103
#
# Coordination Sequence:
#
# PCOD8206853 Si02
#       8
#     8   8   8   8   8   8   8   8
#     4   9  19  36  56  76  98 129 169 209 253 309
#     4   9  17  28  46  71  97 127 165 205 246 295
#     4  10  18  30  48  70  98 130 168 211 251 298
#     4  10  20  33  51  75 103 134 171 211 253 304
#     4   9  17  30  47  70  99 130 162 203 255 301
#     4   9  18  34  54  74 100 135 173 212 251 296
#     4  10  20  33  49  70 100 138 175 211 254 303
#     4  10  20  34  52  75 105 135 165 209 262 308
#
# _framework density 17.879619000000002
#
# number of rings (size 3 to 8) (size 9 to 14) (size 15 to 20)
#    0.000    2.500    1.250    1.125    0.000    5.750 
#    0.000    2.500    0.000    3.000    0.000    1.750 
#    0.000    0.000    0.000    0.000    0.000    0.000 
#
# Total GULP energy -793715.663386 kJ/mol
# GULP energy per Si atom -12401.807240 kJ/mol
# Density = 1.783892 g / cm^3
# Si number density = 17.879619 Si / 1000 Ang^3
#
#
#
# Elastic Constant Matrix: (Units=GPa)
#
#
# Indices 1 2 3 4 5 6 
#
# 1 66.6015 30.1465 48.2707 0.0000 0.0000 0.0000
# 2 30.1465 71.7847 51.5359 0.0000 0.0000 0.0000
# 3 48.2707 51.5359 131.7093 0.0000 0.0000 0.0000
# 4 0.0000 0.0000 0.0000 33.3359 0.0000 0.0000
# 5 0.0000 0.0000 0.0000 0.0000 25.0156 0.0000
# 6 0.0000 0.0000 0.0000 0.0000 0.0000 21.5498
#
#
#
# Elastic Compliance Matrix: (Units=1/GPa)
#
#
# Indices 1 2 3 4 5 6 
#
# 1 0.021526 -0.004695 -0.006052 0.000000 0.000000 0.000000
# 2 -0.004695 0.020397 -0.006260 0.000000 0.000000 0.000000
# 3 -0.006052 -0.006260 0.012260 0.000000 0.000000 0.000000
# 4 0.000000 0.000000 0.000000 0.029998 0.000000 0.000000
# 5 0.000000 0.000000 0.000000 0.000000 0.039975 0.000000
# 6 0.000000 0.000000 0.000000 0.000000 0.000000 0.046404
#
#
# Mechanical properties :
#
#
# Convention : Reuss Voigt Hill
#
# Bulk Modulus (GPa) = 49.58327 58.88908 54.23617
# Shear Modulus (GPa) = 23.66333 25.32309 24.49321
#
# Velocity S-wave (km/s) = 3.64191 3.76747 3.70523
# Velocity P-wave (km/s) = 6.74364 7.20646 6.97889
#
# Compressibility (1/GPa) = 0.02016809
#
# Stress axis : x y z
#
# Youngs Moduli (GPa) = 46.45489 49.02775 81.56583
#
# Poissons Ratio (x) = 0.23019 0.49364
# Poissons Ratio (y) = 0.21811 0.51061
# Poissons Ratio (z) = 0.28115 0.30692
#
# Static dielectric constant tensor:
#      x y z
#    x 3.064510 0.000000 0.000000 
#    y 0.000000 3.309940 0.000000 
#    z 0.000000 0.000000 3.388550 
# 
# 
# High freq. dielectric constant tensor:
#      x y z
#    x 1.663200 0.000000 0.000000 
#    y 0.000000 1.691240 0.000000 
#    z 0.000000 0.000000 1.695770 
# 
# From -- ./inp_files/30545.got.cif
#   From: 2010.03.12/outbox.cif.g09.slc.cpg/sg51_16_cif.got.tgz:30545.got - 2010.04.16 13:43:02.
