data_PCOD8206078
_publ_section_title
;
Structure prediction by ZEFSAII (Michael W. Deem and Ramdas Pophale) SiO2 
 PCOD8206078
Probable space group: P M M A
;
_chemical_formula_sum "Si O2"
_cell_formula_units_Z 52
_cell_length_a 8.750052
_cell_length_b 22.247229
_cell_length_c 15.491551
_cell_angle_alpha 90.000000
_cell_angle_beta 90.000000
_cell_angle_gamma 90.000000
_cell_volume 3015.653645
_symmetry_space_group_name_H-M "P M M A"
_symmetry_group_IT_number 51
_symmetry_cell_setting 'orthorhombic'
loop_
_space_group_symop_operation_xyz
x,y,z
1/2-x,-y,z
1/2+x,-y,-z
-x,y,-z
-x,-y,-z
1/2+x,y,-z
1/2-x,y,z
x,-y,z
loop_
_atom_site_type_symbol
_atom_site_label
_atom_site_fract_x
_atom_site_fract_y
_atom_site_fract_z
Si Si1 0.930059 0.121046 0.905832
Si Si2 0.929262 0.656325 0.585004
Si Si3 0.430407 0.568010 0.910724
Si Si4 0.570693 0.652418 0.241243
Si Si5 0.067974 0.000000 0.904806
Si Si6 0.428444 0.786967 0.582680
Si Si7 0.574104 0.791721 0.226295
O O1 0.750000 0.112427 0.916375
O O2 0.964926 0.175373 0.841244
O O3 0.003955 0.061125 0.861953
O O4 0.000000 0.134676 0.000000
O O5 0.750000 0.650035 0.581030
O O6 0.000000 0.624144 0.500000
O O7 0.990924 0.626532 0.672786
O O8 0.979828 0.725292 0.585707
O O9 0.250000 0.571894 0.917978
O O10 0.484517 0.500000 0.890648
O O11 0.492259 0.612077 0.836765
O O12 0.500000 0.591287 0.000000
O O13 0.750000 0.645036 0.254562
O O14 0.528834 0.721721 0.223378
O O15 0.250000 0.000000 0.903616
O O16 0.000000 0.000000 0.000000
O O17 0.500000 0.823876 0.500000
O O18 0.250000 0.774127 0.567225
O O19 0.451682 0.818419 0.676269
O O20 0.750000 0.800941 0.198465
#
# Coordination Sequence:
#
# PCOD8206078 Si02
#       7
#     8   8   8   8   4   8   8
#     4  11  21  33  49  69  95 126 160 196 232 275
#     4  10  17  26  43  66  92 121 153 187 227 277
#     4   9  18  33  52  71  91 119 156 197 238 280
#     4   9  18  32  48  68  96 125 154 192 237 282
#     4  10  18  32  52  70  91 120 157 196 232 274
#     4   9  16  27  44  65  93 125 157 193 231 274
#     4   9  18  31  45  67  98 128 156 190 234 279
#
# _framework density 17.243359999999999
#
# number of rings (size 3 to 8) (size 9 to 14) (size 15 to 20)
#    0.000    2.462    0.000    6.692    0.000    4.308 
#    0.000    1.538    0.000    0.462    0.000    0.538 
#    0.000    0.000    0.000    0.000    0.000    0.000 
#
# Total GULP energy -644457.314135 kJ/mol
# GULP energy per Si atom -12393.409887 kJ/mol
# Density = 1.720411 g / cm^3
# Si number density = 17.243360 Si / 1000 Ang^3
#
#
#
# Elastic Constant Matrix: (Units=GPa)
#
#
# Indices 1 2 3 4 5 6 
#
# 1 101.9995 34.1244 60.0324 0.0000 0.0000 0.0000
# 2 34.1244 57.4301 57.8694 0.0000 0.0000 0.0000
# 3 60.0324 57.8694 150.2734 0.0000 0.0000 0.0000
# 4 0.0000 0.0000 0.0000 2.5317 0.0000 0.0000
# 5 0.0000 0.0000 0.0000 0.0000 33.6648 0.0000
# 6 0.0000 0.0000 0.0000 0.0000 0.0000 18.4720
#
#
#
# Elastic Compliance Matrix: (Units=1/GPa)
#
#
# Indices 1 2 3 4 5 6 
#
# 1 0.013410 -0.004200 -0.003740 0.000000 0.000000 0.000000
# 2 -0.004200 0.029769 -0.009786 0.000000 0.000000 0.000000
# 3 -0.003740 -0.009786 0.011917 0.000000 0.000000 0.000000
# 4 0.000000 0.000000 0.000000 0.394989 0.000000 0.000000
# 5 0.000000 0.000000 0.000000 0.000000 0.029705 0.000000
# 6 0.000000 0.000000 0.000000 0.000000 0.000000 0.054136
#
#
# Mechanical properties :
#
#
# Convention : Reuss Voigt Hill
#
# Bulk Modulus (GPa) = 50.90405 68.19505 59.54955
# Shear Modulus (GPa) = 8.68168 21.44548 15.06358
#
# Velocity S-wave (km/s) = 2.24627 3.53043 2.95886
# Velocity P-wave (km/s) = 6.02600 7.50020 6.80315
#
# Compressibility (1/GPa) = 0.01964480
#
# Stress axis : x y z
#
# Youngs Moduli (GPa) = 74.57042 33.59219 83.91253
#
# Poissons Ratio (x) = 0.14107 0.31383
# Poissons Ratio (y) = 0.31317 0.82118
# Poissons Ratio (z) = 0.27889 0.32874
#
# Static dielectric constant tensor:
#      x y z
#    x 3.233430 0.000000 0.000000 
#    y 0.000000 3.139050 0.000000 
#    z 0.000000 0.000000 3.779870 
# 
# 
# High freq. dielectric constant tensor:
#      x y z
#    x 1.673160 0.000000 0.000000 
#    y 0.000000 1.618570 0.000000 
#    z 0.000000 0.000000 1.674860 
# 
# From -- ./inp_files/22051.got.cif
#   From: 2010.03.12/outbox.cif.g09.slc.cpg/sg51_12_cif.got.tgz:22051.got - 2010.04.16 13:43:02.
