data_PCOD8206523
_publ_section_title
;
Structure prediction by ZEFSAII (Michael W. Deem and Ramdas Pophale) SiO2 
 PCOD8206523
Probable space group: P M M A
;
_chemical_formula_sum "Si O2"
_cell_formula_units_Z 40
_cell_length_a 20.076874
_cell_length_b 9.412615
_cell_length_c 12.461203
_cell_angle_alpha 90.000000
_cell_angle_beta 90.000000
_cell_angle_gamma 90.000000
_cell_volume 2354.866870
_symmetry_space_group_name_H-M "P M M A"
_symmetry_group_IT_number 51
_symmetry_cell_setting 'orthorhombic'
loop_
_space_group_symop_operation_xyz
x,y,z
1/2-x,-y,z
1/2+x,-y,-z
-x,y,-z
-x,-y,-z
1/2+x,y,-z
1/2-x,y,z
x,-y,z
loop_
_atom_site_type_symbol
_atom_site_label
_atom_site_fract_x
_atom_site_fract_y
_atom_site_fract_z
Si Si1 0.423083 0.157129 0.032728
Si Si2 0.957940 0.662789 0.778414
Si Si3 0.071792 0.337568 0.461957
Si Si4 0.325577 0.834468 0.599034
Si Si5 0.590629 0.835062 0.198600
O O1 0.411115 0.266649 0.129919
O O2 0.400980 0.000000 0.071109
O O3 0.500000 0.158240 0.000000
O O4 0.384404 0.201422 0.922970
O O5 0.971051 0.500000 0.810269
O O6 0.919862 0.675040 0.665881
O O7 0.028302 0.740442 0.766583
O O8 0.078737 0.500000 0.500943
O O9 0.130460 0.247255 0.512955
O O10 0.000000 0.278012 0.500000
O O11 0.250000 0.780616 0.589556
O O12 0.349480 0.802784 0.720231
O O13 0.331508 0.000000 0.572393
O O14 0.568050 0.000000 0.203178
#
# Coordination Sequence:
#
# PCOD8206523 Si02
#       5
#     8   8   8   8   8
#     4   8  15  27  43  66  96 127 156 189 239 295
#     4  10  18  28  46  72  99 126 161 205 244 285
#     4  10  20  34  50  72 102 134 170 208 250 301
#     4  10  21  35  52  75 100 129 169 211 252 302
#     4   9  17  30  47  68  98 130 158 196 248 298
#
# _framework density 16.986098999999999
#
# number of rings (size 3 to 8) (size 9 to 14) (size 15 to 20)
#    0.000    2.600    2.000    1.800    0.000    6.000 
#    0.000    0.000    0.000    1.200    0.000    2.800 
#    0.000    0.000    0.000    0.000    0.000    0.000 
#
# Total GULP energy -495866.384529 kJ/mol
# GULP energy per Si atom -12396.659613 kJ/mol
# Density = 1.694744 g / cm^3
# Si number density = 16.986099 Si / 1000 Ang^3
#
#
#
# Elastic Constant Matrix: (Units=GPa)
#
#
# Indices 1 2 3 4 5 6 
#
# 1 89.1471 47.2800 52.0824 0.0000 0.0000 0.0000
# 2 47.2800 84.5632 58.9637 0.0000 0.0000 0.0000
# 3 52.0824 58.9637 120.5055 0.0000 0.0000 0.0000
# 4 0.0000 0.0000 0.0000 30.2393 0.0000 0.0000
# 5 0.0000 0.0000 0.0000 0.0000 19.3056 0.0000
# 6 0.0000 0.0000 0.0000 0.0000 0.0000 15.5216
#
#
#
# Elastic Compliance Matrix: (Units=1/GPa)
#
#
# Indices 1 2 3 4 5 6 
#
# 1 0.017209 -0.006732 -0.004143 0.000000 0.000000 0.000000
# 2 -0.006732 0.020583 -0.007162 0.000000 0.000000 0.000000
# 3 -0.004143 -0.007162 0.013593 0.000000 0.000000 0.000000
# 4 0.000000 0.000000 0.000000 0.033070 0.000000 0.000000
# 5 0.000000 0.000000 0.000000 0.000000 0.051798 0.000000
# 6 0.000000 0.000000 0.000000 0.000000 0.000000 0.064426
#
#
# Mechanical properties :
#
#
# Convention : Reuss Voigt Hill
#
# Bulk Modulus (GPa) = 65.31546 67.87423 66.59485
# Shear Modulus (GPa) = 20.67326 22.07262 21.37294
#
# Velocity S-wave (km/s) = 3.49244 3.60870 3.55105
# Velocity P-wave (km/s) = 7.40261 7.57688 7.49025
#
# Compressibility (1/GPa) = 0.01531031
#
# Stress axis : x y z
#
# Youngs Moduli (GPa) = 58.11002 48.58296 73.56510
#
# Poissons Ratio (x) = 0.32708 0.30481
# Poissons Ratio (y) = 0.39122 0.52685
# Poissons Ratio (z) = 0.24077 0.34794
#
# Static dielectric constant tensor:
#      x y z
#    x 2.809810 0.000000 0.000000 
#    y 0.000000 3.221930 0.000000 
#    z 0.000000 0.000000 3.588450 
# 
# 
# High freq. dielectric constant tensor:
#      x y z
#    x 1.600610 0.000000 0.000000 
#    y 0.000000 1.656650 0.000000 
#    z 0.000000 0.000000 1.672610 
# 
# From -- ./inp_files/17902.got.cif
#   From: 2010.03.12/outbox.cif.g09.slc.cpg/sg51_9_cif.got.tgz:17902.got - 2010.04.16 13:43:02.
