data_PCOD8206817
_publ_section_title
;
Structure prediction by ZEFSAII (Michael W. Deem and Ramdas Pophale) SiO2 
 PCOD8206817
Probable space group: P M M A
;
_chemical_formula_sum "Si O2"
_cell_formula_units_Z 40
_cell_length_a 9.702552
_cell_length_b 18.218135
_cell_length_c 12.722253
_cell_angle_alpha 90.000000
_cell_angle_beta 90.000000
_cell_angle_gamma 90.000000
_cell_volume 2248.816001
_symmetry_space_group_name_H-M "P M M A"
_symmetry_group_IT_number 51
_symmetry_cell_setting 'orthorhombic'
loop_
_space_group_symop_operation_xyz
x,y,z
1/2-x,-y,z
1/2+x,-y,-z
-x,y,-z
-x,-y,-z
1/2+x,y,-z
1/2-x,y,z
x,-y,z
loop_
_atom_site_type_symbol
_atom_site_label
_atom_site_fract_x
_atom_site_fract_y
_atom_site_fract_z
Si Si1 0.517749 0.314704 0.204190
Si Si2 0.250000 0.918960 0.757052
Si Si3 0.903056 0.764727 0.600350
Si Si4 0.979787 0.080123 0.623677
Si Si5 0.750000 0.216527 0.111403
Si Si6 0.250000 0.681762 0.064022
Si Si7 0.750000 0.586337 0.144990
O O1 0.465633 0.293884 0.319330
O O2 0.611060 0.249008 0.161197
O O3 0.386274 0.329584 0.131493
O O4 0.612296 0.388057 0.207426
O O5 0.377421 0.904451 0.681314
O O6 0.250000 0.869256 0.861963
O O7 0.250000 0.000000 0.804655
O O8 0.750000 0.738656 0.569123
O O9 0.889065 0.847613 0.649104
O O10 0.000000 0.765530 0.500000
O O11 0.000000 0.075174 0.500000
O O12 0.917669 0.000000 0.660360
O O13 0.750000 0.235760 0.986876
O O14 0.250000 0.622871 0.970209
O O15 0.750000 0.500000 0.133333
#
# Coordination Sequence:
#
# PCOD8206817 Si02
#       7
#     8   4   8   8   4   4   4
#     4  10  20  36  57  85 115 143 180 224 278 329
#     4  10  18  30  47  71 101 144 193 238 282 333
#     4  11  23  34  56  84 114 150 193 232 275 328
#     4   9  19  30  46  72 108 145 186 238 290 328
#     4  10  18  32  55  73 106 146 188 228 275 334
#     4  10  20  36  57  86 113 146 178 222 275 332
#     4  10  22  38  63  90 116 142 171 222 280 341
#
# _framework density 17.787137999999999
#
# number of rings (size 3 to 8) (size 9 to 14) (size 15 to 20)
#    0.000    2.200    3.000    2.400    8.400    2.000 
#    0.000    0.000    0.000    4.200    0.000    0.000 
#    0.000    0.000    0.000    0.000    0.000    0.000 
#
# Total GULP energy -495559.148529 kJ/mol
# GULP energy per Si atom -12388.978713 kJ/mol
# Density = 1.774665 g / cm^3
# Si number density = 17.787138 Si / 1000 Ang^3
#
#
#
# Elastic Constant Matrix: (Units=GPa)
#
#
# Indices 1 2 3 4 5 6 
#
# 1 139.3338 42.9680 46.0461 0.0000 0.0000 0.0000
# 2 42.9680 117.1027 53.4325 0.0000 0.0000 0.0000
# 3 46.0461 53.4325 72.3939 0.0000 0.0000 0.0000
# 4 0.0000 0.0000 0.0000 17.7238 0.0000 0.0000
# 5 0.0000 0.0000 0.0000 0.0000 27.9290 0.0000
# 6 0.0000 0.0000 0.0000 0.0000 0.0000 6.4309
#
#
#
# Elastic Compliance Matrix: (Units=1/GPa)
#
#
# Indices 1 2 3 4 5 6 
#
# 1 0.009174 -0.001061 -0.005052 0.000000 0.000000 0.000000
# 2 -0.001061 0.012998 -0.008919 0.000000 0.000000 0.000000
# 3 -0.005052 -0.008919 0.023610 0.000000 0.000000 0.000000
# 4 0.000000 0.000000 0.000000 0.056421 0.000000 0.000000
# 5 0.000000 0.000000 0.000000 0.000000 0.035805 0.000000
# 6 0.000000 0.000000 0.000000 0.000000 0.000000 0.155500
#
#
# Mechanical properties :
#
#
# Convention : Reuss Voigt Hill
#
# Bulk Modulus (GPa) = 63.62168 68.19152 65.90660
# Shear Modulus (GPa) = 15.20627 22.84230 19.02428
#
# Velocity S-wave (km/s) = 2.92704 3.58747 3.27395
# Velocity P-wave (km/s) = 6.87528 7.45524 7.17113
#
# Compressibility (1/GPa) = 0.01571791
#
# Stress axis : x y z
#
# Youngs Moduli (GPa) = 109.00727 76.93198 42.35566
#
# Poissons Ratio (x) = 0.08162 0.21397
# Poissons Ratio (y) = 0.11565 0.37778
# Poissons Ratio (z) = 0.55069 0.68617
#
# Static dielectric constant tensor:
#      x y z
#    x 3.417650 0.000000 0.000000 
#    y 0.000000 3.405630 0.000000 
#    z 0.000000 0.000000 3.171430 
# 
# 
# High freq. dielectric constant tensor:
#      x y z
#    x 1.702070 0.000000 0.000000 
#    y 0.000000 1.670100 0.000000 
#    z 0.000000 0.000000 1.663160 
# 
# From -- ./inp_files/14309.got.cif
#   From: 2010.03.12/outbox.cif.g09.slc.cpg/sg51_8_cif.got.tgz:14309.got - 2010.04.16 13:43:02.
