data_PCOD8206712
_publ_section_title
;
Structure prediction by ZEFSAII (Michael W. Deem and Ramdas Pophale) SiO2 
 PCOD8206712
Probable space group: P M M A
;
_chemical_formula_sum "Si O2"
_cell_formula_units_Z 64
_cell_length_a 18.825144
_cell_length_b 9.144153
_cell_length_c 21.077133
_cell_angle_alpha 90.000000
_cell_angle_beta 90.000000
_cell_angle_gamma 90.000000
_cell_volume 3628.217611
_symmetry_space_group_name_H-M "P M M A"
_symmetry_group_IT_number 51
_symmetry_cell_setting 'orthorhombic'
loop_
_space_group_symop_operation_xyz
x,y,z
1/2-x,-y,z
1/2+x,-y,-z
-x,y,-z
-x,-y,-z
1/2+x,y,-z
1/2-x,y,z
x,-y,z
loop_
_atom_site_type_symbol
_atom_site_label
_atom_site_fract_x
_atom_site_fract_y
_atom_site_fract_z
Si Si1 0.871615 0.661277 0.739510
Si Si2 0.527045 0.337435 0.317273
Si Si3 0.570204 0.168072 0.202606
Si Si4 0.917578 0.829629 0.853301
Si Si5 0.579451 0.327178 0.982531
Si Si6 0.671400 0.329277 0.604830
Si Si7 0.033188 0.169285 0.431560
Si Si8 0.332957 0.168241 0.912304
O O1 0.847004 0.500000 0.762261
O O2 0.864709 0.773867 0.797736
O O3 0.825627 0.714850 0.679380
O O4 0.951934 0.654485 0.716380
O O5 0.555635 0.500000 0.333132
O O6 0.580073 0.260265 0.267288
O O7 0.519855 0.246447 0.382062
O O8 0.498599 0.207800 0.164438
O O9 0.635982 0.204798 0.157051
O O10 0.568212 0.000000 0.223426
O O11 0.896990 0.746075 0.917054
O O12 0.904566 0.000000 0.863726
O O13 0.585118 0.500000 0.975348
O O14 0.500000 0.277046 0.000000
O O15 0.632833 0.274303 0.036408
O O16 0.750000 0.298567 0.576161
O O17 0.650618 0.500000 0.599052
O O18 0.612446 0.236653 0.567720
O O19 0.000000 0.193035 0.500000
O O20 0.039366 0.000000 0.412964
O O21 0.250000 0.199878 0.909703
O O22 0.350019 0.000000 0.930225
#
# Coordination Sequence:
#
# PCOD8206712 Si02
#       8
#     8   8   8   8   8   8   8   8
#     4   8  15  28  45  69 100 128 158 200 249 300
#     4   9  17  29  49  75 101 130 164 205 250 296
#     4   9  17  30  50  75 100 127 161 206 256 306
#     4  10  18  29  49  73  97 127 166 212 256 300
#     4  11  22  34  51  74 100 133 175 219 262 314
#     4   9  18  33  53  77 105 139 177 216 260 312
#     4  10  20  33  51  78 111 144 179 219 259 303
#     4  10  21  37  55  75 101 133 169 213 268 324
#
# _framework density 17.639516
#
# number of rings (size 3 to 8) (size 9 to 14) (size 15 to 20)
#    0.000    2.500    1.250    2.250    0.000    6.000 
#    0.000    0.625    0.000    3.000    0.000    1.750 
#    0.000    0.000    0.000    0.000    0.000    0.000 
#
# Total GULP energy -793513.482098 kJ/mol
# GULP energy per Si atom -12398.648158 kJ/mol
# Density = 1.759937 g / cm^3
# Si number density = 17.639516 Si / 1000 Ang^3
#
#
#
# Elastic Constant Matrix: (Units=GPa)
#
#
# Indices 1 2 3 4 5 6 
#
# 1 69.9104 39.5853 39.1371 0.0000 0.0000 0.0000
# 2 39.5853 104.3157 65.5798 0.0000 0.0000 0.0000
# 3 39.1371 65.5798 104.6950 0.0000 0.0000 0.0000
# 4 0.0000 0.0000 0.0000 29.9529 0.0000 0.0000
# 5 0.0000 0.0000 0.0000 0.0000 18.4854 0.0000
# 6 0.0000 0.0000 0.0000 0.0000 0.0000 18.3015
#
#
#
# Elastic Compliance Matrix: (Units=1/GPa)
#
#
# Indices 1 2 3 4 5 6 
#
# 1 0.019347 -0.004611 -0.004344 0.000000 0.000000 0.000000
# 2 -0.004611 0.016912 -0.008870 0.000000 0.000000 0.000000
# 3 -0.004344 -0.008870 0.016732 0.000000 0.000000 0.000000
# 4 0.000000 0.000000 0.000000 0.033386 0.000000 0.000000
# 5 0.000000 0.000000 0.000000 0.000000 0.054097 0.000000
# 6 0.000000 0.000000 0.000000 0.000000 0.000000 0.054640
#
#
# Mechanical properties :
#
#
# Convention : Reuss Voigt Hill
#
# Bulk Modulus (GPa) = 57.66742 63.05839 60.36290
# Shear Modulus (GPa) = 21.13779 22.32255 21.73017
#
# Velocity S-wave (km/s) = 3.46543 3.56123 3.51366
# Velocity P-wave (km/s) = 6.98394 7.26194 7.12430
#
# Compressibility (1/GPa) = 0.01734082
#
# Stress axis : x y z
#
# Youngs Moduli (GPa) = 51.68875 59.12879 59.76706
#
# Poissons Ratio (x) = 0.27262 0.25964
# Poissons Ratio (y) = 0.23831 0.53014
# Poissons Ratio (z) = 0.22454 0.52448
#
# Static dielectric constant tensor:
#      x y z
#    x 3.143290 0.000000 0.000000 
#    y 0.000000 3.417450 0.000000 
#    z 0.000000 0.000000 3.268780 
# 
# 
# High freq. dielectric constant tensor:
#      x y z
#    x 1.648920 0.000000 0.000000 
#    y 0.000000 1.688600 0.000000 
#    z 0.000000 0.000000 1.676650 
# 
# From -- ./inp_files/33913.got.cif
#   From: 2010.03.12/outbox.cif.g09.slc.cpg/sg51_17_cif.got.tgz:33913.got - 2010.04.16 13:43:02.
