data_PCOD8206131
_publ_section_title
;
Structure prediction by ZEFSAII (Michael W. Deem and Ramdas Pophale) SiO2 
 PCOD8206131
Probable space group: P M M A
;
_chemical_formula_sum "Si O2"
_cell_formula_units_Z 44
_cell_length_a 8.908722
_cell_length_b 17.254165
_cell_length_c 15.156074
_cell_angle_alpha 90.000000
_cell_angle_beta 90.000000
_cell_angle_gamma 90.000000
_cell_volume 2329.678924
_symmetry_space_group_name_H-M "P M M A"
_symmetry_group_IT_number 51
_symmetry_cell_setting 'orthorhombic'
loop_
_space_group_symop_operation_xyz
x,y,z
1/2-x,-y,z
1/2+x,-y,-z
-x,y,-z
-x,-y,-z
1/2+x,y,-z
1/2-x,y,z
x,-y,z
loop_
_atom_site_type_symbol
_atom_site_label
_atom_site_fract_x
_atom_site_fract_y
_atom_site_fract_z
Si Si1 0.077145 0.293134 0.419244
Si Si2 0.574366 0.587500 0.089145
Si Si3 0.572355 0.127543 0.412747
Si Si4 0.420177 0.695139 0.224438
Si Si5 0.425662 0.000000 0.095108
Si Si6 0.426168 0.126078 0.235148
O O1 0.250000 0.272243 0.440652
O O2 0.067220 0.336034 0.325314
O O3 0.000000 0.342245 0.500000
O O4 0.976886 0.216611 0.412558
O O5 0.750000 0.590098 0.075519
O O6 0.518539 0.500000 0.109240
O O7 0.531257 0.642902 0.168841
O O8 0.500000 0.619342 0.000000
O O9 0.500000 0.086852 0.500000
O O10 0.750000 0.117417 0.416209
O O11 0.510765 0.091566 0.321130
O O12 0.250000 0.685243 0.190093
O O13 0.470103 0.784711 0.216707
O O14 0.474384 0.923790 0.149994
O O15 0.250000 0.000000 0.078914
O O16 0.500000 0.000000 0.000000
O O17 0.250000 0.119003 0.254938
#
# Coordination Sequence:
#
# PCOD8206131 Si02
#       6
#     8   8   8   8   4   8
#     4   9  16  27  45  72 105 138 171 207 247 294
#     4  10  21  36  54  76 102 132 166 206 255 309
#     4  10  17  27  47  74 103 135 168 207 253 302
#     4   9  18  32  52  78 106 134 168 209 251 298
#     4  10  22  40  59  74  99 136 171 214 262 306
#     4   9  19  36  54  76 104 135 172 212 254 299
#
# _framework density 18.886724000000001
#
# number of rings (size 3 to 8) (size 9 to 14) (size 15 to 20)
#    0.000    2.545    0.000    4.909    0.000    6.182 
#    0.000    2.273    0.000    0.545    0.000    0.000 
#    0.000    0.000    0.000    0.000    0.000    0.000 
#
# Total GULP energy -545324.682957 kJ/mol
# GULP energy per Si atom -12393.742794 kJ/mol
# Density = 1.884374 g / cm^3
# Si number density = 18.886724 Si / 1000 Ang^3
#
#
#
# Elastic Constant Matrix: (Units=GPa)
#
#
# Indices 1 2 3 4 5 6 
#
# 1 99.7591 30.7033 68.9399 0.0000 0.0000 0.0000
# 2 30.7033 58.8155 54.0932 0.0000 0.0000 0.0000
# 3 68.9399 54.0932 173.3948 0.0000 0.0000 0.0000
# 4 0.0000 0.0000 0.0000 -37.0812 0.0000 0.0000
# 5 0.0000 0.0000 0.0000 0.0000 42.6586 0.0000
# 6 0.0000 0.0000 0.0000 0.0000 0.0000 17.9641
#
#
#
# Elastic Compliance Matrix: (Units=1/GPa)
#
#
# Indices 1 2 3 4 5 6 
#
# 1 0.014218 -0.003118 -0.004680 0.000000 0.000000 0.000000
# 2 -0.003118 0.024527 -0.006412 0.000000 0.000000 0.000000
# 3 -0.004680 -0.006412 0.009628 0.000000 0.000000 0.000000
# 4 0.000000 0.000000 0.000000 -0.026968 0.000000 0.000000
# 5 0.000000 0.000000 0.000000 0.000000 0.023442 0.000000
# 6 0.000000 0.000000 0.000000 0.000000 0.000000 0.055667
#
#
# Mechanical properties :
#
#
# Convention : Reuss Voigt Hill
#
# Bulk Modulus (GPa) = 50.11676 71.04913 60.58294
# Shear Modulus (GPa) = 36.87704 16.59049 26.73376
#
# Velocity S-wave (km/s) = 4.42355 2.96703 3.76637
# Velocity P-wave (km/s) = 7.25833 7.03121 7.14567
#
# Compressibility (1/GPa) = 0.01995340
#
# Stress axis : x y z
#
# Youngs Moduli (GPa) = 70.33278 40.77128 103.85955
#
# Poissons Ratio (x) = 0.12711 0.48610
# Poissons Ratio (y) = 0.21927 0.66595
# Poissons Ratio (z) = 0.32918 0.26143
#
# Static dielectric constant tensor:
#      x y z
#    x 3.487440 0.000000 0.000000 
#    y 0.000000 3.160540 0.000000 
#    z 0.000000 0.000000 4.040570 
# 
# 
# High freq. dielectric constant tensor:
#      x y z
#    x 1.736640 0.000000 0.000000 
#    y 0.000000 1.689120 0.000000 
#    z 0.000000 0.000000 1.750570 
# 
# From -- ./inp_files/20966.got.cif
#   From: 2010.03.12/outbox.cif.g09.slc.cpg/sg51_11_cif.got.tgz:20966.got - 2010.04.16 13:43:02.
