data_PCOD8206791
_publ_section_title
;
Structure prediction by ZEFSAII (Michael W. Deem and Ramdas Pophale) SiO2 
 PCOD8206791
Probable space group: P M M A
;
_chemical_formula_sum "Si O2"
_cell_formula_units_Z 64
_cell_length_a 9.267954
_cell_length_b 18.720930
_cell_length_c 23.639820
_cell_angle_alpha 90.000000
_cell_angle_beta 90.000000
_cell_angle_gamma 90.000000
_cell_volume 4101.620304
_symmetry_space_group_name_H-M "P M M A"
_symmetry_group_IT_number 51
_symmetry_cell_setting 'orthorhombic'
loop_
_space_group_symop_operation_xyz
x,y,z
1/2-x,-y,z
1/2+x,-y,-z
-x,y,-z
-x,-y,-z
1/2+x,y,-z
1/2-x,y,z
x,-y,z
loop_
_atom_site_type_symbol
_atom_site_label
_atom_site_fract_x
_atom_site_fract_y
_atom_site_fract_z
Si Si1 0.082089 0.081355 0.737225
Si Si2 0.417562 0.216126 0.443801
Si Si3 0.081687 0.419398 0.723664
Si Si4 0.417104 0.300658 0.333689
Si Si5 0.918456 0.667972 0.165710
Si Si6 0.581235 0.789350 0.777260
Si Si7 0.081118 0.581601 0.944206
Si Si8 0.414138 0.080011 0.377312
O O1 0.250000 0.102117 0.736883
O O2 0.995835 0.133402 0.779638
O O3 0.022033 0.091159 0.674250
O O4 0.058605 0.000000 0.758018
O O5 0.500000 0.238876 0.500000
O O6 0.250000 0.226018 0.456003
O O7 0.468292 0.266884 0.392673
O O8 0.454566 0.134282 0.427441
O O9 0.250000 0.416340 0.710961
O O10 0.023048 0.500000 0.721104
O O11 0.045578 0.388763 0.785400
O O12 0.003645 0.373649 0.675343
O O13 0.250000 0.320356 0.334402
O O14 0.450427 0.244063 0.284236
O O15 0.750000 0.688196 0.165862
O O16 0.967036 0.632008 0.107217
O O17 0.011469 0.739550 0.174440
O O18 0.750000 0.798221 0.789764
O O19 0.250000 0.587835 0.955472
O O20 0.038008 0.500000 0.929720
O O21 0.000000 0.608791 0.000000
O O22 0.250000 0.095810 0.355885
O O23 0.427080 0.000000 0.401905
#
# Coordination Sequence:
#
# PCOD8206791 Si02
#       8
#     8   8   8   8   8   8   8   8
#     4  10  19  29  44  67  92 118 150 185 221 267
#     4  10  20  33  46  64  86 112 145 182 220 266
#     4   9  17  29  47  70  91 112 142 180 223 271
#     4   9  18  32  46  63  88 113 141 176 220 271
#     4   9  17  29  45  67  95 125 155 191 230 265
#     4  10  18  30  47  66  90 120 151 186 228 273
#     4   9  17  29  45  65  94 133 170 200 230 265
#     4   9  17  31  48  63  85 117 147 178 218 262
#
# _framework density 15.603590000000001
#
# number of rings (size 3 to 8) (size 9 to 14) (size 15 to 20)
#    0.000    2.625    1.250    1.125    0.000    4.750 
#    0.000    0.000    0.000    2.625    0.000    0.000 
#    0.000    0.500    0.000    1.625    0.000    2.000 
#
# Total GULP energy -793633.077791 kJ/mol
# GULP energy per Si atom -12400.516840 kJ/mol
# Density = 1.556808 g / cm^3
# Si number density = 15.603590 Si / 1000 Ang^3
#
#
#
# Elastic Constant Matrix: (Units=GPa)
#
#
# Indices 1 2 3 4 5 6 
#
# 1 66.1548 52.3948 43.3705 0.0000 0.0000 0.0000
# 2 52.3948 103.8818 55.4465 0.0000 0.0000 0.0000
# 3 43.3705 55.4465 99.0180 0.0000 0.0000 0.0000
# 4 0.0000 0.0000 0.0000 24.1083 0.0000 0.0000
# 5 0.0000 0.0000 0.0000 0.0000 25.2639 0.0000
# 6 0.0000 0.0000 0.0000 0.0000 0.0000 26.5703
#
#
#
# Elastic Compliance Matrix: (Units=1/GPa)
#
#
# Indices 1 2 3 4 5 6 
#
# 1 0.027540 -0.010629 -0.006111 0.000000 0.000000 0.000000
# 2 -0.010629 0.017832 -0.005330 0.000000 0.000000 0.000000
# 3 -0.006111 -0.005330 0.015760 0.000000 0.000000 0.000000
# 4 0.000000 0.000000 0.000000 0.041479 0.000000 0.000000
# 5 0.000000 0.000000 0.000000 0.000000 0.039582 0.000000
# 6 0.000000 0.000000 0.000000 0.000000 0.000000 0.037636
#
#
# Mechanical properties :
#
#
# Convention : Reuss Voigt Hill
#
# Bulk Modulus (GPa) = 58.84647 63.49758 61.17203
# Shear Modulus (GPa) = 21.77374 23.04467 22.40921
#
# Velocity S-wave (km/s) = 3.73960 3.84719 3.79378
# Velocity P-wave (km/s) = 7.51275 7.77927 7.64717
#
# Compressibility (1/GPa) = 0.01699337
#
# Stress axis : x y z
#
# Youngs Moduli (GPa) = 36.31018 56.07930 63.45027
#
# Poissons Ratio (x) = 0.59605 0.38776
# Poissons Ratio (y) = 0.38593 0.33817
# Poissons Ratio (z) = 0.22190 0.29889
#
# Static dielectric constant tensor:
#      x y z
#    x 2.981800 0.000000 0.000000 
#    y 0.000000 3.106870 0.000000 
#    z 0.000000 0.000000 2.736930 
# 
# 
# High freq. dielectric constant tensor:
#      x y z
#    x 1.602480 0.000000 0.000000 
#    y 0.000000 1.597450 0.000000 
#    z 0.000000 0.000000 1.564270 
# 
# From -- ./inp_files/35087.got.cif
#   From: 2010.03.12/outbox.cif.g09.slc.cpg/sg51_18_cif.got.tgz:35087.got - 2010.04.16 13:43:02.
