data_PCOD8206050
_publ_section_title
;
Structure prediction by ZEFSAII (Michael W. Deem and Ramdas Pophale) SiO2 
 PCOD8206050
Probable space group: P M M A
;
_chemical_formula_sum "Si O2"
_cell_formula_units_Z 64
_cell_length_a 14.624442
_cell_length_b 9.184740
_cell_length_c 28.347873
_cell_angle_alpha 90.000000
_cell_angle_beta 90.000000
_cell_angle_gamma 90.000000
_cell_volume 3807.734419
_symmetry_space_group_name_H-M "P M M A"
_symmetry_group_IT_number 51
_symmetry_cell_setting 'orthorhombic'
loop_
_space_group_symop_operation_xyz
x,y,z
1/2-x,-y,z
1/2+x,-y,-z
-x,y,-z
-x,-y,-z
1/2+x,y,-z
1/2-x,y,z
x,-y,z
loop_
_atom_site_type_symbol
_atom_site_label
_atom_site_fract_x
_atom_site_fract_y
_atom_site_fract_z
Si Si1 0.354308 0.668975 0.470494
Si Si2 0.644545 0.330932 0.970547
Si Si3 0.850281 0.327262 0.425338
Si Si4 0.852133 0.167198 0.065698
Si Si5 0.648683 0.827302 0.802255
Si Si6 0.536075 0.830559 0.889913
Si Si7 0.465357 0.672633 0.382735
Si Si8 0.644837 0.829383 0.696657
O O1 0.250000 0.696945 0.456087
O O2 0.378454 0.500000 0.472391
O O3 0.374436 0.736251 0.522399
O O4 0.416127 0.738339 0.429331
O O5 0.750000 0.303128 0.957893
O O6 0.619898 0.500000 0.971844
O O7 0.583647 0.254025 0.931861
O O8 0.620807 0.265937 0.021487
O O9 0.750000 0.269384 0.408934
O O10 0.845932 0.500000 0.430589
O O11 0.927531 0.283069 0.387488
O O12 0.750000 0.205758 0.084581
O O13 0.926365 0.195104 0.107158
O O14 0.856238 0.000000 0.048848
O O15 0.750000 0.769660 0.816544
O O16 0.573817 0.770086 0.839892
O O17 0.623546 0.773471 0.749736
O O18 0.650791 0.000000 0.801209
O O19 0.560895 0.000000 0.895361
O O20 0.451699 0.500000 0.378496
O O21 0.424761 0.744677 0.336437
O O22 0.750000 0.793421 0.683523
O O23 0.626145 0.000000 0.691564
#
# Coordination Sequence:
#
# PCOD8206050 Si02
#       8
#     8   8   8   8   8   8   8   8
#     4   8  13  21  35  59  89 114 138 173 214 253
#     4  10  20  31  43  64  95 125 148 173 211 258
#     4   8  14  24  38  59  88 119 147 175 210 252
#     4   9  18  31  45  64  91 119 147 180 214 247
#     4   8  15  29  48  67  85 108 140 175 213 262
#     4  10  18  29  49  70  85 110 149 186 216 248
#     4  10  17  25  43  68  88 109 143 184 217 246
#     4   9  18  32  47  63  87 117 142 167 211 271
#
# _framework density 16.807894999999998
#
# number of rings (size 3 to 8) (size 9 to 14) (size 15 to 20)
#    0.000    3.000    0.000    3.375    0.000    5.500 
#    0.000    0.625    0.000    3.375    0.000    3.500 
#    0.000    0.000    0.000    0.000    0.000    0.000 
#
# Total GULP energy -793131.536049 kJ/mol
# GULP energy per Si atom -12392.680251 kJ/mol
# Density = 1.676964 g / cm^3
# Si number density = 16.807895 Si / 1000 Ang^3
#
#
#
# Elastic Constant Matrix: (Units=GPa)
#
#
# Indices 1 2 3 4 5 6 
#
# 1 120.0395 33.0326 91.6820 0.0000 0.0000 0.0000
# 2 33.0326 31.7501 27.5797 0.0000 0.0000 0.0000
# 3 91.6820 27.5797 110.7897 0.0000 0.0000 0.0000
# 4 0.0000 0.0000 0.0000 31.0648 0.0000 0.0000
# 5 0.0000 0.0000 0.0000 0.0000 31.4730 0.0000
# 6 0.0000 0.0000 0.0000 0.0000 0.0000 16.4646
#
#
#
# Elastic Compliance Matrix: (Units=1/GPa)
#
#
# Indices 1 2 3 4 5 6 
#
# 1 0.025012 -0.010262 -0.018144 0.000000 0.000000 0.000000
# 2 -0.010262 0.044396 -0.002560 0.000000 0.000000 0.000000
# 3 -0.018144 -0.002560 0.024678 0.000000 0.000000 0.000000
# 4 0.000000 0.000000 0.000000 0.032191 0.000000 0.000000
# 5 0.000000 0.000000 0.000000 0.000000 0.031773 0.000000
# 6 0.000000 0.000000 0.000000 0.000000 0.000000 0.060736
#
#
# Mechanical properties :
#
#
# Convention : Reuss Voigt Hill
#
# Bulk Modulus (GPa) = 31.09926 63.01864 47.05895
# Shear Modulus (GPa) = 17.15650 23.15281 20.15465
#
# Velocity S-wave (km/s) = 3.19837 3.71549 3.46659
# Velocity P-wave (km/s) = 5.67295 7.48207 6.63942
#
# Compressibility (1/GPa) = 0.03215511
#
# Stress axis : x y z
#
# Youngs Moduli (GPa) = 39.98101 22.52459 40.52239
#
# Poissons Ratio (x) = 0.23114 0.73522
# Poissons Ratio (y) = 0.41028 0.10373
# Poissons Ratio (z) = 0.72540 0.05766
#
# Static dielectric constant tensor:
#      x y z
#    x 3.453530 0.000000 0.000000 
#    y 0.000000 2.781600 0.000000 
#    z 0.000000 0.000000 3.376230 
# 
# 
# High freq. dielectric constant tensor:
#      x y z
#    x 1.655300 0.000000 0.000000 
#    y 0.000000 1.605730 0.000000 
#    z 0.000000 0.000000 1.630230 
# 
# From -- ./inp_files/37797.got.cif
#   From: 2010.03.12/outbox.cif.g09.slc.cpg/sg51_19_cif.got.tgz:37797.got - 2010.04.16 13:43:02.
