data_PCOD8206218
_publ_section_title
;
Structure prediction by ZEFSAII (Michael W. Deem and Ramdas Pophale) SiO2 
 PCOD8206218
Probable space group: P M M A
;
_chemical_formula_sum "Si O2"
_cell_formula_units_Z 32
_cell_length_a 16.388487
_cell_length_b 12.168417
_cell_length_c 7.770009
_cell_angle_alpha 90.000000
_cell_angle_beta 90.000000
_cell_angle_gamma 90.000000
_cell_volume 1549.510298
_symmetry_space_group_name_H-M "P M M A"
_symmetry_group_IT_number 51
_symmetry_cell_setting 'orthorhombic'
loop_
_space_group_symop_operation_xyz
x,y,z
1/2-x,-y,z
1/2+x,-y,-z
-x,y,-z
-x,-y,-z
1/2+x,y,-z
1/2-x,y,z
x,-y,z
loop_
_atom_site_type_symbol
_atom_site_label
_atom_site_fract_x
_atom_site_fract_y
_atom_site_fract_z
Si Si1 0.347232 0.376953 0.112033
Si Si2 0.154007 0.222255 0.805587
Si Si3 0.153723 0.768858 0.421593
Si Si4 0.592180 0.000000 0.059890
Si Si5 0.843349 0.000000 0.691218
O O1 0.250000 0.381142 0.113904
O O2 0.383260 0.500000 0.103206
O O3 0.381815 0.318857 0.284928
O O4 0.378054 0.309842 0.945207
O O5 0.250000 0.201549 0.826571
O O6 0.132933 0.268914 0.615525
O O7 0.108626 0.106819 0.825559
O O8 0.250000 0.776219 0.391031
O O9 0.114828 0.889423 0.384031
O O10 0.500000 0.000000 0.000000
O O11 0.652124 0.000000 0.897135
O O12 0.750000 0.000000 0.632493
#
# Coordination Sequence:
#
# PCOD8206218 Si02
#       5
#     8   8   8   4   4
#     4   9  17  29  49  79 109 135 168 214 259 299
#     4  10  19  34  55  77 106 141 173 208 259 316
#     4   9  17  29  51  79 103 132 171 210 252 307
#     4  12  23  34  52  79 107 136 174 220 265 309
#     4  10  17  32  55  75 100 136 170 206 261 315
#
# _framework density 20.651685000000001
#
# number of rings (size 3 to 8) (size 9 to 14) (size 15 to 20)
#    0.000    2.250    2.500    1.875    0.000    3.000 
#    0.000    7.500    0.000    0.750    0.000    1.750 
#    0.000    0.000    0.000    0.000    0.000    0.000 
#
# Total GULP energy -396738.297492 kJ/mol
# GULP energy per Si atom -12398.071797 kJ/mol
# Density = 2.060468 g / cm^3
# Si number density = 20.651685 Si / 1000 Ang^3
#
#
#
# Elastic Constant Matrix: (Units=GPa)
#
#
# Indices 1 2 3 4 5 6 
#
# 1 11.2107 10.7434 4.3607 0.0000 0.0000 0.0000
# 2 10.7434 191.9108 93.6207 0.0000 0.0000 0.0000
# 3 4.3607 93.6207 180.3900 0.0000 0.0000 0.0000
# 4 0.0000 0.0000 0.0000 20.4953 0.0000 0.0000
# 5 0.0000 0.0000 0.0000 0.0000 4.3322 0.0000
# 6 0.0000 0.0000 0.0000 0.0000 0.0000 2.9736
#
#
#
# Elastic Compliance Matrix: (Units=1/GPa)
#
#
# Indices 1 2 3 4 5 6 
#
# 1 0.094308 -0.005580 0.000616 0.000000 0.000000 0.000000
# 2 -0.005580 0.007307 -0.003658 0.000000 0.000000 0.000000
# 3 0.000616 -0.003658 0.007427 0.000000 0.000000 0.000000
# 4 0.000000 0.000000 0.000000 0.048792 0.000000 0.000000
# 5 0.000000 0.000000 0.000000 0.000000 0.230832 0.000000
# 6 0.000000 0.000000 0.000000 0.000000 0.000000 0.336294
#
#
# Mechanical properties :
#
#
# Convention : Reuss Voigt Hill
#
# Bulk Modulus (GPa) = 10.89328 66.77347 38.83338
# Shear Modulus (GPa) = 6.46996 23.87932 15.17464
#
# Velocity S-wave (km/s) = 1.77192 3.40411 2.71364
# Velocity P-wave (km/s) = 3.07774 6.91766 5.35381
#
# Compressibility (1/GPa) = 0.09179969
#
# Stress axis : x y z
#
# Youngs Moduli (GPa) = 10.60352 136.84687 134.64548
#
# Poissons Ratio (x) = 0.76362 -0.08297
# Poissons Ratio (y) = 0.05917 0.49248
# Poissons Ratio (z) = -0.00653 0.50053
#
# Static dielectric constant tensor:
#      x y z
#    x 3.008050 0.000000 0.000000 
#    y 0.000000 3.980860 0.000000 
#    z 0.000000 0.000000 3.910100 
# 
# 
# High freq. dielectric constant tensor:
#      x y z
#    x 1.739320 0.000000 0.000000 
#    y 0.000000 1.807530 0.000000 
#    z 0.000000 0.000000 1.821570 
# 
# From -- ./inp_files/9190.got.cif
#   From: 2010.03.12/outbox.cif.g09.slc.cpg/sg51_5_cif.got.tgz:9190.got - 2010.04.16 13:43:02.
