data_PCOD8206975
_publ_section_title
;
Structure prediction by ZEFSAII (Michael W. Deem and Ramdas Pophale) SiO2 
 PCOD8206975
Probable space group: P M M A
;
_chemical_formula_sum "Si O2"
_cell_formula_units_Z 64
_cell_length_a 19.314152
_cell_length_b 8.970400
_cell_length_c 21.351813
_cell_angle_alpha 90.000000
_cell_angle_beta 90.000000
_cell_angle_gamma 90.000000
_cell_volume 3699.322648
_symmetry_space_group_name_H-M "P M M A"
_symmetry_group_IT_number 51
_symmetry_cell_setting 'orthorhombic'
loop_
_space_group_symop_operation_xyz
x,y,z
1/2-x,-y,z
1/2+x,-y,-z
-x,y,-z
-x,-y,-z
1/2+x,y,-z
1/2-x,y,z
x,-y,z
loop_
_atom_site_type_symbol
_atom_site_label
_atom_site_fract_x
_atom_site_fract_y
_atom_site_fract_z
Si Si1 0.028158 0.822961 0.066972
Si Si2 0.330217 0.172813 0.462085
Si Si3 0.448304 0.177610 0.691716
Si Si4 0.137825 0.663314 0.226513
Si Si5 0.175667 0.175060 0.108950
Si Si6 0.673861 0.823276 0.396576
Si Si7 0.480333 0.666417 0.814162
Si Si8 0.586514 0.675511 0.644699
O O1 0.107797 0.761631 0.073230
O O2 0.978384 0.751208 0.119237
O O3 0.025243 0.000000 0.075100
O O4 0.000000 0.771096 0.000000
O O5 0.250000 0.200325 0.445507
O O6 0.345721 0.225321 0.532938
O O7 0.379068 0.273777 0.419471
O O8 0.349487 0.000000 0.452156
O O9 0.382539 0.236234 0.652324
O O10 0.437995 0.242439 0.761755
O O11 0.515769 0.236045 0.655962
O O12 0.452328 0.000000 0.696044
O O13 0.171452 0.500000 0.216866
O O14 0.176632 0.778931 0.181946
O O15 0.141281 0.712124 0.299244
O O16 0.057835 0.656705 0.209421
O O17 0.250000 0.227987 0.079317
O O18 0.171283 0.000000 0.106523
O O19 0.750000 0.759697 0.378579
O O20 0.676683 0.000000 0.394910
O O21 0.449112 0.500000 0.822219
O O22 0.569812 0.500000 0.643250
#
# Coordination Sequence:
#
# PCOD8206975 Si02
#       8
#     8   8   8   8   8   8   8   8
#     4   9  17  30  49  71  94 124 161 192 221 268
#     4   9  18  33  50  66  88 121 161 202 242 289
#     4  10  18  30  52  75  94 120 156 199 242 284
#     4   8  16  29  42  58  84 119 151 178 214 264
#     4   9  17  28  43  65  91 116 146 189 232 263
#     4   8  16  32  52  72  92 117 155 203 251 296
#     4   9  17  30  47  69  97 122 147 184 230 277
#     4  10  20  32  45  66  98 129 157 192 237 288
#
# _framework density 17.300464000000002
#
# number of rings (size 3 to 8) (size 9 to 14) (size 15 to 20)
#    0.000    3.000    0.000    2.625    0.000    5.250 
#    0.000    6.250    0.000    3.750    0.000    3.500 
#    0.000    0.000    0.000    0.000    0.000    0.000 
#
# Total GULP energy -793108.738582 kJ/mol
# GULP energy per Si atom -12392.324040 kJ/mol
# Density = 1.726109 g / cm^3
# Si number density = 17.300464 Si / 1000 Ang^3
#
#
#
# Elastic Constant Matrix: (Units=GPa)
#
#
# Indices 1 2 3 4 5 6 
#
# 1 83.5366 27.7524 66.1269 0.0000 0.0000 0.0000
# 2 27.7524 49.5669 38.3176 0.0000 0.0000 0.0000
# 3 66.1269 38.3176 137.1936 0.0000 0.0000 0.0000
# 4 0.0000 0.0000 0.0000 16.1597 0.0000 0.0000
# 5 0.0000 0.0000 0.0000 0.0000 16.0185 0.0000
# 6 0.0000 0.0000 0.0000 0.0000 0.0000 5.4415
#
#
#
# Elastic Compliance Matrix: (Units=1/GPa)
#
#
# Indices 1 2 3 4 5 6 
#
# 1 0.020224 -0.004831 -0.008399 0.000000 0.000000 0.000000
# 2 -0.004831 0.026884 -0.005180 0.000000 0.000000 0.000000
# 3 -0.008399 -0.005180 0.012784 0.000000 0.000000 0.000000
# 4 0.000000 0.000000 0.000000 0.061882 0.000000 0.000000
# 5 0.000000 0.000000 0.000000 0.000000 0.062428 0.000000
# 6 0.000000 0.000000 0.000000 0.000000 0.000000 0.183773
#
#
# Mechanical properties :
#
#
# Convention : Reuss Voigt Hill
#
# Bulk Modulus (GPa) = 43.34135 59.41008 51.37572
# Shear Modulus (GPa) = 12.12165 16.73063 14.42614
#
# Velocity S-wave (km/s) = 2.64986 3.11314 2.89079
# Velocity P-wave (km/s) = 5.87102 6.88018 6.39553
#
# Compressibility (1/GPa) = 0.02307265
#
# Stress axis : x y z
#
# Youngs Moduli (GPa) = 49.44622 37.19684 78.22331
#
# Poissons Ratio (x) = 0.17969 0.65697
# Poissons Ratio (y) = 0.23886 0.40521
# Poissons Ratio (z) = 0.41528 0.19269
#
# Static dielectric constant tensor:
#      x y z
#    x 3.370390 0.000000 0.000000 
#    y 0.000000 3.151240 0.000000 
#    z 0.000000 0.000000 3.355110 
# 
# 
# High freq. dielectric constant tensor:
#      x y z
#    x 1.649270 0.000000 0.000000 
#    y 0.000000 1.658340 0.000000 
#    z 0.000000 0.000000 1.660790 
# 
# From -- ./inp_files/33990.got.cif
#   From: 2010.03.12/outbox.cif.g09.slc.cpg/sg51_17_cif.got.tgz:33990.got - 2010.04.16 13:43:02.
