data_PCOD8206093
_publ_section_title
;
Structure prediction by ZEFSAII (Michael W. Deem and Ramdas Pophale) SiO2 
 PCOD8206093
Probable space group: P M M A
;
_chemical_formula_sum "Si O2"
_cell_formula_units_Z 64
_cell_length_a 22.339279
_cell_length_b 8.859789
_cell_length_c 20.255066
_cell_angle_alpha 90.000000
_cell_angle_beta 90.000000
_cell_angle_gamma 90.000000
_cell_volume 4008.908961
_symmetry_space_group_name_H-M "P M M A"
_symmetry_group_IT_number 51
_symmetry_cell_setting 'orthorhombic'
loop_
_space_group_symop_operation_xyz
x,y,z
1/2-x,-y,z
1/2+x,-y,-z
-x,y,-z
-x,-y,-z
1/2+x,y,-z
1/2-x,y,z
x,-y,z
loop_
_atom_site_type_symbol
_atom_site_label
_atom_site_fract_x
_atom_site_fract_y
_atom_site_fract_z
Si Si1 0.109029 0.176121 0.745162
Si Si2 0.083458 0.820198 0.968715
Si Si3 0.033636 0.679565 0.091735
Si Si4 0.528433 0.824040 0.773719
Si Si5 0.570259 0.169930 0.514116
Si Si6 0.549317 0.329684 0.642918
Si Si7 0.409105 0.330511 0.614491
Si Si8 0.183192 0.179054 0.868533
O O1 0.125088 0.256496 0.676315
O O2 0.152879 0.241468 0.801539
O O3 0.041758 0.211155 0.767785
O O4 0.118292 0.000000 0.733567
O O5 0.144852 0.773304 0.932475
O O6 0.028826 0.760506 0.924651
O O7 0.077119 0.000000 0.976589
O O8 0.083307 0.738659 0.039800
O O9 0.026955 0.500000 0.086850
O O10 0.054116 0.730013 0.164483
O O11 0.562810 0.767779 0.708309
O O12 0.541292 0.000000 0.784130
O O13 0.500000 0.174690 0.500000
O O14 0.585264 0.259965 0.581166
O O15 0.606085 0.242634 0.452949
O O16 0.592998 0.000000 0.523095
O O17 0.571495 0.500000 0.654292
O O18 0.479441 0.324793 0.627361
O O19 0.385862 0.500000 0.606245
O O20 0.250000 0.246302 0.875550
O O21 0.184666 0.000000 0.863616
#
# Coordination Sequence:
#
# PCOD8206093 Si02
#       8
#     8   8   8   8   8   8   8   8
#     4   9  16  27  41  58  78 103 137 175 211 253
#     4  10  18  31  47  64  83 108 140 176 216 263
#     4  11  20  29  43  63  86 111 139 178 219 259
#     4  10  17  27  41  59  80 109 142 175 212 254
#     4   9  15  23  34  49  70 101 137 171 201 238
#     4   9  16  24  34  52  77 105 134 169 207 246
#     4   9  16  24  35  51  72 101 134 172 208 241
#     4   9  17  30  48  67  85 108 141 181 221 261
#
# _framework density 15.964442999999999
#
# number of rings (size 3 to 8) (size 9 to 14) (size 15 to 20)
#    0.000    2.500    1.250    3.750    0.000    5.000 
#    0.000    0.000    0.000    3.375    0.000    0.000 
#    0.000    0.000    0.000    1.125    0.000   23.375 
#
# Total GULP energy -793458.543569 kJ/mol
# GULP energy per Si atom -12397.789743 kJ/mol
# Density = 1.592811 g / cm^3
# Si number density = 15.964443 Si / 1000 Ang^3
#
#
#
# Elastic Constant Matrix: (Units=GPa)
#
#
# Indices 1 2 3 4 5 6 
#
# 1 42.3256 17.8325 37.5527 0.0000 0.0000 0.0000
# 2 17.8325 91.1050 53.5448 0.0000 0.0000 0.0000
# 3 37.5527 53.5448 147.5169 0.0000 0.0000 0.0000
# 4 0.0000 0.0000 0.0000 29.1385 0.0000 0.0000
# 5 0.0000 0.0000 0.0000 0.0000 12.7908 0.0000
# 6 0.0000 0.0000 0.0000 0.0000 0.0000 5.0361
#
#
#
# Elastic Compliance Matrix: (Units=1/GPa)
#
#
# Indices 1 2 3 4 5 6 
#
# 1 0.030751 -0.001803 -0.007174 0.000000 0.000000 0.000000
# 2 -0.001803 0.014059 -0.004644 0.000000 0.000000 0.000000
# 3 -0.007174 -0.004644 0.010291 0.000000 0.000000 0.000000
# 4 0.000000 0.000000 0.000000 0.034319 0.000000 0.000000
# 5 0.000000 0.000000 0.000000 0.000000 0.078181 0.000000
# 6 0.000000 0.000000 0.000000 0.000000 0.000000 0.198568
#
#
# Mechanical properties :
#
#
# Convention : Reuss Voigt Hill
#
# Bulk Modulus (GPa) = 35.89506 55.42306 45.65906
# Shear Modulus (GPa) = 12.41635 20.86091 16.63863
#
# Velocity S-wave (km/s) = 2.79184 3.61877 3.23186
# Velocity P-wave (km/s) = 5.73809 7.22859 6.52604
#
# Compressibility (1/GPa) = 0.02785899
#
# Stress axis : x y z
#
# Youngs Moduli (GPa) = 32.51962 71.13080 97.17535
#
# Poissons Ratio (x) = 0.12824 0.69710
# Poissons Ratio (y) = 0.05863 0.45128
# Poissons Ratio (z) = 0.23328 0.33033
#
# Static dielectric constant tensor:
#      x y z
#    x 2.543280 0.000000 0.000000 
#    y 0.000000 3.056640 0.000000 
#    z 0.000000 0.000000 3.319710 
# 
# 
# High freq. dielectric constant tensor:
#      x y z
#    x 1.527700 0.000000 0.000000 
#    y 0.000000 1.619210 0.000000 
#    z 0.000000 0.000000 1.632400 
# 
# From -- ./inp_files/34122.got.cif
#   From: 2010.03.12/outbox.cif.g09.slc.cpg/sg51_18_cif.got.tgz:34122.got - 2010.04.16 13:43:02.
