data_PCOD8206704
_publ_section_title
;
Structure prediction by ZEFSAII (Michael W. Deem and Ramdas Pophale) SiO2 
 PCOD8206704
Probable space group: P M M A
;
_chemical_formula_sum "Si O2"
_cell_formula_units_Z 56
_cell_length_a 19.139640
_cell_length_b 17.376184
_cell_length_c 9.438033
_cell_angle_alpha 90.000000
_cell_angle_beta 90.000000
_cell_angle_gamma 90.000000
_cell_volume 3138.843503
_symmetry_space_group_name_H-M "P M M A"
_symmetry_group_IT_number 51
_symmetry_cell_setting 'orthorhombic'
loop_
_space_group_symop_operation_xyz
x,y,z
1/2-x,-y,z
1/2+x,-y,-z
-x,y,-z
-x,-y,-z
1/2+x,y,-z
1/2-x,y,z
x,-y,z
loop_
_atom_site_type_symbol
_atom_site_label
_atom_site_fract_x
_atom_site_fract_y
_atom_site_fract_z
Si Si1 0.447281 0.415311 0.605411
Si Si2 0.069667 0.090172 0.583847
Si Si3 0.918011 0.249256 0.853063
Si Si4 0.572584 0.208310 0.172943
Si Si5 0.170896 0.817155 0.396574
Si Si6 0.954449 0.414570 0.866333
Si Si7 0.671466 0.696066 0.361226
O O1 0.500000 0.369241 0.500000
O O2 0.434400 0.500000 0.541506
O O3 0.484737 0.417654 0.753320
O O4 0.370198 0.381478 0.611177
O O5 0.073789 0.127390 0.741512
O O6 0.133681 0.114365 0.482672
O O7 0.000000 0.115541 0.500000
O O8 0.072610 0.000000 0.610342
O O9 0.866562 0.202820 0.751031
O O10 0.900197 0.342000 0.853252
O O11 0.997414 0.246078 0.795831
O O12 0.913258 0.204513 0.004141
O O13 0.634643 0.259411 0.234053
O O14 0.250000 0.843449 0.363003
O O15 0.170089 0.741915 0.492754
O O16 0.917111 0.500000 0.874246
O O17 0.000000 0.394281 0.000000
O O18 0.750000 0.676582 0.313441
#
# Coordination Sequence:
#
# PCOD8206704 Si02
#       7
#     8   8   8   8   8   8   8
#     4  10  19  30  47  72  99 136 180 226 279 327
#     4  10  20  37  60  85 111 143 180 221 272 331
#     4  11  18  34  55  81 113 145 187 234 274 321
#     4  10  20  33  55  83 108 142 182 227 273 323
#     4  10  22  36  56  82 107 144 183 222 277 336
#     4  10  18  29  48  76 107 142 188 232 272 317
#     4  10  20  33  50  75 103 138 182 225 275 331
#
# _framework density 17.840966000000002
#
# number of rings (size 3 to 8) (size 9 to 14) (size 15 to 20)
#    0.000    1.857    4.286    0.857    0.000    1.143 
#    0.000    2.143    0.000    1.286    0.000    0.000 
#    0.000    0.000    0.000    0.000    0.000    0.000 
#
# Total GULP energy -693864.713574 kJ/mol
# GULP energy per Si atom -12390.441314 kJ/mol
# Density = 1.780036 g / cm^3
# Si number density = 17.840966 Si / 1000 Ang^3
#
#
#
# Elastic Constant Matrix: (Units=GPa)
#
#
# Indices 1 2 3 4 5 6 
#
# 1 101.5616 39.2886 55.8031 0.0000 0.0000 0.0000
# 2 39.2886 92.8410 34.9539 0.0000 0.0000 0.0000
# 3 55.8031 34.9539 94.8653 0.0000 0.0000 0.0000
# 4 0.0000 0.0000 0.0000 16.6698 0.0000 0.0000
# 5 0.0000 0.0000 0.0000 0.0000 20.8610 0.0000
# 6 0.0000 0.0000 0.0000 0.0000 0.0000 19.6609
#
#
#
# Elastic Compliance Matrix: (Units=1/GPa)
#
#
# Indices 1 2 3 4 5 6 
#
# 1 0.015540 -0.003640 -0.007800 0.000000 0.000000 0.000000
# 2 -0.003640 0.013358 -0.002781 0.000000 0.000000 0.000000
# 3 -0.007800 -0.002781 0.016154 0.000000 0.000000 0.000000
# 4 0.000000 0.000000 0.000000 0.059989 0.000000 0.000000
# 5 0.000000 0.000000 0.000000 0.000000 0.047936 0.000000
# 6 0.000000 0.000000 0.000000 0.000000 0.000000 0.050862
#
#
# Mechanical properties :
#
#
# Convention : Reuss Voigt Hill
#
# Bulk Modulus (GPa) = 60.20079 61.03991 60.62035
# Shear Modulus (GPa) = 21.02441 22.05315 21.53878
#
# Velocity S-wave (km/s) = 3.43656 3.51963 3.47834
# Velocity P-wave (km/s) = 7.04009 7.12774 7.08405
#
# Compressibility (1/GPa) = 0.01661108
#
# Stress axis : x y z
#
# Youngs Moduli (GPa) = 64.35012 74.85951 61.90296
#
# Poissons Ratio (x) = 0.27245 0.48285
# Poissons Ratio (y) = 0.23421 0.17216
# Poissons Ratio (z) = 0.50194 0.20819
#
# Static dielectric constant tensor:
#      x y z
#    x 3.348900 0.000000 0.000000 
#    y 0.000000 3.355570 0.000000 
#    z 0.000000 0.000000 3.425000 
# 
# 
# High freq. dielectric constant tensor:
#      x y z
#    x 1.668150 0.000000 0.000000 
#    y 0.000000 1.682050 0.000000 
#    z 0.000000 0.000000 1.701330 
# 
# From -- ./inp_files/11149.got.cif
#   From: 2010.03.12/outbox.cif.g09.slc.cpg/sg51_6_cif.got.tgz:11149.got - 2010.04.16 13:43:02.
