data_PCOD8206469
_publ_section_title
;
Structure prediction by ZEFSAII (Michael W. Deem and Ramdas Pophale) SiO2 
 PCOD8206469
Probable space group: P M M A
;
_chemical_formula_sum "Si O2"
_cell_formula_units_Z 48
_cell_length_a 20.655172
_cell_length_b 9.426554
_cell_length_c 15.112722
_cell_angle_alpha 90.000000
_cell_angle_beta 90.000000
_cell_angle_gamma 90.000000
_cell_volume 2942.554187
_symmetry_space_group_name_H-M "P M M A"
_symmetry_group_IT_number 51
_symmetry_cell_setting 'orthorhombic'
loop_
_space_group_symop_operation_xyz
x,y,z
1/2-x,-y,z
1/2+x,-y,-z
-x,y,-z
-x,-y,-z
1/2+x,y,-z
1/2-x,y,z
x,-y,z
loop_
_atom_site_type_symbol
_atom_site_label
_atom_site_fract_x
_atom_site_fract_y
_atom_site_fract_z
Si Si1 0.643356 0.663793 0.199018
Si Si2 0.520636 0.161873 0.224877
Si Si3 0.457723 0.165383 0.578074
Si Si4 0.059054 0.162564 0.060265
Si Si5 0.820385 0.165337 0.364460
Si Si6 0.321650 0.338700 0.997903
O O1 0.636842 0.500000 0.227529
O O2 0.572898 0.731294 0.185186
O O3 0.682495 0.748192 0.273507
O O4 0.680755 0.680866 0.107452
O O5 0.507751 0.199462 0.327976
O O6 0.456873 0.179683 0.164801
O O7 0.546654 0.000000 0.218139
O O8 0.500000 0.239995 0.500000
O O9 0.382379 0.219502 0.578095
O O10 0.456294 0.000000 0.558482
O O11 0.070535 0.000000 0.033654
O O12 0.125646 0.242501 0.045043
O O13 0.000000 0.222942 0.000000
O O14 0.750000 0.188015 0.412231
O O15 0.830789 0.000000 0.341490
O O16 0.250000 0.298817 0.033597
O O17 0.339146 0.500000 0.021884
#
# Coordination Sequence:
#
# PCOD8206469 Si02
#       6
#     8   8   8   8   8   8
#     4  10  18  28  44  66  93 121 150 183 225 273
#     4   9  17  30  47  68  93 119 152 189 226 272
#     4   8  14  26  46  68  89 114 144 181 226 267
#     4  10  19  31  48  68  92 122 156 190 226 269
#     4   9  17  28  43  64  90 118 147 180 222 276
#     4  10  21  33  44  63  93 126 159 195 232 271
#
# _framework density 16.312358
#
# number of rings (size 3 to 8) (size 9 to 14) (size 15 to 20)
#    0.000    2.667    1.667    2.000    0.000    3.000 
#    0.000    0.000    0.000    9.000    0.000    4.667 
#    0.000    0.000    0.000    0.000    0.000    0.000 
#
# Total GULP energy -594763.017811 kJ/mol
# GULP energy per Si atom -12390.896204 kJ/mol
# Density = 1.627523 g / cm^3
# Si number density = 16.312358 Si / 1000 Ang^3
#
#
#
# Elastic Constant Matrix: (Units=GPa)
#
#
# Indices 1 2 3 4 5 6 
#
# 1 135.8629 40.7561 62.7657 0.0000 0.0000 0.0000
# 2 40.7561 54.1047 22.1873 0.0000 0.0000 0.0000
# 3 62.7657 22.1873 79.1269 0.0000 0.0000 0.0000
# 4 0.0000 0.0000 0.0000 11.6415 0.0000 0.0000
# 5 0.0000 0.0000 0.0000 0.0000 21.5468 0.0000
# 6 0.0000 0.0000 0.0000 0.0000 0.0000 17.0313
#
#
#
# Elastic Compliance Matrix: (Units=1/GPa)
#
#
# Indices 1 2 3 4 5 6 
#
# 1 0.013355 -0.006459 -0.008783 0.000000 0.000000 0.000000
# 2 -0.006459 0.024008 -0.001609 0.000000 0.000000 0.000000
# 3 -0.008783 -0.001609 0.020056 0.000000 0.000000 0.000000
# 4 0.000000 0.000000 0.000000 0.085900 0.000000 0.000000
# 5 0.000000 0.000000 0.000000 0.000000 0.046411 0.000000
# 6 0.000000 0.000000 0.000000 0.000000 0.000000 0.058715
#
#
# Mechanical properties :
#
#
# Convention : Reuss Voigt Hill
#
# Bulk Modulus (GPa) = 42.16109 57.83474 49.99792
# Shear Modulus (GPa) = 17.23839 19.60295 18.42067
#
# Velocity S-wave (km/s) = 3.25432 3.47035 3.36407
# Velocity P-wave (km/s) = 6.32638 7.18257 6.76803
#
# Compressibility (1/GPa) = 0.02371855
#
# Stress axis : x y z
#
# Youngs Moduli (GPa) = 74.87678 41.65364 49.86112
#
# Poissons Ratio (x) = 0.26903 0.43792
# Poissons Ratio (y) = 0.48360 0.08020
# Poissons Ratio (z) = 0.65763 0.06700
#
# Static dielectric constant tensor:
#      x y z
#    x 3.201730 0.000000 0.000000 
#    y 0.000000 2.961040 0.000000 
#    z 0.000000 0.000000 3.023240 
# 
# 
# High freq. dielectric constant tensor:
#      x y z
#    x 1.626180 0.000000 0.000000 
#    y 0.000000 1.611950 0.000000 
#    z 0.000000 0.000000 1.599220 
# 
# From -- ./inp_files/25442.got.cif
#   From: 2010.03.12/outbox.cif.g09.slc.cpg/sg51_13_cif.got.tgz:25442.got - 2010.04.16 13:43:02.
