data_PCOD8206756
_publ_section_title
;
Structure prediction by ZEFSAII (Michael W. Deem and Ramdas Pophale) SiO2 
 PCOD8206756
Probable space group: P M M A
;
_chemical_formula_sum "Si O2"
_cell_formula_units_Z 64
_cell_length_a 9.206277
_cell_length_b 19.937179
_cell_length_c 20.446953
_cell_angle_alpha 90.000000
_cell_angle_beta 90.000000
_cell_angle_gamma 90.000000
_cell_volume 3752.980818
_symmetry_space_group_name_H-M "P M M A"
_symmetry_group_IT_number 51
_symmetry_cell_setting 'orthorhombic'
loop_
_space_group_symop_operation_xyz
x,y,z
1/2-x,-y,z
1/2+x,-y,-z
-x,y,-z
-x,-y,-z
1/2+x,y,-z
1/2-x,y,z
x,-y,z
loop_
_atom_site_type_symbol
_atom_site_label
_atom_site_fract_x
_atom_site_fract_y
_atom_site_fract_z
Si Si1 0.583742 0.239262 0.393487
Si Si2 0.920240 0.216339 0.735208
Si Si3 0.418065 0.657323 0.190113
Si Si4 0.415839 0.424237 0.702669
Si Si5 0.420810 0.113331 0.438413
Si Si6 0.580131 0.928389 0.706198
Si Si7 0.920026 0.576870 0.933843
Si Si8 0.913495 0.387466 0.437510
O O1 0.750000 0.214090 0.385479
O O2 0.513194 0.250433 0.322042
O O3 0.487820 0.187326 0.434086
O O4 0.578090 0.307497 0.433591
O O5 0.750000 0.215374 0.714518
O O6 0.942101 0.261830 0.800761
O O7 0.976027 0.138661 0.744315
O O8 0.250000 0.638510 0.193717
O O9 0.492285 0.621336 0.250057
O O10 0.478814 0.628485 0.121555
O O11 0.250000 0.397613 0.702787
O O12 0.425615 0.500000 0.728136
O O13 0.478589 0.419115 0.629083
O O14 0.500000 0.076821 0.500000
O O15 0.250000 0.117473 0.452178
O O16 0.455327 0.075352 0.370985
O O17 0.750000 0.932066 0.717407
O O18 0.512231 0.000000 0.731570
O O19 0.750000 0.585837 0.946099
O O20 0.956848 0.500000 0.913634
O O21 0.000000 0.597373 0.000000
O O22 0.750000 0.412965 0.446616
O O23 0.000000 0.414363 0.500000
#
# Coordination Sequence:
#
# PCOD8206756 Si02
#       8
#     8   8   8   8   8   8   8   8
#     4  10  18  30  46  63  85 112 145 188 237 285
#     4   9  17  29  48  71  92 117 149 188 232 275
#     4  10  19  32  52  76 100 125 157 196 233 273
#     4  10  21  36  50  66  90 119 154 196 240 286
#     4  10  19  29  42  61  83 109 145 185 233 289
#     4   8  15  28  44  62  87 117 147 183 230 283
#     4   9  18  32  49  72 104 137 165 191 223 267
#     4  10  21  33  45  62  82 110 147 191 241 287
#
# _framework density 17.053111000000001
#
# number of rings (size 3 to 8) (size 9 to 14) (size 15 to 20)
#    0.000    2.500    1.250    2.250    0.000    4.250 
#    0.000    1.250    0.000    9.000    0.000    0.000 
#    0.000    0.500    0.000    0.375    0.000    0.750 
#
# Total GULP energy -793058.977772 kJ/mol
# GULP energy per Si atom -12391.546528 kJ/mol
# Density = 1.701430 g / cm^3
# Si number density = 17.053111 Si / 1000 Ang^3
#
#
#
# Elastic Constant Matrix: (Units=GPa)
#
#
# Indices 1 2 3 4 5 6 
#
# 1 44.8457 24.2967 30.4764 0.0000 0.0000 0.0000
# 2 24.2967 96.4307 54.2618 0.0000 0.0000 0.0000
# 3 30.4764 54.2618 100.7376 0.0000 0.0000 0.0000
# 4 0.0000 0.0000 0.0000 32.5658 0.0000 0.0000
# 5 0.0000 0.0000 0.0000 0.0000 23.1635 0.0000
# 6 0.0000 0.0000 0.0000 0.0000 0.0000 28.3399
#
#
#
# Elastic Compliance Matrix: (Units=1/GPa)
#
#
# Indices 1 2 3 4 5 6 
#
# 1 0.028817 -0.003379 -0.006898 0.000000 0.000000 0.000000
# 2 -0.003379 0.015277 -0.007206 0.000000 0.000000 0.000000
# 3 -0.006898 -0.007206 0.015895 0.000000 0.000000 0.000000
# 4 0.000000 0.000000 0.000000 0.030707 0.000000 0.000000
# 5 0.000000 0.000000 0.000000 0.000000 0.043171 0.000000
# 6 0.000000 0.000000 0.000000 0.000000 0.000000 0.035286
#
#
# Mechanical properties :
#
#
# Convention : Reuss Voigt Hill
#
# Bulk Modulus (GPa) = 39.96480 51.12044 45.54262
# Shear Modulus (GPa) = 23.53372 25.67912 24.60642
#
# Velocity S-wave (km/s) = 3.71890 3.88472 3.80271
# Velocity P-wave (km/s) = 6.47508 7.08263 6.78566
#
# Compressibility (1/GPa) = 0.02502202
#
# Stress axis : x y z
#
# Youngs Moduli (GPa) = 34.70147 65.45961 62.91187
#
# Poissons Ratio (x) = 0.22121 0.43396
# Poissons Ratio (y) = 0.11727 0.45336
# Poissons Ratio (z) = 0.23937 0.47172
#
# Static dielectric constant tensor:
#      x y z
#    x 3.135520 0.000000 0.000000 
#    y 0.000000 3.539300 0.000000 
#    z 0.000000 0.000000 3.021380 
# 
# 
# High freq. dielectric constant tensor:
#      x y z
#    x 1.646800 0.000000 0.000000 
#    y 0.000000 1.659930 0.000000 
#    z 0.000000 0.000000 1.618540 
# 
# From -- ./inp_files/32647.got.cif
#   From: 2010.03.12/outbox.cif.g09.slc.cpg/sg51_17_cif.got.tgz:32647.got - 2010.04.16 13:43:02.
