data_PCOD8206711
_publ_section_title
;
Structure prediction by ZEFSAII (Michael W. Deem and Ramdas Pophale) SiO2 
 PCOD8206711
Probable space group: P M M A
;
_chemical_formula_sum "Si O2"
_cell_formula_units_Z 64
_cell_length_a 9.035386
_cell_length_b 14.334611
_cell_length_c 28.306973
_cell_angle_alpha 90.000000
_cell_angle_beta 90.000000
_cell_angle_gamma 90.000000
_cell_volume 3666.283577
_symmetry_space_group_name_H-M "P M M A"
_symmetry_group_IT_number 51
_symmetry_cell_setting 'orthorhombic'
loop_
_space_group_symop_operation_xyz
x,y,z
1/2-x,-y,z
1/2+x,-y,-z
-x,y,-z
-x,-y,-z
1/2+x,y,-z
1/2-x,y,z
x,-y,z
loop_
_atom_site_type_symbol
_atom_site_label
_atom_site_fract_x
_atom_site_fract_y
_atom_site_fract_z
Si Si1 0.923584 0.106858 0.951147
Si Si2 0.581675 0.890397 0.784805
Si Si3 0.079768 0.391836 0.274909
Si Si4 0.421516 0.395819 0.819455
Si Si5 0.075015 0.713264 0.367462
Si Si6 0.424903 0.101630 0.320763
Si Si7 0.422091 0.788955 0.867600
Si Si8 0.423646 0.606776 0.548980
O O1 0.750000 0.122008 0.956849
O O2 0.983015 0.175782 0.911399
O O3 0.960846 0.000000 0.937240
O O4 0.000000 0.134445 0.000000
O O5 0.750000 0.854143 0.792591
O O6 0.523562 0.868156 0.731793
O O7 0.470197 0.840441 0.820093
O O8 0.576089 0.000000 0.794703
O O9 0.250000 0.366601 0.267748
O O10 0.051156 0.500000 0.283646
O O11 0.018230 0.339991 0.320936
O O12 0.999434 0.357569 0.227715
O O13 0.250000 0.400201 0.807287
O O14 0.479460 0.500000 0.833658
O O15 0.451882 0.322359 0.861572
O O16 0.250000 0.698610 0.375503
O O17 0.031280 0.821912 0.359994
O O18 0.986958 0.675878 0.412012
O O19 0.250000 0.092940 0.317559
O O20 0.491914 0.000000 0.334884
O O21 0.250000 0.809705 0.877003
O O22 0.500000 0.633463 0.500000
O O23 0.250000 0.622813 0.543565
O O24 0.460572 0.500000 0.562989
#
# Coordination Sequence:
#
# PCOD8206711 Si02
#       8
#     8   8   8   8   8   8   8   8
#     4  10  21  37  56  77 101 127 154 189 236 289
#     4   9  17  30  48  70  98 132 167 200 235 280
#     4   9  17  28  44  69  98 127 162 202 241 283
#     4   9  19  34  48  65  95 134 171 205 240 277
#     4  10  18  29  49  73  97 127 161 198 239 283
#     4   8  15  28  46  69  97 130 167 202 235 274
#     4  11  21  31  48  73  99 129 164 202 243 285
#     4  10  21  36  53  73  97 123 151 188 236 289
#
# _framework density 17.456368999999999
#
# number of rings (size 3 to 8) (size 9 to 14) (size 15 to 20)
#    0.000    2.500    0.000    3.375    0.000    6.250 
#    0.000    1.875    0.000    1.875    0.000    0.000 
#    0.000    0.000    0.000    0.000    0.000    0.000 
#
# Total GULP energy -793489.482971 kJ/mol
# GULP energy per Si atom -12398.273171 kJ/mol
# Density = 1.741664 g / cm^3
# Si number density = 17.456369 Si / 1000 Ang^3
#
#
#
# Elastic Constant Matrix: (Units=GPa)
#
#
# Indices 1 2 3 4 5 6 
#
# 1 59.8111 40.7723 48.1404 0.0000 0.0000 0.0000
# 2 40.7723 87.3242 76.8951 0.0000 0.0000 0.0000
# 3 48.1404 76.8951 118.5256 0.0000 0.0000 0.0000
# 4 0.0000 0.0000 0.0000 27.4650 0.0000 0.0000
# 5 0.0000 0.0000 0.0000 0.0000 32.4116 0.0000
# 6 0.0000 0.0000 0.0000 0.0000 0.0000 21.0612
#
#
#
# Elastic Compliance Matrix: (Units=1/GPa)
#
#
# Indices 1 2 3 4 5 6 
#
# 1 0.026436 -0.006737 -0.006367 0.000000 0.000000 0.000000
# 2 -0.006737 0.028428 -0.015707 0.000000 0.000000 0.000000
# 3 -0.006367 -0.015707 0.021213 0.000000 0.000000 0.000000
# 4 0.000000 0.000000 0.000000 0.036410 0.000000 0.000000
# 5 0.000000 0.000000 0.000000 0.000000 0.030853 0.000000
# 6 0.000000 0.000000 0.000000 0.000000 0.000000 0.047481
#
#
# Mechanical properties :
#
#
# Convention : Reuss Voigt Hill
#
# Bulk Modulus (GPa) = 54.18206 66.36405 60.27305
# Shear Modulus (GPa) = 19.63915 22.84445 21.24180
#
# Velocity S-wave (km/s) = 3.35780 3.62147 3.49212
# Velocity P-wave (km/s) = 6.79257 7.45562 7.13181
#
# Compressibility (1/GPa) = 0.01845629
#
# Stress axis : x y z
#
# Youngs Moduli (GPa) = 37.82705 35.17656 47.14123
#
# Poissons Ratio (x) = 0.23698 0.30013
# Poissons Ratio (y) = 0.25484 0.74044
# Poissons Ratio (z) = 0.24083 0.55251
#
# Static dielectric constant tensor:
#      x y z
#    x 3.131200 0.000000 0.000000 
#    y 0.000000 3.611040 0.000000 
#    z 0.000000 0.000000 3.189770 
# 
# 
# High freq. dielectric constant tensor:
#      x y z
#    x 1.663410 0.000000 0.000000 
#    y 0.000000 1.678610 0.000000 
#    z 0.000000 0.000000 1.657320 
# 
# From -- ./inp_files/34896.got.cif
#   From: 2010.03.12/outbox.cif.g09.slc.cpg/sg51_18_cif.got.tgz:34896.got - 2010.04.16 13:43:02.
