data_PCOD8206869
_publ_section_title
;
Structure prediction by ZEFSAII (Michael W. Deem and Ramdas Pophale) SiO2 
 PCOD8206869
Probable space group: P M M A
;
_chemical_formula_sum "Si O2"
_cell_formula_units_Z 48
_cell_length_a 10.308272
_cell_length_b 13.043165
_cell_length_c 22.918251
_cell_angle_alpha 90.000000
_cell_angle_beta 90.000000
_cell_angle_gamma 90.000000
_cell_volume 3081.415972
_symmetry_space_group_name_H-M "P M M A"
_symmetry_group_IT_number 51
_symmetry_cell_setting 'orthorhombic'
loop_
_space_group_symop_operation_xyz
x,y,z
1/2-x,-y,z
1/2+x,-y,-z
-x,y,-z
-x,-y,-z
1/2+x,y,-z
1/2-x,y,z
x,-y,z
loop_
_atom_site_type_symbol
_atom_site_label
_atom_site_fract_x
_atom_site_fract_y
_atom_site_fract_z
Si Si1 0.902095 0.882598 0.175655
Si Si2 0.004241 0.615973 0.631657
Si Si3 0.493240 0.192860 0.708670
Si Si4 0.750000 0.114601 0.358790
Si Si5 0.750000 0.882898 0.651238
Si Si6 0.105175 0.122162 0.954806
Si Si7 0.250000 0.307663 0.565625
Si Si8 0.750000 0.694312 0.572258
O O1 0.750000 0.872696 0.187328
O O2 0.979692 0.811375 0.221292
O O3 0.934979 0.843365 0.110433
O O4 0.947042 0.000000 0.183897
O O5 0.006511 0.500000 0.655027
O O6 0.874978 0.635139 0.595186
O O7 0.011437 0.688978 0.688229
O O8 0.124137 0.634007 0.588713
O O9 0.376323 0.129529 0.680546
O O10 0.626049 0.139293 0.690824
O O11 0.750000 0.189970 0.413823
O O12 0.750000 0.000000 0.384219
O O13 0.750000 0.812113 0.593698
O O14 0.750000 0.000000 0.629700
O O15 0.250000 0.162882 0.970398
O O16 0.106872 0.000000 0.957247
O O17 0.000000 0.168032 0.000000
O O18 0.250000 0.307508 0.496691
#
# Coordination Sequence:
#
# PCOD8206869 Si02
#       8
#     8   8   8   4   4   8   4   4
#     4   9  15  25  44  64  85 118 153 181 211 254
#     4  10  21  35  50  67  88 114 142 184 235 269
#     4  10  19  31  46  66  89 114 151 187 218 266
#     4  10  18  30  49  66  87 119 146 175 217 265
#     4  10  20  32  45  64  93 119 140 181 227 257
#     4   8  14  24  37  56  84 117 150 179 207 242
#     4  10  21  33  48  73  91 105 145 188 217 264
#     4  10  21  35  50  67  87 117 149 172 215 284
#
# _framework density 15.577254
#
# number of rings (size 3 to 8) (size 9 to 14) (size 15 to 20)
#    0.000    2.500    0.833    3.500    0.000    2.333 
#    1.500    0.000    0.000    6.000    0.000    0.000 
#    0.000    0.667    0.000    0.500    0.000    0.667 
#
# Total GULP energy -595160.296534 kJ/mol
# GULP energy per Si atom -12399.172844 kJ/mol
# Density = 1.554180 g / cm^3
# Si number density = 15.577254 Si / 1000 Ang^3
#
#
#
# Elastic Constant Matrix: (Units=GPa)
#
#
# Indices 1 2 3 4 5 6 
#
# 1 116.7077 35.1776 54.5236 0.0000 0.0000 0.0000
# 2 35.1776 100.5627 41.4935 0.0000 0.0000 0.0000
# 3 54.5236 41.4935 123.3706 0.0000 0.0000 0.0000
# 4 0.0000 0.0000 0.0000 12.9312 0.0000 0.0000
# 5 0.0000 0.0000 0.0000 0.0000 20.4705 0.0000
# 6 0.0000 0.0000 0.0000 0.0000 0.0000 14.6680
#
#
#
# Elastic Compliance Matrix: (Units=1/GPa)
#
#
# Indices 1 2 3 4 5 6 
#
# 1 0.011194 -0.002176 -0.004215 0.000000 0.000000 0.000000
# 2 -0.002176 0.011970 -0.003064 0.000000 0.000000 0.000000
# 3 -0.004215 -0.003064 0.010999 0.000000 0.000000 0.000000
# 4 0.000000 0.000000 0.000000 0.077332 0.000000 0.000000
# 5 0.000000 0.000000 0.000000 0.000000 0.048851 0.000000
# 6 0.000000 0.000000 0.000000 0.000000 0.000000 0.068175
#
#
# Mechanical properties :
#
#
# Convention : Reuss Voigt Hill
#
# Bulk Modulus (GPa) = 65.56735 67.00339 66.28537
# Shear Modulus (GPa) = 19.80079 23.57703 21.68891
#
# Velocity S-wave (km/s) = 3.56917 3.89466 3.73546
# Velocity P-wave (km/s) = 7.69210 7.95811 7.82623
#
# Compressibility (1/GPa) = 0.01525149
#
# Stress axis : x y z
#
# Youngs Moduli (GPa) = 89.33677 83.54518 90.91774
#
# Poissons Ratio (x) = 0.18183 0.38322
# Poissons Ratio (y) = 0.19444 0.27856
# Poissons Ratio (z) = 0.37655 0.25597
#
# Static dielectric constant tensor:
#      x y z
#    x 3.175820 0.000000 0.000000 
#    y 0.000000 2.773900 0.000000 
#    z 0.000000 0.000000 2.964310 
# 
# 
# High freq. dielectric constant tensor:
#      x y z
#    x 1.612120 0.000000 0.000000 
#    y 0.000000 1.565220 0.000000 
#    z 0.000000 0.000000 1.587020 
# 
# From -- ./inp_files/32981.got.cif
#   From: 2010.03.12/outbox.cif.g09.slc.cpg/sg51_17_cif.got.tgz:32981.got - 2010.04.16 13:43:02.
