data_PCOD8206845
_publ_section_title
;
Structure prediction by ZEFSAII (Michael W. Deem and Ramdas Pophale) SiO2 
 PCOD8206845
Probable space group: P M M A
;
_chemical_formula_sum "Si O2"
_cell_formula_units_Z 64
_cell_length_a 30.155281
_cell_length_b 9.231329
_cell_length_c 14.279943
_cell_angle_alpha 90.000000
_cell_angle_beta 90.000000
_cell_angle_gamma 90.000000
_cell_volume 3975.155142
_symmetry_space_group_name_H-M "P M M A"
_symmetry_group_IT_number 51
_symmetry_cell_setting 'orthorhombic'
loop_
_space_group_symop_operation_xyz
x,y,z
1/2-x,-y,z
1/2+x,-y,-z
-x,y,-z
-x,-y,-z
1/2+x,y,-z
1/2-x,y,z
x,-y,z
loop_
_atom_site_type_symbol
_atom_site_label
_atom_site_fract_x
_atom_site_fract_y
_atom_site_fract_z
Si Si1 0.573666 0.839184 0.739442
Si Si2 0.026871 0.166602 0.765921
Si Si3 0.044770 0.328739 0.948059
Si Si4 0.700782 0.831567 0.847415
Si Si5 0.044442 0.829227 0.554493
Si Si6 0.115311 0.162087 0.062567
Si Si7 0.200431 0.668724 0.342243
Si Si8 0.889339 0.330636 0.570755
O O1 0.525004 0.806178 0.777468
O O2 0.605346 0.833347 0.827545
O O3 0.586617 0.717653 0.665674
O O4 0.574673 0.000000 0.692009
O O5 0.050247 0.263562 0.844581
O O6 0.041779 0.216311 0.662824
O O7 0.039651 0.000000 0.783903
O O8 0.045016 0.500000 0.940695
O O9 0.087678 0.278923 0.005675
O O10 0.000000 0.273521 0.000000
O O11 0.750000 0.785990 0.880505
O O12 0.667725 0.797054 0.934967
O O13 0.687546 0.748787 0.752937
O O14 0.698164 0.000000 0.821655
O O15 0.088653 0.753229 0.515678
O O16 0.000000 0.776655 0.500000
O O17 0.049595 0.000000 0.542243
O O18 0.106505 0.000000 0.022171
O O19 0.250000 0.713195 0.377690
O O20 0.198417 0.500000 0.318829
O O21 0.163386 0.706559 0.421268
O O22 0.897410 0.500000 0.556334
#
# Coordination Sequence:
#
# PCOD8206845 Si02
#       8
#     8   8   8   8   8   8   8   8
#     4  10  18  30  48  69  96 130 166 198 232 280
#     4  10  20  35  52  67  91 129 167 200 233 278
#     4  11  23  34  47  70  99 127 159 201 242 280
#     4   9  17  29  47  72  98 124 159 202 241 278
#     4  10  20  35  52  70  94 127 165 198 235 286
#     4  10  19  31  49  70  95 131 166 195 233 285
#     4   9  18  31  45  65  97 133 163 192 234 289
#     4  11  21  30  46  72  99 130 164 200 240 281
#
# _framework density 16.100000000000001
#
# number of rings (size 3 to 8) (size 9 to 14) (size 15 to 20)
#    0.000    2.000    3.750    0.750    0.000    3.250 
#    0.000    0.000    0.000    0.000    0.000    0.875 
#    0.000    1.000    0.000    0.000    0.000    0.000 
#
# Total GULP energy -793397.600437 kJ/mol
# GULP energy per Si atom -12396.837507 kJ/mol
# Density = 1.606336 g / cm^3
# Si number density = 16.100000 Si / 1000 Ang^3
#
#
#
# Elastic Constant Matrix: (Units=GPa)
#
#
# Indices 1 2 3 4 5 6 
#
# 1 98.8049 38.2681 44.1722 0.0000 0.0000 0.0000
# 2 38.2681 50.9663 35.9484 0.0000 0.0000 0.0000
# 3 44.1722 35.9484 83.0502 0.0000 0.0000 0.0000
# 4 0.0000 0.0000 0.0000 19.7943 0.0000 0.0000
# 5 0.0000 0.0000 0.0000 0.0000 21.8895 0.0000
# 6 0.0000 0.0000 0.0000 0.0000 0.0000 22.6450
#
#
#
# Elastic Compliance Matrix: (Units=1/GPa)
#
#
# Indices 1 2 3 4 5 6 
#
# 1 0.015395 -0.008326 -0.004584 0.000000 0.000000 0.000000
# 2 -0.008326 0.032747 -0.009746 0.000000 0.000000 0.000000
# 3 -0.004584 -0.009746 0.018698 0.000000 0.000000 0.000000
# 4 0.000000 0.000000 0.000000 0.050520 0.000000 0.000000
# 5 0.000000 0.000000 0.000000 0.000000 0.045684 0.000000
# 6 0.000000 0.000000 0.000000 0.000000 0.000000 0.044160
#
#
# Mechanical properties :
#
#
# Convention : Reuss Voigt Hill
#
# Bulk Modulus (GPa) = 46.45369 52.17762 49.31566
# Shear Modulus (GPa) = 19.25362 20.49461 19.87412
#
# Velocity S-wave (km/s) = 3.46190 3.57172 3.51724
# Velocity P-wave (km/s) = 6.70041 7.03480 6.86964
#
# Compressibility (1/GPa) = 0.02152682
#
# Stress axis : x y z
#
# Youngs Moduli (GPa) = 64.95533 30.53753 53.48218
#
# Poissons Ratio (x) = 0.25425 0.24518
# Poissons Ratio (y) = 0.54081 0.52124
# Poissons Ratio (z) = 0.29778 0.29762
#
# Static dielectric constant tensor:
#      x y z
#    x 3.314900 0.000000 0.000000 
#    y 0.000000 3.020530 0.000000 
#    z 0.000000 0.000000 2.818320 
# 
# 
# High freq. dielectric constant tensor:
#      x y z
#    x 1.619230 0.000000 0.000000 
#    y 0.000000 1.619140 0.000000 
#    z 0.000000 0.000000 1.587570 
# 
# From -- ./inp_files/26600.got.cif
#   From: 2010.03.12/outbox.cif.g09.slc.cpg/sg51_14_cif.got.tgz:26600.got - 2010.04.16 13:43:02.
