data_PCOD8206326
_publ_section_title
;
Structure prediction by ZEFSAII (Michael W. Deem and Ramdas Pophale) SiO2 
 PCOD8206326
Probable space group: P M M A
;
_chemical_formula_sum "Si O2"
_cell_formula_units_Z 48
_cell_length_a 8.940877
_cell_length_b 24.378209
_cell_length_c 13.460962
_cell_angle_alpha 90.000000
_cell_angle_beta 90.000000
_cell_angle_gamma 90.000000
_cell_volume 2933.985847
_symmetry_space_group_name_H-M "P M M A"
_symmetry_group_IT_number 51
_symmetry_cell_setting 'orthorhombic'
loop_
_space_group_symop_operation_xyz
x,y,z
1/2-x,-y,z
1/2+x,-y,-z
-x,y,-z
-x,-y,-z
1/2+x,y,-z
1/2-x,y,z
x,-y,z
loop_
_atom_site_type_symbol
_atom_site_label
_atom_site_fract_x
_atom_site_fract_y
_atom_site_fract_z
Si Si1 0.076128 0.562424 0.200540
Si Si2 0.426217 0.278153 0.700719
Si Si3 0.076219 0.942131 0.395005
Si Si4 0.572692 0.177067 0.608444
Si Si5 0.575479 0.339535 0.100014
Si Si6 0.424961 0.622361 0.400880
O O1 0.250000 0.570431 0.176466
O O2 0.024536 0.500000 0.185284
O O3 0.041804 0.579148 0.313841
O O4 0.983948 0.599772 0.124850
O O5 0.250000 0.276048 0.681732
O O6 0.499048 0.218803 0.685896
O O7 0.464983 0.297410 0.812181
O O8 0.499155 0.319404 0.622037
O O9 0.250000 0.941176 0.416927
O O10 0.034550 0.883664 0.344759
O O11 0.000000 0.944008 0.500000
O O12 0.034616 0.000000 0.336883
O O13 0.500000 0.184538 0.500000
O O14 0.750000 0.187418 0.600198
O O15 0.750000 0.343945 0.082227
O O16 0.500000 0.316965 0.000000
O O17 0.500000 0.597920 0.500000
O O18 0.250000 0.631705 0.417398
#
# Coordination Sequence:
#
# PCOD8206326 Si02
#       6
#     8   8   8   8   8   8
#     4   9  19  35  52  70  92 117 146 179 214 257
#     4  10  20  33  47  65  89 115 147 184 220 262
#     4   8  14  24  37  55  82 117 155 189 218 250
#     4  10  18  27  42  64  91 124 157 188 221 255
#     4  10  21  36  54  72  89 112 140 176 223 270
#     4  10  19  31  47  66  90 120 151 182 217 256
#
# _framework density 16.359997
#
# number of rings (size 3 to 8) (size 9 to 14) (size 15 to 20)
#    0.000    2.500    0.000    2.500    0.000    4.333 
#    0.000    0.000    0.000    0.000    0.000    0.000 
#    0.000    0.667    0.000    1.500    0.000    2.667 
#
# Total GULP energy -594874.868529 kJ/mol
# GULP energy per Si atom -12393.226428 kJ/mol
# Density = 1.632276 g / cm^3
# Si number density = 16.359997 Si / 1000 Ang^3
#
#
#
# Elastic Constant Matrix: (Units=GPa)
#
#
# Indices 1 2 3 4 5 6 
#
# 1 71.3054 43.0856 36.0835 0.0000 0.0000 0.0000
# 2 43.0856 130.3707 33.8595 0.0000 0.0000 0.0000
# 3 36.0835 33.8595 73.3271 0.0000 0.0000 0.0000
# 4 0.0000 0.0000 0.0000 13.2095 0.0000 0.0000
# 5 0.0000 0.0000 0.0000 0.0000 26.5265 0.0000
# 6 0.0000 0.0000 0.0000 0.0000 0.0000 19.9133
#
#
#
# Elastic Compliance Matrix: (Units=1/GPa)
#
#
# Indices 1 2 3 4 5 6 
#
# 1 0.021069 -0.004852 -0.008127 0.000000 0.000000 0.000000
# 2 -0.004852 0.009833 -0.002153 0.000000 0.000000 0.000000
# 3 -0.008127 -0.002153 0.018631 0.000000 0.000000 0.000000
# 4 0.000000 0.000000 0.000000 0.075703 0.000000 0.000000
# 5 0.000000 0.000000 0.000000 0.000000 0.037698 0.000000
# 6 0.000000 0.000000 0.000000 0.000000 0.000000 0.050218
#
#
# Mechanical properties :
#
#
# Convention : Reuss Voigt Hill
#
# Bulk Modulus (GPa) = 51.89834 55.67337 53.78586
# Shear Modulus (GPa) = 20.01286 22.72814 21.37050
#
# Velocity S-wave (km/s) = 3.50134 3.73131 3.61815
# Velocity P-wave (km/s) = 6.93811 7.25725 7.09947
#
# Compressibility (1/GPa) = 0.01926844
#
# Stress axis : x y z
#
# Youngs Moduli (GPa) = 47.46363 101.69705 53.67413
#
# Poissons Ratio (x) = 0.49345 0.43622
# Poissons Ratio (y) = 0.23030 0.11555
# Poissons Ratio (z) = 0.38575 0.21894
#
# Static dielectric constant tensor:
#      x y z
#    x 3.154900 0.000000 0.000000 
#    y 0.000000 3.543050 0.000000 
#    z 0.000000 0.000000 2.847810 
# 
# 
# High freq. dielectric constant tensor:
#      x y z
#    x 1.644330 0.000000 0.000000 
#    y 0.000000 1.634570 0.000000 
#    z 0.000000 0.000000 1.590950 
# 
# From -- ./inp_files/14398.got.cif
#   From: 2010.03.12/outbox.cif.g09.slc.cpg/sg51_8_cif.got.tgz:14398.got - 2010.04.16 13:43:02.
