data_PCOD8206262
_publ_section_title
;
Structure prediction by ZEFSAII (Michael W. Deem and Ramdas Pophale) SiO2 
 PCOD8206262
Probable space group: P M M A
;
_chemical_formula_sum "Si O2"
_cell_formula_units_Z 60
_cell_length_a 25.863190
_cell_length_b 10.217616
_cell_length_c 13.810795
_cell_angle_alpha 90.000000
_cell_angle_beta 90.000000
_cell_angle_gamma 90.000000
_cell_volume 3649.642675
_symmetry_space_group_name_H-M "P M M A"
_symmetry_group_IT_number 51
_symmetry_cell_setting 'orthorhombic'
loop_
_space_group_symop_operation_xyz
x,y,z
1/2-x,-y,z
1/2+x,-y,-z
-x,y,-z
-x,-y,-z
1/2+x,y,-z
1/2-x,y,z
x,-y,z
loop_
_atom_site_type_symbol
_atom_site_label
_atom_site_fract_x
_atom_site_fract_y
_atom_site_fract_z
Si Si1 0.692843 0.654932 0.532944
Si Si2 0.055840 0.153429 0.975926
Si Si3 0.309931 0.353827 0.249917
Si Si4 0.898206 0.353937 0.393335
Si Si5 0.037480 0.855072 0.319725
Si Si6 0.425218 0.148322 0.764347
Si Si7 0.000000 0.705630 0.500000
Si Si8 0.618884 0.845442 0.835137
O O1 0.750000 0.708329 0.500228
O O2 0.695251 0.500000 0.534217
O O3 0.680172 0.701428 0.641772
O O4 0.646354 0.702383 0.464123
O O5 0.079894 0.202759 0.874061
O O6 0.046851 0.000000 0.963558
O O7 0.095539 0.186890 0.060424
O O8 0.000000 0.218393 0.000000
O O9 0.250000 0.364727 0.228027
O O10 0.334518 0.500000 0.236312
O O11 0.331411 0.246702 0.174686
O O12 0.883680 0.500000 0.356235
O O13 0.897042 0.251125 0.305663
O O14 0.954701 0.371833 0.444071
O O15 0.080426 0.794029 0.249135
O O16 0.985319 0.854465 0.259202
O O17 0.032674 0.786389 0.422467
O O18 0.055032 0.000000 0.346274
O O19 0.402385 0.000000 0.751720
O O20 0.631807 0.000000 0.825923
#
# Coordination Sequence:
#
# PCOD8206262 Si02
#       8
#     8   8   8   8   8   8   4   8
#     4   8  15  30  51  69  87 121 166 197 222 272
#     4   9  15  28  50  70  91 122 161 193 224 274
#     4   9  18  33  50  68  93 124 155 189 234 286
#     4  10  19  30  45  67  94 122 153 194 235 277
#     4   9  16  26  41  65  93 121 153 186 220 266
#     4   9  17  30  47  66  91 123 154 186 226 274
#     4  10  18  26  40  64  97 132 149 176 229 294
#     4  10  18  28  48  73  93 118 156 199 233 269
#
# _framework density 16.439965999999998
#
# number of rings (size 3 to 8) (size 9 to 14) (size 15 to 20)
#    0.000    2.800    1.333    2.000    0.000    0.800 
#    0.000    4.000    0.000    2.800    0.000    3.733 
#    0.000    0.000    0.000    0.000    0.000    0.000 
#
# Total GULP energy -743379.098186 kJ/mol
# GULP energy per Si atom -12389.651636 kJ/mol
# Density = 1.640255 g / cm^3
# Si number density = 16.439966 Si / 1000 Ang^3
#
#
#
# Elastic Constant Matrix: (Units=GPa)
#
#
# Indices 1 2 3 4 5 6 
#
# 1 63.1999 29.3327 38.6384 0.0000 0.0000 0.0000
# 2 29.3327 64.3938 47.8082 0.0000 0.0000 0.0000
# 3 38.6384 47.8082 114.9082 0.0000 0.0000 0.0000
# 4 0.0000 0.0000 0.0000 17.2686 0.0000 0.0000
# 5 0.0000 0.0000 0.0000 0.0000 22.1223 0.0000
# 6 0.0000 0.0000 0.0000 0.0000 0.0000 11.4166
#
#
#
# Elastic Compliance Matrix: (Units=1/GPa)
#
#
# Indices 1 2 3 4 5 6 
#
# 1 0.021618 -0.006440 -0.004590 0.000000 0.000000 0.000000
# 2 -0.006440 0.024389 -0.007982 0.000000 0.000000 0.000000
# 3 -0.004590 -0.007982 0.013567 0.000000 0.000000 0.000000
# 4 0.000000 0.000000 0.000000 0.057909 0.000000 0.000000
# 5 0.000000 0.000000 0.000000 0.000000 0.045203 0.000000
# 6 0.000000 0.000000 0.000000 0.000000 0.000000 0.087592
#
#
# Mechanical properties :
#
#
# Convention : Reuss Voigt Hill
#
# Bulk Modulus (GPa) = 46.40185 52.67340 49.53762
# Shear Modulus (GPa) = 16.92143 18.60965 17.76554
#
# Velocity S-wave (km/s) = 3.21173 3.36814 3.29086
# Velocity P-wave (km/s) = 6.48382 6.87279 6.68113
#
# Compressibility (1/GPa) = 0.02155087
#
# Stress axis : x y z
#
# Youngs Moduli (GPa) = 46.25841 41.00249 73.70948
#
# Poissons Ratio (x) = 0.26404 0.33831
# Poissons Ratio (y) = 0.29789 0.58833
# Poissons Ratio (z) = 0.21232 0.32727
#
# Static dielectric constant tensor:
#      x y z
#    x 3.050270 0.000000 0.000000 
#    y 0.000000 2.887080 0.000000 
#    z 0.000000 0.000000 3.203760 
# 
# 
# High freq. dielectric constant tensor:
#      x y z
#    x 1.615900 0.000000 0.000000 
#    y 0.000000 1.606880 0.000000 
#    z 0.000000 0.000000 1.630520 
# 
# From -- ./inp_files/26380.got.cif
#   From: 2010.03.12/outbox.cif.g09.slc.cpg/sg51_14_cif.got.tgz:26380.got - 2010.04.16 13:43:02.
