data_PCOD8206540
_publ_section_title
;
Structure prediction by ZEFSAII (Michael W. Deem and Ramdas Pophale) SiO2 
 PCOD8206540
Probable space group: P M M A
;
_chemical_formula_sum "Si O2"
_cell_formula_units_Z 48
_cell_length_a 15.227786
_cell_length_b 9.111797
_cell_length_c 19.316202
_cell_angle_alpha 90.000000
_cell_angle_beta 90.000000
_cell_angle_gamma 90.000000
_cell_volume 2680.171217
_symmetry_space_group_name_H-M "P M M A"
_symmetry_group_IT_number 51
_symmetry_cell_setting 'orthorhombic'
loop_
_space_group_symop_operation_xyz
x,y,z
1/2-x,-y,z
1/2+x,-y,-z
-x,y,-z
-x,-y,-z
1/2+x,y,-z
1/2-x,y,z
x,-y,z
loop_
_atom_site_type_symbol
_atom_site_label
_atom_site_fract_x
_atom_site_fract_y
_atom_site_fract_z
Si Si1 0.508139 0.171594 0.834023
Si Si2 0.851529 0.671020 0.925570
Si Si3 0.750000 0.172031 0.444915
Si Si4 0.059395 0.333933 0.709404
Si Si5 0.349771 0.830294 0.933318
Si Si6 0.422506 0.671860 0.549624
Si Si7 0.250000 0.664266 0.692999
O O1 0.590805 0.251084 0.867625
O O2 0.500373 0.226943 0.755067
O O3 0.417637 0.211571 0.873104
O O4 0.526984 0.000000 0.834021
O O5 0.750000 0.701408 0.907787
O O6 0.873660 0.500000 0.926390
O O7 0.875773 0.735067 0.000363
O O8 0.837139 0.242469 0.478081
O O9 0.750000 0.208758 0.363812
O O10 0.750000 0.000000 0.457885
O O11 0.025263 0.500000 0.719060
O O12 0.054141 0.286913 0.628974
O O13 0.160646 0.319923 0.736910
O O14 0.250000 0.795900 0.908565
O O15 0.359429 0.000000 0.954451
O O16 0.500000 0.724259 0.500000
O O17 0.403929 0.500000 0.542951
O O18 0.250000 0.500000 0.657611
#
# Coordination Sequence:
#
# PCOD8206540 Si02
#       7
#     8   8   4   8   8   8   4
#     4  11  22  33  51  77 107 141 172 206 257 315
#     4  10  21  37  56  75  96 129 176 226 266 302
#     4  10  18  28  48  80 110 136 165 208 261 310
#     4   9  18  32  51  77 106 135 173 217 257 300
#     4   9  19  35  52  74 106 139 170 204 248 310
#     4   9  18  35  58  78 103 141 183 219 256 311
#     4   8  16  32  50  70 102 142 175 204 245 306
#
# _framework density 17.909303000000001
#
# number of rings (size 3 to 8) (size 9 to 14) (size 15 to 20)
#    0.000    2.500    0.000    3.250    1.167    7.333 
#    0.000    0.000    1.833    0.000    0.000    0.000 
#    0.000    0.000    0.000    0.000    0.000    0.000 
#
# Total GULP energy -595090.283466 kJ/mol
# GULP energy per Si atom -12397.714239 kJ/mol
# Density = 1.786854 g / cm^3
# Si number density = 17.909303 Si / 1000 Ang^3
#
#
#
# Elastic Constant Matrix: (Units=GPa)
#
#
# Indices 1 2 3 4 5 6 
#
# 1 98.7304 58.8599 58.2446 0.0000 0.0000 0.0000
# 2 58.8599 87.9028 48.2178 0.0000 0.0000 0.0000
# 3 58.2446 48.2178 86.0231 0.0000 0.0000 0.0000
# 4 0.0000 0.0000 0.0000 23.8134 0.0000 0.0000
# 5 0.0000 0.0000 0.0000 0.0000 28.8601 0.0000
# 6 0.0000 0.0000 0.0000 0.0000 0.0000 24.4301
#
#
#
# Elastic Compliance Matrix: (Units=1/GPa)
#
#
# Indices 1 2 3 4 5 6 
#
# 1 0.020830 -0.008969 -0.009076 0.000000 0.000000 0.000000
# 2 -0.008969 0.020289 -0.005300 0.000000 0.000000 0.000000
# 3 -0.009076 -0.005300 0.020741 0.000000 0.000000 0.000000
# 4 0.000000 0.000000 0.000000 0.041993 0.000000 0.000000
# 5 0.000000 0.000000 0.000000 0.000000 0.034650 0.000000
# 6 0.000000 0.000000 0.000000 0.000000 0.000000 0.040933
#
#
# Mechanical properties :
#
#
# Convention : Reuss Voigt Hill
#
# Bulk Modulus (GPa) = 65.92062 67.03345 66.47703
# Shear Modulus (GPa) = 21.62791 22.57632 22.10211
#
# Velocity S-wave (km/s) = 3.47887 3.55433 3.51681
# Velocity P-wave (km/s) = 7.28181 7.37259 7.32734
#
# Compressibility (1/GPa) = 0.01516976
#
# Stress axis : x y z
#
# Youngs Moduli (GPa) = 48.00716 49.28767 48.21449
#
# Poissons Ratio (x) = 0.44208 0.43761
# Poissons Ratio (y) = 0.43059 0.25551
# Poissons Ratio (z) = 0.43573 0.26120
#
# Static dielectric constant tensor:
#      x y z
#    x 3.474650 0.000000 0.000000 
#    y 0.000000 3.265800 0.000000 
#    z 0.000000 0.000000 3.051810 
# 
# 
# High freq. dielectric constant tensor:
#      x y z
#    x 1.694190 0.000000 0.000000 
#    y 0.000000 1.694810 0.000000 
#    z 0.000000 0.000000 1.665800 
# 
# From -- ./inp_files/29539.got.cif
#   From: 2010.03.12/outbox.cif.g09.slc.cpg/sg51_15_cif.got.tgz:29539.got - 2010.04.16 13:43:02.
