data_PCOD8206527
_publ_section_title
;
Structure prediction by ZEFSAII (Michael W. Deem and Ramdas Pophale) SiO2 
 PCOD8206527
Probable space group: P M M A
;
_chemical_formula_sum "Si O2"
_cell_formula_units_Z 56
_cell_length_a 26.540213
_cell_length_b 8.959609
_cell_length_c 14.286108
_cell_angle_alpha 90.000000
_cell_angle_beta 90.000000
_cell_angle_gamma 90.000000
_cell_volume 3397.092639
_symmetry_space_group_name_H-M "P M M A"
_symmetry_group_IT_number 51
_symmetry_cell_setting 'orthorhombic'
loop_
_space_group_symop_operation_xyz
x,y,z
1/2-x,-y,z
1/2+x,-y,-z
-x,y,-z
-x,-y,-z
1/2+x,y,-z
1/2-x,y,z
x,-y,z
loop_
_atom_site_type_symbol
_atom_site_label
_atom_site_fract_x
_atom_site_fract_y
_atom_site_fract_z
Si Si1 0.571044 0.672927 0.926533
Si Si2 0.118919 0.672195 0.525373
Si Si3 0.192685 0.826627 0.387070
Si Si4 0.387036 0.826859 0.235689
Si Si5 0.937354 0.176375 0.321101
Si Si6 0.957884 0.673419 0.129934
Si Si7 0.537676 0.672175 0.630239
O O1 0.582536 0.500000 0.909132
O O2 0.613277 0.771696 0.872252
O O3 0.515792 0.715787 0.888446
O O4 0.574358 0.709815 0.036817
O O5 0.129526 0.500000 0.546428
O O6 0.166895 0.736645 0.470831
O O7 0.110964 0.758724 0.623068
O O8 0.068416 0.694759 0.464759
O O9 0.250000 0.772488 0.377112
O O10 0.165973 0.795137 0.287095
O O11 0.188925 0.000000 0.412966
O O12 0.430172 0.728269 0.282647
O O13 0.401529 0.000000 0.242238
O O14 0.935398 0.229879 0.214040
O O15 0.986838 0.233744 0.374817
O O16 0.935449 0.000000 0.324193
O O17 0.953444 0.500000 0.156209
O O18 0.523464 0.500000 0.646943
#
# Coordination Sequence:
#
# PCOD8206527 Si02
#       7
#     8   8   8   8   8   8   8
#     4   9  17  30  47  66  92 129 164 196 237 279
#     4  10  21  34  49  68  92 125 162 199 238 283
#     4   9  19  36  54  73  99 126 153 193 244 293
#     4  10  18  28  47  73  97 124 159 197 239 286
#     4  12  22  30  44  68  96 128 163 200 238 281
#     4   9  18  31  46  64  92 131 168 197 232 278
#     4  10  19  31  45  63  92 129 164 196 232 276
#
# _framework density 16.484684000000001
#
# number of rings (size 3 to 8) (size 9 to 14) (size 15 to 20)
#    0.000    2.143    1.429    3.857    0.000    4.857 
#    0.000    1.429    0.000    0.000    0.000    1.000 
#    0.000    3.429    0.000    0.000    0.000    0.000 
#
# Total GULP energy -694347.753064 kJ/mol
# GULP energy per Si atom -12399.067019 kJ/mol
# Density = 1.644716 g / cm^3
# Si number density = 16.484684 Si / 1000 Ang^3
#
#
#
# Elastic Constant Matrix: (Units=GPa)
#
#
# Indices 1 2 3 4 5 6 
#
# 1 74.6165 42.7188 48.2299 0.0000 0.0000 0.0000
# 2 42.7188 94.4736 54.9304 0.0000 0.0000 0.0000
# 3 48.2299 54.9304 103.7825 0.0000 0.0000 0.0000
# 4 0.0000 0.0000 0.0000 27.9868 0.0000 0.0000
# 5 0.0000 0.0000 0.0000 0.0000 13.2777 0.0000
# 6 0.0000 0.0000 0.0000 0.0000 0.0000 16.4543
#
#
#
# Elastic Compliance Matrix: (Units=1/GPa)
#
#
# Indices 1 2 3 4 5 6 
#
# 1 0.020971 -0.005513 -0.006828 0.000000 0.000000 0.000000
# 2 -0.005513 0.016740 -0.006298 0.000000 0.000000 0.000000
# 3 -0.006828 -0.006298 0.016142 0.000000 0.000000 0.000000
# 4 0.000000 0.000000 0.000000 0.035731 0.000000 0.000000
# 5 0.000000 0.000000 0.000000 0.000000 0.075314 0.000000
# 6 0.000000 0.000000 0.000000 0.000000 0.000000 0.060775
#
#
# Mechanical properties :
#
#
# Convention : Reuss Voigt Hill
#
# Bulk Modulus (GPa) = 60.33038 62.73677 61.53357
# Shear Modulus (GPa) = 18.62364 20.01000 19.31682
#
# Velocity S-wave (km/s) = 3.36483 3.48782 3.42688
# Velocity P-wave (km/s) = 7.19537 7.37293 7.28469
#
# Compressibility (1/GPa) = 0.01657540
#
# Stress axis : x y z
#
# Youngs Moduli (GPa) = 47.68396 59.73836 61.94941
#
# Poissons Ratio (x) = 0.32932 0.42300
# Poissons Ratio (y) = 0.26287 0.39017
# Poissons Ratio (z) = 0.32559 0.37624
#
# Static dielectric constant tensor:
#      x y z
#    x 2.821780 0.000000 0.000000 
#    y 0.000000 3.099490 0.000000 
#    z 0.000000 0.000000 3.242520 
# 
# 
# High freq. dielectric constant tensor:
#      x y z
#    x 1.585070 0.000000 0.000000 
#    y 0.000000 1.642610 0.000000 
#    z 0.000000 0.000000 1.640450 
# 
# From -- ./inp_files/26533.got.cif
#   From: 2010.03.12/outbox.cif.g09.slc.cpg/sg51_14_cif.got.tgz:26533.got - 2010.04.16 13:43:02.
