data_PCOD8206061
_publ_section_title
;
Structure prediction by ZEFSAII (Michael W. Deem and Ramdas Pophale) SiO2 
 PCOD8206061
Probable space group: P M M A
;
_chemical_formula_sum "Si O2"
_cell_formula_units_Z 64
_cell_length_a 22.864022
_cell_length_b 9.214242
_cell_length_c 19.977990
_cell_angle_alpha 90.000000
_cell_angle_beta 90.000000
_cell_angle_gamma 90.000000
_cell_volume 4208.855687
_symmetry_space_group_name_H-M "P M M A"
_symmetry_group_IT_number 51
_symmetry_cell_setting 'orthorhombic'
loop_
_space_group_symop_operation_xyz
x,y,z
1/2-x,-y,z
1/2+x,-y,-z
-x,y,-z
-x,-y,-z
1/2+x,y,-z
1/2-x,y,z
x,-y,z
loop_
_atom_site_type_symbol
_atom_site_label
_atom_site_fract_x
_atom_site_fract_y
_atom_site_fract_z
Si Si1 0.434190 0.335902 0.525887
Si Si2 0.021307 0.669602 0.784535
Si Si3 0.817981 0.167949 0.716140
Si Si4 0.470506 0.830908 0.649838
Si Si5 0.611027 0.331069 0.825084
Si Si6 0.949352 0.836767 0.091546
Si Si7 0.099763 0.832848 0.402830
Si Si8 0.916437 0.162695 0.949232
O O1 0.500000 0.333179 0.500000
O O2 0.412949 0.500000 0.539218
O O3 0.429599 0.243273 0.593841
O O4 0.393290 0.263326 0.469502
O O5 0.032699 0.500000 0.774752
O O6 0.043597 0.754977 0.719869
O O7 0.059983 0.725986 0.847151
O O8 0.953049 0.703994 0.796124
O O9 0.750000 0.198496 0.706017
O O10 0.840549 0.259108 0.778573
O O11 0.849955 0.217259 0.648147
O O12 0.831794 0.000000 0.730757
O O13 0.538161 0.805350 0.633050
O O14 0.454753 0.000000 0.654045
O O15 0.623536 0.500000 0.828130
O O16 0.618927 0.269389 0.900293
O O17 0.016243 0.834359 0.070227
O O18 0.931977 0.000000 0.113772
O O19 0.910449 0.788105 0.027161
O O20 0.106236 0.000000 0.424144
O O21 0.891537 0.000000 0.940537
#
# Coordination Sequence:
#
# PCOD8206061 Si02
#       8
#     8   8   8   8   8   8   8   8
#     4   9  17  27  40  58  79 101 127 163 203 246
#     4  10  18  25  36  56  82 109 135 166 202 241
#     4  10  20  33  47  61  78 104 140 179 214 247
#     4  10  17  26  41  58  78 106 137 169 200 240
#     4  10  19  28  40  57  78 104 134 170 211 248
#     4   8  14  24  37  54  74 101 134 166 196 231
#     4   9  17  29  43  58  75 100 134 170 206 246
#     4   8  14  25  40  54  72  99 134 168 198 235
#
# _framework density 15.206033
#
# number of rings (size 3 to 8) (size 9 to 14) (size 15 to 20)
#    0.000    2.750    1.250    2.250    0.000    4.250 
#    0.000    2.500    0.000    0.000    0.000    0.000 
#    0.000    0.000    0.000    1.125    0.000   20.000 
#
# Total GULP energy -793434.988675 kJ/mol
# GULP energy per Si atom -12397.421698 kJ/mol
# Density = 1.517142 g / cm^3
# Si number density = 15.206033 Si / 1000 Ang^3
#
#
#
# Elastic Constant Matrix: (Units=GPa)
#
#
# Indices 1 2 3 4 5 6 
#
# 1 33.0801 25.0439 34.0234 0.0000 0.0000 0.0000
# 2 25.0439 99.4598 78.1588 0.0000 0.0000 0.0000
# 3 34.0234 78.1588 142.4866 0.0000 0.0000 0.0000
# 4 0.0000 0.0000 0.0000 25.2025 0.0000 0.0000
# 5 0.0000 0.0000 0.0000 0.0000 12.8543 0.0000
# 6 0.0000 0.0000 0.0000 0.0000 0.0000 11.2944
#
#
#
# Elastic Compliance Matrix: (Units=1/GPa)
#
#
# Indices 1 2 3 4 5 6 
#
# 1 0.041260 -0.004653 -0.007300 0.000000 0.000000 0.000000
# 2 -0.004653 0.018197 -0.008870 0.000000 0.000000 0.000000
# 3 -0.007300 -0.008870 0.013627 0.000000 0.000000 0.000000
# 4 0.000000 0.000000 0.000000 0.039679 0.000000 0.000000
# 5 0.000000 0.000000 0.000000 0.000000 0.077795 0.000000
# 6 0.000000 0.000000 0.000000 0.000000 0.000000 0.088539
#
#
# Mechanical properties :
#
#
# Convention : Reuss Voigt Hill
#
# Bulk Modulus (GPa) = 31.80914 61.05320 46.43117
# Shear Modulus (GPa) = 15.09559 19.05693 17.07626
#
# Velocity S-wave (km/s) = 3.15419 3.54396 3.35474
# Velocity P-wave (km/s) = 5.85059 7.54878 6.75328
#
# Compressibility (1/GPa) = 0.03143750
#
# Stress axis : x y z
#
# Youngs Moduli (GPa) = 24.23639 54.95548 73.38307
#
# Poissons Ratio (x) = 0.25569 0.53571
# Poissons Ratio (y) = 0.11276 0.65094
# Poissons Ratio (z) = 0.17693 0.48748
#
# Static dielectric constant tensor:
#      x y z
#    x 2.376310 0.000000 0.000000 
#    y 0.000000 3.022610 0.000000 
#    z 0.000000 0.000000 3.188360 
# 
# 
# High freq. dielectric constant tensor:
#      x y z
#    x 1.503370 0.000000 0.000000 
#    y 0.000000 1.592320 0.000000 
#    z 0.000000 0.000000 1.595260 
# 
# From -- ./inp_files/30843.got.cif
#   From: 2010.03.12/outbox.cif.g09.slc.cpg/sg51_16_cif.got.tgz:30843.got - 2010.04.16 13:43:02.
