data_PCOD8206742
_publ_section_title
;
Structure prediction by ZEFSAII (Michael W. Deem and Ramdas Pophale) SiO2 
 PCOD8206742
Probable space group: P M M A
;
_chemical_formula_sum "Si O2"
_cell_formula_units_Z 56
_cell_length_a 8.898298
_cell_length_b 14.634294
_cell_length_c 23.410545
_cell_angle_alpha 90.000000
_cell_angle_beta 90.000000
_cell_angle_gamma 90.000000
_cell_volume 3048.528404
_symmetry_space_group_name_H-M "P M M A"
_symmetry_group_IT_number 51
_symmetry_cell_setting 'orthorhombic'
loop_
_space_group_symop_operation_xyz
x,y,z
1/2-x,-y,z
1/2+x,-y,-z
-x,y,-z
-x,-y,-z
1/2+x,y,-z
1/2-x,y,z
x,-y,z
loop_
_atom_site_type_symbol
_atom_site_label
_atom_site_fract_x
_atom_site_fract_y
_atom_site_fract_z
Si Si1 0.425215 0.105125 0.385724
Si Si2 0.426778 0.896265 0.059956
Si Si3 0.421071 0.105591 0.730567
Si Si4 0.073008 0.216873 0.841316
Si Si5 0.928459 0.398843 0.214920
Si Si6 0.428147 0.397804 0.657704
Si Si7 0.428192 0.732673 0.558313
O O1 0.250000 0.124398 0.393220
O O2 0.473587 0.133210 0.321892
O O3 0.517544 0.163702 0.431553
O O4 0.466644 0.000000 0.397272
O O5 0.250000 0.886526 0.053676
O O6 0.484255 0.823521 0.105605
O O7 0.471873 0.000000 0.077759
O O8 0.500000 0.870091 0.000000
O O9 0.250000 0.130768 0.713655
O O10 0.474446 0.161477 0.785256
O O11 0.437171 0.000000 0.746711
O O12 0.250000 0.208316 0.853261
O O13 0.021494 0.322230 0.830963
O O14 0.750000 0.400750 0.218002
O O15 0.987991 0.500000 0.196695
O O16 0.987892 0.373064 0.278596
O O17 0.250000 0.391349 0.657098
O O18 0.480805 0.500000 0.641628
O O19 0.492685 0.328563 0.610439
O O20 0.500000 0.694921 0.500000
O O21 0.250000 0.728940 0.553276
#
# Coordination Sequence:
#
# PCOD8206742 Si02
#       7
#     8   8   8   8   8   8   8
#     4  10  21  36  52  70  95 128 165 206 251 297
#     4  10  21  36  53  74 103 139 176 213 253 296
#     4   9  17  29  47  73 102 130 162 201 247 300
#     4  10  18  29  50  78 106 137 172 208 246 291
#     4   8  14  26  47  76 105 131 163 203 245 291
#     4   8  15  30  52  76 101 129 161 198 243 296
#     4  11  22  35  52  73  97 126 162 204 249 299
#
# _framework density 18.369520999999999
#
# number of rings (size 3 to 8) (size 9 to 14) (size 15 to 20)
#    0.000    2.571    0.000    3.429    0.000    5.714 
#    0.000    1.429    0.000    2.143    0.000    4.000 
#    0.000    0.000    0.000    0.000    0.000    0.000 
#
# Total GULP energy -694296.131865 kJ/mol
# GULP energy per Si atom -12398.145212 kJ/mol
# Density = 1.832771 g / cm^3
# Si number density = 18.369521 Si / 1000 Ang^3
#
#
#
# Elastic Constant Matrix: (Units=GPa)
#
#
# Indices 1 2 3 4 5 6 
#
# 1 47.8889 31.7953 33.4983 0.0000 0.0000 0.0000
# 2 31.7953 111.6012 74.2257 0.0000 0.0000 0.0000
# 3 33.4983 74.2257 104.3806 0.0000 0.0000 0.0000
# 4 0.0000 0.0000 0.0000 26.7132 0.0000 0.0000
# 5 0.0000 0.0000 0.0000 0.0000 31.4688 0.0000
# 6 0.0000 0.0000 0.0000 0.0000 0.0000 14.8313
#
#
#
# Elastic Compliance Matrix: (Units=1/GPa)
#
#
# Indices 1 2 3 4 5 6 
#
# 1 0.027734 -0.003760 -0.006227 0.000000 0.000000 0.000000
# 2 -0.003760 0.017511 -0.011246 0.000000 0.000000 0.000000
# 3 -0.006227 -0.011246 0.019575 0.000000 0.000000 0.000000
# 4 0.000000 0.000000 0.000000 0.037435 0.000000 0.000000
# 5 0.000000 0.000000 0.000000 0.000000 0.031778 0.000000
# 6 0.000000 0.000000 0.000000 0.000000 0.000000 0.067425
#
#
# Mechanical properties :
#
#
# Convention : Reuss Voigt Hill
#
# Bulk Modulus (GPa) = 44.73133 60.32325 52.52729
# Shear Modulus (GPa) = 19.89070 22.89274 21.39172
#
# Velocity S-wave (km/s) = 3.29418 3.53404 3.41621
# Velocity P-wave (km/s) = 6.23478 7.04007 6.64963
#
# Compressibility (1/GPa) = 0.02235569
#
# Stress axis : x y z
#
# Youngs Moduli (GPa) = 36.05727 57.10655 51.08445
#
# Poissons Ratio (x) = 0.21472 0.31809
# Poissons Ratio (y) = 0.13558 0.57447
# Poissons Ratio (z) = 0.22452 0.64220
#
# Static dielectric constant tensor:
#      x y z
#    x 3.085200 0.000000 0.000000 
#    y 0.000000 3.703890 0.000000 
#    z 0.000000 0.000000 3.388710 
# 
# 
# High freq. dielectric constant tensor:
#      x y z
#    x 1.682490 0.000000 0.000000 
#    y 0.000000 1.718000 0.000000 
#    z 0.000000 0.000000 1.700800 
# 
# From -- ./inp_files/32019.got.cif
#   From: 2010.03.12/outbox.cif.g09.slc.cpg/sg51_17_cif.got.tgz:32019.got - 2010.04.16 13:43:02.
