data_PCOD8206575
_publ_section_title
;
Structure prediction by ZEFSAII (Michael W. Deem and Ramdas Pophale) SiO2 
 PCOD8206575
Probable space group: P M M A
;
_chemical_formula_sum "Si O2"
_cell_formula_units_Z 64
_cell_length_a 18.141313
_cell_length_b 9.124106
_cell_length_c 26.316461
_cell_angle_alpha 90.000000
_cell_angle_beta 90.000000
_cell_angle_gamma 90.000000
_cell_volume 4355.986490
_symmetry_space_group_name_H-M "P M M A"
_symmetry_group_IT_number 51
_symmetry_cell_setting 'orthorhombic'
loop_
_space_group_symop_operation_xyz
x,y,z
1/2-x,-y,z
1/2+x,-y,-z
-x,y,-z
-x,-y,-z
1/2+x,y,-z
1/2-x,y,z
x,-y,z
loop_
_atom_site_type_symbol
_atom_site_label
_atom_site_fract_x
_atom_site_fract_y
_atom_site_fract_z
Si Si1 0.049924 0.661698 0.450325
Si Si2 0.043163 0.834573 0.052573
Si Si3 0.917168 0.672255 0.102669
Si Si4 0.664904 0.169599 0.492443
Si Si5 0.664229 0.829091 0.193163
Si Si6 0.335208 0.331362 0.704852
Si Si7 0.407325 0.672772 0.600713
Si Si8 0.834608 0.670532 0.999636
O O1 0.081558 0.500000 0.437867
O O2 0.118213 0.770401 0.459366
O O3 0.000000 0.654861 0.500000
O O4 0.994060 0.715524 0.405800
O O5 0.997589 0.742874 0.094106
O O6 0.054173 0.000000 0.072294
O O7 0.122539 0.760296 0.043805
O O8 0.000000 0.831144 0.000000
O O9 0.926876 0.500000 0.110436
O O10 0.882550 0.741435 0.152430
O O11 0.863897 0.709426 0.055613
O O12 0.750000 0.198020 0.504915
O O13 0.644344 0.248027 0.440056
O O14 0.646501 0.000000 0.485896
O O15 0.750000 0.797551 0.182926
O O16 0.641299 0.770753 0.248446
O O17 0.645577 0.000000 0.189516
O O18 0.250000 0.308956 0.690589
O O19 0.351170 0.500000 0.719261
O O20 0.383187 0.279490 0.656867
O O21 0.396080 0.500000 0.592026
O O22 0.750000 0.718134 0.996992
O O23 0.846177 0.500000 0.988153
#
# Coordination Sequence:
#
# PCOD8206575 Si02
#       8
#     8   8   8   8   8   8   8   8
#     4   8  15  27  41  57  77 102 133 167 201 238
#     4   9  17  28  41  59  83 109 137 170 208 247
#     4  10  18  29  45  61  80 110 145 175 205 242
#     4  10  19  27  37  57  83 109 137 167 199 238
#     4  10  20  31  42  59  84 110 137 172 208 240
#     4   9  17  29  44  60  79 105 136 168 201 238
#     4   9  17  29  44  60  78 104 138 171 203 240
#     4   9  17  28  42  61  84 110 141 174 205 241
#
# _framework density 14.692424000000001
#
# number of rings (size 3 to 8) (size 9 to 14) (size 15 to 20)
#    0.000    2.750    0.000    3.000    0.000    7.750 
#    0.000    1.250    0.000    0.000    0.000    0.000 
#    0.000    1.000    0.000    5.250    0.000    4.875 
#
# Total GULP energy -793503.848154 kJ/mol
# GULP energy per Si atom -12398.497627 kJ/mol
# Density = 1.465898 g / cm^3
# Si number density = 14.692424 Si / 1000 Ang^3
#
#
#
# Elastic Constant Matrix: (Units=GPa)
#
#
# Indices 1 2 3 4 5 6 
#
# 1 96.7908 55.0137 54.0289 0.0000 0.0000 0.0000
# 2 55.0137 83.4853 47.2428 0.0000 0.0000 0.0000
# 3 54.0289 47.2428 82.0110 0.0000 0.0000 0.0000
# 4 0.0000 0.0000 0.0000 18.2781 0.0000 0.0000
# 5 0.0000 0.0000 0.0000 0.0000 27.2895 0.0000
# 6 0.0000 0.0000 0.0000 0.0000 0.0000 24.3352
#
#
#
# Elastic Compliance Matrix: (Units=1/GPa)
#
#
# Indices 1 2 3 4 5 6 
#
# 1 0.019587 -0.008316 -0.008114 0.000000 0.000000 0.000000
# 2 -0.008316 0.021302 -0.006792 0.000000 0.000000 0.000000
# 3 -0.008114 -0.006792 0.021452 0.000000 0.000000 0.000000
# 4 0.000000 0.000000 0.000000 0.054710 0.000000 0.000000
# 5 0.000000 0.000000 0.000000 0.000000 0.036644 0.000000
# 6 0.000000 0.000000 0.000000 0.000000 0.000000 0.041093
#
#
# Mechanical properties :
#
#
# Convention : Reuss Voigt Hill
#
# Bulk Modulus (GPa) = 62.90672 63.87307 63.38990
# Shear Modulus (GPa) = 20.28148 21.04734 20.66441
#
# Velocity S-wave (km/s) = 3.71941 3.78898 3.75436
# Velocity P-wave (km/s) = 7.83288 7.91895 7.87603
#
# Compressibility (1/GPa) = 0.01589655
#
# Stress axis : x y z
#
# Youngs Moduli (GPa) = 51.05387 46.94465 46.61666
#
# Poissons Ratio (x) = 0.39038 0.37823
# Poissons Ratio (y) = 0.42456 0.31664
# Poissons Ratio (z) = 0.41423 0.31887
#
# Static dielectric constant tensor:
#      x y z
#    x 2.942990 0.000000 0.000000 
#    y 0.000000 2.955860 0.000000 
#    z 0.000000 0.000000 2.721820 
# 
# 
# High freq. dielectric constant tensor:
#      x y z
#    x 1.549960 0.000000 0.000000 
#    y 0.000000 1.572270 0.000000 
#    z 0.000000 0.000000 1.529460 
# 
# From -- ./inp_files/35891.got.cif
#   From: 2010.03.12/outbox.cif.g09.slc.cpg/sg51_18_cif.got.tgz:35891.got - 2010.04.16 13:43:02.
