data_PCOD8206065
_publ_section_title
;
Structure prediction by ZEFSAII (Michael W. Deem and Ramdas Pophale) SiO2 
 PCOD8206065
Probable space group: P M M A
;
_chemical_formula_sum "Si O2"
_cell_formula_units_Z 52
_cell_length_a 15.547069
_cell_length_b 19.447145
_cell_length_c 8.028325
_cell_angle_alpha 90.000000
_cell_angle_beta 90.000000
_cell_angle_gamma 90.000000
_cell_volume 2427.332795
_symmetry_space_group_name_H-M "P M M A"
_symmetry_group_IT_number 51
_symmetry_cell_setting 'orthorhombic'
loop_
_space_group_symop_operation_xyz
x,y,z
1/2-x,-y,z
1/2+x,-y,-z
-x,y,-z
-x,-y,-z
1/2+x,y,-z
1/2-x,y,z
x,-y,z
loop_
_atom_site_type_symbol
_atom_site_label
_atom_site_fract_x
_atom_site_fract_y
_atom_site_fract_z
Si Si1 0.099755 0.853194 0.663074
Si Si2 0.559925 0.702687 0.341242
Si Si3 0.412565 0.081159 0.341857
Si Si4 0.153112 0.419535 0.146335
Si Si5 0.897414 0.076401 0.014816
Si Si6 0.648633 0.423994 0.476499
Si Si7 0.500000 0.658988 0.000000
O O1 0.116288 0.771828 0.646625
O O2 0.141887 0.891809 0.502019
O O3 0.999802 0.874485 0.664527
O O4 0.141501 0.875641 0.839678
O O5 0.500000 0.701733 0.500000
O O6 0.616024 0.633052 0.347171
O O7 0.509722 0.705740 0.164954
O O8 0.360370 0.095278 0.169528
O O9 0.434251 0.000000 0.357728
O O10 0.250000 0.390044 0.118196
O O11 0.154392 0.500000 0.111496
O O12 0.121007 0.404468 0.334971
O O13 0.086347 0.385959 0.018559
O O14 0.869204 0.000000 0.064753
O O15 0.000000 0.081376 0.000000
O O16 0.750000 0.427512 0.466962
O O17 0.611331 0.500000 0.429940
#
# Coordination Sequence:
#
# PCOD8206065 Si02
#       7
#     8   8   8   8   8   8   4
#     4  10  17  26  41  62 103 142 174 217 275 332
#     4  12  24  36  52  84 116 151 186 230 294 355
#     4   9  15  24  41  63  94 142 184 216 262 322
#     4   9  19  38  63  88 112 143 188 242 297 352
#     4   8  14  23  38  61  90 133 183 218 255 317
#     4   9  20  42  66  82 106 147 195 246 294 350
#     4  12  25  36  56  84 121 152 190 236 292 358
#
# _framework density 21.422689999999999
#
# number of rings (size 3 to 8) (size 9 to 14) (size 15 to 20)
#    0.000    2.308    3.077    3.923    3.231    2.154 
#    0.000    1.538    0.000    0.000    0.000    0.000 
#    0.000    5.538    0.000    3.385    0.000    0.462 
#
# Total GULP energy -644280.729601 kJ/mol
# GULP energy per Si atom -12390.014031 kJ/mol
# Density = 2.137393 g / cm^3
# Si number density = 21.422690 Si / 1000 Ang^3
#
#
#
# Elastic Constant Matrix: (Units=GPa)
#
#
# Indices 1 2 3 4 5 6 
#
# 1 30.9908 18.8994 19.5024 0.0000 0.0000 0.0000
# 2 18.8994 135.5851 67.6502 0.0000 0.0000 0.0000
# 3 19.5024 67.6502 188.2719 0.0000 0.0000 0.0000
# 4 0.0000 0.0000 0.0000 15.0796 0.0000 0.0000
# 5 0.0000 0.0000 0.0000 0.0000 13.3984 0.0000
# 6 0.0000 0.0000 0.0000 0.0000 0.0000 -4.4920
#
#
#
# Elastic Compliance Matrix: (Units=1/GPa)
#
#
# Indices 1 2 3 4 5 6 
#
# 1 0.036101 -0.003858 -0.002353 0.000000 0.000000 0.000000
# 2 -0.003858 0.009399 -0.002978 0.000000 0.000000 0.000000
# 3 -0.002353 -0.002978 0.006625 0.000000 0.000000 0.000000
# 4 0.000000 0.000000 0.000000 0.066315 0.000000 0.000000
# 5 0.000000 0.000000 0.000000 0.000000 0.074636 0.000000
# 6 0.000000 0.000000 0.000000 0.000000 0.000000 -0.222617
#
#
# Mechanical properties :
#
#
# Convention : Reuss Voigt Hill
#
# Bulk Modulus (GPa) = 29.63180 62.99464 46.31322
# Shear Modulus (GPa) = 58197.36795 21.38359 29109.37577
#
# Velocity S-wave (km/s) = 165.00062 3.16282 116.69449
# Velocity P-wave (km/s) = 190.56267 6.54273 134.82756
#
# Compressibility (1/GPa) = 0.03374753
#
# Stress axis : x y z
#
# Youngs Moduli (GPa) = 27.69978 106.39564 150.93993
#
# Poissons Ratio (x) = 0.41048 0.35521
# Poissons Ratio (y) = 0.10687 0.44944
# Poissons Ratio (z) = 0.06519 0.31680
#
# Static dielectric constant tensor:
#      x y z
#    x 3.135210 0.000000 0.000000 
#    y 0.000000 4.226610 0.000000 
#    z 0.000000 0.000000 4.887500 
# 
# 
# High freq. dielectric constant tensor:
#      x y z
#    x 1.775030 0.000000 0.000000 
#    y 0.000000 1.831750 0.000000 
#    z 0.000000 0.000000 1.866170 
# 
# From -- ./inp_files/9854.got.cif
#   From: 2010.03.12/outbox.cif.g09.slc.cpg/sg51_5_cif.got.tgz:9854.got - 2010.04.16 13:43:02.
