data_PCOD8206044
_publ_section_title
;
Structure prediction by ZEFSAII (Michael W. Deem and Ramdas Pophale) SiO2 
 PCOD8206044
Probable space group: P M M A
;
_chemical_formula_sum "Si O2"
_cell_formula_units_Z 64
_cell_length_a 19.690215
_cell_length_b 8.716959
_cell_length_c 22.138189
_cell_angle_alpha 90.000000
_cell_angle_beta 90.000000
_cell_angle_gamma 90.000000
_cell_volume 3799.772125
_symmetry_space_group_name_H-M "P M M A"
_symmetry_group_IT_number 51
_symmetry_cell_setting 'orthorhombic'
loop_
_space_group_symop_operation_xyz
x,y,z
1/2-x,-y,z
1/2+x,-y,-z
-x,y,-z
-x,-y,-z
1/2+x,y,-z
1/2-x,y,z
x,-y,z
loop_
_atom_site_type_symbol
_atom_site_label
_atom_site_fract_x
_atom_site_fract_y
_atom_site_fract_z
Si Si1 0.539171 0.818284 0.940373
Si Si2 0.326180 0.820407 0.618645
Si Si3 0.325463 0.174138 0.897305
Si Si4 0.467999 0.821060 0.417397
Si Si5 0.455406 0.820454 0.827808
Si Si6 0.673883 0.678737 0.976849
Si Si7 0.453304 0.181444 0.695123
Si Si8 0.596990 0.320269 0.480586
O O1 0.503795 0.749857 0.879910
O O2 0.617593 0.767351 0.938007
O O3 0.534663 0.000000 0.940529
O O4 0.500000 0.754382 0.000000
O O5 0.250000 0.786466 0.642585
O O6 0.381744 0.757665 0.666970
O O7 0.334947 0.731319 0.554327
O O8 0.336931 0.000000 0.606466
O O9 0.250000 0.193295 0.870428
O O10 0.377221 0.214644 0.844158
O O11 0.337932 0.000000 0.920819
O O12 0.337943 0.286994 0.952842
O O13 0.481851 0.776162 0.347175
O O14 0.405227 0.726266 0.447765
O O15 0.537558 0.779672 0.450943
O O16 0.452292 0.000000 0.423731
O O17 0.467217 0.745978 0.761498
O O18 0.470128 0.000000 0.824454
O O19 0.750000 0.732594 0.957688
O O20 0.664722 0.500000 0.965469
O O21 0.445654 0.000000 0.701173
O O22 0.584007 0.500000 0.473426
#
# Coordination Sequence:
#
# PCOD8206044 Si02
#       8
#     8   8   8   8   8   8   8   8
#     4  10  18  30  48  70  94 120 149 189 240 286
#     4   9  17  29  44  63  90 123 156 185 214 254
#     4   9  16  27  44  64  88 119 152 186 225 271
#     4   9  15  26  43  62  85 111 143 181 222 260
#     4   9  16  27  43  67  95 119 152 194 233 274
#     4  10  20  32  46  65  89 116 148 188 233 281
#     4   8  15  26  42  64  89 118 150 186 222 260
#     4  10  17  25  41  64  87 112 144 181 221 257
#
# _framework density 16.843114
#
# number of rings (size 3 to 8) (size 9 to 14) (size 15 to 20)
#    0.000    2.750    1.250    3.375    0.000    1.750 
#    0.000    2.500    0.000    7.500    0.000    4.375 
#    0.000    3.000    0.000    0.000    0.000    0.000 
#
# Total GULP energy -792945.895077 kJ/mol
# GULP energy per Si atom -12389.779611 kJ/mol
# Density = 1.680478 g / cm^3
# Si number density = 16.843114 Si / 1000 Ang^3
#
#
#
# Elastic Constant Matrix: (Units=GPa)
#
#
# Indices 1 2 3 4 5 6 
#
# 1 72.5935 13.9482 59.5137 0.0000 0.0000 0.0000
# 2 13.9482 21.9723 18.9665 0.0000 0.0000 0.0000
# 3 59.5137 18.9665 132.4368 0.0000 0.0000 0.0000
# 4 0.0000 0.0000 0.0000 6.0721 0.0000 0.0000
# 5 0.0000 0.0000 0.0000 0.0000 21.7980 0.0000
# 6 0.0000 0.0000 0.0000 0.0000 0.0000 13.8278
#
#
#
# Elastic Compliance Matrix: (Units=1/GPa)
#
#
# Indices 1 2 3 4 5 6 
#
# 1 0.022563 -0.006357 -0.009229 0.000000 0.000000 0.000000
# 2 -0.006357 0.053722 -0.004837 0.000000 0.000000 0.000000
# 3 -0.009229 -0.004837 0.012391 0.000000 0.000000 0.000000
# 4 0.000000 0.000000 0.000000 0.164688 0.000000 0.000000
# 5 0.000000 0.000000 0.000000 0.000000 0.045876 0.000000
# 6 0.000000 0.000000 0.000000 0.000000 0.000000 0.072318
#
#
# Mechanical properties :
#
#
# Convention : Reuss Voigt Hill
#
# Bulk Modulus (GPa) = 20.90709 45.76216 33.33463
# Shear Modulus (GPa) = 11.67278 17.31119 14.49199
#
# Velocity S-wave (km/s) = 2.63540 3.20939 2.93646
# Velocity P-wave (km/s) = 4.65835 6.40018 5.59743
#
# Compressibility (1/GPa) = 0.04783065
#
# Stress axis : x y z
#
# Youngs Moduli (GPa) = 44.32112 18.61418 80.70607
#
# Poissons Ratio (x) = 0.11833 0.74481
# Poissons Ratio (y) = 0.28174 0.39039
# Poissons Ratio (z) = 0.40903 0.09004
#
# Static dielectric constant tensor:
#      x y z
#    x 3.271520 0.000000 0.000000 
#    y 0.000000 2.879430 0.000000 
#    z 0.000000 0.000000 3.587920 
# 
# 
# High freq. dielectric constant tensor:
#      x y z
#    x 1.628640 0.000000 0.000000 
#    y 0.000000 1.624200 0.000000 
#    z 0.000000 0.000000 1.632550 
# 
# From -- ./inp_files/35963.got.cif
#   From: 2010.03.12/outbox.cif.g09.slc.cpg/sg51_18_cif.got.tgz:35963.got - 2010.04.16 13:43:02.
