data_PCOD8206901
_publ_section_title
;
Structure prediction by ZEFSAII (Michael W. Deem and Ramdas Pophale) SiO2 
 PCOD8206901
Probable space group: P M M A
;
_chemical_formula_sum "Si O2"
_cell_formula_units_Z 52
_cell_length_a 9.076167
_cell_length_b 27.575103
_cell_length_c 10.866287
_cell_angle_alpha 90.000000
_cell_angle_beta 90.000000
_cell_angle_gamma 90.000000
_cell_volume 2719.573452
_symmetry_space_group_name_H-M "P M M A"
_symmetry_group_IT_number 51
_symmetry_cell_setting 'orthorhombic'
loop_
_space_group_symop_operation_xyz
x,y,z
1/2-x,-y,z
1/2+x,-y,-z
-x,y,-z
-x,-y,-z
1/2+x,y,-z
1/2-x,y,z
x,-y,z
loop_
_atom_site_type_symbol
_atom_site_label
_atom_site_fract_x
_atom_site_fract_y
_atom_site_fract_z
Si Si1 0.573332 0.221414 0.625592
Si Si2 0.074832 0.606896 0.121988
Si Si3 0.500000 0.792640 0.000000
Si Si4 0.921986 0.556288 0.624280
Si Si5 0.089421 0.712105 0.166470
Si Si6 0.580060 0.054308 0.870602
Si Si7 0.918259 0.143192 0.225736
O O1 0.500000 0.236645 0.500000
O O2 0.750000 0.218516 0.619896
O O3 0.512018 0.263270 0.716368
O O4 0.509572 0.170027 0.668663
O O5 0.250000 0.602324 0.105311
O O6 0.022649 0.581986 0.249745
O O7 0.010943 0.662495 0.124749
O O8 0.000000 0.582875 0.000000
O O9 0.610962 0.754719 0.935080
O O10 0.419587 0.827488 0.902994
O O11 0.750000 0.565617 0.606164
O O12 0.960562 0.500000 0.640225
O O13 0.000000 0.576798 0.500000
O O14 0.250000 0.694578 0.208209
O O15 0.750000 0.070411 0.887616
O O16 0.495734 0.090980 0.781512
O O17 0.570336 0.000000 0.815000
O O18 0.500000 0.056214 0.000000
O O19 0.750000 0.136369 0.267606
#
# Coordination Sequence:
#
# PCOD8206901 Si02
#       7
#     8   8   4   8   8   8   8
#     4  10  21  37  54  74 103 136 178 224 267 314
#     4  10  20  35  54  80 113 147 184 229 282 336
#     4  10  18  30  49  74 105 136 174 212 252 310
#     4   9  19  36  57  80 108 143 186 234 283 336
#     4   9  18  32  50  72 103 140 172 214 262 314
#     4  10  20  33  50  75 108 141 173 213 262 316
#     4  11  21  32  53  79 105 138 175 215 263 315
#
# _framework density 19.120647000000002
#
# number of rings (size 3 to 8) (size 9 to 14) (size 15 to 20)
#    0.000    2.154    1.538    1.846    0.000    3.692 
#    0.000    0.769    0.000    0.462    0.000    0.000 
#    0.000    0.000    0.000    0.000    0.000    0.000 
#
# Total GULP energy -644321.529365 kJ/mol
# GULP energy per Si atom -12390.798642 kJ/mol
# Density = 1.907713 g / cm^3
# Si number density = 19.120647 Si / 1000 Ang^3
#
#
#
# Elastic Constant Matrix: (Units=GPa)
#
#
# Indices 1 2 3 4 5 6 
#
# 1 93.0033 27.7494 37.4078 0.0000 0.0000 0.0000
# 2 27.7494 83.3752 42.4586 0.0000 0.0000 0.0000
# 3 37.4078 42.4586 132.3835 0.0000 0.0000 0.0000
# 4 0.0000 0.0000 0.0000 18.9083 0.0000 0.0000
# 5 0.0000 0.0000 0.0000 0.0000 30.2377 0.0000
# 6 0.0000 0.0000 0.0000 0.0000 0.0000 21.1773
#
#
#
# Elastic Compliance Matrix: (Units=1/GPa)
#
#
# Indices 1 2 3 4 5 6 
#
# 1 0.012678 -0.002863 -0.002664 0.000000 0.000000 0.000000
# 2 -0.002863 0.014982 -0.003996 0.000000 0.000000 0.000000
# 3 -0.002664 -0.003996 0.009588 0.000000 0.000000 0.000000
# 4 0.000000 0.000000 0.000000 0.052887 0.000000 0.000000
# 5 0.000000 0.000000 0.000000 0.000000 0.033071 0.000000
# 6 0.000000 0.000000 0.000000 0.000000 0.000000 0.047220
#
#
# Mechanical properties :
#
#
# Convention : Reuss Voigt Hill
#
# Bulk Modulus (GPa) = 54.93956 58.22154 56.58055
# Shear Modulus (GPa) = 25.57017 27.47440 26.52229
#
# Velocity S-wave (km/s) = 3.66089 3.79475 3.72842
# Velocity P-wave (km/s) = 6.83117 7.05095 6.94193
#
# Compressibility (1/GPa) = 0.01820182
#
# Stress axis : x y z
#
# Youngs Moduli (GPa) = 78.87603 66.74775 104.29371
#
# Poissons Ratio (x) = 0.19109 0.27787
# Poissons Ratio (y) = 0.22581 0.41677
# Poissons Ratio (z) = 0.21015 0.26673
#
# Static dielectric constant tensor:
#      x y z
#    x 3.387070 0.000000 0.000000 
#    y 0.000000 3.709170 0.000000 
#    z 0.000000 0.000000 3.431030 
# 
# 
# High freq. dielectric constant tensor:
#      x y z
#    x 1.732960 0.000000 0.000000 
#    y 0.000000 1.743660 0.000000 
#    z 0.000000 0.000000 1.731420 
# 
# From -- ./inp_files/14616.got.cif
#   From: 2010.03.12/outbox.cif.g09.slc.cpg/sg51_8_cif.got.tgz:14616.got - 2010.04.16 13:43:02.
