data_PCOD8206448
_publ_section_title
;
Structure prediction by ZEFSAII (Michael W. Deem and Ramdas Pophale) SiO2 
 PCOD8206448
Probable space group: P M M A
;
_chemical_formula_sum "Si O2"
_cell_formula_units_Z 64
_cell_length_a 20.548802
_cell_length_b 9.354437
_cell_length_c 20.533380
_cell_angle_alpha 90.000000
_cell_angle_beta 90.000000
_cell_angle_gamma 90.000000
_cell_volume 3946.977098
_symmetry_space_group_name_H-M "P M M A"
_symmetry_group_IT_number 51
_symmetry_cell_setting 'orthorhombic'
loop_
_space_group_symop_operation_xyz
x,y,z
1/2-x,-y,z
1/2+x,-y,-z
-x,y,-z
-x,-y,-z
1/2+x,y,-z
1/2-x,y,z
x,-y,z
loop_
_atom_site_type_symbol
_atom_site_label
_atom_site_fract_x
_atom_site_fract_y
_atom_site_fract_z
Si Si1 0.502088 0.834918 0.325972
Si Si2 0.507744 0.157109 0.186055
Si Si3 0.632268 0.333499 0.338895
Si Si4 0.561377 0.835503 0.541225
Si Si5 0.176762 0.664026 0.517554
Si Si6 0.320017 0.663652 0.903279
Si Si7 0.537059 0.667932 0.063352
Si Si8 0.157582 0.159390 0.780353
O O1 0.471183 0.798230 0.253791
O O2 0.560148 0.729630 0.344827
O O3 0.447873 0.814322 0.381356
O O4 0.527126 0.000000 0.325623
O O5 0.500918 0.266763 0.126534
O O6 0.581215 0.152460 0.209975
O O7 0.484993 0.000000 0.161754
O O8 0.627621 0.500000 0.320049
O O9 0.669395 0.308142 0.405916
O O10 0.673637 0.250135 0.284092
O O11 0.500000 0.773664 0.500000
O O12 0.627438 0.756443 0.524236
O O13 0.570430 0.000000 0.521916
O O14 0.250000 0.706193 0.497317
O O15 0.162064 0.500000 0.501281
O O16 0.250000 0.677809 0.942361
O O17 0.330280 0.500000 0.881057
O O18 0.385763 0.709866 0.942444
O O19 0.310095 0.762037 0.840967
O O20 0.527282 0.500000 0.068992
O O21 0.500000 0.728436 0.000000
O O22 0.187003 0.000000 0.774378
#
# Coordination Sequence:
#
# PCOD8206448 Si02
#       8
#     8   8   8   8   8   8   8   8
#     4   9  17  30  47  69  95 118 148 195 241 276
#     4   8  15  27  43  64  91 119 145 178 220 267
#     4  10  18  28  44  64  88 122 160 191 226 270
#     4  10  19  32  52  73  92 117 154 200 245 286
#     4  10  22  36  46  62  92 125 157 196 240 288
#     4   9  17  29  44  62  86 117 151 183 217 261
#     4   9  17  29  45  66  92 119 148 184 220 258
#     4   9  17  28  42  61  88 119 152 187 221 257
#
# _framework density 16.214941
#
# number of rings (size 3 to 8) (size 9 to 14) (size 15 to 20)
#    0.000    2.750    1.250    1.500    0.000    5.500 
#    0.000    1.250    0.000    0.000    0.000    0.875 
#    0.000    3.000    0.000    0.000    0.000    0.000 
#
# Total GULP energy -792973.268027 kJ/mol
# GULP energy per Si atom -12390.207313 kJ/mol
# Density = 1.617803 g / cm^3
# Si number density = 16.214941 Si / 1000 Ang^3
#
#
#
# Elastic Constant Matrix: (Units=GPa)
#
#
# Indices 1 2 3 4 5 6 
#
# 1 83.2585 37.2710 53.5297 0.0000 0.0000 0.0000
# 2 37.2710 68.6134 41.7424 0.0000 0.0000 0.0000
# 3 53.5297 41.7424 108.0731 0.0000 0.0000 0.0000
# 4 0.0000 0.0000 0.0000 25.0849 0.0000 0.0000
# 5 0.0000 0.0000 0.0000 0.0000 13.5636 0.0000
# 6 0.0000 0.0000 0.0000 0.0000 0.0000 8.8405
#
#
#
# Elastic Compliance Matrix: (Units=1/GPa)
#
#
# Indices 1 2 3 4 5 6 
#
# 1 0.019418 -0.006139 -0.007247 0.000000 0.000000 0.000000
# 2 -0.006139 0.020992 -0.005067 0.000000 0.000000 0.000000
# 3 -0.007247 -0.005067 0.014800 0.000000 0.000000 0.000000
# 4 0.000000 0.000000 0.000000 0.039865 0.000000 0.000000
# 5 0.000000 0.000000 0.000000 0.000000 0.073727 0.000000
# 6 0.000000 0.000000 0.000000 0.000000 0.000000 0.113116
#
#
# Mechanical properties :
#
#
# Convention : Reuss Voigt Hill
#
# Bulk Modulus (GPa) = 54.63489 58.33680 56.48585
# Shear Modulus (GPa) = 15.38817 17.99126 16.68971
#
# Velocity S-wave (km/s) = 3.08395 3.33460 3.21172
# Velocity P-wave (km/s) = 6.81530 7.13312 6.97602
#
# Compressibility (1/GPa) = 0.01830332
#
# Stress axis : x y z
#
# Youngs Moduli (GPa) = 51.49784 47.63718 67.56959
#
# Poissons Ratio (x) = 0.29246 0.48966
# Poissons Ratio (y) = 0.31616 0.34238
# Poissons Ratio (z) = 0.37320 0.24138
#
# Static dielectric constant tensor:
#      x y z
#    x 2.950510 0.000000 0.000000 
#    y 0.000000 3.171520 0.000000 
#    z 0.000000 0.000000 3.169250 
# 
# 
# High freq. dielectric constant tensor:
#      x y z
#    x 1.593730 0.000000 0.000000 
#    y 0.000000 1.628620 0.000000 
#    z 0.000000 0.000000 1.608240 
# 
# From -- ./inp_files/34062.got.cif
#   From: 2010.03.12/outbox.cif.g09.slc.cpg/sg51_18_cif.got.tgz:34062.got - 2010.04.16 13:43:02.
