data_PCOD8206443
_publ_section_title
;
Structure prediction by ZEFSAII (Michael W. Deem and Ramdas Pophale) SiO2 
 PCOD8206443
Probable space group: P M M A
;
_chemical_formula_sum "Si O2"
_cell_formula_units_Z 56
_cell_length_a 8.893388
_cell_length_b 21.719178
_cell_length_c 18.451093
_cell_angle_alpha 90.000000
_cell_angle_beta 90.000000
_cell_angle_gamma 90.000000
_cell_volume 3563.959191
_symmetry_space_group_name_H-M "P M M A"
_symmetry_group_IT_number 51
_symmetry_cell_setting 'orthorhombic'
loop_
_space_group_symop_operation_xyz
x,y,z
1/2-x,-y,z
1/2+x,-y,-z
-x,y,-z
-x,-y,-z
1/2+x,y,-z
1/2-x,y,z
x,-y,z
loop_
_atom_site_type_symbol
_atom_site_label
_atom_site_fract_x
_atom_site_fract_y
_atom_site_fract_z
Si Si1 0.429307 0.311402 0.922109
Si Si2 0.573329 0.930683 0.425301
Si Si3 0.421398 0.646993 0.715253
Si Si4 0.575766 0.566778 0.158465
Si Si5 0.574016 0.753697 0.795214
Si Si6 0.927560 0.179915 0.327509
Si Si7 0.920680 0.293479 0.425326
O O1 0.250000 0.308815 0.925628
O O2 0.488257 0.377513 0.890658
O O3 0.489517 0.255613 0.871977
O O4 0.500000 0.301854 0.000000
O O5 0.500000 0.908159 0.500000
O O6 0.750000 0.926904 0.437085
O O7 0.522990 0.885832 0.360276
O O8 0.521140 0.000000 0.405545
O O9 0.250000 0.670121 0.733642
O O10 0.448128 0.581836 0.755428
O O11 0.542226 0.693947 0.746993
O O12 0.441135 0.646786 0.628021
O O13 0.750000 0.560571 0.140618
O O14 0.498296 0.500000 0.142267
O O15 0.750000 0.762512 0.809254
O O16 0.509427 0.812196 0.750296
O O17 0.750000 0.184357 0.314492
O O18 0.981398 0.232795 0.383936
O O19 0.750000 0.281967 0.446191
O O20 0.000000 0.307953 0.500000
#
# Coordination Sequence:
#
# PCOD8206443 Si02
#       7
#     8   8   8   8   8   8   8
#     4  10  19  31  46  65  91 116 137 165 204 248
#     4   9  17  28  42  61  88 123 158 189 221 256
#     4   8  15  28  42  57  80 106 133 170 215 256
#     4   8  14  26  45  64  80 105 141 173 201 241
#     4  10  18  28  44  64  83 107 141 175 211 253
#     4   9  17  29  42  58  84 114 145 180 216 253
#     4   9  16  24  36  55  77 103 134 172 216 255
#
# _framework density 15.712861999999999
#
# number of rings (size 3 to 8) (size 9 to 14) (size 15 to 20)
#    0.000    3.000    0.000    3.857    0.000    3.143 
#    0.000    0.000    0.000   10.714    0.000    0.000 
#    0.000    0.571    0.000    1.571    0.000    3.429 
#
# Total GULP energy -693751.392768 kJ/mol
# GULP energy per Si atom -12388.417728 kJ/mol
# Density = 1.567710 g / cm^3
# Si number density = 15.712862 Si / 1000 Ang^3
#
#
#
# Elastic Constant Matrix: (Units=GPa)
#
#
# Indices 1 2 3 4 5 6 
#
# 1 52.8065 23.0968 40.4542 0.0000 0.0000 0.0000
# 2 23.0968 67.4891 52.4153 0.0000 0.0000 0.0000
# 3 40.4542 52.4153 131.9711 0.0000 0.0000 0.0000
# 4 0.0000 0.0000 0.0000 20.3211 0.0000 0.0000
# 5 0.0000 0.0000 0.0000 0.0000 27.4336 0.0000
# 6 0.0000 0.0000 0.0000 0.0000 0.0000 11.5337
#
#
#
# Elastic Compliance Matrix: (Units=1/GPa)
#
#
# Indices 1 2 3 4 5 6 
#
# 1 0.025415 -0.003828 -0.006270 0.000000 0.000000 0.000000
# 2 -0.003828 0.022003 -0.007566 0.000000 0.000000 0.000000
# 3 -0.006270 -0.007566 0.012504 0.000000 0.000000 0.000000
# 4 0.000000 0.000000 0.000000 0.049210 0.000000 0.000000
# 5 0.000000 0.000000 0.000000 0.000000 0.036452 0.000000
# 6 0.000000 0.000000 0.000000 0.000000 0.000000 0.086702
#
#
# Mechanical properties :
#
#
# Convention : Reuss Voigt Hill
#
# Bulk Modulus (GPa) = 40.65922 53.79992 47.22957
# Shear Modulus (GPa) = 18.12827 20.94437 19.53632
#
# Velocity S-wave (km/s) = 3.40033 3.65491 3.52992
# Velocity P-wave (km/s) = 6.43031 7.21976 6.83644
#
# Compressibility (1/GPa) = 0.02459467
#
# Stress axis : x y z
#
# Youngs Moduli (GPa) = 39.34693 45.44821 79.97215
#
# Poissons Ratio (x) = 0.17397 0.50145
# Poissons Ratio (y) = 0.15062 0.60504
# Poissons Ratio (z) = 0.24672 0.34384
#
# Static dielectric constant tensor:
#      x y z
#    x 2.829250 0.000000 0.000000 
#    y 0.000000 3.054710 0.000000 
#    z 0.000000 0.000000 3.095030 
# 
# 
# High freq. dielectric constant tensor:
#      x y z
#    x 1.590920 0.000000 0.000000 
#    y 0.000000 1.569320 0.000000 
#    z 0.000000 0.000000 1.596880 
# 
# From -- ./inp_files/28265.got.cif
#   From: 2010.03.12/outbox.cif.g09.slc.cpg/sg51_15_cif.got.tgz:28265.got - 2010.04.16 13:43:02.
