data_PCOD8206165
_publ_section_title
;
Structure prediction by ZEFSAII (Michael W. Deem and Ramdas Pophale) SiO2 
 PCOD8206165
Probable space group: P M M A
;
_chemical_formula_sum "Si O2"
_cell_formula_units_Z 56
_cell_length_a 9.128203
_cell_length_b 15.461880
_cell_length_c 20.309301
_cell_angle_alpha 90.000000
_cell_angle_beta 90.000000
_cell_angle_gamma 90.000000
_cell_volume 2866.438077
_symmetry_space_group_name_H-M "P M M A"
_symmetry_group_IT_number 51
_symmetry_cell_setting 'orthorhombic'
loop_
_space_group_symop_operation_xyz
x,y,z
1/2-x,-y,z
1/2+x,-y,-z
-x,y,-z
-x,-y,-z
1/2+x,y,-z
1/2-x,y,z
x,-y,z
loop_
_atom_site_type_symbol
_atom_site_label
_atom_site_fract_x
_atom_site_fract_y
_atom_site_fract_z
Si Si1 0.917328 0.690615 0.707163
Si Si2 0.918382 0.597863 0.835496
Si Si3 0.076619 0.093715 0.880568
Si Si4 0.419204 0.276713 0.437196
Si Si5 0.422852 0.860829 0.736275
Si Si6 0.919133 0.906994 0.610048
Si Si7 0.925034 0.724781 0.066804
O O1 0.750000 0.725419 0.708681
O O2 0.936304 0.609353 0.756108
O O3 0.956354 0.670604 0.630284
O O4 0.025677 0.762221 0.734947
O O5 0.750000 0.615826 0.855845
O O6 0.963836 0.500000 0.852627
O O7 0.023503 0.662829 0.874341
O O8 0.250000 0.097978 0.883450
O O9 0.025289 0.098698 0.805106
O O10 0.017235 0.176783 0.920650
O O11 0.021441 0.000000 0.909009
O O12 0.500000 0.318804 0.500000
O O13 0.250000 0.281402 0.454263
O O14 0.474333 0.176399 0.430628
O O15 0.250000 0.864393 0.727965
O O16 0.494834 0.915307 0.678248
O O17 0.750000 0.891568 0.627121
O O18 0.942071 0.000000 0.572931
O O19 0.750000 0.719360 0.061489
O O20 0.000000 0.691562 0.000000
#
# Coordination Sequence:
#
# PCOD8206165 Si02
#       7
#     8   8   8   8   8   8   8
#     4   9  18  34  55  78 109 141 175 221 275 329
#     4  10  21  39  65  92 114 141 181 228 279 338
#     4   9  18  32  51  77 111 148 186 229 274 318
#     4   9  18  31  47  70 100 140 181 222 269 324
#     4  10  17  28  49  76 104 137 180 226 275 324
#     4   9  18  31  44  63  97 138 180 229 281 327
#     4  11  23  40  60  84 117 155 189 229 278 327
#
# _framework density 19.536442000000001
#
# number of rings (size 3 to 8) (size 9 to 14) (size 15 to 20)
#    0.000    2.429    1.429    2.143    0.000    4.286 
#    0.000    0.000    0.000    4.286    0.000    0.000 
#    0.000    0.000    0.000    0.000    0.000    0.286 
#
# Total GULP energy -693872.756206 kJ/mol
# GULP energy per Si atom -12390.584932 kJ/mol
# Density = 1.949198 g / cm^3
# Si number density = 19.536442 Si / 1000 Ang^3
#
#
#
# Elastic Constant Matrix: (Units=GPa)
#
#
# Indices 1 2 3 4 5 6 
#
# 1 52.6240 22.0385 38.6155 0.0000 0.0000 0.0000
# 2 22.0385 84.3827 38.1971 0.0000 0.0000 0.0000
# 3 38.6155 38.1971 115.9391 0.0000 0.0000 0.0000
# 4 0.0000 0.0000 0.0000 5.2740 0.0000 0.0000
# 5 0.0000 0.0000 0.0000 0.0000 29.5890 0.0000
# 6 0.0000 0.0000 0.0000 0.0000 0.0000 18.6985
#
#
#
# Elastic Compliance Matrix: (Units=1/GPa)
#
#
# Indices 1 2 3 4 5 6 
#
# 1 0.025938 -0.003366 -0.007530 0.000000 0.000000 0.000000
# 2 -0.003366 0.014365 -0.003612 0.000000 0.000000 0.000000
# 3 -0.007530 -0.003612 0.012323 0.000000 0.000000 0.000000
# 4 0.000000 0.000000 0.000000 0.189609 0.000000 0.000000
# 5 0.000000 0.000000 0.000000 0.000000 0.033796 0.000000
# 6 0.000000 0.000000 0.000000 0.000000 0.000000 0.053480
#
#
# Mechanical properties :
#
#
# Convention : Reuss Voigt Hill
#
# Bulk Modulus (GPa) = 42.35341 50.07200 46.21271
# Shear Modulus (GPa) = 13.64642 20.98530 17.31586
#
# Velocity S-wave (km/s) = 2.64580 3.28100 2.98037
# Velocity P-wave (km/s) = 5.57314 6.32763 5.96234
#
# Compressibility (1/GPa) = 0.02361085
#
# Stress axis : x y z
#
# Youngs Moduli (GPa) = 38.55363 69.61552 81.14813
#
# Poissons Ratio (x) = 0.23430 0.61106
# Poissons Ratio (y) = 0.12976 0.29307
# Poissons Ratio (z) = 0.29032 0.25142
#
# Static dielectric constant tensor:
#      x y z
#    x 3.357260 0.000000 0.000000 
#    y 0.000000 3.513890 0.000000 
#    z 0.000000 0.000000 3.548940 
# 
# 
# High freq. dielectric constant tensor:
#      x y z
#    x 1.743710 0.000000 0.000000 
#    y 0.000000 1.741800 0.000000 
#    z 0.000000 0.000000 1.758800 
# 
# From -- ./inp_files/32025.got.cif
#   From: 2010.03.12/outbox.cif.g09.slc.cpg/sg51_17_cif.got.tgz:32025.got - 2010.04.16 13:43:02.
