data_PCOD8206440
_publ_section_title
;
Structure prediction by ZEFSAII (Michael W. Deem and Ramdas Pophale) SiO2 
 PCOD8206440
Probable space group: P M M A
;
_chemical_formula_sum "Si O2"
_cell_formula_units_Z 40
_cell_length_a 9.605186
_cell_length_b 13.255858
_cell_length_c 19.987276
_cell_angle_alpha 90.000000
_cell_angle_beta 90.000000
_cell_angle_gamma 90.000000
_cell_volume 2544.879551
_symmetry_space_group_name_H-M "P M M A"
_symmetry_group_IT_number 51
_symmetry_cell_setting 'orthorhombic'
loop_
_space_group_symop_operation_xyz
x,y,z
1/2-x,-y,z
1/2+x,-y,-z
-x,y,-z
-x,-y,-z
1/2+x,y,-z
1/2-x,y,z
x,-y,z
loop_
_atom_site_type_symbol
_atom_site_label
_atom_site_fract_x
_atom_site_fract_y
_atom_site_fract_z
Si Si1 0.913815 0.612106 0.295660
Si Si2 0.410420 0.114438 0.935929
Si Si3 0.403973 0.383806 0.057070
Si Si4 0.404958 0.620000 0.558724
Si Si5 0.411515 0.707220 0.839414
O O1 0.750000 0.601098 0.304314
O O2 0.973010 0.500000 0.276663
O O3 0.970428 0.648649 0.368255
O O4 0.948856 0.696547 0.239289
O O5 0.250000 0.125348 0.956724
O O6 0.444276 0.182496 0.870398
O O7 0.447389 0.000000 0.915306
O O8 0.500000 0.148739 0.000000
O O9 0.250000 0.332655 0.059009
O O10 0.383524 0.500000 0.040064
O O11 0.486359 0.372898 0.126140
O O12 0.500000 0.331406 0.000000
O O13 0.500000 0.666769 0.500000
O O14 0.250000 0.665214 0.549956
O O15 0.399465 0.500000 0.553062
O O16 0.250000 0.677394 0.851932
#
# Coordination Sequence:
#
# PCOD8206440 Si02
#       5
#     8   8   8   8   8
#     4   8  14  24  38  57  80 105 132 159 189 229
#     4   9  18  31  45  61  79  99 127 165 207 246
#     4  10  20  31  41  55  77 104 133 164 195 229
#     4   8  13  22  36  53  74 101 131 159 185 217
#     4  10  18  28  44  61  78 103 132 163 200 241
#
# _framework density 15.717836
#
# number of rings (size 3 to 8) (size 9 to 14) (size 15 to 20)
#    0.000    3.000    0.000    3.000    0.000    4.400 
#    0.000    1.000    0.000    3.600    0.000    0.000 
#    0.000    0.800    0.000    0.600    0.000    1.200 
#
# Total GULP energy -495546.967280 kJ/mol
# GULP energy per Si atom -12388.674182 kJ/mol
# Density = 1.568206 g / cm^3
# Si number density = 15.717836 Si / 1000 Ang^3
#
#
#
# Elastic Constant Matrix: (Units=GPa)
#
#
# Indices 1 2 3 4 5 6 
#
# 1 73.8114 19.4799 51.5283 0.0000 0.0000 0.0000
# 2 19.4799 52.1905 43.2856 0.0000 0.0000 0.0000
# 3 51.5283 43.2856 153.1531 0.0000 0.0000 0.0000
# 4 0.0000 0.0000 0.0000 15.8738 0.0000 0.0000
# 5 0.0000 0.0000 0.0000 0.0000 23.3518 0.0000
# 6 0.0000 0.0000 0.0000 0.0000 0.0000 10.9032
#
#
#
# Elastic Compliance Matrix: (Units=1/GPa)
#
#
# Indices 1 2 3 4 5 6 
#
# 1 0.017899 -0.002202 -0.005400 0.000000 0.000000 0.000000
# 2 -0.002202 0.025298 -0.006409 0.000000 0.000000 0.000000
# 3 -0.005400 -0.006409 0.010157 0.000000 0.000000 0.000000
# 4 0.000000 0.000000 0.000000 0.062997 0.000000 0.000000
# 5 0.000000 0.000000 0.000000 0.000000 0.042823 0.000000
# 6 0.000000 0.000000 0.000000 0.000000 0.000000 0.091716
#
#
# Mechanical properties :
#
#
# Convention : Reuss Voigt Hill
#
# Bulk Modulus (GPa) = 39.47507 56.41586 47.94547
# Shear Modulus (GPa) = 17.40000 21.01652 19.20826
#
# Velocity S-wave (km/s) = 3.33080 3.66062 3.49960
# Velocity P-wave (km/s) = 6.32153 7.33742 6.84833
#
# Compressibility (1/GPa) = 0.02533244
#
# Stress axis : x y z
#
# Youngs Moduli (GPa) = 55.86976 39.52874 98.44958
#
# Poissons Ratio (x) = 0.08706 0.53159
# Poissons Ratio (y) = 0.12304 0.63096
# Poissons Ratio (z) = 0.30167 0.25334
#
# Static dielectric constant tensor:
#      x y z
#    x 3.088770 0.000000 0.000000 
#    y 0.000000 2.703840 0.000000 
#    z 0.000000 0.000000 3.259210 
# 
# 
# High freq. dielectric constant tensor:
#      x y z
#    x 1.592940 0.000000 0.000000 
#    y 0.000000 1.558070 0.000000 
#    z 0.000000 0.000000 1.598900 
# 
# From -- ./inp_files/27239.got.cif
#   From: 2010.03.12/outbox.cif.g09.slc.cpg/sg51_14_cif.got.tgz:27239.got - 2010.04.16 13:43:02.
