data_PCOD8206558
_publ_section_title
;
Structure prediction by ZEFSAII (Michael W. Deem and Ramdas Pophale) SiO2 
 PCOD8206558
Probable space group: P M M A
;
_chemical_formula_sum "Si O2"
_cell_formula_units_Z 64
_cell_length_a 23.492679
_cell_length_b 9.057145
_cell_length_c 19.196245
_cell_angle_alpha 90.000000
_cell_angle_beta 90.000000
_cell_angle_gamma 90.000000
_cell_volume 4084.511747
_symmetry_space_group_name_H-M "P M M A"
_symmetry_group_IT_number 51
_symmetry_cell_setting 'orthorhombic'
loop_
_space_group_symop_operation_xyz
x,y,z
1/2-x,-y,z
1/2+x,-y,-z
-x,y,-z
-x,-y,-z
1/2+x,y,-z
1/2-x,y,z
x,-y,z
loop_
_atom_site_type_symbol
_atom_site_label
_atom_site_fract_x
_atom_site_fract_y
_atom_site_fract_z
Si Si1 0.685089 0.825823 0.896203
Si Si2 0.374843 0.173607 0.246691
Si Si3 0.914667 0.174968 0.524979
Si Si4 0.995839 0.325324 0.744444
Si Si5 0.812644 0.175050 0.613431
Si Si6 0.518328 0.326268 0.103378
Si Si7 0.975718 0.825539 0.390782
Si Si8 0.091116 0.325193 0.022122
O O1 0.750000 0.768928 0.898689
O O2 0.657352 0.777190 0.823133
O O3 0.650503 0.752573 0.959562
O O4 0.682702 0.000000 0.905121
O O5 0.432715 0.261886 0.255600
O O6 0.334118 0.219146 0.310198
O O7 0.388901 0.000000 0.247678
O O8 0.854962 0.238868 0.553696
O O9 0.964820 0.229086 0.576037
O O10 0.925798 0.222790 0.444873
O O11 0.915434 0.000000 0.528503
O O12 0.992649 0.500000 0.736343
O O13 0.033447 0.257769 0.682087
O O14 0.026960 0.278288 0.816567
O O15 0.750000 0.243797 0.601509
O O16 0.809879 0.000000 0.607241
O O17 0.513794 0.500000 0.095472
O O18 0.457799 0.265958 0.074918
O O19 0.571506 0.274337 0.055717
O O20 0.975267 0.000000 0.377154
O O21 0.100110 0.500000 0.027198
#
# Coordination Sequence:
#
# PCOD8206558 Si02
#       8
#     8   8   8   8   8   8   8   8
#     4  10  20  31  43  65  96 123 147 181 221 257
#     4  10  18  29  43  61  89 123 152 173 202 254
#     4   8  14  25  42  62  84 112 145 181 213 246
#     4  11  19  28  44  67  90 114 143 180 221 259
#     4   9  15  24  42  65  84 109 149 185 207 235
#     4   8  16  29  46  64  86 113 144 186 228 258
#     4   9  16  28  44  61  85 115 145 176 214 259
#     4   9  16  31  49  63  82 115 153 185 218 260
#
# _framework density 15.668946999999999
#
# number of rings (size 3 to 8) (size 9 to 14) (size 15 to 20)
#    0.000    2.750    2.500    2.250    0.000    1.750 
#    0.000    3.750    0.000    1.125    0.000    0.875 
#    0.000    3.000    0.000    0.000    0.000    0.000 
#
# Total GULP energy -793193.546995 kJ/mol
# GULP energy per Si atom -12393.649172 kJ/mol
# Density = 1.563328 g / cm^3
# Si number density = 15.668947 Si / 1000 Ang^3
#
#
#
# Elastic Constant Matrix: (Units=GPa)
#
#
# Indices 1 2 3 4 5 6 
#
# 1 92.1300 18.3362 63.9833 0.0000 0.0000 0.0000
# 2 18.3362 24.5981 28.8673 0.0000 0.0000 0.0000
# 3 63.9833 28.8673 135.6230 0.0000 0.0000 0.0000
# 4 0.0000 0.0000 0.0000 21.9446 0.0000 0.0000
# 5 0.0000 0.0000 0.0000 0.0000 24.2633 0.0000
# 6 0.0000 0.0000 0.0000 0.0000 0.0000 16.2814
#
#
#
# Elastic Compliance Matrix: (Units=1/GPa)
#
#
# Indices 1 2 3 4 5 6 
#
# 1 0.016464 -0.004209 -0.006871 0.000000 0.000000 0.000000
# 2 -0.004209 0.055266 -0.009778 0.000000 0.000000 0.000000
# 3 -0.006871 -0.009778 0.012696 0.000000 0.000000 0.000000
# 4 0.000000 0.000000 0.000000 0.045569 0.000000 0.000000
# 5 0.000000 0.000000 0.000000 0.000000 0.041215 0.000000
# 6 0.000000 0.000000 0.000000 0.000000 0.000000 0.061420
#
#
# Mechanical properties :
#
#
# Convention : Reuss Voigt Hill
#
# Bulk Modulus (GPa) = 23.41361 52.74718 38.08040
# Shear Modulus (GPa) = 17.32608 21.90881 19.61745
#
# Velocity S-wave (km/s) = 3.32890 3.74335 3.54219
# Velocity P-wave (km/s) = 5.45441 7.24018 6.40979
#
# Compressibility (1/GPa) = 0.04271020
#
# Stress axis : x y z
#
# Youngs Moduli (GPa) = 60.73848 18.09442 78.76295
#
# Poissons Ratio (x) = 0.07616 0.54122
# Poissons Ratio (y) = 0.25564 0.77012
# Poissons Ratio (z) = 0.41736 0.17692
#
# Static dielectric constant tensor:
#      x y z
#    x 3.108320 0.000000 0.000000 
#    y 0.000000 2.646440 0.000000 
#    z 0.000000 0.000000 3.321900 
# 
# 
# High freq. dielectric constant tensor:
#      x y z
#    x 1.578010 0.000000 0.000000 
#    y 0.000000 1.567870 0.000000 
#    z 0.000000 0.000000 1.604320 
# 
# From -- ./inp_files/30897.got.cif
#   From: 2010.03.12/outbox.cif.g09.slc.cpg/sg51_16_cif.got.tgz:30897.got - 2010.04.16 13:43:02.
