data_PCOD8206949
_publ_section_title
;
Structure prediction by ZEFSAII (Michael W. Deem and Ramdas Pophale) SiO2 
 PCOD8206949
Probable space group: P M M A
;
_chemical_formula_sum "Si O2"
_cell_formula_units_Z 40
_cell_length_a 25.562964
_cell_length_b 9.087505
_cell_length_c 9.760204
_cell_angle_alpha 90.000000
_cell_angle_beta 90.000000
_cell_angle_gamma 90.000000
_cell_volume 2267.330166
_symmetry_space_group_name_H-M "P M M A"
_symmetry_group_IT_number 51
_symmetry_cell_setting 'orthorhombic'
loop_
_space_group_symop_operation_xyz
x,y,z
1/2-x,-y,z
1/2+x,-y,-z
-x,y,-z
-x,-y,-z
1/2+x,y,-z
1/2-x,y,z
x,-y,z
loop_
_atom_site_type_symbol
_atom_site_label
_atom_site_fract_x
_atom_site_fract_y
_atom_site_fract_z
Si Si1 0.057892 0.172661 0.652258
Si Si2 0.560398 0.825931 0.656179
Si Si3 0.750000 0.332630 0.126009
Si Si4 0.250000 0.826051 0.151890
Si Si5 0.136957 0.665451 0.843082
Si Si6 0.645770 0.327856 0.836296
O O1 0.073346 0.223669 0.499318
O O2 0.098214 0.230357 0.763237
O O3 0.999110 0.221458 0.689934
O O4 0.060517 0.000000 0.656684
O O5 0.596246 0.734832 0.757552
O O6 0.568897 0.000000 0.676894
O O7 0.750000 0.500000 0.061075
O O8 0.696733 0.313247 0.213804
O O9 0.750000 0.210644 0.008555
O O10 0.197854 0.754882 0.218059
O O11 0.250000 0.000000 0.177031
O O12 0.117621 0.500000 0.818093
O O13 0.136703 0.704259 0.003485
O O14 0.651951 0.500000 0.806629
#
# Coordination Sequence:
#
# PCOD8206949 Si02
#       6
#     8   8   4   4   8   8
#     4   9  19  35  53  72  99 132 168 210 255 298
#     4   9  19  36  53  71  98 134 171 209 252 298
#     4   8  16  32  49  70 103 136 162 198 246 296
#     4  10  18  30  51  76 101 132 166 202 246 296
#     4   9  18  32  51  74 101 131 166 204 246 297
#     4  10  20  34  52  76 104 133 165 205 248 295
#
# _framework density 17.641895999999999
#
# number of rings (size 3 to 8) (size 9 to 14) (size 15 to 20)
#    0.000    2.800    0.000    3.900    0.000    6.400 
#    0.000    7.000    0.000    4.800    0.000    0.000 
#    0.000    0.000    0.000    0.000    0.000    0.000 
#
# Total GULP energy -495785.315262 kJ/mol
# GULP energy per Si atom -12394.632882 kJ/mol
# Density = 1.760174 g / cm^3
# Si number density = 17.641896 Si / 1000 Ang^3
#
#
#
# Elastic Constant Matrix: (Units=GPa)
#
#
# Indices 1 2 3 4 5 6 
#
# 1 140.9399 51.1781 59.7012 0.0000 0.0000 0.0000
# 2 51.1781 61.7774 29.5660 0.0000 0.0000 0.0000
# 3 59.7012 29.5660 55.9613 0.0000 0.0000 0.0000
# 4 0.0000 0.0000 0.0000 23.2159 0.0000 0.0000
# 5 0.0000 0.0000 0.0000 0.0000 -28.1191 0.0000
# 6 0.0000 0.0000 0.0000 0.0000 0.0000 34.3442
#
#
#
# Elastic Compliance Matrix: (Units=1/GPa)
#
#
# Indices 1 2 3 4 5 6 
#
# 1 0.014515 -0.006175 -0.012222 0.000000 0.000000 0.000000
# 2 -0.006175 0.024292 -0.006247 0.000000 0.000000 0.000000
# 3 -0.012222 -0.006247 0.034209 0.000000 0.000000 0.000000
# 4 0.000000 0.000000 0.000000 0.043074 0.000000 0.000000
# 5 0.000000 0.000000 0.000000 0.000000 -0.035563 0.000000
# 6 0.000000 0.000000 0.000000 0.000000 0.000000 0.029117
#
#
# Mechanical properties :
#
#
# Convention : Reuss Voigt Hill
#
# Bulk Modulus (GPa) = 42.14436 59.95213 51.04824
# Shear Modulus (GPa) = 29.96854 13.77041 21.86947
#
# Velocity S-wave (km/s) = 4.12602 2.79687 3.52466
# Velocity P-wave (km/s) = 6.82930 6.66982 6.75003
#
# Compressibility (1/GPa) = 0.02372797
#
# Stress axis : x y z
#
# Youngs Moduli (GPa) = 68.89522 41.16539 29.23200
#
# Poissons Ratio (x) = 0.25419 0.35729
# Poissons Ratio (y) = 0.42542 0.18260
# Poissons Ratio (z) = 0.84207 0.25715
#
# Static dielectric constant tensor:
#      x y z
#    x 3.602540 0.000000 0.000000 
#    y 0.000000 3.166720 0.000000 
#    z 0.000000 0.000000 3.075360 
# 
# 
# High freq. dielectric constant tensor:
#      x y z
#    x 1.699600 0.000000 0.000000 
#    y 0.000000 1.681600 0.000000 
#    z 0.000000 0.000000 1.650430 
# 
# From -- ./inp_files/12198.got.cif
#   From: 2010.03.12/outbox.cif.g09.slc.cpg/sg51_7_cif.got.tgz:12198.got - 2010.04.16 13:43:02.
