data_PCOD8206801
_publ_section_title
;
Structure prediction by ZEFSAII (Michael W. Deem and Ramdas Pophale) SiO2 
 PCOD8206801
Probable space group: P M M A
;
_chemical_formula_sum "Si O2"
_cell_formula_units_Z 48
_cell_length_a 21.392955
_cell_length_b 8.706853
_cell_length_c 15.113493
_cell_angle_alpha 90.000000
_cell_angle_beta 90.000000
_cell_angle_gamma 90.000000
_cell_volume 2815.119526
_symmetry_space_group_name_H-M "P M M A"
_symmetry_group_IT_number 51
_symmetry_cell_setting 'orthorhombic'
loop_
_space_group_symop_operation_xyz
x,y,z
1/2-x,-y,z
1/2+x,-y,-z
-x,y,-z
-x,-y,-z
1/2+x,y,-z
1/2-x,y,z
x,-y,z
loop_
_atom_site_type_symbol
_atom_site_label
_atom_site_fract_x
_atom_site_fract_y
_atom_site_fract_z
Si Si1 0.590745 0.322048 0.842449
Si Si2 0.960033 0.181175 0.204751
Si Si3 0.548203 0.680494 0.385369
Si Si4 0.678496 0.822191 0.706398
Si Si5 0.419458 0.821062 0.440214
Si Si6 0.073279 0.830189 0.983338
O O1 0.574809 0.500000 0.833181
O O2 0.532492 0.226115 0.805815
O O3 0.651568 0.279534 0.786030
O O4 0.604964 0.283322 0.945723
O O5 0.929291 0.266666 0.288327
O O6 0.919209 0.228558 0.118085
O O7 0.957986 0.000000 0.220189
O O8 0.556124 0.500000 0.395940
O O9 0.475918 0.726353 0.396943
O O10 0.590808 0.764367 0.459143
O O11 0.750000 0.774924 0.691518
O O12 0.643008 0.786727 0.614725
O O13 0.671409 0.000000 0.732724
O O14 0.437267 0.000000 0.439124
O O15 0.102895 0.000000 0.994495
O O16 0.000000 0.839944 0.000000
#
# Coordination Sequence:
#
# PCOD8206801 Si02
#       6
#     8   8   8   8   8   8
#     4  11  20  29  45  69  98 127 156 197 243 287
#     4  10  18  30  47  68  95 129 163 193 233 287
#     4  11  20  29  46  71 100 127 157 198 247 296
#     4  10  21  36  53  70  92 128 170 206 239 283
#     4  10  19  32  49  67  93 128 163 199 242 293
#     4   8  16  29  45  64  91 126 159 190 227 277
#
# _framework density 17.050787
#
# number of rings (size 3 to 8) (size 9 to 14) (size 15 to 20)
#    0.000    2.000    1.667    6.000    0.000    4.667 
#    0.000    0.000    0.000    0.000    0.000    1.167 
#    0.000    4.000    0.000    0.000    0.000    0.000 
#
# Total GULP energy -595128.373082 kJ/mol
# GULP energy per Si atom -12398.507773 kJ/mol
# Density = 1.701198 g / cm^3
# Si number density = 17.050787 Si / 1000 Ang^3
#
#
#
# Elastic Constant Matrix: (Units=GPa)
#
#
# Indices 1 2 3 4 5 6 
#
# 1 56.2934 19.6210 35.7821 0.0000 0.0000 0.0000
# 2 19.6210 71.2611 38.2964 0.0000 0.0000 0.0000
# 3 35.7821 38.2964 146.5540 0.0000 0.0000 0.0000
# 4 0.0000 0.0000 0.0000 20.6069 0.0000 0.0000
# 5 0.0000 0.0000 0.0000 0.0000 18.0820 0.0000
# 6 0.0000 0.0000 0.0000 0.0000 0.0000 5.7490
#
#
#
# Elastic Compliance Matrix: (Units=1/GPa)
#
#
# Indices 1 2 3 4 5 6 
#
# 1 0.021817 -0.003658 -0.004371 0.000000 0.000000 0.000000
# 2 -0.003658 0.016939 -0.003533 0.000000 0.000000 0.000000
# 3 -0.004371 -0.003533 0.008814 0.000000 0.000000 0.000000
# 4 0.000000 0.000000 0.000000 0.048528 0.000000 0.000000
# 5 0.000000 0.000000 0.000000 0.000000 0.055304 0.000000
# 6 0.000000 0.000000 0.000000 0.000000 0.000000 0.173942
#
#
# Mechanical properties :
#
#
# Convention : Reuss Voigt Hill
#
# Bulk Modulus (GPa) = 40.90714 51.27860 46.09287
# Shear Modulus (GPa) = 14.02066 20.91486 17.46776
#
# Velocity S-wave (km/s) = 2.87067 3.50611 3.20418
# Velocity P-wave (km/s) = 5.91871 6.82127 6.38596
#
# Compressibility (1/GPa) = 0.02444561
#
# Stress axis : x y z
#
# Youngs Moduli (GPa) = 45.83482 59.03570 113.45749
#
# Poissons Ratio (x) = 0.21597 0.49592
# Poissons Ratio (y) = 0.16767 0.40086
# Poissons Ratio (z) = 0.20034 0.20858
#
# Static dielectric constant tensor:
#      x y z
#    x 2.670370 0.000000 0.000000 
#    y 0.000000 3.194930 0.000000 
#    z 0.000000 0.000000 3.809310 
# 
# 
# High freq. dielectric constant tensor:
#      x y z
#    x 1.585190 0.000000 0.000000 
#    y 0.000000 1.664960 0.000000 
#    z 0.000000 0.000000 1.679930 
# 
# From -- ./inp_files/26014.got.cif
#   From: 2010.03.12/outbox.cif.g09.slc.cpg/sg51_14_cif.got.tgz:26014.got - 2010.04.16 13:43:02.
