data_PCOD8206127
_publ_section_title
;
Structure prediction by ZEFSAII (Michael W. Deem and Ramdas Pophale) SiO2 
 PCOD8206127
Probable space group: P M M A
;
_chemical_formula_sum "Si O2"
_cell_formula_units_Z 64
_cell_length_a 18.019730
_cell_length_b 9.071997
_cell_length_c 21.555602
_cell_angle_alpha 90.000000
_cell_angle_beta 90.000000
_cell_angle_gamma 90.000000
_cell_volume 3523.800668
_symmetry_space_group_name_H-M "P M M A"
_symmetry_group_IT_number 51
_symmetry_cell_setting 'orthorhombic'
loop_
_space_group_symop_operation_xyz
x,y,z
1/2-x,-y,z
1/2+x,-y,-z
-x,y,-z
-x,-y,-z
1/2+x,y,-z
1/2-x,y,z
x,-y,z
loop_
_atom_site_type_symbol
_atom_site_label
_atom_site_fract_x
_atom_site_fract_y
_atom_site_fract_z
Si Si1 0.962525 0.326945 0.936255
Si Si2 0.090739 0.829149 0.616746
Si Si3 0.164984 0.170579 0.130417
Si Si4 0.333247 0.174208 0.741126
Si Si5 0.047987 0.332645 0.814525
Si Si6 0.583197 0.171510 0.627372
Si Si7 0.894837 0.328314 0.751213
Si Si8 0.088138 0.666677 0.495220
O O1 0.943239 0.500000 0.936492
O O2 0.886167 0.239921 0.923680
O O3 0.021421 0.288235 0.882941
O O4 0.000000 0.274669 0.000000
O O5 0.135832 0.767540 0.675533
O O6 0.120704 0.740743 0.557187
O O7 0.004522 0.801674 0.629971
O O8 0.106789 0.000000 0.604105
O O9 0.250000 0.188440 0.109051
O O10 0.154388 0.253910 0.195536
O O11 0.143469 0.000000 0.139631
O O12 0.250000 0.232879 0.750039
O O13 0.382454 0.232074 0.797695
O O14 0.337130 0.000000 0.742314
O O15 0.075302 0.500000 0.812630
O O16 0.981400 0.306601 0.766371
O O17 0.621910 0.250445 0.685804
O O18 0.615932 0.242994 0.564691
O O19 0.603718 0.000000 0.628557
O O20 0.873569 0.500000 0.747403
O O21 0.117430 0.500000 0.489914
O O22 0.000000 0.672224 0.500000
#
# Coordination Sequence:
#
# PCOD8206127 Si02
#       8
#     8   8   8   8   8   8   8   8
#     4   9  19  37  60  85 111 142 180 218 258 306
#     4   9  17  29  44  64  92 127 167 213 263 316
#     4  10  21  36  55  82 114 144 177 216 259 311
#     4  10  20  33  49  70  98 135 176 216 261 313
#     4   9  18  32  51  75 102 131 167 213 257 302
#     4  10  17  27  46  71  98 129 165 212 267 317
#     4  10  19  31  51  77 104 136 173 215 263 312
#     4   9  17  27  41  64  93 124 159 207 262 315
#
# _framework density 18.162208
#
# number of rings (size 3 to 8) (size 9 to 14) (size 15 to 20)
#    0.000    2.500    1.250    2.250    0.000    6.000 
#    0.000    0.625    0.000    4.500    0.000    1.750 
#    0.000    0.000    0.000    0.000    0.000    0.000 
#
# Total GULP energy -793669.297912 kJ/mol
# GULP energy per Si atom -12401.082780 kJ/mol
# Density = 1.812087 g / cm^3
# Si number density = 18.162208 Si / 1000 Ang^3
#
#
#
# Elastic Constant Matrix: (Units=GPa)
#
#
# Indices 1 2 3 4 5 6 
#
# 1 76.0728 38.6120 41.4845 0.0000 0.0000 0.0000
# 2 38.6120 97.5093 58.2649 0.0000 0.0000 0.0000
# 3 41.4845 58.2649 133.0806 0.0000 0.0000 0.0000
# 4 0.0000 0.0000 0.0000 32.6637 0.0000 0.0000
# 5 0.0000 0.0000 0.0000 0.0000 15.9766 0.0000
# 6 0.0000 0.0000 0.0000 0.0000 0.0000 20.1783
#
#
#
# Elastic Compliance Matrix: (Units=1/GPa)
#
#
# Indices 1 2 3 4 5 6 
#
# 1 0.017442 -0.004954 -0.003268 0.000000 0.000000 0.000000
# 2 -0.004954 0.015296 -0.005153 0.000000 0.000000 0.000000
# 3 -0.003268 -0.005153 0.010789 0.000000 0.000000 0.000000
# 4 0.000000 0.000000 0.000000 0.030615 0.000000 0.000000
# 5 0.000000 0.000000 0.000000 0.000000 0.062591 0.000000
# 6 0.000000 0.000000 0.000000 0.000000 0.000000 0.049558
#
#
# Mechanical properties :
#
#
# Convention : Reuss Voigt Hill
#
# Bulk Modulus (GPa) = 59.60362 64.82061 62.21212
# Shear Modulus (GPa) = 22.86937 24.98382 23.92659
#
# Velocity S-wave (km/s) = 3.55233 3.71292 3.63352
# Velocity P-wave (km/s) = 7.05082 7.35856 7.20633
#
# Compressibility (1/GPa) = 0.01677750
#
# Stress axis : x y z
#
# Youngs Moduli (GPa) = 57.33308 65.37708 92.68786
#
# Poissons Ratio (x) = 0.32387 0.30292
# Poissons Ratio (y) = 0.28402 0.47758
# Poissons Ratio (z) = 0.18738 0.33686
#
# Static dielectric constant tensor:
#      x y z
#    x 3.040020 0.000000 0.000000 
#    y 0.000000 3.377650 0.000000 
#    z 0.000000 0.000000 3.387560 
# 
# 
# High freq. dielectric constant tensor:
#      x y z
#    x 1.668120 0.000000 0.000000 
#    y 0.000000 1.708600 0.000000 
#    z 0.000000 0.000000 1.704220 
# 
# From -- ./inp_files/33835.got.cif
#   From: 2010.03.12/outbox.cif.g09.slc.cpg/sg51_17_cif.got.tgz:33835.got - 2010.04.16 13:43:02.
