data_PCOD8206598
_publ_section_title
;
Structure prediction by ZEFSAII (Michael W. Deem and Ramdas Pophale) SiO2 
 PCOD8206598
Probable space group: P M M A
;
_chemical_formula_sum "Si O2"
_cell_formula_units_Z 52
_cell_length_a 8.977730
_cell_length_b 26.405606
_cell_length_c 13.685224
_cell_angle_alpha 90.000000
_cell_angle_beta 90.000000
_cell_angle_gamma 90.000000
_cell_volume 3244.252062
_symmetry_space_group_name_H-M "P M M A"
_symmetry_group_IT_number 51
_symmetry_cell_setting 'orthorhombic'
loop_
_space_group_symop_operation_xyz
x,y,z
1/2-x,-y,z
1/2+x,-y,-z
-x,y,-z
-x,-y,-z
1/2+x,y,-z
1/2-x,y,z
x,-y,z
loop_
_atom_site_type_symbol
_atom_site_label
_atom_site_fract_x
_atom_site_fract_y
_atom_site_fract_z
Si Si1 0.422651 0.649755 0.273015
Si Si2 0.424526 0.748101 0.395683
Si Si3 0.923475 0.702184 0.103007
Si Si4 0.075521 0.443100 0.399436
Si Si5 0.574486 0.198351 0.221890
Si Si6 0.925793 0.889956 0.893576
Si Si7 0.080621 0.000000 0.100312
O O1 0.250000 0.650055 0.243510
O O2 0.455771 0.692083 0.354561
O O3 0.517582 0.659197 0.176090
O O4 0.474559 0.595529 0.314987
O O5 0.500000 0.752941 0.500000
O O6 0.250000 0.759571 0.404197
O O7 0.499100 0.789557 0.325314
O O8 0.750000 0.694298 0.089022
O O9 0.962523 0.757396 0.144936
O O10 0.000000 0.695148 0.000000
O O11 0.250000 0.438779 0.417485
O O12 0.028488 0.500000 0.368191
O O13 0.000000 0.426860 0.500000
O O14 0.750000 0.191546 0.236904
O O15 0.502675 0.147289 0.182172
O O16 0.750000 0.877976 0.902967
O O17 0.955417 0.946411 0.846680
O O18 0.000000 0.884166 0.000000
O O19 0.250000 0.000000 0.069646
O O20 0.000000 0.000000 0.000000
#
# Coordination Sequence:
#
# PCOD8206598 Si02
#       7
#     8   8   8   8   8   8   4
#     4   9  18  31  47  67  92 121 151 183 221 265
#     4  10  19  31  47  67  92 121 151 185 224 267
#     4  10  20  32  47  66  90 119 151 187 225 266
#     4   9  17  29  46  69  95 121 148 181 222 266
#     4  10  20  32  46  67  92 120 153 187 225 269
#     4  10  18  29  45  66  93 124 155 188 225 265
#     4   8  16  28  42  62  89 120 153 186 222 264
#
# _framework density 16.028347
#
# number of rings (size 3 to 8) (size 9 to 14) (size 15 to 20)
#    0.000    2.462    0.000    2.769    0.000    4.923 
#    0.000    0.000    0.000    0.462    0.000    0.538 
#    0.000    0.000    0.000    0.000    0.000    0.000 
#
# Total GULP energy -644662.413147 kJ/mol
# GULP energy per Si atom -12397.354099 kJ/mol
# Density = 1.599187 g / cm^3
# Si number density = 16.028347 Si / 1000 Ang^3
#
#
#
# Elastic Constant Matrix: (Units=GPa)
#
#
# Indices 1 2 3 4 5 6 
#
# 1 79.9778 53.1488 61.7031 0.0000 0.0000 0.0000
# 2 53.1488 115.5090 66.3108 0.0000 0.0000 0.0000
# 3 61.7031 66.3108 125.1176 0.0000 0.0000 0.0000
# 4 0.0000 0.0000 0.0000 14.2539 0.0000 0.0000
# 5 0.0000 0.0000 0.0000 0.0000 31.6397 0.0000
# 6 0.0000 0.0000 0.0000 0.0000 0.0000 22.1102
#
#
#
# Elastic Compliance Matrix: (Units=1/GPa)
#
#
# Indices 1 2 3 4 5 6 
#
# 1 0.022550 -0.005737 -0.008080 0.000000 0.000000 0.000000
# 2 -0.005737 0.013903 -0.004539 0.000000 0.000000 0.000000
# 3 -0.008080 -0.004539 0.014383 0.000000 0.000000 0.000000
# 4 0.000000 0.000000 0.000000 0.070156 0.000000 0.000000
# 5 0.000000 0.000000 0.000000 0.000000 0.031606 0.000000
# 6 0.000000 0.000000 0.000000 0.000000 0.000000 0.045228
#
#
# Mechanical properties :
#
#
# Convention : Reuss Voigt Hill
#
# Bulk Modulus (GPa) = 70.80609 75.88108 73.34358
# Shear Modulus (GPa) = 20.89898 22.89686 21.89792
#
# Velocity S-wave (km/s) = 3.61484 3.78368 3.70022
# Velocity P-wave (km/s) = 7.85457 8.15677 8.00709
#
# Compressibility (1/GPa) = 0.01412308
#
# Stress axis : x y z
#
# Youngs Moduli (GPa) = 44.34608 71.92730 69.52727
#
# Poissons Ratio (x) = 0.41267 0.56178
# Poissons Ratio (y) = 0.25443 0.31558
# Poissons Ratio (z) = 0.35832 0.32648
#
# Static dielectric constant tensor:
#      x y z
#    x 3.184560 0.000000 0.000000 
#    y 0.000000 3.121160 0.000000 
#    z 0.000000 0.000000 2.874250 
# 
# 
# High freq. dielectric constant tensor:
#      x y z
#    x 1.630660 0.000000 0.000000 
#    y 0.000000 1.613850 0.000000 
#    z 0.000000 0.000000 1.593820 
# 
# From -- ./inp_files/14635.got.cif
#   From: 2010.03.12/outbox.cif.g09.slc.cpg/sg51_8_cif.got.tgz:14635.got - 2010.04.16 13:43:02.
