data_PCOD8206278
_publ_section_title
;
Structure prediction by ZEFSAII (Michael W. Deem and Ramdas Pophale) SiO2 
 PCOD8206278
Probable space group: P M M A
;
_chemical_formula_sum "Si O2"
_cell_formula_units_Z 64
_cell_length_a 9.186103
_cell_length_b 21.974218
_cell_length_c 20.720909
_cell_angle_alpha 90.000000
_cell_angle_beta 90.000000
_cell_angle_gamma 90.000000
_cell_volume 4182.669436
_symmetry_space_group_name_H-M "P M M A"
_symmetry_group_IT_number 51
_symmetry_cell_setting 'orthorhombic'
loop_
_space_group_symop_operation_xyz
x,y,z
1/2-x,-y,z
1/2+x,-y,-z
-x,y,-z
-x,-y,-z
1/2+x,y,-z
1/2-x,y,z
x,-y,z
loop_
_atom_site_type_symbol
_atom_site_label
_atom_site_fract_x
_atom_site_fract_y
_atom_site_fract_z
Si Si1 0.421623 0.430953 0.431983
Si Si2 0.911707 0.834829 0.168866
Si Si3 0.412319 0.567689 0.789203
Si Si4 0.411903 0.653807 0.133494
Si Si5 0.090534 0.739500 0.943495
Si Si6 0.579371 0.070277 0.065681
Si Si7 0.582513 0.345830 0.332036
Si Si8 0.584875 0.747457 0.748777
O O1 0.500000 0.425022 0.500000
O O2 0.250000 0.417893 0.439117
O O3 0.446637 0.500000 0.404913
O O4 0.491848 0.378628 0.388010
O O5 0.750000 0.850162 0.196173
O O6 0.897717 0.780760 0.118545
O O7 0.976732 0.892557 0.128868
O O8 0.013249 0.811953 0.227982
O O9 0.250000 0.570673 0.818219
O O10 0.456737 0.500000 0.768662
O O11 0.522966 0.589879 0.843680
O O12 0.422213 0.608516 0.726762
O O13 0.250000 0.642559 0.108433
O O14 0.507239 0.677498 0.074049
O O15 0.414582 0.701505 0.191855
O O16 0.250000 0.723420 0.969881
O O17 0.000000 0.773190 0.000000
O O18 0.750000 0.083543 0.055477
O O19 0.546111 0.000000 0.079970
O O20 0.500000 0.091395 0.000000
O O21 0.750000 0.332966 0.353265
O O22 0.506643 0.282072 0.310544
O O23 0.750000 0.760634 0.725622
#
# Coordination Sequence:
#
# PCOD8206278 Si02
#       8
#     8   8   8   8   8   8   8   8
#     4  10  20  32  45  62  86 116 149 182 213 247
#     4   9  17  28  41  58  80 105 133 166 205 245
#     4   9  17  28  42  59  77  97 120 148 186 231
#     4   9  17  28  40  55  74  93 116 148 186 229
#     4  10  18  27  40  56  73  93 118 150 189 233
#     4   9  17  28  41  58  82 112 145 179 213 251
#     4  10  18  29  45  63  84 108 135 168 206 246
#     4   9  17  28  42  60  80 102 130 166 206 245
#
# _framework density 15.301233
#
# number of rings (size 3 to 8) (size 9 to 14) (size 15 to 20)
#    0.000    2.625    0.000    2.625    0.000    6.000 
#    0.000    0.000    0.000    0.375    0.000    0.000 
#    0.000    0.000    0.000    0.000    0.000    0.625 
#
# Total GULP energy -793133.528247 kJ/mol
# GULP energy per Si atom -12392.711379 kJ/mol
# Density = 1.526641 g / cm^3
# Si number density = 15.301233 Si / 1000 Ang^3
#
#
#
# Elastic Constant Matrix: (Units=GPa)
#
#
# Indices 1 2 3 4 5 6 
#
# 1 114.2022 36.1632 36.5000 0.0000 0.0000 0.0000
# 2 36.1632 66.9238 28.9332 0.0000 0.0000 0.0000
# 3 36.5000 28.9332 42.3645 0.0000 0.0000 0.0000
# 4 0.0000 0.0000 0.0000 26.7874 0.0000 0.0000
# 5 0.0000 0.0000 0.0000 0.0000 24.6131 0.0000
# 6 0.0000 0.0000 0.0000 0.0000 0.0000 19.5790
#
#
#
# Elastic Compliance Matrix: (Units=1/GPa)
#
#
# Indices 1 2 3 4 5 6 
#
# 1 0.012488 -0.002975 -0.008727 0.000000 0.000000 0.000000
# 2 -0.002975 0.021911 -0.012402 0.000000 0.000000 0.000000
# 3 -0.008727 -0.012402 0.039594 0.000000 0.000000 0.000000
# 4 0.000000 0.000000 0.000000 0.037331 0.000000 0.000000
# 5 0.000000 0.000000 0.000000 0.000000 0.040629 0.000000
# 6 0.000000 0.000000 0.000000 0.000000 0.000000 0.051075
#
#
# Mechanical properties :
#
#
# Convention : Reuss Voigt Hill
#
# Bulk Modulus (GPa) = 38.78183 47.40926 43.09554
# Shear Modulus (GPa) = 19.24332 22.32217 20.78275
#
# Velocity S-wave (km/s) = 3.55016 3.82363 3.68943
# Velocity P-wave (km/s) = 6.49657 7.10948 6.80992
#
# Compressibility (1/GPa) = 0.02578527
#
# Stress axis : x y z
#
# Youngs Moduli (GPa) = 80.07846 45.63832 25.25658
#
# Poissons Ratio (x) = 0.13577 0.22042
# Poissons Ratio (y) = 0.23822 0.31322
# Poissons Ratio (z) = 0.69888 0.56599
#
# Static dielectric constant tensor:
#      x y z
#    x 3.263740 0.000000 0.000000 
#    y 0.000000 2.866040 0.000000 
#    z 0.000000 0.000000 2.710320 
# 
# 
# High freq. dielectric constant tensor:
#      x y z
#    x 1.603930 0.000000 0.000000 
#    y 0.000000 1.557930 0.000000 
#    z 0.000000 0.000000 1.545210 
# 
# From -- ./inp_files/28606.got.cif
#   From: 2010.03.12/outbox.cif.g09.slc.cpg/sg51_15_cif.got.tgz:28606.got - 2010.04.16 13:43:02.
