data_PCOD8206850
_publ_section_title
;
Structure prediction by ZEFSAII (Michael W. Deem and Ramdas Pophale) SiO2 
 PCOD8206850
Probable space group: P M M A
;
_chemical_formula_sum "Si O2"
_cell_formula_units_Z 64
_cell_length_a 9.363247
_cell_length_b 16.139117
_cell_length_c 23.447659
_cell_angle_alpha 90.000000
_cell_angle_beta 90.000000
_cell_angle_gamma 90.000000
_cell_volume 3543.282176
_symmetry_space_group_name_H-M "P M M A"
_symmetry_group_IT_number 51
_symmetry_cell_setting 'orthorhombic'
loop_
_space_group_symop_operation_xyz
x,y,z
1/2-x,-y,z
1/2+x,-y,-z
-x,y,-z
-x,-y,-z
1/2+x,y,-z
1/2-x,y,z
x,-y,z
loop_
_atom_site_type_symbol
_atom_site_label
_atom_site_fract_x
_atom_site_fract_y
_atom_site_fract_z
Si Si1 0.581192 0.254733 0.860758
Si Si2 0.089630 0.406264 0.656563
Si Si3 0.083664 0.593656 0.057770
Si Si4 0.080945 0.904559 0.848383
Si Si5 0.402281 0.093695 0.721393
Si Si6 0.911540 0.820634 0.639869
Si Si7 0.409729 0.315251 0.261607
Si Si8 0.080231 0.717731 0.558011
O O1 0.750000 0.237658 0.863189
O O2 0.536428 0.334372 0.898455
O O3 0.502831 0.169247 0.882326
O O4 0.529231 0.278380 0.796955
O O5 0.250000 0.381340 0.672285
O O6 0.073056 0.500000 0.637323
O O7 0.040174 0.355471 0.601304
O O8 0.000962 0.391791 0.714543
O O9 0.250000 0.601798 0.044031
O O10 0.050238 0.500000 0.081369
O O11 0.000000 0.610117 0.000000
O O12 0.250000 0.895983 0.858869
O O13 0.037422 0.881879 0.783430
O O14 0.033540 0.000000 0.864663
O O15 0.250000 0.141184 0.708492
O O16 0.517100 0.101447 0.670911
O O17 0.359854 0.000000 0.726672
O O18 0.750000 0.839874 0.620305
O O19 0.918127 0.751686 0.688507
O O20 0.007199 0.799864 0.584543
O O21 0.250000 0.347493 0.251134
O O22 0.250000 0.729714 0.548539
O O23 0.000000 0.695500 0.500000
#
# Coordination Sequence:
#
# PCOD8206850 Si02
#       8
#     8   8   8   8   8   8   8   8
#     4  10  19  32  52  79 107 139 177 218 265 312
#     4   9  19  34  49  67  94 126 158 198 248 298
#     4   9  19  36  56  77 104 138 179 227 273 316
#     4   9  18  31  48  75 111 146 177 210 253 307
#     4   9  17  29  46  70 100 133 165 196 238 292
#     4  10  18  30  48  70  97 126 159 197 238 290
#     4   9  18  30  45  70 100 128 160 196 241 299
#     4  10  20  34  51  69  90 120 159 203 248 295
#
# _framework density 18.062349999999999
#
# number of rings (size 3 to 8) (size 9 to 14) (size 15 to 20)
#    0.000    2.625    1.250    1.500    0.000    3.500 
#    0.000    2.500    0.000    2.250    0.000    0.000 
#    0.000    0.000    0.000    0.000    0.000    0.000 
#
# Total GULP energy -792848.074975 kJ/mol
# GULP energy per Si atom -12388.251171 kJ/mol
# Density = 1.802124 g / cm^3
# Si number density = 18.062350 Si / 1000 Ang^3
#
#
#
# Elastic Constant Matrix: (Units=GPa)
#
#
# Indices 1 2 3 4 5 6 
#
# 1 72.9545 40.7656 41.1158 0.0000 0.0000 0.0000
# 2 40.7656 93.9780 48.2653 0.0000 0.0000 0.0000
# 3 41.1158 48.2653 59.8699 0.0000 0.0000 0.0000
# 4 0.0000 0.0000 0.0000 20.9541 0.0000 0.0000
# 5 0.0000 0.0000 0.0000 0.0000 22.0428 0.0000
# 6 0.0000 0.0000 0.0000 0.0000 0.0000 27.8889
#
#
#
# Elastic Compliance Matrix: (Units=1/GPa)
#
#
# Indices 1 2 3 4 5 6 
#
# 1 0.022902 -0.003169 -0.013174 0.000000 0.000000 0.000000
# 2 -0.003169 0.018598 -0.012817 0.000000 0.000000 0.000000
# 3 -0.013174 -0.012817 0.036082 0.000000 0.000000 0.000000
# 4 0.000000 0.000000 0.000000 0.047723 0.000000 0.000000
# 5 0.000000 0.000000 0.000000 0.000000 0.045366 0.000000
# 6 0.000000 0.000000 0.000000 0.000000 0.000000 0.035857
#
#
# Mechanical properties :
#
#
# Convention : Reuss Voigt Hill
#
# Bulk Modulus (GPa) = 51.91012 54.12176 53.01594
# Shear Modulus (GPa) = 18.43190 20.62084 19.52637
#
# Velocity S-wave (km/s) = 3.19793 3.38249 3.29151
# Velocity P-wave (km/s) = 6.51440 6.72933 6.62274
#
# Compressibility (1/GPa) = 0.01926407
#
# Stress axis : x y z
#
# Youngs Moduli (GPa) = 43.66378 53.76973 27.71428
#
# Poissons Ratio (x) = 0.17039 0.36510
# Poissons Ratio (y) = 0.13836 0.35521
# Poissons Ratio (z) = 0.57521 0.68916
#
# Static dielectric constant tensor:
#      x y z
#    x 3.309120 0.000000 0.000000 
#    y 0.000000 3.357260 0.000000 
#    z 0.000000 0.000000 3.244620 
# 
# 
# High freq. dielectric constant tensor:
#      x y z
#    x 1.703130 0.000000 0.000000 
#    y 0.000000 1.692820 0.000000 
#    z 0.000000 0.000000 1.671070 
# 
# From -- ./inp_files/32384.got.cif
#   From: 2010.03.12/outbox.cif.g09.slc.cpg/sg51_17_cif.got.tgz:32384.got - 2010.04.16 13:43:02.
