data_PCOD8206746
_publ_section_title
;
Structure prediction by ZEFSAII (Michael W. Deem and Ramdas Pophale) SiO2 
 PCOD8206746
Probable space group: P M M A
;
_chemical_formula_sum "Si O2"
_cell_formula_units_Z 40
_cell_length_a 9.875139
_cell_length_b 11.505721
_cell_length_c 19.713040
_cell_angle_alpha 90.000000
_cell_angle_beta 90.000000
_cell_angle_gamma 90.000000
_cell_volume 2239.807318
_symmetry_space_group_name_H-M "P M M A"
_symmetry_group_IT_number 51
_symmetry_cell_setting 'orthorhombic'
loop_
_space_group_symop_operation_xyz
x,y,z
1/2-x,-y,z
1/2+x,-y,-z
-x,y,-z
-x,-y,-z
1/2+x,y,-z
1/2-x,y,z
x,-y,z
loop_
_atom_site_type_symbol
_atom_site_label
_atom_site_fract_x
_atom_site_fract_y
_atom_site_fract_z
Si Si1 0.102110 0.500000 0.597327
Si Si2 0.094678 0.633817 0.061298
Si Si3 0.406568 0.733382 0.204033
Si Si4 0.405404 0.135108 0.699137
Si Si5 0.905940 0.500000 0.720027
Si Si6 0.597189 0.754117 0.442134
O O1 0.250000 0.500000 0.633773
O O2 0.090234 0.385351 0.551354
O O3 0.984601 0.500000 0.650867
O O4 0.250000 0.646238 0.038106
O O5 0.064546 0.500000 0.081920
O O6 0.064461 0.719610 0.124059
O O7 0.000000 0.674945 0.000000
O O8 0.250000 0.766212 0.217151
O O9 0.501576 0.831583 0.236698
O O10 0.445906 0.611520 0.236996
O O11 0.250000 0.165627 0.717010
O O12 0.452765 0.205168 0.632185
O O13 0.424032 0.000000 0.683731
O O14 0.750000 0.500000 0.700212
O O15 0.500000 0.807934 0.500000
O O16 0.750000 0.799768 0.454804
#
# Coordination Sequence:
#
# PCOD8206746 Si02
#       6
#     4   8   8   8   4   8
#     4  10  19  33  51  75 105 135 169 207 253 316
#     4   9  17  30  48  76 113 145 171 202 247 304
#     4  10  19  33  54  79 108 139 172 213 257 306
#     4  10  22  39  56  75 101 134 176 224 266 304
#     4  10  18  29  50  79 106 135 168 207 258 308
#     4  10  21  35  52  75 103 134 168 210 260 313
#
# _framework density 17.85868
#
# number of rings (size 3 to 8) (size 9 to 14) (size 15 to 20)
#    0.000    2.200    3.000    0.300    0.000    3.200 
#    0.000    0.000    0.000    0.600    0.000    0.000 
#    0.000    0.000    0.000    0.000    0.000    0.000 
#
# Total GULP energy -495981.696753 kJ/mol
# GULP energy per Si atom -12399.542419 kJ/mol
# Density = 1.781803 g / cm^3
# Si number density = 17.858680 Si / 1000 Ang^3
#
#
#
# Elastic Constant Matrix: (Units=GPa)
#
#
# Indices 1 2 3 4 5 6 
#
# 1 71.9185 27.6869 59.7870 0.0000 0.0000 0.0000
# 2 27.6869 58.1367 23.3156 0.0000 0.0000 0.0000
# 3 59.7870 23.3156 102.8554 0.0000 0.0000 0.0000
# 4 0.0000 0.0000 0.0000 12.1886 0.0000 0.0000
# 5 0.0000 0.0000 0.0000 0.0000 38.2471 0.0000
# 6 0.0000 0.0000 0.0000 0.0000 0.0000 27.2159
#
#
#
# Elastic Compliance Matrix: (Units=1/GPa)
#
#
# Indices 1 2 3 4 5 6 
#
# 1 0.029953 -0.008010 -0.015595 0.000000 0.000000 0.000000
# 2 -0.008010 0.021063 -0.000118 0.000000 0.000000 0.000000
# 3 -0.015595 -0.000118 0.018814 0.000000 0.000000 0.000000
# 4 0.000000 0.000000 0.000000 0.082044 0.000000 0.000000
# 5 0.000000 0.000000 0.000000 0.000000 0.026146 0.000000
# 6 0.000000 0.000000 0.000000 0.000000 0.000000 0.036743
#
#
# Mechanical properties :
#
#
# Convention : Reuss Voigt Hill
#
# Bulk Modulus (GPa) = 44.67754 50.49885 47.58820
# Shear Modulus (GPa) = 18.54112 23.67174 21.10643
#
# Velocity S-wave (km/s) = 3.22563 3.64470 3.44155
# Velocity P-wave (km/s) = 6.24055 6.78602 6.51899
#
# Compressibility (1/GPa) = 0.02238261
#
# Stress axis : x y z
#
# Youngs Moduli (GPa) = 33.38605 47.47625 53.15167
#
# Poissons Ratio (x) = 0.38030 0.82889
# Poissons Ratio (y) = 0.26743 0.00630
# Poissons Ratio (z) = 0.52065 0.00562
#
# Static dielectric constant tensor:
#      x y z
#    x 3.355270 0.000000 0.000000 
#    y 0.000000 3.178500 0.000000 
#    z 0.000000 0.000000 3.227240 
# 
# 
# High freq. dielectric constant tensor:
#      x y z
#    x 1.694860 0.000000 0.000000 
#    y 0.000000 1.668390 0.000000 
#    z 0.000000 0.000000 1.682150 
# 
# From -- ./inp_files/31408.got.cif
#   From: 2010.03.12/outbox.cif.g09.slc.cpg/sg51_16_cif.got.tgz:31408.got - 2010.04.16 13:43:02.
