data_PCOD8206880
_publ_section_title
;
Structure prediction by ZEFSAII (Michael W. Deem and Ramdas Pophale) SiO2 
 PCOD8206880
Probable space group: P M M A
;
_chemical_formula_sum "Si O2"
_cell_formula_units_Z 52
_cell_length_a 9.351780
_cell_length_b 10.428781
_cell_length_c 29.978042
_cell_angle_alpha 90.000000
_cell_angle_beta 90.000000
_cell_angle_gamma 90.000000
_cell_volume 2923.688455
_symmetry_space_group_name_H-M "P M M A"
_symmetry_group_IT_number 51
_symmetry_cell_setting 'orthorhombic'
loop_
_space_group_symop_operation_xyz
x,y,z
1/2-x,-y,z
1/2+x,-y,-z
-x,y,-z
-x,-y,-z
1/2+x,y,-z
1/2-x,y,z
x,-y,z
loop_
_atom_site_type_symbol
_atom_site_label
_atom_site_fract_x
_atom_site_fract_y
_atom_site_fract_z
Si Si1 0.416721 0.757310 0.392434
Si Si2 0.580412 0.145427 0.798208
Si Si3 0.918205 0.647885 0.870015
Si Si4 0.088785 0.348512 0.958422
Si Si5 0.094332 0.354528 0.538609
Si Si6 0.585364 0.000000 0.546064
Si Si7 0.080237 0.141796 0.300191
O O1 0.250000 0.721251 0.393935
O O2 0.511770 0.645772 0.414137
O O3 0.452587 0.880493 0.422399
O O4 0.471650 0.770819 0.341295
O O5 0.750000 0.141926 0.799834
O O6 0.524745 0.253835 0.832283
O O7 0.529511 0.190378 0.748670
O O8 0.524055 0.000000 0.809093
O O9 0.750000 0.665097 0.879574
O O10 0.950396 0.500000 0.856019
O O11 0.004803 0.688263 0.913755
O O12 0.250000 0.291014 0.957469
O O13 0.098274 0.500000 0.963782
O O14 0.000000 0.290021 0.000000
O O15 0.250000 0.286226 0.541503
O O16 0.118915 0.500000 0.524255
O O17 0.000000 0.284725 0.500000
O O18 0.500000 0.000000 0.500000
O O19 0.750000 0.000000 0.532745
O O20 0.250000 0.134791 0.301867
O O21 0.017641 0.000000 0.307708
#
# Coordination Sequence:
#
# PCOD8206880 Si02
#       7
#     8   8   8   8   8   4   8
#     4  10  18  30  49  71  94 118 147 184 225 269
#     4   8  14  25  44  68  92 123 161 195 231 278
#     4   9  16  26  42  67  97 123 151 195 242 276
#     4   9  16  26  42  65  93 125 159 193 233 283
#     4  10  21  36  51  66  87 117 152 187 223 267
#     4  10  20  30  42  66  96 120 140 172 221 272
#     4   8  13  25  45  68  93 120 150 184 222 266
#
# _framework density 17.785753
#
# number of rings (size 3 to 8) (size 9 to 14) (size 15 to 20)
#    0.000    2.923    0.769    2.308    0.000    4.615 
#    0.000    0.769    0.000    4.615    0.000    4.308 
#    0.000    0.000    0.000    0.000    0.000    0.000 
#
# Total GULP energy -644251.367371 kJ/mol
# GULP energy per Si atom -12389.449373 kJ/mol
# Density = 1.774527 g / cm^3
# Si number density = 17.785753 Si / 1000 Ang^3
#
#
#
# Elastic Constant Matrix: (Units=GPa)
#
#
# Indices 1 2 3 4 5 6 
#
# 1 77.8958 23.1482 60.9675 0.0000 0.0000 0.0000
# 2 23.1482 46.6448 49.8510 0.0000 0.0000 0.0000
# 3 60.9675 49.8510 171.7845 0.0000 0.0000 0.0000
# 4 0.0000 0.0000 0.0000 25.6009 0.0000 0.0000
# 5 0.0000 0.0000 0.0000 0.0000 21.0206 0.0000
# 6 0.0000 0.0000 0.0000 0.0000 0.0000 11.7666
#
#
#
# Elastic Compliance Matrix: (Units=1/GPa)
#
#
# Indices 1 2 3 4 5 6 
#
# 1 0.018072 -0.003064 -0.005525 0.000000 0.000000 0.000000
# 2 -0.003064 0.031596 -0.008082 0.000000 0.000000 0.000000
# 3 -0.005525 -0.008082 0.010127 0.000000 0.000000 0.000000
# 4 0.000000 0.000000 0.000000 0.039061 0.000000 0.000000
# 5 0.000000 0.000000 0.000000 0.000000 0.047572 0.000000
# 6 0.000000 0.000000 0.000000 0.000000 0.000000 0.084986
#
#
# Mechanical properties :
#
#
# Convention : Reuss Voigt Hill
#
# Bulk Modulus (GPa) = 37.80016 62.69537 50.24777
# Shear Modulus (GPa) = 18.27650 22.50151 20.38900
#
# Velocity S-wave (km/s) = 3.20909 3.56074 3.38948
# Velocity P-wave (km/s) = 5.91863 7.22717 6.60538
#
# Compressibility (1/GPa) = 0.02645491
#
# Stress axis : x y z
#
# Youngs Moduli (GPa) = 55.33306 31.64922 98.74303
#
# Poissons Ratio (x) = 0.09698 0.54554
# Poissons Ratio (y) = 0.16955 0.79801
# Poissons Ratio (z) = 0.30571 0.25578
#
# Static dielectric constant tensor:
#      x y z
#    x 3.177000 0.000000 0.000000 
#    y 0.000000 3.152910 0.000000 
#    z 0.000000 0.000000 3.602180 
# 
# 
# High freq. dielectric constant tensor:
#      x y z
#    x 1.658550 0.000000 0.000000 
#    y 0.000000 1.654820 0.000000 
#    z 0.000000 0.000000 1.695390 
# 
# From -- ./inp_files/37336.got.cif
#   From: 2010.03.12/outbox.cif.g09.slc.cpg/sg51_19_cif.got.tgz:37336.got - 2010.04.16 13:43:02.
