data_PCOD8206334
_publ_section_title
;
Structure prediction by ZEFSAII (Michael W. Deem and Ramdas Pophale) SiO2 
 PCOD8206334
Probable space group: P M M A
;
_chemical_formula_sum "Si O2"
_cell_formula_units_Z 64
_cell_length_a 18.452705
_cell_length_b 9.021924
_cell_length_c 21.834211
_cell_angle_alpha 90.000000
_cell_angle_beta 90.000000
_cell_angle_gamma 90.000000
_cell_volume 3634.935476
_symmetry_space_group_name_H-M "P M M A"
_symmetry_group_IT_number 51
_symmetry_cell_setting 'orthorhombic'
loop_
_space_group_symop_operation_xyz
x,y,z
1/2-x,-y,z
1/2+x,-y,-z
-x,y,-z
-x,-y,-z
1/2+x,y,-z
1/2-x,y,z
x,-y,z
loop_
_atom_site_type_symbol
_atom_site_label
_atom_site_fract_x
_atom_site_fract_y
_atom_site_fract_z
Si Si1 0.973120 0.322576 0.935246
Si Si2 0.093810 0.826008 0.616254
Si Si3 0.170171 0.323935 0.128179
Si Si4 0.333012 0.326899 0.728142
Si Si5 0.045738 0.326588 0.815524
Si Si6 0.574197 0.173602 0.626843
Si Si7 0.901229 0.326768 0.747736
Si Si8 0.085900 0.667306 0.494571
O O1 0.973547 0.500000 0.936728
O O2 0.891377 0.266049 0.919187
O O3 0.027722 0.259893 0.882757
O O4 0.000000 0.256763 0.000000
O O5 0.145940 0.763714 0.668337
O O6 0.119259 0.752237 0.552680
O O7 0.010765 0.785976 0.631628
O O8 0.105181 0.000000 0.610234
O O9 0.250000 0.262148 0.109963
O O10 0.169497 0.500000 0.126179
O O11 0.152374 0.275279 0.197850
O O12 0.250000 0.297755 0.744673
O O13 0.349261 0.500000 0.715818
O O14 0.379131 0.267766 0.786683
O O15 0.050014 0.500000 0.825533
O O16 0.982637 0.287269 0.767954
O O17 0.615789 0.234835 0.686532
O O18 0.609712 0.250328 0.567525
O O19 0.587004 0.000000 0.621103
O O20 0.892423 0.500000 0.733095
O O21 0.115868 0.500000 0.493344
O O22 0.000000 0.670263 0.500000
#
# Coordination Sequence:
#
# PCOD8206334 Si02
#       8
#     8   8   8   8   8   8   8   8
#     4   8  13  22  38  61  91 127 158 186 229 279
#     4  10  19  30  44  63  90 119 149 194 244 284
#     4   8  14  24  39  62  89 117 155 198 233 272
#     4  10  19  30  45  63  86 120 160 198 235 280
#     4   8  14  25  40  59  85 116 153 191 225 270
#     4  10  18  27  42  67  94 116 146 192 241 283
#     4   9  15  25  44  63  84 119 154 187 231 279
#     4   9  17  28  44  65  89 118 150 185 229 283
#
# _framework density 17.606915000000001
#
# number of rings (size 3 to 8) (size 9 to 14) (size 15 to 20)
#    0.000    3.000    1.250    2.625    0.000    2.750 
#    0.000    0.625    0.000    4.875    0.000    1.750 
#    0.000   12.500    0.000    1.000    0.000    0.500 
#
# Total GULP energy -793210.493926 kJ/mol
# GULP energy per Si atom -12393.913968 kJ/mol
# Density = 1.756684 g / cm^3
# Si number density = 17.606915 Si / 1000 Ang^3
#
#
#
# Elastic Constant Matrix: (Units=GPa)
#
#
# Indices 1 2 3 4 5 6 
#
# 1 95.6371 21.6064 61.3939 0.0000 0.0000 0.0000
# 2 21.6064 50.2369 37.6957 0.0000 0.0000 0.0000
# 3 61.3939 37.6957 163.9305 0.0000 0.0000 0.0000
# 4 0.0000 0.0000 0.0000 2.8738 0.0000 0.0000
# 5 0.0000 0.0000 0.0000 0.0000 21.4545 0.0000
# 6 0.0000 0.0000 0.0000 0.0000 0.0000 10.4412
#
#
#
# Elastic Compliance Matrix: (Units=1/GPa)
#
#
# Indices 1 2 3 4 5 6 
#
# 1 0.014026 -0.002527 -0.004672 0.000000 0.000000 0.000000
# 2 -0.002527 0.024512 -0.004690 0.000000 0.000000 0.000000
# 3 -0.004672 -0.004690 0.008928 0.000000 0.000000 0.000000
# 4 0.000000 0.000000 0.000000 0.347971 0.000000 0.000000
# 5 0.000000 0.000000 0.000000 0.000000 0.046610 0.000000
# 6 0.000000 0.000000 0.000000 0.000000 0.000000 0.095775
#
#
# Mechanical properties :
#
#
# Convention : Reuss Voigt Hill
#
# Bulk Modulus (GPa) = 42.21476 61.24404 51.72940
# Shear Modulus (GPa) = 8.77970 19.56114 14.17042
#
# Velocity S-wave (km/s) = 2.23547 3.33677 2.84001
# Velocity P-wave (km/s) = 5.53998 7.05018 6.34020
#
# Compressibility (1/GPa) = 0.02368840
#
# Stress axis : x y z
#
# Youngs Moduli (GPa) = 71.29517 40.79678 112.00319
#
# Poissons Ratio (x) = 0.10309 0.52327
# Poissons Ratio (y) = 0.18016 0.52531
# Poissons Ratio (z) = 0.33308 0.19134
#
# Static dielectric constant tensor:
#      x y z
#    x 3.010950 0.000000 0.000000 
#    y 0.000000 2.887630 0.000000 
#    z 0.000000 0.000000 3.357750 
# 
# 
# High freq. dielectric constant tensor:
#      x y z
#    x 1.650340 0.000000 0.000000 
#    y 0.000000 1.642260 0.000000 
#    z 0.000000 0.000000 1.685220 
# 
# From -- ./inp_files/33831.got.cif
#   From: 2010.03.12/outbox.cif.g09.slc.cpg/sg51_17_cif.got.tgz:33831.got - 2010.04.16 13:43:02.
