data_PCOD8206038
_publ_section_title
;
Structure prediction by ZEFSAII (Michael W. Deem and Ramdas Pophale) SiO2 
 PCOD8206038
Probable space group: P M M A
;
_chemical_formula_sum "Si O2"
_cell_formula_units_Z 40
_cell_length_a 8.748425
_cell_length_b 25.803486
_cell_length_c 9.405388
_cell_angle_alpha 90.000000
_cell_angle_beta 90.000000
_cell_angle_gamma 90.000000
_cell_volume 2123.170989
_symmetry_space_group_name_H-M "P M M A"
_symmetry_group_IT_number 51
_symmetry_cell_setting 'orthorhombic'
loop_
_space_group_symop_operation_xyz
x,y,z
1/2-x,-y,z
1/2+x,-y,-z
-x,y,-z
-x,-y,-z
1/2+x,y,-z
1/2-x,y,z
x,-y,z
loop_
_atom_site_type_symbol
_atom_site_label
_atom_site_fract_x
_atom_site_fract_y
_atom_site_fract_z
Si Si1 0.071681 0.443788 0.654922
Si Si2 0.429510 0.141860 0.847040
Si Si3 0.930055 0.760928 0.345579
Si Si4 0.931188 0.657125 0.657751
Si Si5 0.928426 0.939834 0.647742
O O1 0.250000 0.431338 0.641000
O O2 0.045525 0.500000 0.731665
O O3 0.000000 0.447741 0.500000
O O4 0.989949 0.395591 0.737289
O O5 0.250000 0.134700 0.861030
O O6 0.474448 0.190910 0.751897
O O7 0.498008 0.090094 0.778961
O O8 0.500000 0.151107 0.000000
O O9 0.750000 0.753140 0.360763
O O10 0.000000 0.771314 0.500000
O O11 0.002955 0.709563 0.271342
O O12 0.750000 0.658753 0.656915
O O13 0.000000 0.655872 0.500000
O O14 0.750000 0.928299 0.641649
O O15 0.000000 0.920019 0.500000
O O16 0.965316 0.000000 0.671854
#
# Coordination Sequence:
#
# PCOD8206038 Si02
#       5
#     8   8   8   8   8
#     4   9  15  22  33  51  80 118 156 196 244 298
#     4  11  24  39  57  80 108 142 177 218 265 313
#     4  10  20  34  52  74  99 131 171 213 258 307
#     4  10  17  25  40  61  87 121 160 204 250 298
#     4  10  21  38  61  87 114 144 178 216 257 305
#
# _framework density 18.839742999999999
#
# number of rings (size 3 to 8) (size 9 to 14) (size 15 to 20)
#    0.000    2.000    0.000    7.200    0.000    7.600 
#    0.000    0.000    0.000    0.000    0.000    0.000 
#    0.000    0.800    0.000    2.600    0.000    9.800 
#
# Total GULP energy -495825.833205 kJ/mol
# GULP energy per Si atom -12395.645830 kJ/mol
# Density = 1.879686 g / cm^3
# Si number density = 18.839743 Si / 1000 Ang^3
#
#
#
# Elastic Constant Matrix: (Units=GPa)
#
#
# Indices 1 2 3 4 5 6 
#
# 1 128.1387 77.6278 42.6341 0.0000 0.0000 0.0000
# 2 77.6278 143.1926 55.2070 0.0000 0.0000 0.0000
# 3 42.6341 55.2070 72.8128 0.0000 0.0000 0.0000
# 4 0.0000 0.0000 0.0000 2.4228 0.0000 0.0000
# 5 0.0000 0.0000 0.0000 0.0000 23.0949 0.0000
# 6 0.0000 0.0000 0.0000 0.0000 0.0000 32.7041
#
#
#
# Elastic Compliance Matrix: (Units=1/GPa)
#
#
# Indices 1 2 3 4 5 6 
#
# 1 0.012059 -0.005391 -0.002973 0.000000 0.000000 0.000000
# 2 -0.005391 0.012279 -0.006153 0.000000 0.000000 0.000000
# 3 -0.002973 -0.006153 0.020140 0.000000 0.000000 0.000000
# 4 0.000000 0.000000 0.000000 0.412743 0.000000 0.000000
# 5 0.000000 0.000000 0.000000 0.000000 0.043300 0.000000
# 6 0.000000 0.000000 0.000000 0.000000 0.000000 0.030577
#
#
# Mechanical properties :
#
#
# Convention : Reuss Voigt Hill
#
# Bulk Modulus (GPa) = 64.75527 77.23131 70.99329
# Shear Modulus (GPa) = 8.84516 22.88938 15.86727
#
# Velocity S-wave (km/s) = 2.16913 3.48940 2.90526
# Velocity P-wave (km/s) = 6.38120 7.57082 7.00133
#
# Compressibility (1/GPa) = 0.01544276
#
# Stress axis : x y z
#
# Youngs Moduli (GPa) = 82.92230 81.44284 49.65228
#
# Poissons Ratio (x) = 0.43908 0.14764
# Poissons Ratio (y) = 0.44706 0.30550
# Poissons Ratio (z) = 0.24657 0.50111
#
# Static dielectric constant tensor:
#      x y z
#    x 3.581260 0.000000 0.000000 
#    y 0.000000 4.570090 0.000000 
#    z 0.000000 0.000000 2.938580 
# 
# 
# High freq. dielectric constant tensor:
#      x y z
#    x 1.753190 0.000000 0.000000 
#    y 0.000000 1.765290 0.000000 
#    z 0.000000 0.000000 1.662150 
# 
# From -- ./inp_files/5500.got.cif
#   From: 2010.03.12/outbox.cif.g09.slc.cpg/sg51_3_cif.got.tgz:5500.got - 2010.04.16 13:43:02.
