data_PCOD8206701
_publ_section_title
;
Structure prediction by ZEFSAII (Michael W. Deem and Ramdas Pophale) SiO2 
 PCOD8206701
Probable space group: P M M A
;
_chemical_formula_sum "Si O2"
_cell_formula_units_Z 52
_cell_length_a 16.789940
_cell_length_b 13.354442
_cell_length_c 12.651109
_cell_angle_alpha 90.000000
_cell_angle_beta 90.000000
_cell_angle_gamma 90.000000
_cell_volume 2836.635201
_symmetry_space_group_name_H-M "P M M A"
_symmetry_group_IT_number 51
_symmetry_cell_setting 'orthorhombic'
loop_
_space_group_symop_operation_xyz
x,y,z
1/2-x,-y,z
1/2+x,-y,-z
-x,y,-z
-x,-y,-z
1/2+x,y,-z
1/2-x,y,z
x,-y,z
loop_
_atom_site_type_symbol
_atom_site_label
_atom_site_fract_x
_atom_site_fract_y
_atom_site_fract_z
Si Si1 0.090026 0.884321 0.792402
Si Si2 0.000000 0.773505 0.500000
Si Si3 0.341594 0.205480 0.000097
Si Si4 0.656628 0.890470 0.785936
Si Si5 0.660077 0.115581 0.429070
Si Si6 0.956854 0.258162 0.720126
Si Si7 0.570561 0.387224 0.916744
O O1 0.113361 0.820247 0.893690
O O2 0.153451 0.871358 0.697745
O O3 0.006922 0.838459 0.756512
O O4 0.079416 0.000000 0.823266
O O5 0.083038 0.834998 0.513692
O O6 0.013814 0.704760 0.395662
O O7 0.250000 0.194858 0.974319
O O8 0.368929 0.130075 0.092367
O O9 0.359013 0.318702 0.038301
O O10 0.750000 0.890639 0.775041
O O11 0.628740 0.797131 0.712998
O O12 0.623008 0.000000 0.752524
O O13 0.750000 0.156448 0.460421
O O14 0.655570 0.000000 0.461516
O O15 0.959895 0.350102 0.801492
O O16 0.602671 0.500000 0.903247
O O17 0.500000 0.382642 0.000000
#
# Coordination Sequence:
#
# PCOD8206701 Si02
#       7
#     8   4   8   8   8   8   8
#     4  10  18  29  48  75 108 144 178 211 252 307
#     4  10  21  34  51  72 104 136 180 222 264 312
#     4  10  19  31  49  76 106 135 170 210 258 313
#     4   9  18  30  45  70 105 142 176 211 255 308
#     4   9  18  31  47  70 102 143 186 222 257 298
#     4  10  20  35  51  75 103 137 175 220 261 311
#     4  10  20  37  58  77  99 128 165 213 267 320
#
# _framework density 18.331576999999999
#
# number of rings (size 3 to 8) (size 9 to 14) (size 15 to 20)
#    0.000    2.308    1.538    1.615    0.000    4.308 
#    0.000    4.231    0.000    0.000    0.000    0.000 
#    0.000    1.538    0.000    0.000    0.000    0.000 
#
# Total GULP energy -644197.990392 kJ/mol
# GULP energy per Si atom -12388.422892 kJ/mol
# Density = 1.828985 g / cm^3
# Si number density = 18.331577 Si / 1000 Ang^3
#
#
#
# Elastic Constant Matrix: (Units=GPa)
#
#
# Indices 1 2 3 4 5 6 
#
# 1 48.4336 7.2668 14.5913 0.0000 0.0000 0.0000
# 2 7.2668 84.9376 33.7162 0.0000 0.0000 0.0000
# 3 14.5913 33.7162 112.6592 0.0000 0.0000 0.0000
# 4 0.0000 0.0000 0.0000 16.2880 0.0000 0.0000
# 5 0.0000 0.0000 0.0000 0.0000 19.4550 0.0000
# 6 0.0000 0.0000 0.0000 0.0000 0.0000 18.3326
#
#
#
# Elastic Compliance Matrix: (Units=1/GPa)
#
#
# Indices 1 2 3 4 5 6 
#
# 1 0.021537 -0.000834 -0.002540 0.000000 0.000000 0.000000
# 2 -0.000834 0.013393 -0.003900 0.000000 0.000000 0.000000
# 3 -0.002540 -0.003900 0.010372 0.000000 0.000000 0.000000
# 4 0.000000 0.000000 0.000000 0.061395 0.000000 0.000000
# 5 0.000000 0.000000 0.000000 0.000000 0.051401 0.000000
# 6 0.000000 0.000000 0.000000 0.000000 0.000000 0.054547
#
#
# Mechanical properties :
#
#
# Convention : Reuss Voigt Hill
#
# Bulk Modulus (GPa) = 32.51611 39.68657 36.10134
# Shear Modulus (GPa) = 21.05748 23.51221 22.28485
#
# Velocity S-wave (km/s) = 3.39292 3.58524 3.49040
# Velocity P-wave (km/s) = 5.75548 6.23176 5.99835
#
# Compressibility (1/GPa) = 0.03075398
#
# Stress axis : x y z
#
# Youngs Moduli (GPa) = 46.43142 74.66648 96.40906
#
# Poissons Ratio (x) = 0.06231 0.24485
# Poissons Ratio (y) = 0.03875 0.37600
# Poissons Ratio (z) = 0.11792 0.29121
#
# Static dielectric constant tensor:
#      x y z
#    x 3.556680 0.000000 0.000000 
#    y 0.000000 3.199080 0.000000 
#    z 0.000000 0.000000 3.554480 
# 
# 
# High freq. dielectric constant tensor:
#      x y z
#    x 1.717670 0.000000 0.000000 
#    y 0.000000 1.668620 0.000000 
#    z 0.000000 0.000000 1.717940 
# 
# From -- ./inp_files/17418.got.cif
#   From: 2010.03.12/outbox.cif.g09.slc.cpg/sg51_9_cif.got.tgz:17418.got - 2010.04.16 13:43:02.
