data_PCOD8206283
_publ_section_title
;
Structure prediction by ZEFSAII (Michael W. Deem and Ramdas Pophale) SiO2 
 PCOD8206283
Probable space group: P M M A
;
_chemical_formula_sum "Si O2"
_cell_formula_units_Z 64
_cell_length_a 9.175286
_cell_length_b 18.306312
_cell_length_c 26.231822
_cell_angle_alpha 90.000000
_cell_angle_beta 90.000000
_cell_angle_gamma 90.000000
_cell_volume 4406.044986
_symmetry_space_group_name_H-M "P M M A"
_symmetry_group_IT_number 51
_symmetry_cell_setting 'orthorhombic'
loop_
_space_group_symop_operation_xyz
x,y,z
1/2-x,-y,z
1/2+x,-y,-z
-x,y,-z
-x,-y,-z
1/2+x,y,-z
1/2-x,y,z
x,-y,z
loop_
_atom_site_type_symbol
_atom_site_label
_atom_site_fract_x
_atom_site_fract_y
_atom_site_fract_z
Si Si1 0.413767 0.794628 0.794642
Si Si2 0.585744 0.586989 0.451250
Si Si3 0.411187 0.285406 0.902185
Si Si4 0.580467 0.416743 0.160524
Si Si5 0.079849 0.836610 0.049886
Si Si6 0.420108 0.084063 0.153548
Si Si7 0.418781 0.416422 0.351844
Si Si8 0.921379 0.665461 0.751351
O O1 0.250000 0.807848 0.774173
O O2 0.411748 0.752907 0.847675
O O3 0.492546 0.872416 0.802870
O O4 0.502992 0.744923 0.754756
O O5 0.500000 0.618955 0.500000
O O6 0.750000 0.617144 0.452639
O O7 0.582915 0.500000 0.452993
O O8 0.509614 0.614318 0.399532
O O9 0.250000 0.279728 0.926961
O O10 0.454887 0.369566 0.890649
O O11 0.525735 0.246334 0.939418
O O12 0.750000 0.405830 0.175651
O O13 0.543251 0.500000 0.147290
O O14 0.482680 0.391501 0.207623
O O15 0.250000 0.834881 0.039242
O O16 0.037878 0.888695 0.096927
O O17 0.000000 0.868291 0.000000
O O18 0.250000 0.096963 0.163232
O O19 0.464880 0.000000 0.157970
O O20 0.250000 0.411312 0.366655
O O21 0.461458 0.500000 0.338840
O O22 0.457373 0.366338 0.303943
O O23 0.750000 0.674512 0.760886
#
# Coordination Sequence:
#
# PCOD8206283 Si02
#       8
#     8   8   8   8   8   8   8   8
#     4   9  17  29  44  61  81 106 134 161 191 230
#     4   9  16  25  37  51  68  95 132 173 215 255
#     4   8  15  28  43  58  77 101 128 156 188 229
#     4   9  17  28  42  60  81 103 127 160 202 243
#     4  10  19  30  45  63  82 104 128 155 188 226
#     4   9  18  32  48  66  87 108 130 156 186 223
#     4   9  17  27  37  52  76 104 136 175 214 248
#     4  10  18  27  40  58  81 108 136 167 203 241
#
# _framework density 14.525498000000001
#
# number of rings (size 3 to 8) (size 9 to 14) (size 15 to 20)
#    0.000    2.875    0.000    2.625    0.000    7.250 
#    0.000    1.250    0.000    0.375    0.000    0.000 
#    0.000    0.000    0.000    0.000    0.000    0.625 
#
# Total GULP energy -793449.752175 kJ/mol
# GULP energy per Si atom -12397.652378 kJ/mol
# Density = 1.449244 g / cm^3
# Si number density = 14.525498 Si / 1000 Ang^3
#
#
#
# Elastic Constant Matrix: (Units=GPa)
#
#
# Indices 1 2 3 4 5 6 
#
# 1 83.7575 41.9722 39.8650 0.0000 0.0000 0.0000
# 2 41.9722 94.4584 35.3064 0.0000 0.0000 0.0000
# 3 39.8650 35.3064 55.7488 0.0000 0.0000 0.0000
# 4 0.0000 0.0000 0.0000 11.9974 0.0000 0.0000
# 5 0.0000 0.0000 0.0000 0.0000 24.9038 0.0000
# 6 0.0000 0.0000 0.0000 0.0000 0.0000 19.2218
#
#
#
# Elastic Compliance Matrix: (Units=1/GPa)
#
#
# Indices 1 2 3 4 5 6 
#
# 1 0.019466 -0.004516 -0.011060 0.000000 0.000000 0.000000
# 2 -0.004516 0.014917 -0.006218 0.000000 0.000000 0.000000
# 3 -0.011060 -0.006218 0.029785 0.000000 0.000000 0.000000
# 4 0.000000 0.000000 0.000000 0.083351 0.000000 0.000000
# 5 0.000000 0.000000 0.000000 0.000000 0.040154 0.000000
# 6 0.000000 0.000000 0.000000 0.000000 0.000000 0.052024
#
#
# Mechanical properties :
#
#
# Convention : Reuss Voigt Hill
#
# Bulk Modulus (GPa) = 48.59070 52.02799 50.30934
# Shear Modulus (GPa) = 17.23264 19.01267 18.12266
#
# Velocity S-wave (km/s) = 3.44811 3.62182 3.53603
# Velocity P-wave (km/s) = 7.02690 7.30659 7.16811
#
# Compressibility (1/GPa) = 0.02058007
#
# Stress axis : x y z
#
# Youngs Moduli (GPa) = 51.37089 67.03549 33.57435
#
# Poissons Ratio (x) = 0.30271 0.37134
# Poissons Ratio (y) = 0.23198 0.20878
# Poissons Ratio (z) = 0.56817 0.41685
#
# Static dielectric constant tensor:
#      x y z
#    x 2.970600 0.000000 0.000000 
#    y 0.000000 2.795250 0.000000 
#    z 0.000000 0.000000 2.664830 
# 
# 
# High freq. dielectric constant tensor:
#      x y z
#    x 1.568410 0.000000 0.000000 
#    y 0.000000 1.527060 0.000000 
#    z 0.000000 0.000000 1.525880 
# 
# From -- ./inp_files/36474.got.cif
#   From: 2010.03.12/outbox.cif.g09.slc.cpg/sg51_19_cif.got.tgz:36474.got - 2010.04.16 13:43:02.
