data_PCOD8206959
_publ_section_title
;
Structure prediction by ZEFSAII (Michael W. Deem and Ramdas Pophale) SiO2 
 PCOD8206959
Probable space group: P M M A
;
_chemical_formula_sum "Si O2"
_cell_formula_units_Z 32
_cell_length_a 8.753785
_cell_length_b 21.072176
_cell_length_c 9.325789
_cell_angle_alpha 90.000000
_cell_angle_beta 90.000000
_cell_angle_gamma 90.000000
_cell_volume 1720.247146
_symmetry_space_group_name_H-M "P M M A"
_symmetry_group_IT_number 51
_symmetry_cell_setting 'orthorhombic'
loop_
_space_group_symop_operation_xyz
x,y,z
1/2-x,-y,z
1/2+x,-y,-z
-x,y,-z
-x,-y,-z
1/2+x,y,-z
1/2-x,y,z
x,-y,z
loop_
_atom_site_type_symbol
_atom_site_label
_atom_site_fract_x
_atom_site_fract_y
_atom_site_fract_z
Si Si1 0.569096 0.127365 0.843503
Si Si2 0.567946 0.000000 0.158617
Si Si3 0.069382 0.636970 0.157034
Si Si4 0.070077 0.247458 0.344544
Si Si5 0.928145 0.500000 0.846579
O O1 0.750000 0.119237 0.857302
O O2 0.496617 0.064296 0.768825
O O3 0.521072 0.185765 0.744319
O O4 0.500000 0.139640 0.000000
O O5 0.750000 0.000000 0.159235
O O6 0.500000 0.000000 0.000000
O O7 0.250000 0.644461 0.140547
O O8 0.004179 0.690484 0.263368
O O9 0.024790 0.567386 0.226533
O O10 0.000000 0.646352 0.000000
O O11 0.250000 0.252131 0.360129
O O12 0.000000 0.243033 0.500000
O O13 0.750000 0.500000 0.870196
O O14 0.000000 0.500000 0.000000
#
# Coordination Sequence:
#
# PCOD8206959 Si02
#       5
#     8   4   8   8   4
#     4  10  19  33  53  77 101 128 162 203 246 292
#     4  10  18  30  51  78 103 128 158 198 244 292
#     4   9  17  31  51  76 100 128 164 204 247 293
#     4  10  22  36  50  70 100 134 169 205 245 290
#     4   8  14  26  47  72 100 126 156 200 247 290
#
# _framework density 18.601979
#
# number of rings (size 3 to 8) (size 9 to 14) (size 15 to 20)
#    0.000    2.500    0.000    4.125    0.000    3.000 
#    0.000    1.250    0.000    0.000    0.000    0.000 
#    0.000    0.000    0.000    0.000    0.000    0.000 
#
# Total GULP energy -396494.157533 kJ/mol
# GULP energy per Si atom -12390.442423 kJ/mol
# Density = 1.855964 g / cm^3
# Si number density = 18.601979 Si / 1000 Ang^3
#
#
#
# Elastic Constant Matrix: (Units=GPa)
#
#
# Indices 1 2 3 4 5 6 
#
# 1 54.2429 56.7680 30.6644 0.0000 0.0000 0.0000
# 2 56.7680 229.1337 86.9489 0.0000 0.0000 0.0000
# 3 30.6644 86.9489 97.4782 0.0000 0.0000 0.0000
# 4 0.0000 0.0000 0.0000 0.4275 0.0000 0.0000
# 5 0.0000 0.0000 0.0000 0.0000 26.2644 0.0000
# 6 0.0000 0.0000 0.0000 0.0000 0.0000 21.2219
#
#
#
# Elastic Compliance Matrix: (Units=1/GPa)
#
#
# Indices 1 2 3 4 5 6 
#
# 1 0.025715 -0.004990 -0.003638 0.000000 0.000000 0.000000
# 2 -0.004990 0.007566 -0.005179 0.000000 0.000000 0.000000
# 3 -0.003638 -0.005179 0.016022 0.000000 0.000000 0.000000
# 4 0.000000 0.000000 0.000000 2.339371 0.000000 0.000000
# 5 0.000000 0.000000 0.000000 0.000000 0.038074 0.000000
# 6 0.000000 0.000000 0.000000 0.000000 0.000000 0.047121
#
#
# Mechanical properties :
#
#
# Convention : Reuss Voigt Hill
#
# Bulk Modulus (GPa) = 46.10627 81.06860 63.58744
# Shear Modulus (GPa) = 1.99305 23.34765 12.67035
#
# Velocity S-wave (km/s) = 1.03622 3.54661 2.61268
# Velocity P-wave (km/s) = 5.12554 7.77473 6.58474
#
# Compressibility (1/GPa) = 0.02168902
#
# Stress axis : x y z
#
# Youngs Moduli (GPa) = 38.88795 132.17397 62.41257
#
# Poissons Ratio (x) = 0.65960 0.22705
# Poissons Ratio (y) = 0.19407 0.32322
# Poissons Ratio (z) = 0.14147 0.68449
#
# Static dielectric constant tensor:
#      x y z
#    x 3.378480 0.000000 0.000000 
#    y 0.000000 4.585260 0.000000 
#    z 0.000000 0.000000 3.046940 
# 
# 
# High freq. dielectric constant tensor:
#      x y z
#    x 1.720820 0.000000 0.000000 
#    y 0.000000 1.757880 0.000000 
#    z 0.000000 0.000000 1.675570 
# 
# From -- ./inp_files/5167.got.cif
#   From: 2010.03.12/outbox.cif.g09.slc.cpg/sg51_3_cif.got.tgz:5167.got - 2010.04.16 13:43:02.
