data_PCOD8206600
_publ_section_title
;
Structure prediction by ZEFSAII (Michael W. Deem and Ramdas Pophale) SiO2 
 PCOD8206600
Probable space group: P M M A
;
_chemical_formula_sum "Si O2"
_cell_formula_units_Z 52
_cell_length_a 9.005549
_cell_length_b 25.739825
_cell_length_c 12.852167
_cell_angle_alpha 90.000000
_cell_angle_beta 90.000000
_cell_angle_gamma 90.000000
_cell_volume 2979.148444
_symmetry_space_group_name_H-M "P M M A"
_symmetry_group_IT_number 51
_symmetry_cell_setting 'orthorhombic'
loop_
_space_group_symop_operation_xyz
x,y,z
1/2-x,-y,z
1/2+x,-y,-z
-x,y,-z
-x,-y,-z
1/2+x,y,-z
1/2-x,y,z
x,-y,z
loop_
_atom_site_type_symbol
_atom_site_label
_atom_site_fract_x
_atom_site_fract_y
_atom_site_fract_z
Si Si1 0.076344 0.205491 0.710553
Si Si2 0.579669 0.438770 0.392822
Si Si3 0.419323 0.000000 0.393394
Si Si4 0.425337 0.714562 0.892418
Si Si5 0.585221 0.368120 0.765608
Si Si6 0.574978 0.887030 0.613841
Si Si7 0.588904 0.713768 0.589221
O O1 0.250000 0.196380 0.700600
O O2 0.036732 0.237966 0.814548
O O3 0.993787 0.150232 0.702966
O O4 0.015954 0.237311 0.612123
O O5 0.500000 0.422029 0.500000
O O6 0.750000 0.419645 0.399205
O O7 0.569649 0.500000 0.377323
O O8 0.502322 0.414694 0.290588
O O9 0.500000 0.000000 0.500000
O O10 0.456628 0.945023 0.337489
O O11 0.250000 0.000000 0.424841
O O12 0.250000 0.707352 0.904816
O O13 0.490975 0.658092 0.858460
O O14 0.500000 0.731015 0.000000
O O15 0.750000 0.387087 0.803420
O O16 0.610347 0.322382 0.685966
O O17 0.500000 0.879766 0.500000
O O18 0.750000 0.875931 0.602102
O O19 0.500000 0.682095 0.500000
O O20 0.750000 0.732919 0.550495
#
# Coordination Sequence:
#
# PCOD8206600 Si02
#       7
#     8   8   4   8   8   8   8
#     4  10  20  32  46  67  93 122 155 192 236 285
#     4  10  20  33  50  74 105 139 172 204 239 281
#     4   8  16  28  42  62  89 126 167 200 233 272
#     4  10  21  37  56  75  97 123 156 199 246 297
#     4  10  20  33  51  73  97 127 163 200 240 287
#     4  10  18  29  45  66  96 131 165 200 235 277
#     4  10  19  29  42  63  92 125 157 190 229 276
#
# _framework density 17.454650999999998
#
# number of rings (size 3 to 8) (size 9 to 14) (size 15 to 20)
#    0.000    2.154    0.000    3.692    0.000    6.462 
#    0.000    0.000    0.000    0.462    0.000    0.538 
#    0.000    0.000    0.000    0.000    0.000    0.000 
#
# Total GULP energy -644264.131746 kJ/mol
# GULP energy per Si atom -12389.694841 kJ/mol
# Density = 1.741492 g / cm^3
# Si number density = 17.454651 Si / 1000 Ang^3
#
#
#
# Elastic Constant Matrix: (Units=GPa)
#
#
# Indices 1 2 3 4 5 6 
#
# 1 131.1643 48.3326 49.6260 0.0000 0.0000 0.0000
# 2 48.3326 81.2791 25.4364 0.0000 0.0000 0.0000
# 3 49.6260 25.4364 67.4826 0.0000 0.0000 0.0000
# 4 0.0000 0.0000 0.0000 18.0681 0.0000 0.0000
# 5 0.0000 0.0000 0.0000 0.0000 27.7869 0.0000
# 6 0.0000 0.0000 0.0000 0.0000 0.0000 29.0986
#
#
#
# Elastic Compliance Matrix: (Units=1/GPa)
#
#
# Indices 1 2 3 4 5 6 
#
# 1 0.012132 -0.005014 -0.007032 0.000000 0.000000 0.000000
# 2 -0.005014 0.016021 -0.002352 0.000000 0.000000 0.000000
# 3 -0.007032 -0.002352 0.020876 0.000000 0.000000 0.000000
# 4 0.000000 0.000000 0.000000 0.055346 0.000000 0.000000
# 5 0.000000 0.000000 0.000000 0.000000 0.035988 0.000000
# 6 0.000000 0.000000 0.000000 0.000000 0.000000 0.034366
#
#
# Mechanical properties :
#
#
# Convention : Reuss Voigt Hill
#
# Bulk Modulus (GPa) = 49.42101 58.52400 53.97251
# Shear Modulus (GPa) = 23.77910 25.42612 24.60261
#
# Velocity S-wave (km/s) = 3.69499 3.82081 3.75843
# Velocity P-wave (km/s) = 6.82491 7.28469 7.05854
#
# Compressibility (1/GPa) = 0.02023431
#
# Stress axis : x y z
#
# Youngs Moduli (GPa) = 82.42640 62.41957 47.90118
#
# Poissons Ratio (x) = 0.31295 0.33684
# Poissons Ratio (y) = 0.41326 0.11265
# Poissons Ratio (z) = 0.57962 0.14679
#
# Static dielectric constant tensor:
#      x y z
#    x 3.644150 0.000000 0.000000 
#    y 0.000000 3.205610 0.000000 
#    z 0.000000 0.000000 2.949130 
# 
# 
# High freq. dielectric constant tensor:
#      x y z
#    x 1.699880 0.000000 0.000000 
#    y 0.000000 1.672500 0.000000 
#    z 0.000000 0.000000 1.630260 
# 
# From -- ./inp_files/14621.got.cif
#   From: 2010.03.12/outbox.cif.g09.slc.cpg/sg51_8_cif.got.tgz:14621.got - 2010.04.16 13:43:02.
