data_PCOD8206800
_publ_section_title
;
Structure prediction by ZEFSAII (Michael W. Deem and Ramdas Pophale) SiO2 
 PCOD8206800
Probable space group: P M M A
;
_chemical_formula_sum "Si O2"
_cell_formula_units_Z 48
_cell_length_a 20.905725
_cell_length_b 9.170049
_cell_length_c 14.840209
_cell_angle_alpha 90.000000
_cell_angle_beta 90.000000
_cell_angle_gamma 90.000000
_cell_volume 2844.964863
_symmetry_space_group_name_H-M "P M M A"
_symmetry_group_IT_number 51
_symmetry_cell_setting 'orthorhombic'
loop_
_space_group_symop_operation_xyz
x,y,z
1/2-x,-y,z
1/2+x,-y,-z
-x,y,-z
-x,-y,-z
1/2+x,y,-z
1/2-x,y,z
x,-y,z
loop_
_atom_site_type_symbol
_atom_site_label
_atom_site_fract_x
_atom_site_fract_y
_atom_site_fract_z
Si Si1 0.982643 0.670427 0.774628
Si Si2 0.550551 0.328466 0.574089
Si Si3 0.682379 0.169221 0.999222
Si Si4 0.678899 0.168720 0.607101
Si Si5 0.948656 0.826731 0.075498
Si Si6 0.359645 0.165159 0.194125
O O1 0.992900 0.500000 0.788209
O O2 0.981346 0.714266 0.669339
O O3 0.916224 0.719717 0.817890
O O4 0.038397 0.755365 0.827193
O O5 0.500000 0.271982 0.500000
O O6 0.562057 0.500000 0.565939
O O7 0.620614 0.256049 0.560475
O O8 0.750000 0.235622 0.035857
O O9 0.619991 0.239264 0.045052
O O10 0.679903 0.000000 0.023034
O O11 0.685117 0.190371 0.891424
O O12 0.750000 0.219288 0.573084
O O13 0.679183 0.194141 0.714582
O O14 0.668427 0.000000 0.583358
O O15 0.948757 0.000000 0.085962
O O16 0.000000 0.778598 0.000000
O O17 0.388074 0.000000 0.193500
#
# Coordination Sequence:
#
# PCOD8206800 Si02
#       6
#     8   8   8   8   8   8
#     4  10  19  30  47  70  93 120 155 197 240 275
#     4   9  19  35  52  70  94 126 165 202 240 290
#     4   9  16  26  43  65  89 120 158 193 222 261
#     4   9  17  28  46  74 103 126 151 190 242 294
#     4  10  18  30  47  68  92 123 161 192 221 272
#     4   9  15  27  45  66  94 125 154 182 224 282
#
# _framework density 16.871912999999999
#
# number of rings (size 3 to 8) (size 9 to 14) (size 15 to 20)
#    0.000    2.667    1.667    1.000    0.000    3.667 
#    0.000    0.000    0.000    4.000    0.000    4.667 
#    0.000    0.000    0.000    0.000    0.000    0.000 
#
# Total GULP energy -594778.131647 kJ/mol
# GULP energy per Si atom -12391.211076 kJ/mol
# Density = 1.683351 g / cm^3
# Si number density = 16.871913 Si / 1000 Ang^3
#
#
#
# Elastic Constant Matrix: (Units=GPa)
#
#
# Indices 1 2 3 4 5 6 
#
# 1 163.8507 37.6640 62.9219 0.0000 0.0000 0.0000
# 2 37.6640 33.7864 26.8135 0.0000 0.0000 0.0000
# 3 62.9219 26.8135 66.0178 0.0000 0.0000 0.0000
# 4 0.0000 0.0000 0.0000 21.8258 0.0000 0.0000
# 5 0.0000 0.0000 0.0000 0.0000 18.9111 0.0000
# 6 0.0000 0.0000 0.0000 0.0000 0.0000 17.1389
#
#
#
# Elastic Compliance Matrix: (Units=1/GPa)
#
#
# Indices 1 2 3 4 5 6 
#
# 1 0.010259 -0.005425 -0.007574 0.000000 0.000000 0.000000
# 2 -0.005425 0.046545 -0.013734 0.000000 0.000000 0.000000
# 3 -0.007574 -0.013734 0.027945 0.000000 0.000000 0.000000
# 4 0.000000 0.000000 0.000000 0.045817 0.000000 0.000000
# 5 0.000000 0.000000 0.000000 0.000000 0.052879 0.000000
# 6 0.000000 0.000000 0.000000 0.000000 0.000000 0.058347
#
#
# Mechanical properties :
#
#
# Convention : Reuss Voigt Hill
#
# Bulk Modulus (GPa) = 31.96731 57.60595 44.78663
# Shear Modulus (GPa) = 16.35671 20.65887 18.50779
#
# Velocity S-wave (km/s) = 3.11700 3.50302 3.31563
# Velocity P-wave (km/s) = 5.65176 7.11187 6.42344
#
# Compressibility (1/GPa) = 0.03128196
#
# Stress axis : x y z
#
# Youngs Moduli (GPa) = 97.47660 21.48466 35.78519
#
# Poissons Ratio (x) = 0.11656 0.27105
# Poissons Ratio (y) = 0.52883 0.49146
# Poissons Ratio (z) = 0.73832 0.29506
#
# Static dielectric constant tensor:
#      x y z
#    x 3.400450 0.000000 0.000000 
#    y 0.000000 2.958670 0.000000 
#    z 0.000000 0.000000 3.057670 
# 
# 
# High freq. dielectric constant tensor:
#      x y z
#    x 1.653020 0.000000 0.000000 
#    y 0.000000 1.626470 0.000000 
#    z 0.000000 0.000000 1.622700 
# 
# From -- ./inp_files/25449.got.cif
#   From: 2010.03.12/outbox.cif.g09.slc.cpg/sg51_13_cif.got.tgz:25449.got - 2010.04.16 13:43:02.
