data_PCOD8206465
_publ_section_title
;
Structure prediction by ZEFSAII (Michael W. Deem and Ramdas Pophale) SiO2 
 PCOD8206465
Probable space group: P M M A
;
_chemical_formula_sum "Si O2"
_cell_formula_units_Z 56
_cell_length_a 17.685706
_cell_length_b 14.594239
_cell_length_c 14.040431
_cell_angle_alpha 90.000000
_cell_angle_beta 90.000000
_cell_angle_gamma 90.000000
_cell_volume 3623.967505
_symmetry_space_group_name_H-M "P M M A"
_symmetry_group_IT_number 51
_symmetry_cell_setting 'orthorhombic'
loop_
_space_group_symop_operation_xyz
x,y,z
1/2-x,-y,z
1/2+x,-y,-z
-x,y,-z
-x,-y,-z
1/2+x,y,-z
1/2-x,y,z
x,-y,z
loop_
_atom_site_type_symbol
_atom_site_label
_atom_site_fract_x
_atom_site_fract_y
_atom_site_fract_z
Si Si1 0.166275 0.714912 0.189530
Si Si2 0.337181 0.897485 0.286847
Si Si3 0.415031 0.288948 0.541268
Si Si4 0.539655 0.399569 0.291111
Si Si5 0.588694 0.098400 0.513776
Si Si6 0.034366 0.392532 0.101437
Si Si7 0.127719 0.398155 0.368375
O O1 0.250000 0.711874 0.143920
O O2 0.141593 0.820681 0.208139
O O3 0.109656 0.667293 0.115401
O O4 0.170241 0.661960 0.289970
O O5 0.250000 0.884386 0.319250
O O6 0.392222 0.882064 0.376058
O O7 0.349320 0.000000 0.244113
O O8 0.500000 0.284136 0.500000
O O9 0.409750 0.328987 0.648360
O O10 0.381252 0.185412 0.546605
O O11 0.363885 0.351077 0.471740
O O12 0.578399 0.500000 0.292435
O O13 0.527587 0.366444 0.182170
O O14 0.459488 0.406254 0.341970
O O15 0.500000 0.089768 0.500000
O O16 0.625717 0.000000 0.482738
O O17 0.055730 0.500000 0.110061
O O18 0.000000 0.367428 0.000000
O O19 0.163552 0.500000 0.372919
#
# Coordination Sequence:
#
# PCOD8206465 Si02
#       7
#     8   8   8   8   8   8   8
#     4  10  18  28  44  66  88 113 144 177 220 270
#     4   9  17  29  43  61  90 123 149 177 217 266
#     4   9  14  21  34  53  81 112 140 169 200 243
#     4   8  14  23  37  55  77 108 143 172 203 250
#     4   9  16  24  36  57  85 115 149 181 207 243
#     4   9  18  31  45  63  88 114 145 188 233 269
#     4   9  15  22  33  55  85 111 135 166 201 243
#
# _framework density 15.452677
#
# number of rings (size 3 to 8) (size 9 to 14) (size 15 to 20)
#    0.000    3.000    1.429    1.714    2.000    2.857 
#    0.000    0.000    0.000    0.429    0.000    2.000 
#    0.000    4.571    0.000    0.000    0.000    0.000 
#
# Total GULP energy -693831.839593 kJ/mol
# GULP energy per Si atom -12389.854278 kJ/mol
# Density = 1.541751 g / cm^3
# Si number density = 15.452677 Si / 1000 Ang^3
#
#
#
# Elastic Constant Matrix: (Units=GPa)
#
#
# Indices 1 2 3 4 5 6 
#
# 1 38.1427 25.0240 28.5080 0.0000 0.0000 0.0000
# 2 25.0240 132.2838 53.3929 0.0000 0.0000 0.0000
# 3 28.5080 53.3929 99.3382 0.0000 0.0000 0.0000
# 4 0.0000 0.0000 0.0000 17.2031 0.0000 0.0000
# 5 0.0000 0.0000 0.0000 0.0000 14.5385 0.0000
# 6 0.0000 0.0000 0.0000 0.0000 0.0000 14.3774
#
#
#
# Elastic Compliance Matrix: (Units=1/GPa)
#
#
# Indices 1 2 3 4 5 6 
#
# 1 0.034420 -0.003224 -0.008145 0.000000 0.000000 0.000000
# 2 -0.003224 0.009956 -0.004426 0.000000 0.000000 0.000000
# 3 -0.008145 -0.004426 0.014783 0.000000 0.000000 0.000000
# 4 0.000000 0.000000 0.000000 0.058129 0.000000 0.000000
# 5 0.000000 0.000000 0.000000 0.000000 0.068783 0.000000
# 6 0.000000 0.000000 0.000000 0.000000 0.000000 0.069554
#
#
# Mechanical properties :
#
#
# Convention : Reuss Voigt Hill
#
# Bulk Modulus (GPa) = 36.27235 53.73494 45.00365
# Shear Modulus (GPa) = 16.86892 20.07980 18.47436
#
# Velocity S-wave (km/s) = 3.30760 3.60868 3.46142
# Velocity P-wave (km/s) = 6.17342 7.22584 6.72026
#
# Compressibility (1/GPa) = 0.02756921
#
# Stress axis : x y z
#
# Youngs Moduli (GPa) = 29.05293 100.44462 67.64521
#
# Poissons Ratio (x) = 0.32379 0.55098
# Poissons Ratio (y) = 0.09365 0.29940
# Poissons Ratio (z) = 0.23664 0.44456
#
# Static dielectric constant tensor:
#      x y z
#    x 2.615550 0.000000 0.000000 
#    y 0.000000 3.516230 0.000000 
#    z 0.000000 0.000000 2.748060 
# 
# 
# High freq. dielectric constant tensor:
#      x y z
#    x 1.551710 0.000000 0.000000 
#    y 0.000000 1.612670 0.000000 
#    z 0.000000 0.000000 1.551140 
# 
# From -- ./inp_files/25278.got.cif
#   From: 2010.03.12/outbox.cif.g09.slc.cpg/sg51_13_cif.got.tgz:25278.got - 2010.04.16 13:43:02.
