data_PCOD8206107
_publ_section_title
;
Structure prediction by ZEFSAII (Michael W. Deem and Ramdas Pophale) SiO2 
 PCOD8206107
Probable space group: P M M A
;
_chemical_formula_sum "Si O2"
_cell_formula_units_Z 64
_cell_length_a 14.071450
_cell_length_b 18.705383
_cell_length_c 13.657996
_cell_angle_alpha 90.000000
_cell_angle_beta 90.000000
_cell_angle_gamma 90.000000
_cell_volume 3594.946553
_symmetry_space_group_name_H-M "P M M A"
_symmetry_group_IT_number 51
_symmetry_cell_setting 'orthorhombic'
loop_
_space_group_symop_operation_xyz
x,y,z
1/2-x,-y,z
1/2+x,-y,-z
-x,y,-z
-x,-y,-z
1/2+x,y,-z
1/2-x,y,z
x,-y,z
loop_
_atom_site_type_symbol
_atom_site_label
_atom_site_fract_x
_atom_site_fract_y
_atom_site_fract_z
Si Si1 0.354019 0.708600 0.374741
Si Si2 0.139568 0.915378 0.039825
Si Si3 0.036218 0.860065 0.852314
Si Si4 0.889724 0.580116 0.497323
Si Si5 0.967147 0.716029 0.255063
Si Si6 0.360119 0.216636 0.564692
Si Si7 0.642043 0.079561 0.327745
Si Si8 0.143544 0.419373 0.727354
O O1 0.250000 0.733916 0.338133
O O2 0.340097 0.631660 0.425243
O O3 0.422021 0.706356 0.280909
O O4 0.397218 0.763572 0.456142
O O5 0.250000 0.898162 0.062749
O O6 0.108095 0.876816 0.940172
O O7 0.122897 0.000000 0.029084
O O8 0.072185 0.884031 0.125320
O O9 0.042211 0.775106 0.830282
O O10 0.069200 0.904917 0.759062
O O11 0.866891 0.500000 0.531822
O O12 0.851916 0.593783 0.388745
O O13 0.000000 0.597425 0.500000
O O14 0.911970 0.738238 0.352462
O O15 0.923969 0.639623 0.220225
O O16 0.250000 0.238032 0.571737
O O17 0.376714 0.132281 0.581311
O O18 0.750000 0.089480 0.288069
O O19 0.624970 0.000000 0.367483
O O20 0.250000 0.410995 0.769431
O O21 0.104900 0.500000 0.748828
#
# Coordination Sequence:
#
# PCOD8206107 Si02
#       8
#     8   8   8   8   8   8   8   8
#     4  11  20  30  43  60  89 130 173 207 240 280
#     4  10  20  36  59  83 104 124 148 184 237 302
#     4  10  20  32  51  76 105 127 150 186 236 298
#     4  10  17  27  44  63  89 126 170 216 255 289
#     4  11  20  31  46  68  97 130 163 200 244 291
#     4   9  17  28  43  63  88 122 164 206 241 274
#     4   9  16  27  46  70  94 121 155 194 233 274
#     4  10  19  30  45  67  96 129 167 214 260 291
#
# _framework density 17.802768
#
# number of rings (size 3 to 8) (size 9 to 14) (size 15 to 20)
#    0.000    2.000    2.500    3.000    0.000    3.750 
#    0.000    0.000    0.000    7.500    0.000    3.500 
#    0.000    1.000    0.000    0.000    0.000    0.000 
#
# Total GULP energy -793392.534810 kJ/mol
# GULP energy per Si atom -12396.758356 kJ/mol
# Density = 1.776225 g / cm^3
# Si number density = 17.802768 Si / 1000 Ang^3
#
#
#
# Elastic Constant Matrix: (Units=GPa)
#
#
# Indices 1 2 3 4 5 6 
#
# 1 95.0694 47.5092 29.9578 0.0000 0.0000 0.0000
# 2 47.5092 148.8440 38.8402 0.0000 0.0000 0.0000
# 3 29.9578 38.8402 36.7525 0.0000 0.0000 0.0000
# 4 0.0000 0.0000 0.0000 22.9108 0.0000 0.0000
# 5 0.0000 0.0000 0.0000 0.0000 12.3571 0.0000
# 6 0.0000 0.0000 0.0000 0.0000 0.0000 26.6927
#
#
#
# Elastic Compliance Matrix: (Units=1/GPa)
#
#
# Indices 1 2 3 4 5 6 
#
# 1 0.014637 -0.002152 -0.009657 0.000000 0.000000 0.000000
# 2 -0.002152 0.009593 -0.008384 0.000000 0.000000 0.000000
# 3 -0.009657 -0.008384 0.043940 0.000000 0.000000 0.000000
# 4 0.000000 0.000000 0.000000 0.043647 0.000000 0.000000
# 5 0.000000 0.000000 0.000000 0.000000 0.080925 0.000000
# 6 0.000000 0.000000 0.000000 0.000000 0.000000 0.037463
#
#
# Mechanical properties :
#
#
# Convention : Reuss Voigt Hill
#
# Bulk Modulus (GPa) = 35.98998 57.03115 46.51056
# Shear Modulus (GPa) = 17.86646 23.34936 20.60791
#
# Velocity S-wave (km/s) = 3.17137 3.62547 3.40600
# Velocity P-wave (km/s) = 5.80258 7.04485 6.45368
#
# Compressibility (1/GPa) = 0.02778551
#
# Stress axis : x y z
#
# Youngs Moduli (GPa) = 68.31967 104.24172 22.75805
#
# Poissons Ratio (x) = 0.22434 0.21977
# Poissons Ratio (y) = 0.14703 0.19080
# Poissons Ratio (z) = 0.65974 0.87394
#
# Static dielectric constant tensor:
#      x y z
#    x 3.470050 0.000000 0.000000 
#    y 0.000000 3.558570 0.000000 
#    z 0.000000 0.000000 2.816310 
# 
# 
# High freq. dielectric constant tensor:
#      x y z
#    x 1.702030 0.000000 0.000000 
#    y 0.000000 1.699980 0.000000 
#    z 0.000000 0.000000 1.623140 
# 
# From -- ./inp_files/24468.got.cif
#   From: 2010.03.12/outbox.cif.g09.slc.cpg/sg51_13_cif.got.tgz:24468.got - 2010.04.16 13:43:02.
