data_PCOD8206468
_publ_section_title
;
Structure prediction by ZEFSAII (Michael W. Deem and Ramdas Pophale) SiO2 
 PCOD8206468
Probable space group: P M M A
;
_chemical_formula_sum "Si O2"
_cell_formula_units_Z 56
_cell_length_a 9.367028
_cell_length_b 18.657354
_cell_length_c 18.845069
_cell_angle_alpha 90.000000
_cell_angle_beta 90.000000
_cell_angle_gamma 90.000000
_cell_volume 3293.438834
_symmetry_space_group_name_H-M "P M M A"
_symmetry_group_IT_number 51
_symmetry_cell_setting 'orthorhombic'
loop_
_space_group_symop_operation_xyz
x,y,z
1/2-x,-y,z
1/2+x,-y,-z
-x,y,-z
-x,-y,-z
1/2+x,y,-z
1/2-x,y,z
x,-y,z
loop_
_atom_site_type_symbol
_atom_site_label
_atom_site_fract_x
_atom_site_fract_y
_atom_site_fract_z
Si Si1 0.584306 0.338347 0.204636
Si Si2 0.913881 0.855992 0.932114
Si Si3 0.417709 0.287279 0.570691
Si Si4 0.413215 0.197835 0.707005
Si Si5 0.080376 0.420529 0.658074
Si Si6 0.415685 0.687339 0.069121
Si Si7 0.582714 0.082204 0.784291
O O1 0.750000 0.348975 0.183876
O O2 0.559222 0.258899 0.234747
O O3 0.533576 0.395661 0.263480
O O4 0.485483 0.351646 0.136615
O O5 0.750000 0.875720 0.945623
O O6 0.936200 0.771833 0.921426
O O7 0.973415 0.895799 0.862344
O O8 0.000000 0.884525 0.000000
O O9 0.500000 0.265789 0.500000
O O10 0.250000 0.290503 0.554998
O O11 0.452876 0.227268 0.629261
O O12 0.474684 0.364615 0.598791
O O13 0.250000 0.173010 0.709030
O O14 0.509128 0.129084 0.723399
O O15 0.250000 0.419701 0.656084
O O16 0.018848 0.500000 0.642354
O O17 0.250000 0.665909 0.062739
O O18 0.500000 0.660100 0.000000
O O19 0.750000 0.097356 0.779877
O O20 0.544266 0.000000 0.769684
#
# Coordination Sequence:
#
# PCOD8206468 Si02
#       7
#     8   8   8   8   8   8   8
#     4   9  16  28  48  70  91 121 161 200 235 276
#     4   9  18  30  43  63  91 123 156 192 236 283
#     4   9  18  32  51  77 103 129 158 190 227 272
#     4   9  18  32  49  69  95 123 158 197 232 278
#     4   8  15  29  49  73 102 133 160 187 226 277
#     4  10  18  28  44  66  92 122 157 201 247 285
#     4  10  20  33  48  68  95 125 159 200 244 286
#
# _framework density 17.003502999999998
#
# number of rings (size 3 to 8) (size 9 to 14) (size 15 to 20)
#    0.000    2.857    1.429    2.143    0.000    2.571 
#    0.000    2.143    0.000    2.143    0.000    0.000 
#    0.000    0.000    0.000    0.000    0.000    0.000 
#
# Total GULP energy -694328.451824 kJ/mol
# GULP energy per Si atom -12398.722354 kJ/mol
# Density = 1.696480 g / cm^3
# Si number density = 17.003503 Si / 1000 Ang^3
#
#
#
# Elastic Constant Matrix: (Units=GPa)
#
#
# Indices 1 2 3 4 5 6 
#
# 1 59.0083 26.6624 54.0671 0.0000 0.0000 0.0000
# 2 26.6624 70.4470 40.1481 0.0000 0.0000 0.0000
# 3 54.0671 40.1481 128.1935 0.0000 0.0000 0.0000
# 4 0.0000 0.0000 0.0000 17.9214 0.0000 0.0000
# 5 0.0000 0.0000 0.0000 0.0000 34.1270 0.0000
# 6 0.0000 0.0000 0.0000 0.0000 0.0000 16.3882
#
#
#
# Elastic Compliance Matrix: (Units=1/GPa)
#
#
# Indices 1 2 3 4 5 6 
#
# 1 0.028928 -0.004863 -0.010677 0.000000 0.000000 0.000000
# 2 -0.004863 0.018097 -0.003616 0.000000 0.000000 0.000000
# 3 -0.010677 -0.003616 0.013437 0.000000 0.000000 0.000000
# 4 0.000000 0.000000 0.000000 0.055799 0.000000 0.000000
# 5 0.000000 0.000000 0.000000 0.000000 0.029302 0.000000
# 6 0.000000 0.000000 0.000000 0.000000 0.000000 0.061019
#
#
# Mechanical properties :
#
#
# Convention : Reuss Voigt Hill
#
# Bulk Modulus (GPa) = 45.15353 55.48933 50.32143
# Shear Modulus (GPa) = 19.81938 22.80540 21.31239
#
# Velocity S-wave (km/s) = 3.41780 3.66624 3.54420
# Velocity P-wave (km/s) = 6.49525 7.11524 6.81230
#
# Compressibility (1/GPa) = 0.02214666
#
# Stress axis : x y z
#
# Youngs Moduli (GPa) = 34.56916 55.25859 74.42319
#
# Poissons Ratio (x) = 0.26873 0.79465
# Poissons Ratio (y) = 0.16812 0.26915
# Poissons Ratio (z) = 0.36911 0.19984
#
# Static dielectric constant tensor:
#      x y z
#    x 2.991660 0.000000 0.000000 
#    y 0.000000 3.072080 0.000000 
#    z 0.000000 0.000000 3.123270 
# 
# 
# High freq. dielectric constant tensor:
#      x y z
#    x 1.640430 0.000000 0.000000 
#    y 0.000000 1.632220 0.000000 
#    z 0.000000 0.000000 1.654200 
# 
# From -- ./inp_files/28212.got.cif
#   From: 2010.03.12/outbox.cif.g09.slc.cpg/sg51_15_cif.got.tgz:28212.got - 2010.04.16 13:43:02.
