data_PCOD8206883
_publ_section_title
;
Structure prediction by ZEFSAII (Michael W. Deem and Ramdas Pophale) SiO2 
 PCOD8206883
Probable space group: P M M A
;
_chemical_formula_sum "Si O2"
_cell_formula_units_Z 56
_cell_length_a 22.726688
_cell_length_b 13.626590
_cell_length_c 10.599311
_cell_angle_alpha 90.000000
_cell_angle_beta 90.000000
_cell_angle_gamma 90.000000
_cell_volume 3282.471575
_symmetry_space_group_name_H-M "P M M A"
_symmetry_group_IT_number 51
_symmetry_cell_setting 'orthorhombic'
loop_
_space_group_symop_operation_xyz
x,y,z
1/2-x,-y,z
1/2+x,-y,-z
-x,y,-z
-x,-y,-z
1/2+x,y,-z
1/2-x,y,z
x,-y,z
loop_
_atom_site_type_symbol
_atom_site_label
_atom_site_fract_x
_atom_site_fract_y
_atom_site_fract_z
Si Si1 0.121828 0.612086 0.888862
Si Si2 0.595684 0.890122 0.559091
Si Si3 0.819224 0.389262 0.356532
Si Si4 0.493414 0.712678 0.858871
Si Si5 0.114986 0.617373 0.170308
Si Si6 0.029152 0.110739 0.688849
Si Si7 0.180258 0.281402 0.390964
O O1 0.140368 0.500000 0.889953
O O2 0.158390 0.661935 0.773867
O O3 0.052908 0.623354 0.857813
O O4 0.136022 0.652663 0.030048
O O5 0.535650 0.876077 0.633913
O O6 0.580361 0.869538 0.413110
O O7 0.646526 0.821591 0.615414
O O8 0.619975 0.000000 0.575507
O O9 0.750000 0.388832 0.353409
O O10 0.844057 0.500000 0.367740
O O11 0.841382 0.332139 0.479903
O O12 0.553267 0.671228 0.797163
O O13 0.464095 0.806495 0.793243
O O14 0.500000 0.750580 0.000000
O O15 0.106409 0.500000 0.174802
O O16 0.163154 0.650481 0.272195
O O17 0.036231 0.000000 0.743482
O O18 0.250000 0.263458 0.387875
#
# Coordination Sequence:
#
# PCOD8206883 Si02
#       7
#     8   8   8   8   8   8   8
#     4   9  18  32  50  70  96 133 170 200 240 293
#     4   9  18  33  52  72  95 126 162 199 245 299
#     4   9  18  32  48  68  96 127 161 202 243 286
#     4  10  18  30  49  72 101 130 161 202 249 295
#     4  10  20  33  48  70 101 134 167 202 243 294
#     4   9  17  31  52  74  97 125 159 203 247 295
#     4  11  21  33  51  74 100 129 162 208 255 291
#
# _framework density 17.060316
#
# number of rings (size 3 to 8) (size 9 to 14) (size 15 to 20)
#    0.000    2.429    1.429    2.571    0.000    3.714 
#    0.000    1.429    0.000    3.429    0.000    0.000 
#    0.000    2.286    0.000    0.000    0.000    0.000 
#
# Total GULP energy -693986.781493 kJ/mol
# GULP energy per Si atom -12392.621098 kJ/mol
# Density = 1.702149 g / cm^3
# Si number density = 17.060316 Si / 1000 Ang^3
#
#
#
# Elastic Constant Matrix: (Units=GPa)
#
#
# Indices 1 2 3 4 5 6 
#
# 1 44.4826 20.8331 26.3221 0.0000 0.0000 0.0000
# 2 20.8331 68.3521 33.3836 0.0000 0.0000 0.0000
# 3 26.3221 33.3836 100.3193 0.0000 0.0000 0.0000
# 4 0.0000 0.0000 0.0000 19.0982 0.0000 0.0000
# 5 0.0000 0.0000 0.0000 0.0000 26.4539 0.0000
# 6 0.0000 0.0000 0.0000 0.0000 0.0000 22.9593
#
#
#
# Elastic Compliance Matrix: (Units=1/GPa)
#
#
# Indices 1 2 3 4 5 6 
#
# 1 0.028547 -0.006021 -0.005487 0.000000 0.000000 0.000000
# 2 -0.006021 0.018739 -0.004656 0.000000 0.000000 0.000000
# 3 -0.005487 -0.004656 0.012957 0.000000 0.000000 0.000000
# 4 0.000000 0.000000 0.000000 0.052361 0.000000 0.000000
# 5 0.000000 0.000000 0.000000 0.000000 0.037802 0.000000
# 6 0.000000 0.000000 0.000000 0.000000 0.000000 0.043555
#
#
# Mechanical properties :
#
#
# Convention : Reuss Voigt Hill
#
# Bulk Modulus (GPa) = 35.82176 41.58129 38.70153
# Shear Modulus (GPa) = 21.22284 22.54330 21.88307
#
# Velocity S-wave (km/s) = 3.53085 3.63903 3.58535
# Velocity P-wave (km/s) = 6.13720 6.48712 6.31459
#
# Compressibility (1/GPa) = 0.02791599
#
# Stress axis : x y z
#
# Youngs Moduli (GPa) = 35.02951 53.36346 77.17715
#
# Poissons Ratio (x) = 0.32131 0.42344
# Poissons Ratio (y) = 0.21092 0.35934
# Poissons Ratio (z) = 0.19219 0.24847
#
# Static dielectric constant tensor:
#      x y z
#    x 3.002110 0.000000 0.000000 
#    y 0.000000 3.170520 0.000000 
#    z 0.000000 0.000000 3.424150 
# 
# 
# High freq. dielectric constant tensor:
#      x y z
#    x 1.643390 0.000000 0.000000 
#    y 0.000000 1.646660 0.000000 
#    z 0.000000 0.000000 1.663630 
# 
# From -- ./inp_files/11016.got.cif
#   From: 2010.03.12/outbox.cif.g09.slc.cpg/sg51_6_cif.got.tgz:11016.got - 2010.04.16 13:43:02.
