data_PCOD8206861
_publ_section_title
;
Structure prediction by ZEFSAII (Michael W. Deem and Ramdas Pophale) SiO2 
 PCOD8206861
Probable space group: P M M A
;
_chemical_formula_sum "Si O2"
_cell_formula_units_Z 64
_cell_length_a 8.829502
_cell_length_b 20.115332
_cell_length_c 19.753433
_cell_angle_alpha 90.000000
_cell_angle_beta 90.000000
_cell_angle_gamma 90.000000
_cell_volume 3508.374921
_symmetry_space_group_name_H-M "P M M A"
_symmetry_group_IT_number 51
_symmetry_cell_setting 'orthorhombic'
loop_
_space_group_symop_operation_xyz
x,y,z
1/2-x,-y,z
1/2+x,-y,-z
-x,y,-z
-x,-y,-z
1/2+x,y,-z
1/2-x,y,z
x,-y,z
loop_
_atom_site_type_symbol
_atom_site_label
_atom_site_fract_x
_atom_site_fract_y
_atom_site_fract_z
Si Si1 0.419232 0.622404 0.433246
Si Si2 0.924392 0.375469 0.297978
Si Si3 0.070894 0.815110 0.159968
Si Si4 0.574313 0.077677 0.070799
Si Si5 0.078296 0.780832 0.432464
Si Si6 0.570117 0.573660 0.156263
Si Si7 0.074776 0.781104 0.704258
Si Si8 0.569861 0.698441 0.072988
O O1 0.500000 0.593461 0.500000
O O2 0.250000 0.595280 0.434666
O O3 0.494847 0.595599 0.364511
O O4 0.426107 0.701619 0.434079
O O5 0.750000 0.393493 0.306725
O O6 0.994196 0.409934 0.231053
O O7 0.949455 0.297341 0.289570
O O8 0.250000 0.807096 0.151832
O O9 0.015486 0.884650 0.129384
O O10 0.024673 0.816369 0.238392
O O11 0.986041 0.754953 0.123334
O O12 0.750000 0.098794 0.069699
O O13 0.554354 0.000000 0.084947
O O14 0.500000 0.098622 0.000000
O O15 0.250000 0.807007 0.428624
O O16 0.000000 0.809635 0.500000
O O17 0.985144 0.807283 0.367930
O O18 0.750000 0.578003 0.160255
O O19 0.515309 0.500000 0.134215
O O20 0.512278 0.627147 0.101384
O O21 0.250000 0.800751 0.712501
O O22 0.750000 0.701865 0.068318
O O23 0.500000 0.710693 0.000000
#
# Coordination Sequence:
#
# PCOD8206861 Si02
#       8
#     8   8   8   8   8   8   8   8
#     4   9  16  25  40  64  92 123 157 199 246 299
#     4   9  16  29  48  69  93 125 162 205 255 309
#     4  12  23  35  54  80 110 143 177 217 259 308
#     4  10  21  38  59  82 110 144 180 217 258 307
#     4   9  16  26  40  64  97 135 172 211 257 310
#     4   9  18  34  55  75  96 127 167 211 263 321
#     4  10  18  30  48  72 101 136 173 216 264 311
#     4  11  22  38  56  78 103 132 168 212 262 316
#
# _framework density 18.242063999999999
#
# number of rings (size 3 to 8) (size 9 to 14) (size 15 to 20)
#    0.000    2.125    1.250    3.375    0.000    4.500 
#    0.000    0.000    0.000    3.375    0.000    0.000 
#    0.000    0.500    0.000    1.875    0.000    2.875 
#
# Total GULP energy -793637.667251 kJ/mol
# GULP energy per Si atom -12400.588551 kJ/mol
# Density = 1.820054 g / cm^3
# Si number density = 18.242064 Si / 1000 Ang^3
#
#
#
# Elastic Constant Matrix: (Units=GPa)
#
#
# Indices 1 2 3 4 5 6 
#
# 1 100.8063 24.4549 42.4088 0.0000 0.0000 0.0000
# 2 24.4549 47.3398 31.1248 0.0000 0.0000 0.0000
# 3 42.4088 31.1248 126.1385 0.0000 0.0000 0.0000
# 4 0.0000 0.0000 0.0000 -7.6842 0.0000 0.0000
# 5 0.0000 0.0000 0.0000 0.0000 35.3134 0.0000
# 6 0.0000 0.0000 0.0000 0.0000 0.0000 11.5793
#
#
#
# Elastic Compliance Matrix: (Units=1/GPa)
#
#
# Indices 1 2 3 4 5 6 
#
# 1 0.012253 -0.004322 -0.003053 0.000000 0.000000 0.000000
# 2 -0.004322 0.026739 -0.005145 0.000000 0.000000 0.000000
# 3 -0.003053 -0.005145 0.010224 0.000000 0.000000 0.000000
# 4 0.000000 0.000000 0.000000 -0.130137 0.000000 0.000000
# 5 0.000000 0.000000 0.000000 0.000000 0.028318 0.000000
# 6 0.000000 0.000000 0.000000 0.000000 0.000000 0.086361
#
#
# Mechanical properties :
#
#
# Convention : Reuss Voigt Hill
#
# Bulk Modulus (GPa) = 41.36378 52.25127 46.80753
# Shear Modulus (GPa) = 74.78623 19.59476 47.19050
#
# Velocity S-wave (km/s) = 6.40980 3.28098 5.09168
# Velocity P-wave (km/s) = 8.80369 6.56191 7.76413
#
# Compressibility (1/GPa) = 0.02417574
#
# Stress axis : x y z
#
# Youngs Moduli (GPa) = 81.61277 37.39814 97.81189
#
# Poissons Ratio (x) = 0.16165 0.29862
# Poissons Ratio (y) = 0.35276 0.50322
# Poissons Ratio (z) = 0.24916 0.19240
#
# Static dielectric constant tensor:
#      x y z
#    x 3.388490 0.000000 0.000000 
#    y 0.000000 3.026380 0.000000 
#    z 0.000000 0.000000 3.616460 
# 
# 
# High freq. dielectric constant tensor:
#      x y z
#    x 1.708080 0.000000 0.000000 
#    y 0.000000 1.659050 0.000000 
#    z 0.000000 0.000000 1.720810 
# 
# From -- ./inp_files/28490.got.cif
#   From: 2010.03.12/outbox.cif.g09.slc.cpg/sg51_15_cif.got.tgz:28490.got - 2010.04.16 13:43:02.
