data_PCOD8206694
_publ_section_title
;
Structure prediction by ZEFSAII (Michael W. Deem and Ramdas Pophale) SiO2 
 PCOD8206694
Probable space group: P M M A
;
_chemical_formula_sum "Si O2"
_cell_formula_units_Z 64
_cell_length_a 25.001260
_cell_length_b 8.884028
_cell_length_c 17.361735
_cell_angle_alpha 90.000000
_cell_angle_beta 90.000000
_cell_angle_gamma 90.000000
_cell_volume 3856.247842
_symmetry_space_group_name_H-M "P M M A"
_symmetry_group_IT_number 51
_symmetry_cell_setting 'orthorhombic'
loop_
_space_group_symop_operation_xyz
x,y,z
1/2-x,-y,z
1/2+x,-y,-z
-x,y,-z
-x,-y,-z
1/2+x,y,-z
1/2-x,y,z
x,-y,z
loop_
_atom_site_type_symbol
_atom_site_label
_atom_site_fract_x
_atom_site_fract_y
_atom_site_fract_z
Si Si1 0.503202 0.175384 0.911529
Si Si2 0.437124 0.822091 0.332412
Si Si3 0.599023 0.677676 0.819097
Si Si4 0.812064 0.824453 0.916050
Si Si5 0.604715 0.823272 0.178283
Si Si6 0.060444 0.178227 0.663688
Si Si7 0.440308 0.821633 0.499028
Si Si8 0.811743 0.674106 0.074662
O O1 0.549711 0.265587 0.869691
O O2 0.447047 0.214046 0.872529
O O3 0.517285 0.000000 0.903834
O O4 0.500000 0.226390 0.000000
O O5 0.404055 0.733461 0.268680
O O6 0.498927 0.770690 0.327572
O O7 0.413202 0.774746 0.417474
O O8 0.431318 0.000000 0.317767
O O9 0.599646 0.500000 0.820881
O O10 0.654819 0.738664 0.851371
O O11 0.750000 0.789064 0.901048
O O12 0.825089 0.000000 0.911995
O O13 0.829871 0.766773 0.999845
O O14 0.595059 0.760379 0.264957
O O15 0.655103 0.731905 0.147352
O O16 0.617746 0.000000 0.176616
O O17 0.085813 0.233057 0.580752
O O18 0.061097 0.000000 0.668337
O O19 0.500000 0.755839 0.500000
O O20 0.443382 0.000000 0.500226
O O21 0.750000 0.703069 0.094135
O O22 0.823623 0.500000 0.058676
#
# Coordination Sequence:
#
# PCOD8206694 Si02
#       8
#     8   8   8   8   8   8   8   8
#     4  10  20  33  48  67  94 129 165 197 233 281
#     4   9  15  28  47  67  95 129 163 197 234 281
#     4  12  23  32  47  72 102 131 157 191 237 289
#     4  10  21  38  58  74  89 117 161 207 246 284
#     4  10  18  29  48  72  98 129 163 202 240 279
#     4   8  13  24  43  70  97 123 160 202 242 278
#     4   7  11  20  41  68  91 120 159 200 238 275
#     4  10  21  36  52  71  97 126 158 200 246 289
#
# _framework density 16.596444000000002
#
# number of rings (size 3 to 8) (size 9 to 14) (size 15 to 20)
#    0.000    2.500    1.250    4.125    0.000    3.250 
#    0.000    0.000    0.000    4.125    0.000    0.875 
#    0.000    3.000    0.000    0.000    0.000    0.000 
#
# Total GULP energy -793145.448807 kJ/mol
# GULP energy per Si atom -12392.897638 kJ/mol
# Density = 1.655867 g / cm^3
# Si number density = 16.596444 Si / 1000 Ang^3
#
#
#
# Elastic Constant Matrix: (Units=GPa)
#
#
# Indices 1 2 3 4 5 6 
#
# 1 60.1540 33.6401 55.8501 0.0000 0.0000 0.0000
# 2 33.6401 64.5810 47.2478 0.0000 0.0000 0.0000
# 3 55.8501 47.2478 177.1712 0.0000 0.0000 0.0000
# 4 0.0000 0.0000 0.0000 4.3212 0.0000 0.0000
# 5 0.0000 0.0000 0.0000 0.0000 19.2464 0.0000
# 6 0.0000 0.0000 0.0000 0.0000 0.0000 19.7070
#
#
#
# Elastic Compliance Matrix: (Units=1/GPa)
#
#
# Indices 1 2 3 4 5 6 
#
# 1 0.027942 -0.010077 -0.006121 0.000000 0.000000 0.000000
# 2 -0.010077 0.022872 -0.002923 0.000000 0.000000 0.000000
# 3 -0.006121 -0.002923 0.008353 0.000000 0.000000 0.000000
# 4 0.000000 0.000000 0.000000 0.231417 0.000000 0.000000
# 5 0.000000 0.000000 0.000000 0.000000 0.051958 0.000000
# 6 0.000000 0.000000 0.000000 0.000000 0.000000 0.050743
#
#
# Mechanical properties :
#
#
# Convention : Reuss Voigt Hill
#
# Bulk Modulus (GPa) = 47.78775 63.93135 55.85955
# Shear Modulus (GPa) = 11.40244 19.66614 15.53429
#
# Velocity S-wave (km/s) = 2.62399 3.44606 3.06273
# Velocity P-wave (km/s) = 6.16741 7.37825 6.79983
#
# Compressibility (1/GPa) = 0.02092587
#
# Stress axis : x y z
#
# Youngs Moduli (GPa) = 35.78782 43.72186 119.71353
#
# Poissons Ratio (x) = 0.44058 0.73277
# Poissons Ratio (y) = 0.36063 0.34991
# Poissons Ratio (z) = 0.21906 0.12779
#
# Static dielectric constant tensor:
#      x y z
#    x 2.879020 0.000000 0.000000 
#    y 0.000000 2.884010 0.000000 
#    z 0.000000 0.000000 3.707200 
# 
# 
# High freq. dielectric constant tensor:
#      x y z
#    x 1.600790 0.000000 0.000000 
#    y 0.000000 1.617340 0.000000 
#    z 0.000000 0.000000 1.657390 
# 
# From -- ./inp_files/30890.got.cif
#   From: 2010.03.12/outbox.cif.g09.slc.cpg/sg51_16_cif.got.tgz:30890.got - 2010.04.16 13:43:02.
