data_PCOD8206653
_publ_section_title
;
Structure prediction by ZEFSAII (Michael W. Deem and Ramdas Pophale) SiO2 
 PCOD8206653
Probable space group: P M M A
;
_chemical_formula_sum "Si O2"
_cell_formula_units_Z 64
_cell_length_a 19.853334
_cell_length_b 9.252712
_cell_length_c 20.247953
_cell_angle_alpha 90.000000
_cell_angle_beta 90.000000
_cell_angle_gamma 90.000000
_cell_volume 3719.491902
_symmetry_space_group_name_H-M "P M M A"
_symmetry_group_IT_number 51
_symmetry_cell_setting 'orthorhombic'
loop_
_space_group_symop_operation_xyz
x,y,z
1/2-x,-y,z
1/2+x,-y,-z
-x,y,-z
-x,-y,-z
1/2+x,y,-z
1/2-x,y,z
x,-y,z
loop_
_atom_site_type_symbol
_atom_site_label
_atom_site_fract_x
_atom_site_fract_y
_atom_site_fract_z
Si Si1 0.428910 0.837288 0.581367
Si Si2 0.041651 0.830082 0.832621
Si Si3 0.102826 0.661549 0.314430
Si Si4 0.088066 0.161998 0.436634
Si Si5 0.556657 0.336776 0.295722
Si Si6 0.387141 0.834867 0.189206
Si Si7 0.327636 0.835260 0.051539
Si Si8 0.930600 0.329890 0.036051
O O1 0.397395 0.783329 0.511546
O O2 0.508923 0.837306 0.576000
O O3 0.406029 0.731352 0.640368
O O4 0.404176 0.000000 0.597024
O O5 0.075143 0.759640 0.767747
O O6 0.075148 0.755325 0.895572
O O7 0.962345 0.796598 0.834523
O O8 0.057378 0.000000 0.833218
O O9 0.131154 0.500000 0.316190
O O10 0.124863 0.736939 0.383051
O O11 0.136007 0.740748 0.251753
O O12 0.022853 0.665058 0.306945
O O13 0.116077 0.000000 0.427946
O O14 0.582850 0.500000 0.285498
O O15 0.337262 0.800928 0.128994
O O16 0.383550 0.000000 0.212462
O O17 0.250000 0.815421 0.033072
O O18 0.351876 0.000000 0.037313
O O19 0.369263 0.721654 0.009067
O O20 0.924502 0.500000 0.049452
O O21 0.000000 0.290296 0.000000
#
# Coordination Sequence:
#
# PCOD8206653 Si02
#       8
#     8   8   8   8   8   8   8   8
#     4   8  13  21  32  46  68 103 144 180 219 268
#     4  10  18  29  47  66  87 117 155 195 234 279
#     4   9  16  23  34  53  77 106 142 184 225 268
#     4   8  13  21  32  46  68 101 142 184 220 262
#     4   9  16  24  34  53  81 109 141 184 231 274
#     4   9  17  29  45  64  86 115 149 189 233 276
#     4  10  21  37  55  74  96 124 160 199 240 290
#     4  11  22  34  51  74  99 125 155 196 243 292
#
# _framework density 17.20665
#
# number of rings (size 3 to 8) (size 9 to 14) (size 15 to 20)
#    0.000    2.750    1.250    2.250    0.000    5.250 
#    0.000    2.500    0.000    0.000    0.000    0.000 
#    0.000    0.000    0.000    1.125    0.000   19.500 
#
# Total GULP energy -793429.383760 kJ/mol
# GULP energy per Si atom -12397.334121 kJ/mol
# Density = 1.716749 g / cm^3
# Si number density = 17.206650 Si / 1000 Ang^3
#
#
#
# Elastic Constant Matrix: (Units=GPa)
#
#
# Indices 1 2 3 4 5 6 
#
# 1 27.6634 20.6300 21.8803 0.0000 0.0000 0.0000
# 2 20.6300 115.8564 77.9272 0.0000 0.0000 0.0000
# 3 21.8803 77.9272 137.4303 0.0000 0.0000 0.0000
# 4 0.0000 0.0000 0.0000 29.5003 0.0000 0.0000
# 5 0.0000 0.0000 0.0000 0.0000 9.8299 0.0000
# 6 0.0000 0.0000 0.0000 0.0000 0.0000 8.3318
#
#
#
# Elastic Compliance Matrix: (Units=1/GPa)
#
#
# Indices 1 2 3 4 5 6 
#
# 1 0.043036 -0.004938 -0.004052 0.000000 0.000000 0.000000
# 2 -0.004938 0.014520 -0.007447 0.000000 0.000000 0.000000
# 3 -0.004052 -0.007447 0.012144 0.000000 0.000000 0.000000
# 4 0.000000 0.000000 0.000000 0.033898 0.000000 0.000000
# 5 0.000000 0.000000 0.000000 0.000000 0.101730 0.000000
# 6 0.000000 0.000000 0.000000 0.000000 0.000000 0.120022
#
#
# Mechanical properties :
#
#
# Convention : Reuss Voigt Hill
#
# Bulk Modulus (GPa) = 27.15430 57.98057 42.56743
# Shear Modulus (GPa) = 13.49531 20.23323 16.86427
#
# Velocity S-wave (km/s) = 2.80359 3.43285 3.13405
# Velocity P-wave (km/s) = 5.12793 7.03437 6.15541
#
# Compressibility (1/GPa) = 0.03682658
#
# Stress axis : x y z
#
# Youngs Moduli (GPa) = 23.23628 68.87269 82.34446
#
# Poissons Ratio (x) = 0.34009 0.33365
# Poissons Ratio (y) = 0.11474 0.61321
# Poissons Ratio (z) = 0.09415 0.51289
#
# Static dielectric constant tensor:
#      x y z
#    x 2.514050 0.000000 0.000000 
#    y 0.000000 3.353160 0.000000 
#    z 0.000000 0.000000 3.454760 
# 
# 
# High freq. dielectric constant tensor:
#      x y z
#    x 1.580150 0.000000 0.000000 
#    y 0.000000 1.671480 0.000000 
#    z 0.000000 0.000000 1.680940 
# 
# From -- ./inp_files/34057.got.cif
#   From: 2010.03.12/outbox.cif.g09.slc.cpg/sg51_18_cif.got.tgz:34057.got - 2010.04.16 13:43:02.
