data_PCOD8206291
_publ_section_title
;
Structure prediction by ZEFSAII (Michael W. Deem and Ramdas Pophale) SiO2 
 PCOD8206291
Probable space group: P M M A
;
_chemical_formula_sum "Si O2"
_cell_formula_units_Z 52
_cell_length_a 8.914047
_cell_length_b 27.136227
_cell_length_c 13.688992
_cell_angle_alpha 90.000000
_cell_angle_beta 90.000000
_cell_angle_gamma 90.000000
_cell_volume 3311.279595
_symmetry_space_group_name_H-M "P M M A"
_symmetry_group_IT_number 51
_symmetry_cell_setting 'orthorhombic'
loop_
_space_group_symop_operation_xyz
x,y,z
1/2-x,-y,z
1/2+x,-y,-z
-x,y,-z
-x,-y,-z
1/2+x,y,-z
1/2-x,y,z
x,-y,z
loop_
_atom_site_type_symbol
_atom_site_label
_atom_site_fract_x
_atom_site_fract_y
_atom_site_fract_z
Si Si1 0.426786 0.201319 0.719761
Si Si2 0.924588 0.895403 0.397091
Si Si3 0.573580 0.500000 0.605438
Si Si4 0.073113 0.851005 0.103918
Si Si5 0.077161 0.055202 0.223603
Si Si6 0.572231 0.711354 0.606741
Si Si7 0.424602 0.395929 0.396474
O O1 0.250000 0.207200 0.735512
O O2 0.464858 0.159075 0.641127
O O3 0.503436 0.188673 0.822424
O O4 0.497513 0.251688 0.682300
O O5 0.750000 0.902773 0.410684
O O6 0.000000 0.904766 0.500000
O O7 0.981614 0.935956 0.320799
O O8 0.750000 0.500000 0.589593
O O9 0.500000 0.500000 0.500000
O O10 0.528839 0.447677 0.659840
O O11 0.250000 0.842782 0.097333
O O12 0.031470 0.906350 0.139079
O O13 0.000000 0.841833 0.000000
O O14 0.250000 0.062689 0.252338
O O15 0.045285 0.000000 0.184677
O O16 0.500000 0.718014 0.500000
O O17 0.750000 0.721239 0.598454
O O18 0.535325 0.656733 0.652748
O O19 0.500000 0.396775 0.500000
O O20 0.250000 0.396332 0.416662
#
# Coordination Sequence:
#
# PCOD8206291 Si02
#       7
#     8   8   4   8   8   8   8
#     4  10  20  33  48  66  87 113 146 182 219 259
#     4  10  20  32  47  66  88 116 148 179 212 251
#     4   8  12  20  32  46  68 102 143 184 219 250
#     4  10  20  35  54  73  92 113 138 170 210 257
#     4   9  19  35  52  70  92 116 142 172 206 246
#     4  10  18  27  40  61  88 118 151 186 223 261
#     4   8  14  22  33  50  74 106 145 184 219 254
#
# _framework density 15.703900000000001
#
# number of rings (size 3 to 8) (size 9 to 14) (size 15 to 20)
#    0.000    2.615    0.000    2.308    0.000    5.231 
#    0.000    0.000    0.000    0.000    0.000    0.000 
#    0.000    0.000    0.000    0.692    0.000    7.000 
#
# Total GULP energy -644224.438931 kJ/mol
# GULP energy per Si atom -12388.931518 kJ/mol
# Density = 1.566816 g / cm^3
# Si number density = 15.703900 Si / 1000 Ang^3
#
#
#
# Elastic Constant Matrix: (Units=GPa)
#
#
# Indices 1 2 3 4 5 6 
#
# 1 57.8127 39.2311 35.0080 0.0000 0.0000 0.0000
# 2 39.2311 139.8003 44.6029 0.0000 0.0000 0.0000
# 3 35.0080 44.6029 82.5838 0.0000 0.0000 0.0000
# 4 0.0000 0.0000 0.0000 13.5906 0.0000 0.0000
# 5 0.0000 0.0000 0.0000 0.0000 22.4133 0.0000
# 6 0.0000 0.0000 0.0000 0.0000 0.0000 15.1660
#
#
#
# Elastic Compliance Matrix: (Units=1/GPa)
#
#
# Indices 1 2 3 4 5 6 
#
# 1 0.025379 -0.004458 -0.008351 0.000000 0.000000 0.000000
# 2 -0.004458 0.009425 -0.003201 0.000000 0.000000 0.000000
# 3 -0.008351 -0.003201 0.017378 0.000000 0.000000 0.000000
# 4 0.000000 0.000000 0.000000 0.073580 0.000000 0.000000
# 5 0.000000 0.000000 0.000000 0.000000 0.044616 0.000000
# 6 0.000000 0.000000 0.000000 0.000000 0.000000 0.065937
#
#
# Mechanical properties :
#
#
# Convention : Reuss Voigt Hill
#
# Bulk Modulus (GPa) = 49.59532 57.54231 53.56882
# Shear Modulus (GPa) = 18.17819 20.99097 19.58458
#
# Velocity S-wave (km/s) = 3.40598 3.66002 3.53528
# Velocity P-wave (km/s) = 6.86423 7.38800 7.13093
#
# Compressibility (1/GPa) = 0.02016319
#
# Stress axis : x y z
#
# Youngs Moduli (GPa) = 39.40279 106.09865 57.54513
#
# Poissons Ratio (x) = 0.47294 0.48055
# Poissons Ratio (y) = 0.17564 0.18419
# Poissons Ratio (z) = 0.32905 0.33961
#
# Static dielectric constant tensor:
#      x y z
#    x 3.122100 0.000000 0.000000 
#    y 0.000000 3.654840 0.000000 
#    z 0.000000 0.000000 2.616910 
# 
# 
# High freq. dielectric constant tensor:
#      x y z
#    x 1.617740 0.000000 0.000000 
#    y 0.000000 1.616480 0.000000 
#    z 0.000000 0.000000 1.551190 
# 
# From -- ./inp_files/14607.got.cif
#   From: 2010.03.12/outbox.cif.g09.slc.cpg/sg51_8_cif.got.tgz:14607.got - 2010.04.16 13:43:02.
