data_PCOD8206639
_publ_section_title
;
Structure prediction by ZEFSAII (Michael W. Deem and Ramdas Pophale) SiO2 
 PCOD8206639
Probable space group: P M M A
;
_chemical_formula_sum "Si O2"
_cell_formula_units_Z 64
_cell_length_a 25.221718
_cell_length_b 9.157856
_cell_length_c 16.946088
_cell_angle_alpha 90.000000
_cell_angle_beta 90.000000
_cell_angle_gamma 90.000000
_cell_volume 3914.154221
_symmetry_space_group_name_H-M "P M M A"
_symmetry_group_IT_number 51
_symmetry_cell_setting 'orthorhombic'
loop_
_space_group_symop_operation_xyz
x,y,z
1/2-x,-y,z
1/2+x,-y,-z
-x,y,-z
-x,-y,-z
1/2+x,y,-z
1/2-x,y,z
x,-y,z
loop_
_atom_site_type_symbol
_atom_site_label
_atom_site_fract_x
_atom_site_fract_y
_atom_site_fract_z
Si Si1 0.441041 0.172888 0.666152
Si Si2 0.396230 0.668438 0.181592
Si Si3 0.001098 0.673487 0.088451
Si Si4 0.311142 0.829203 0.088339
Si Si5 0.189489 0.668697 0.930345
Si Si6 0.448542 0.331577 0.344256
Si Si7 0.400990 0.328581 0.811494
Si Si8 0.437099 0.839093 0.493039
O O1 0.498729 0.243638 0.677592
O O2 0.400780 0.240286 0.729672
O O3 0.416402 0.209695 0.579587
O O4 0.447021 0.000000 0.677323
O O5 0.385905 0.500000 0.160401
O O6 0.446430 0.729530 0.132640
O O7 0.344644 0.761053 0.159541
O O8 0.406317 0.688622 0.274484
O O9 0.000438 0.500000 0.086195
O O10 0.949461 0.728883 0.134939
O O11 0.000000 0.738197 0.000000
O O12 0.250000 0.791233 0.104793
O O13 0.321504 0.000000 0.084430
O O14 0.329653 0.761062 0.005358
O O15 0.250000 0.705066 0.907512
O O16 0.181866 0.500000 0.953429
O O17 0.153750 0.709276 0.855340
O O18 0.464431 0.500000 0.355245
O O19 0.420640 0.273628 0.424488
O O20 0.406394 0.500000 0.793327
O O21 0.500000 0.845363 0.500000
O O22 0.415168 0.000000 0.470911
#
# Coordination Sequence:
#
# PCOD8206639 Si02
#       8
#     8   8   8   8   8   8   8   8
#     4  10  19  30  44  65  97 130 158 190 230 279
#     4  10  19  31  47  69  95 123 157 193 235 283
#     4   9  16  27  43  63  90 123 153 183 227 278
#     4  10  21  35  50  69  93 122 159 201 240 277
#     4   9  18  33  53  73  92 121 161 201 242 281
#     4  10  18  29  46  69  95 123 157 195 232 276
#     4  10  18  30  48  69  95 125 158 197 235 276
#     4   8  16  29  43  62  91 127 159 188 228 275
#
# _framework density 16.350914
#
# number of rings (size 3 to 8) (size 9 to 14) (size 15 to 20)
#    0.000    2.500    1.250    2.625    0.000    7.000 
#    0.000    0.000    0.000    1.500    0.000    0.875 
#    0.000    3.000    0.000    0.000    0.000    0.000 
#
# Total GULP energy -793562.857686 kJ/mol
# GULP energy per Si atom -12399.419651 kJ/mol
# Density = 1.631370 g / cm^3
# Si number density = 16.350914 Si / 1000 Ang^3
#
#
#
# Elastic Constant Matrix: (Units=GPa)
#
#
# Indices 1 2 3 4 5 6 
#
# 1 66.0746 37.3928 47.9454 0.0000 0.0000 0.0000
# 2 37.3928 77.4689 59.0281 0.0000 0.0000 0.0000
# 3 47.9454 59.0281 134.0991 0.0000 0.0000 0.0000
# 4 0.0000 0.0000 0.0000 25.2527 0.0000 0.0000
# 5 0.0000 0.0000 0.0000 0.0000 18.4812 0.0000
# 6 0.0000 0.0000 0.0000 0.0000 0.0000 17.3661
#
#
#
# Elastic Compliance Matrix: (Units=1/GPa)
#
#
# Indices 1 2 3 4 5 6 
#
# 1 0.022842 -0.007226 -0.004986 0.000000 0.000000 0.000000
# 2 -0.007226 0.021709 -0.006972 0.000000 0.000000 0.000000
# 3 -0.004986 -0.006972 0.012309 0.000000 0.000000 0.000000
# 4 0.000000 0.000000 0.000000 0.039600 0.000000 0.000000
# 5 0.000000 0.000000 0.000000 0.000000 0.054109 0.000000
# 6 0.000000 0.000000 0.000000 0.000000 0.000000 0.057583
#
#
# Mechanical properties :
#
#
# Convention : Reuss Voigt Hill
#
# Bulk Modulus (GPa) = 54.08096 62.93058 58.50577
# Shear Modulus (GPa) = 19.78754 21.10509 20.44631
#
# Velocity S-wave (km/s) = 3.48254 3.59661 3.54003
# Velocity P-wave (km/s) = 7.02266 7.47118 7.25039
#
# Compressibility (1/GPa) = 0.01849079
#
# Stress axis : x y z
#
# Youngs Moduli (GPa) = 43.77945 46.06397 81.24208
#
# Poissons Ratio (x) = 0.33287 0.40507
# Poissons Ratio (y) = 0.31636 0.56644
# Poissons Ratio (z) = 0.21828 0.32117
#
# Static dielectric constant tensor:
#      x y z
#    x 2.844430 0.000000 0.000000 
#    y 0.000000 3.032470 0.000000 
#    z 0.000000 0.000000 3.376440 
# 
# 
# High freq. dielectric constant tensor:
#      x y z
#    x 1.591400 0.000000 0.000000 
#    y 0.000000 1.622430 0.000000 
#    z 0.000000 0.000000 1.636050 
# 
# From -- ./inp_files/30914.got.cif
#   From: 2010.03.12/outbox.cif.g09.slc.cpg/sg51_16_cif.got.tgz:30914.got - 2010.04.16 13:43:02.
