data_PCOD8206249
_publ_section_title
;
Structure prediction by ZEFSAII (Michael W. Deem and Ramdas Pophale) SiO2 
 PCOD8206249
Probable space group: P M M A
;
_chemical_formula_sum "Si O2"
_cell_formula_units_Z 64
_cell_length_a 18.322954
_cell_length_b 18.817497
_cell_length_c 12.454035
_cell_angle_alpha 90.000000
_cell_angle_beta 90.000000
_cell_angle_gamma 90.000000
_cell_volume 4294.053279
_symmetry_space_group_name_H-M "P M M A"
_symmetry_group_IT_number 51
_symmetry_cell_setting 'orthorhombic'
loop_
_space_group_symop_operation_xyz
x,y,z
1/2-x,-y,z
1/2+x,-y,-z
-x,y,-z
-x,-y,-z
1/2+x,y,-z
1/2-x,y,z
x,-y,z
loop_
_atom_site_type_symbol
_atom_site_label
_atom_site_fract_x
_atom_site_fract_y
_atom_site_fract_z
Si Si1 0.442278 0.721853 0.226933
Si Si2 0.564164 0.081993 0.272625
Si Si3 0.116099 0.422081 0.974810
Si Si4 0.989579 0.577445 0.823679
Si Si5 0.051544 0.834720 0.401892
Si Si6 0.166087 0.082046 0.530945
Si Si7 0.667837 0.277317 0.961507
Si Si8 0.053970 0.189786 0.908093
O O1 0.464362 0.640439 0.256413
O O2 0.427676 0.764050 0.336491
O O3 0.369477 0.724789 0.155340
O O4 0.511196 0.752556 0.162427
O O5 0.489278 0.108565 0.326597
O O6 0.631838 0.095035 0.352060
O O7 0.580495 0.123817 0.163259
O O8 0.554426 0.000000 0.243531
O O9 0.155217 0.500000 0.977646
O O10 0.073467 0.413759 0.861615
O O11 0.058518 0.416706 0.070218
O O12 0.172053 0.357238 0.989799
O O13 0.978821 0.500000 0.767858
O O14 0.125960 0.870444 0.442182
O O15 0.000000 0.811903 0.500000
O O16 0.250000 0.105435 0.535329
O O17 0.156960 0.000000 0.497549
O O18 0.750000 0.248885 0.949047
O O19 0.625326 0.226113 0.042813
O O20 0.000000 0.160407 0.000000
#
# Coordination Sequence:
#
# PCOD8206249 Si02
#       8
#     8   8   8   8   8   8   8   8
#     4   9  16  28  43  59  82 112 143 171 206 251
#     4   9  17  29  46  65  82 105 140 178 211 245
#     4   8  13  22  37  57  81 109 139 169 201 238
#     4   8  12  21  40  60  78 107 142 170 200 242
#     4   9  17  29  46  65  83 105 135 179 218 251
#     4   9  17  29  45  65  87 107 129 166 220 270
#     4  10  18  26  38  59  87 115 138 167 203 244
#     4   9  17  29  42  58  83 114 143 170 200 243
#
# _framework density 14.904332999999999
#
# number of rings (size 3 to 8) (size 9 to 14) (size 15 to 20)
#    0.000    3.125    1.250    1.125    0.000    3.000 
#    0.000    0.000    0.000    0.375    0.000    0.000 
#    0.000    0.000    0.000    0.625    0.000    0.000 
#
# Total GULP energy -793249.833652 kJ/mol
# GULP energy per Si atom -12394.528651 kJ/mol
# Density = 1.487041 g / cm^3
# Si number density = 14.904333 Si / 1000 Ang^3
#
#
#
# Elastic Constant Matrix: (Units=GPa)
#
#
# Indices 1 2 3 4 5 6 
#
# 1 88.6113 44.9228 32.7062 0.0000 0.0000 0.0000
# 2 44.9228 120.2754 59.2481 0.0000 0.0000 0.0000
# 3 32.7062 59.2481 68.2786 0.0000 0.0000 0.0000
# 4 0.0000 0.0000 0.0000 24.3138 0.0000 0.0000
# 5 0.0000 0.0000 0.0000 0.0000 11.0899 0.0000
# 6 0.0000 0.0000 0.0000 0.0000 0.0000 15.3987
#
#
#
# Elastic Compliance Matrix: (Units=1/GPa)
#
#
# Indices 1 2 3 4 5 6 
#
# 1 0.014499 -0.003483 -0.003923 0.000000 0.000000 0.000000
# 2 -0.003483 0.015358 -0.011659 0.000000 0.000000 0.000000
# 3 -0.003923 -0.011659 0.026642 0.000000 0.000000 0.000000
# 4 0.000000 0.000000 0.000000 0.041129 0.000000 0.000000
# 5 0.000000 0.000000 0.000000 0.000000 0.090172 0.000000
# 6 0.000000 0.000000 0.000000 0.000000 0.000000 0.064940
#
#
# Mechanical properties :
#
#
# Convention : Reuss Voigt Hill
#
# Bulk Modulus (GPa) = 54.43665 61.21326 57.82496
# Shear Modulus (GPa) = 16.83547 19.51304 18.17426
#
# Velocity S-wave (km/s) = 3.36455 3.62224 3.49577
# Velocity P-wave (km/s) = 7.19006 7.65860 7.42802
#
# Compressibility (1/GPa) = 0.01836998
#
# Stress axis : x y z
#
# Youngs Moduli (GPa) = 68.97091 65.11192 37.53530
#
# Poissons Ratio (x) = 0.22678 0.14725
# Poissons Ratio (y) = 0.24022 0.43761
# Poissons Ratio (z) = 0.27056 0.75911
#
# Static dielectric constant tensor:
#      x y z
#    x 2.692700 0.000000 0.000000 
#    y 0.000000 3.074860 0.000000 
#    z 0.000000 0.000000 2.676450 
# 
# 
# High freq. dielectric constant tensor:
#      x y z
#    x 1.555070 0.000000 0.000000 
#    y 0.000000 1.575770 0.000000 
#    z 0.000000 0.000000 1.537370 
# 
# From -- ./inp_files/17738.got.cif
#   From: 2010.03.12/outbox.cif.g09.slc.cpg/sg51_9_cif.got.tgz:17738.got - 2010.04.16 13:43:02.
