data_PCOD8206892
_publ_section_title
;
Structure prediction by ZEFSAII (Michael W. Deem and Ramdas Pophale) SiO2 
 PCOD8206892
Probable space group: P M M A
;
_chemical_formula_sum "Si O2"
_cell_formula_units_Z 64
_cell_length_a 33.902395
_cell_length_b 8.870950
_cell_length_c 12.727646
_cell_angle_alpha 90.000000
_cell_angle_beta 90.000000
_cell_angle_gamma 90.000000
_cell_volume 3827.794363
_symmetry_space_group_name_H-M "P M M A"
_symmetry_group_IT_number 51
_symmetry_cell_setting 'orthorhombic'
loop_
_space_group_symop_operation_xyz
x,y,z
1/2-x,-y,z
1/2+x,-y,-z
-x,y,-z
-x,-y,-z
1/2+x,y,-z
1/2-x,y,z
x,-y,z
loop_
_atom_site_type_symbol
_atom_site_label
_atom_site_fract_x
_atom_site_fract_y
_atom_site_fract_z
Si Si1 0.294071 0.820797 0.499245
Si Si2 0.843982 0.822149 0.697797
Si Si3 0.295552 0.675341 0.882303
Si Si4 0.842777 0.821614 0.301096
Si Si5 0.999515 0.169846 0.375220
Si Si6 0.704855 0.173325 0.901405
Si Si7 0.420870 0.322409 0.377824
Si Si8 0.080165 0.677771 0.620132
O O1 0.250000 0.752878 0.498554
O O2 0.316998 0.761040 0.397210
O O3 0.316059 0.761571 0.602969
O O4 0.292235 0.000000 0.498365
O O5 0.822989 0.777702 0.805929
O O6 0.885896 0.740116 0.694208
O O7 0.850623 0.000000 0.687608
O O8 0.250000 0.713492 0.857956
O O9 0.304659 0.500000 0.866419
O O10 0.322736 0.773157 0.806774
O O11 0.306001 0.721137 0.000976
O O12 0.885647 0.747902 0.308929
O O13 0.847491 0.000000 0.304363
O O14 0.961021 0.258453 0.335290
O O15 0.000000 0.172116 0.500000
O O16 0.038702 0.251923 0.333369
O O17 0.998432 0.000000 0.331293
O O18 0.750000 0.197156 0.865439
O O19 0.697676 0.000000 0.933455
O O20 0.423959 0.500000 0.366669
O O21 0.413447 0.274064 0.498756
O O22 0.079938 0.500000 0.633198
#
# Coordination Sequence:
#
# PCOD8206892 Si02
#       8
#     8   8   8   8   8   8   8   8
#     4   9  17  28  44  68  97 128 161 198 242 290
#     4  10  18  30  49  72  99 129 165 206 247 291
#     4  10  21  36  52  70  96 129 166 211 259 301
#     4  11  20  31  50  73  99 130 168 207 245 292
#     4   9  17  29  47  68  93 127 168 205 242 286
#     4   9  18  33  53  74  95 124 167 215 255 292
#     4  10  19  30  45  68 101 135 165 198 242 295
#     4  10  19  31  46  68 101 134 165 200 245 296
#
# _framework density 16.719811
#
# number of rings (size 3 to 8) (size 9 to 14) (size 15 to 20)
#    0.000    2.250    1.250    2.625    0.000    5.750 
#    0.000    0.000    0.000    1.875    0.000    0.875 
#    0.000    7.000    0.000    0.000    0.000    0.000 
#
# Total GULP energy -793775.971816 kJ/mol
# GULP energy per Si atom -12402.749560 kJ/mol
# Density = 1.668176 g / cm^3
# Si number density = 16.719811 Si / 1000 Ang^3
#
#
#
# Elastic Constant Matrix: (Units=GPa)
#
#
# Indices 1 2 3 4 5 6 
#
# 1 146.0745 48.1456 53.3214 0.0000 0.0000 0.0000
# 2 48.1456 67.5540 28.9786 0.0000 0.0000 0.0000
# 3 53.3214 28.9786 69.7317 0.0000 0.0000 0.0000
# 4 0.0000 0.0000 0.0000 19.6725 0.0000 0.0000
# 5 0.0000 0.0000 0.0000 0.0000 19.4460 0.0000
# 6 0.0000 0.0000 0.0000 0.0000 0.0000 25.6900
#
#
#
# Elastic Compliance Matrix: (Units=1/GPa)
#
#
# Indices 1 2 3 4 5 6 
#
# 1 0.010737 -0.005026 -0.006121 0.000000 0.000000 0.000000
# 2 -0.005026 0.020367 -0.004621 0.000000 0.000000 0.000000
# 3 -0.006121 -0.004621 0.020942 0.000000 0.000000 0.000000
# 4 0.000000 0.000000 0.000000 0.050832 0.000000 0.000000
# 5 0.000000 0.000000 0.000000 0.000000 0.051424 0.000000
# 6 0.000000 0.000000 0.000000 0.000000 0.000000 0.038926
#
#
# Mechanical properties :
#
#
# Convention : Reuss Voigt Hill
#
# Bulk Modulus (GPa) = 48.75841 60.47238 54.61539
# Shear Modulus (GPa) = 21.58878 23.15600 22.37239
#
# Velocity S-wave (km/s) = 3.59724 3.72552 3.66194
# Velocity P-wave (km/s) = 6.81754 7.39950 7.11447
#
# Compressibility (1/GPa) = 0.02050928
#
# Stress axis : x y z
#
# Youngs Moduli (GPa) = 93.13628 49.09821 47.75156
#
# Poissons Ratio (x) = 0.24678 0.29231
# Poissons Ratio (y) = 0.46813 0.22064
# Poissons Ratio (z) = 0.57012 0.22687
#
# Static dielectric constant tensor:
#      x y z
#    x 3.253320 0.000000 0.000000 
#    y 0.000000 3.050440 0.000000 
#    z 0.000000 0.000000 2.862850 
# 
# 
# High freq. dielectric constant tensor:
#      x y z
#    x 1.651340 0.000000 0.000000 
#    y 0.000000 1.643240 0.000000 
#    z 0.000000 0.000000 1.607480 
# 
# From -- ./inp_files/19479.got.cif
#   From: 2010.03.12/outbox.cif.g09.slc.cpg/sg51_10_cif.got.tgz:19479.got - 2010.04.16 13:43:02.
