data_PCOD8206513
_publ_section_title
;
Structure prediction by ZEFSAII (Michael W. Deem and Ramdas Pophale) SiO2 
 PCOD8206513
Probable space group: P M M A
;
_chemical_formula_sum "Si O2"
_cell_formula_units_Z 64
_cell_length_a 25.418779
_cell_length_b 9.137853
_cell_length_c 16.905669
_cell_angle_alpha 90.000000
_cell_angle_beta 90.000000
_cell_angle_gamma 90.000000
_cell_volume 3926.731570
_symmetry_space_group_name_H-M "P M M A"
_symmetry_group_IT_number 51
_symmetry_cell_setting 'orthorhombic'
loop_
_space_group_symop_operation_xyz
x,y,z
1/2-x,-y,z
1/2+x,-y,-z
-x,y,-z
-x,-y,-z
1/2+x,y,-z
1/2-x,y,z
x,-y,z
loop_
_atom_site_type_symbol
_atom_site_label
_atom_site_fract_x
_atom_site_fract_y
_atom_site_fract_z
Si Si1 0.310861 0.832106 0.906247
Si Si2 0.941184 0.330751 0.347099
Si Si3 0.937421 0.165404 0.500471
Si Si4 0.900010 0.671920 0.177806
Si Si5 0.006546 0.170370 0.908727
Si Si6 0.436650 0.671632 0.343784
Si Si7 0.596138 0.826924 0.810338
Si Si8 0.808036 0.826108 0.915930
O O1 0.250000 0.816535 0.883453
O O2 0.343352 0.733861 0.845470
O O3 0.329410 0.000000 0.898952
O O4 0.321009 0.772858 0.995179
O O5 0.935215 0.500000 0.369868
O O6 0.917092 0.237253 0.419102
O O7 0.909123 0.287301 0.269233
O O8 0.002036 0.292775 0.331148
O O9 0.915890 0.257553 0.574688
O O10 0.000000 0.170510 0.500000
O O11 0.916224 0.000000 0.506279
O O12 0.901671 0.500000 0.164872
O O13 0.944542 0.740356 0.123260
O O14 0.954076 0.217025 0.862555
O O15 0.018720 0.000000 0.897209
O O16 0.000000 0.210863 0.000000
O O17 0.425192 0.500000 0.346073
O O18 0.404526 0.744320 0.272755
O O19 0.647968 0.768456 0.855637
O O20 0.598211 0.000000 0.795285
O O21 0.750000 0.768978 0.889982
O O22 0.807843 0.000000 0.917561
#
# Coordination Sequence:
#
# PCOD8206513 Si02
#       8
#     8   8   8   8   8   8   8   8
#     4   9  18  34  54  72  92 123 165 208 247 286
#     4   9  18  31  44  63  94 130 159 185 229 285
#     4   9  17  28  45  68  91 118 157 197 231 269
#     4  11  21  32  47  70  99 129 160 196 239 290
#     4  10  20  32  46  65  93 129 165 199 238 286
#     4  10  18  30  45  63  95 131 158 186 229 285
#     4  10  18  28  46  70  94 121 159 201 237 278
#     4   8  15  30  51  71  91 119 159 206 249 284
#
# _framework density 16.298542999999999
#
# number of rings (size 3 to 8) (size 9 to 14) (size 15 to 20)
#    0.000    2.500    1.250    2.625    0.000    5.500 
#    0.000    1.875    0.000    1.125    0.000    0.875 
#    0.000    5.000    0.000    0.000    0.000    0.000 
#
# Total GULP energy -793635.645765 kJ/mol
# GULP energy per Si atom -12400.556965 kJ/mol
# Density = 1.626145 g / cm^3
# Si number density = 16.298543 Si / 1000 Ang^3
#
#
#
# Elastic Constant Matrix: (Units=GPa)
#
#
# Indices 1 2 3 4 5 6 
#
# 1 71.6846 31.6126 55.4355 0.0000 0.0000 0.0000
# 2 31.6126 64.0145 58.1107 0.0000 0.0000 0.0000
# 3 55.4355 58.1107 135.9822 0.0000 0.0000 0.0000
# 4 0.0000 0.0000 0.0000 28.0334 0.0000 0.0000
# 5 0.0000 0.0000 0.0000 0.0000 18.6025 0.0000
# 6 0.0000 0.0000 0.0000 0.0000 0.0000 13.5047
#
#
#
# Elastic Compliance Matrix: (Units=1/GPa)
#
#
# Indices 1 2 3 4 5 6 
#
# 1 0.021060 -0.004258 -0.006766 0.000000 0.000000 0.000000
# 2 -0.004258 0.026383 -0.009539 0.000000 0.000000 0.000000
# 3 -0.006766 -0.009539 0.014188 0.000000 0.000000 0.000000
# 4 0.000000 0.000000 0.000000 0.035672 0.000000 0.000000
# 5 0.000000 0.000000 0.000000 0.000000 0.053756 0.000000
# 6 0.000000 0.000000 0.000000 0.000000 0.000000 0.074048
#
#
# Mechanical properties :
#
#
# Convention : Reuss Voigt Hill
#
# Bulk Modulus (GPa) = 48.76596 62.44431 55.60514
# Shear Modulus (GPa) = 18.31042 20.46296 19.38669
#
# Velocity S-wave (km/s) = 3.35541 3.54716 3.45262
# Velocity P-wave (km/s) = 6.70799 7.42782 7.07706
#
# Compressibility (1/GPa) = 0.02050611
#
# Stress axis : x y z
#
# Youngs Moduli (GPa) = 47.48338 37.90273 70.48080
#
# Poissons Ratio (x) = 0.16141 0.47685
# Poissons Ratio (y) = 0.20221 0.67229
# Poissons Ratio (z) = 0.32126 0.36154
#
# Static dielectric constant tensor:
#      x y z
#    x 2.948180 0.000000 0.000000 
#    y 0.000000 3.001460 0.000000 
#    z 0.000000 0.000000 3.177730 
# 
# 
# High freq. dielectric constant tensor:
#      x y z
#    x 1.593840 0.000000 0.000000 
#    y 0.000000 1.620070 0.000000 
#    z 0.000000 0.000000 1.633200 
# 
# From -- ./inp_files/30795.got.cif
#   From: 2010.03.12/outbox.cif.g09.slc.cpg/sg51_16_cif.got.tgz:30795.got - 2010.04.16 13:43:02.
