data_PCOD8206726
_publ_section_title
;
Structure prediction by ZEFSAII (Michael W. Deem and Ramdas Pophale) SiO2 
 PCOD8206726
Probable space group: P M M A
;
_chemical_formula_sum "Si O2"
_cell_formula_units_Z 48
_cell_length_a 20.466457
_cell_length_b 9.429270
_cell_length_c 14.462546
_cell_angle_alpha 90.000000
_cell_angle_beta 90.000000
_cell_angle_gamma 90.000000
_cell_volume 2791.036347
_symmetry_space_group_name_H-M "P M M A"
_symmetry_group_IT_number 51
_symmetry_cell_setting 'orthorhombic'
loop_
_space_group_symop_operation_xyz
x,y,z
1/2-x,-y,z
1/2+x,-y,-z
-x,y,-z
-x,-y,-z
1/2+x,y,-z
1/2-x,y,z
x,-y,z
loop_
_atom_site_type_symbol
_atom_site_label
_atom_site_fract_x
_atom_site_fract_y
_atom_site_fract_z
Si Si1 0.873316 0.166552 0.741603
Si Si2 0.475095 0.166654 0.736110
Si Si3 0.561886 0.665970 0.438757
Si Si4 0.440233 0.168769 0.939108
Si Si5 0.177196 0.168732 0.060798
Si Si6 0.176245 0.338143 0.426887
O O1 0.847490 0.223040 0.839855
O O2 0.832035 0.242996 0.663143
O O3 0.948930 0.206296 0.731838
O O4 0.861578 0.000000 0.731494
O O5 0.436801 0.248892 0.656565
O O6 0.446175 0.220500 0.833703
O O7 0.464041 0.000000 0.722529
O O8 0.500000 0.712838 0.500000
O O9 0.559178 0.500000 0.415929
O O10 0.627550 0.710612 0.492215
O O11 0.443672 0.000000 0.942547
O O12 0.500000 0.230279 0.000000
O O13 0.371916 0.225125 0.981541
O O14 0.250000 0.227521 0.040711
O O15 0.176987 0.000000 0.061130
O O16 0.250000 0.321302 0.464104
O O17 0.160545 0.500000 0.399058
#
# Coordination Sequence:
#
# PCOD8206726 Si02
#       6
#     8   8   8   8   8   8
#     4  10  18  29  49  77 104 126 156 203 250 289
#     4  10  19  30  50  78 101 126 163 204 243 282
#     4  10  20  35  53  71  95 129 166 202 239 288
#     4   9  15  27  45  66  95 129 161 192 231 283
#     4   9  16  26  43  69  99 129 160 195 237 285
#     4  10  21  36  52  71  97 130 164 198 244 298
#
# _framework density 17.197911999999999
#
# number of rings (size 3 to 8) (size 9 to 14) (size 15 to 20)
#    0.000    2.333    3.333    0.500    0.000    2.000 
#    0.000    0.833    0.000    2.500    0.000    0.000 
#    0.000    0.000    0.000    0.000    0.000    0.000 
#
# Total GULP energy -595215.495259 kJ/mol
# GULP energy per Si atom -12400.322818 kJ/mol
# Density = 1.715877 g / cm^3
# Si number density = 17.197912 Si / 1000 Ang^3
#
#
#
# Elastic Constant Matrix: (Units=GPa)
#
#
# Indices 1 2 3 4 5 6 
#
# 1 126.7472 25.5749 71.6623 0.0000 0.0000 0.0000
# 2 25.5749 22.9158 33.6421 0.0000 0.0000 0.0000
# 3 71.6623 33.6421 143.6491 0.0000 0.0000 0.0000
# 4 0.0000 0.0000 0.0000 -4.1637 0.0000 0.0000
# 5 0.0000 0.0000 0.0000 0.0000 31.4839 0.0000
# 6 0.0000 0.0000 0.0000 0.0000 0.0000 14.6157
#
#
#
# Elastic Compliance Matrix: (Units=1/GPa)
#
#
# Indices 1 2 3 4 5 6 
#
# 1 0.011647 -0.006810 -0.004216 0.000000 0.000000 0.000000
# 2 -0.006810 0.070484 -0.013110 0.000000 0.000000 0.000000
# 3 -0.004216 -0.013110 0.012135 0.000000 0.000000 0.000000
# 4 0.000000 0.000000 0.000000 -0.240173 0.000000 0.000000
# 5 0.000000 0.000000 0.000000 0.000000 0.031762 0.000000
# 6 0.000000 0.000000 0.000000 0.000000 0.000000 0.068419
#
#
# Mechanical properties :
#
#
# Convention : Reuss Voigt Hill
#
# Bulk Modulus (GPa) = 21.74130 61.67452 41.70791
# Shear Modulus (GPa) = 279.66992 19.21604 149.44298
#
# Velocity S-wave (km/s) = 12.76603 3.34630 9.33192
# Velocity P-wave (km/s) = 15.16459 7.13231 11.84978
#
# Compressibility (1/GPa) = 0.04599541
#
# Stress axis : x y z
#
# Youngs Moduli (GPa) = 85.85650 14.18756 82.40806
#
# Poissons Ratio (x) = 0.09662 0.34740
# Poissons Ratio (y) = 0.58468 1.08036
# Poissons Ratio (z) = 0.36194 0.18600
#
# Static dielectric constant tensor:
#      x y z
#    x 3.402480 0.000000 0.000000 
#    y 0.000000 2.807640 0.000000 
#    z 0.000000 0.000000 3.250270 
# 
# 
# High freq. dielectric constant tensor:
#      x y z
#    x 1.670070 0.000000 0.000000 
#    y 0.000000 1.621560 0.000000 
#    z 0.000000 0.000000 1.665540 
# 
# From -- ./inp_files/18092.got.cif
#   From: 2010.03.12/outbox.cif.g09.slc.cpg/sg51_10_cif.got.tgz:18092.got - 2010.04.16 13:43:02.
