data_PCOD8206421
_publ_section_title
;
Structure prediction by ZEFSAII (Michael W. Deem and Ramdas Pophale) SiO2 
 PCOD8206421
Probable space group: P M M A
;
_chemical_formula_sum "Si O2"
_cell_formula_units_Z 64
_cell_length_a 30.313426
_cell_length_b 9.098428
_cell_length_c 13.915921
_cell_angle_alpha 90.000000
_cell_angle_beta 90.000000
_cell_angle_gamma 90.000000
_cell_volume 3838.073966
_symmetry_space_group_name_H-M "P M M A"
_symmetry_group_IT_number 51
_symmetry_cell_setting 'orthorhombic'
loop_
_space_group_symop_operation_xyz
x,y,z
1/2-x,-y,z
1/2+x,-y,-z
-x,y,-z
-x,-y,-z
1/2+x,y,-z
1/2-x,y,z
x,-y,z
loop_
_atom_site_type_symbol
_atom_site_label
_atom_site_fract_x
_atom_site_fract_y
_atom_site_fract_z
Si Si1 0.951267 0.671517 0.018666
Si Si2 0.644545 0.332164 0.659588
Si Si3 0.419908 0.670084 0.184992
Si Si4 0.926918 0.164227 0.549451
Si Si5 0.076199 0.673281 0.776009
Si Si6 0.505989 0.831442 0.698787
Si Si7 0.626196 0.166403 0.372120
Si Si8 0.200582 0.173203 0.480934
O O1 0.957934 0.500000 0.037573
O O2 0.929041 0.736609 0.115470
O O3 0.918922 0.703225 0.929049
O O4 0.000000 0.740824 0.000000
O O5 0.657326 0.500000 0.641942
O O6 0.629396 0.304619 0.770732
O O7 0.601827 0.291548 0.597274
O O8 0.686130 0.237127 0.623240
O O9 0.434703 0.500000 0.202964
O O10 0.454266 0.781918 0.232017
O O11 0.977218 0.181867 0.587356
O O12 0.919655 0.176376 0.434441
O O13 0.909900 0.000000 0.580520
O O14 0.080814 0.500000 0.773679
O O15 0.119873 0.739942 0.725090
O O16 0.034385 0.722956 0.713996
O O17 0.492811 0.000000 0.722716
O O18 0.667385 0.227915 0.435017
O O19 0.635913 0.000000 0.340933
O O20 0.250000 0.226673 0.505472
O O21 0.198071 0.000000 0.471636
#
# Coordination Sequence:
#
# PCOD8206421 Si02
#       8
#     8   8   8   8   8   8   8   8
#     4   9  16  29  47  62  83 122 166 199 228 268
#     4   9  16  25  44  73  98 116 142 187 230 263
#     4   9  16  29  46  64  89 122 157 191 231 274
#     4   8  16  30  45  59  84 124 158 182 220 276
#     4  11  21  31  44  62  87 121 160 197 233 270
#     4  10  18  28  43  63  86 117 158 198 232 263
#     4   9  18  33  48  64  89 116 148 188 224 265
#     4   9  18  34  55  74  94 123 150 170 211 283
#
# _framework density 16.67503
#
# number of rings (size 3 to 8) (size 9 to 14) (size 15 to 20)
#    0.000    2.750    1.250    1.875    0.000    3.750 
#    0.000    4.375    0.000    0.000    0.000    0.875 
#    0.000    5.000    0.000    0.000    0.000    0.000 
#
# Total GULP energy -792885.428615 kJ/mol
# GULP energy per Si atom -12388.834822 kJ/mol
# Density = 1.663708 g / cm^3
# Si number density = 16.675030 Si / 1000 Ang^3
#
#
#
# Elastic Constant Matrix: (Units=GPa)
#
#
# Indices 1 2 3 4 5 6 
#
# 1 63.2244 20.3595 50.7115 0.0000 0.0000 0.0000
# 2 20.3595 39.0757 32.0488 0.0000 0.0000 0.0000
# 3 50.7115 32.0488 115.7999 0.0000 0.0000 0.0000
# 4 0.0000 0.0000 0.0000 18.2332 0.0000 0.0000
# 5 0.0000 0.0000 0.0000 0.0000 18.6887 0.0000
# 6 0.0000 0.0000 0.0000 0.0000 0.0000 19.3454
#
#
#
# Elastic Compliance Matrix: (Units=1/GPa)
#
#
# Indices 1 2 3 4 5 6 
#
# 1 0.025194 -0.005275 -0.009573 0.000000 0.000000 0.000000
# 2 -0.005275 0.034211 -0.007158 0.000000 0.000000 0.000000
# 3 -0.009573 -0.007158 0.014809 0.000000 0.000000 0.000000
# 4 0.000000 0.000000 0.000000 0.054845 0.000000 0.000000
# 5 0.000000 0.000000 0.000000 0.000000 0.053508 0.000000
# 6 0.000000 0.000000 0.000000 0.000000 0.000000 0.051692
#
#
# Mechanical properties :
#
#
# Convention : Reuss Voigt Hill
#
# Bulk Modulus (GPa) = 33.11155 47.14885 40.13020
# Shear Modulus (GPa) = 17.34079 18.91882 18.12980
#
# Velocity S-wave (km/s) = 3.22829 3.37198 3.30091
# Velocity P-wave (km/s) = 5.81342 6.59521 6.21662
#
# Compressibility (1/GPa) = 0.03020095
#
# Stress axis : x y z
#
# Youngs Moduli (GPa) = 39.69240 29.23072 67.52703
#
# Poissons Ratio (x) = 0.15420 0.64644
# Poissons Ratio (y) = 0.20938 0.48336
# Poissons Ratio (z) = 0.37998 0.20923
#
# Static dielectric constant tensor:
#      x y z
#    x 3.022470 0.000000 0.000000 
#    y 0.000000 3.065480 0.000000 
#    z 0.000000 0.000000 3.312650 
# 
# 
# High freq. dielectric constant tensor:
#      x y z
#    x 1.601330 0.000000 0.000000 
#    y 0.000000 1.635320 0.000000 
#    z 0.000000 0.000000 1.634430 
# 
# From -- ./inp_files/26660.got.cif
#   From: 2010.03.12/outbox.cif.g09.slc.cpg/sg51_14_cif.got.tgz:26660.got - 2010.04.16 13:43:02.
