data_PCOD8206732
_publ_section_title
;
Structure prediction by ZEFSAII (Michael W. Deem and Ramdas Pophale) SiO2 
 PCOD8206732
Probable space group: P M M A
;
_chemical_formula_sum "Si O2"
_cell_formula_units_Z 56
_cell_length_a 18.836771
_cell_length_b 9.548524
_cell_length_c 18.290469
_cell_angle_alpha 90.000000
_cell_angle_beta 90.000000
_cell_angle_gamma 90.000000
_cell_volume 3289.785210
_symmetry_space_group_name_H-M "P M M A"
_symmetry_group_IT_number 51
_symmetry_cell_setting 'orthorhombic'
loop_
_space_group_symop_operation_xyz
x,y,z
1/2-x,-y,z
1/2+x,-y,-z
-x,y,-z
-x,-y,-z
1/2+x,y,-z
1/2-x,y,z
x,-y,z
loop_
_atom_site_type_symbol
_atom_site_label
_atom_site_fract_x
_atom_site_fract_y
_atom_site_fract_z
Si Si1 0.035214 0.834820 0.202814
Si Si2 0.666650 0.844415 0.559794
Si Si3 0.969266 0.662100 0.080295
Si Si4 0.326696 0.835354 0.280804
Si Si5 0.428764 0.662327 0.708184
Si Si6 0.670939 0.662951 0.160224
Si Si7 0.572949 0.662539 0.462488
O O1 0.117483 0.800596 0.217885
O O2 0.019593 0.762027 0.126497
O O3 0.991253 0.764742 0.267693
O O4 0.019053 0.000000 0.199455
O O5 0.750000 0.851798 0.549196
O O6 0.648432 0.778807 0.639747
O O7 0.637305 0.743253 0.498389
O O8 0.633563 0.000000 0.550607
O O9 0.977688 0.500000 0.104163
O O10 0.886798 0.708291 0.097011
O O11 0.000000 0.685347 0.000000
O O12 0.250000 0.771486 0.257904
O O13 0.318660 0.000000 0.292067
O O14 0.450233 0.500000 0.720626
O O15 0.359904 0.698510 0.758679
O O16 0.418466 0.694585 0.623290
O O17 0.750000 0.734021 0.150120
O O18 0.683034 0.500000 0.152754
O O19 0.500000 0.716029 0.500000
O O20 0.582352 0.500000 0.478928
#
# Coordination Sequence:
#
# PCOD8206732 Si02
#       7
#     8   8   8   8   8   8   8
#     4  10  18  29  50  74  92 116 153 194 230 268
#     4   9  18  32  48  65  88 122 162 200 239 285
#     4   9  18  33  51  70  96 127 151 178 226 282
#     4   8  15  29  47  66  90 122 158 192 230 279
#     4   9  18  31  46  65  92 125 157 192 236 285
#     4   8  14  27  48  69  86 113 156 192 216 260
#     4  10  20  31  44  66  95 125 159 202 249 292
#
# _framework density 17.022386999999998
#
# number of rings (size 3 to 8) (size 9 to 14) (size 15 to 20)
#    0.000    3.000    0.000    3.000    0.000    2.000 
#    0.000    2.857    0.000   11.143    0.000    0.000 
#    0.000    0.000    0.000    0.000    0.000    0.000 
#
# Total GULP energy -693759.603944 kJ/mol
# GULP energy per Si atom -12388.564356 kJ/mol
# Density = 1.698364 g / cm^3
# Si number density = 17.022387 Si / 1000 Ang^3
#
#
#
# Elastic Constant Matrix: (Units=GPa)
#
#
# Indices 1 2 3 4 5 6 
#
# 1 112.0107 39.1533 77.6227 0.0000 0.0000 0.0000
# 2 39.1533 53.6792 38.8913 0.0000 0.0000 0.0000
# 3 77.6227 38.8913 110.8628 0.0000 0.0000 0.0000
# 4 0.0000 0.0000 0.0000 21.5548 0.0000 0.0000
# 5 0.0000 0.0000 0.0000 0.0000 21.5717 0.0000
# 6 0.0000 0.0000 0.0000 0.0000 0.0000 21.6979
#
#
#
# Elastic Compliance Matrix: (Units=1/GPa)
#
#
# Indices 1 2 3 4 5 6 
#
# 1 0.018480 -0.005504 -0.011009 0.000000 0.000000 0.000000
# 2 -0.005504 0.026617 -0.005484 0.000000 0.000000 0.000000
# 3 -0.011009 -0.005484 0.018652 0.000000 0.000000 0.000000
# 4 0.000000 0.000000 0.000000 0.046393 0.000000 0.000000
# 5 0.000000 0.000000 0.000000 0.000000 0.046357 0.000000
# 6 0.000000 0.000000 0.000000 0.000000 0.000000 0.046087
#
#
# Mechanical properties :
#
#
# Convention : Reuss Voigt Hill
#
# Bulk Modulus (GPa) = 50.61589 65.32080 57.96834
# Shear Modulus (GPa) = 19.75001 21.02393 20.38697
#
# Velocity S-wave (km/s) = 3.40992 3.51818 3.46447
# Velocity P-wave (km/s) = 6.73074 7.41351 7.08036
#
# Compressibility (1/GPa) = 0.01975664
#
# Stress axis : x y z
#
# Youngs Moduli (GPa) = 54.11113 37.57064 53.61377
#
# Poissons Ratio (x) = 0.20677 0.59022
# Poissons Ratio (y) = 0.29780 0.29401
# Poissons Ratio (z) = 0.59570 0.20603
#
# Static dielectric constant tensor:
#      x y z
#    x 3.514650 0.000000 0.000000 
#    y 0.000000 2.980810 0.000000 
#    z 0.000000 0.000000 3.217890 
# 
# 
# High freq. dielectric constant tensor:
#      x y z
#    x 1.658420 0.000000 0.000000 
#    y 0.000000 1.632050 0.000000 
#    z 0.000000 0.000000 1.650980 
# 
# From -- ./inp_files/30361.got.cif
#   From: 2010.03.12/outbox.cif.g09.slc.cpg/sg51_16_cif.got.tgz:30361.got - 2010.04.16 13:43:02.
