data_PCOD8206858
_publ_section_title
;
Structure prediction by ZEFSAII (Michael W. Deem and Ramdas Pophale) SiO2 
 PCOD8206858
Probable space group: P M M A
;
_chemical_formula_sum "Si O2"
_cell_formula_units_Z 64
_cell_length_a 19.796406
_cell_length_b 9.144594
_cell_length_c 19.700866
_cell_angle_alpha 90.000000
_cell_angle_beta 90.000000
_cell_angle_gamma 90.000000
_cell_volume 3566.449654
_symmetry_space_group_name_H-M "P M M A"
_symmetry_group_IT_number 51
_symmetry_cell_setting 'orthorhombic'
loop_
_space_group_symop_operation_xyz
x,y,z
1/2-x,-y,z
1/2+x,-y,-z
-x,y,-z
-x,-y,-z
1/2+x,y,-z
1/2-x,y,z
x,-y,z
loop_
_atom_site_type_symbol
_atom_site_label
_atom_site_fract_x
_atom_site_fract_y
_atom_site_fract_z
Si Si1 0.824030 0.173045 0.389810
Si Si2 0.576636 0.335005 0.024615
Si Si3 0.113872 0.168759 0.102007
Si Si4 0.915715 0.326304 0.653863
Si Si5 0.037359 0.168288 0.849899
Si Si6 0.328097 0.169506 0.455971
Si Si7 0.326246 0.666013 0.220541
Si Si8 0.950697 0.173681 0.304810
O O1 0.750000 0.236578 0.369056
O O2 0.841494 0.218437 0.466660
O O3 0.881361 0.230707 0.338748
O O4 0.820486 0.000000 0.385953
O O5 0.603477 0.500000 0.029400
O O6 0.583334 0.261683 0.098635
O O7 0.500000 0.328530 0.000000
O O8 0.621851 0.247423 0.970570
O O9 0.167736 0.235328 0.153786
O O10 0.040827 0.195254 0.134567
O O11 0.129910 0.000000 0.090466
O O12 0.922589 0.500000 0.649918
O O13 0.876147 0.270820 0.588362
O O14 0.874882 0.275299 0.720466
O O15 0.989005 0.253407 0.656030
O O16 0.051952 0.221493 0.773716
O O17 0.057140 0.000000 0.860155
O O18 0.250000 0.196199 0.436489
O O19 0.347135 0.000000 0.444635
O O20 0.250000 0.676632 0.247879
O O21 0.345403 0.500000 0.201029
O O22 0.960982 0.000000 0.311953
#
# Coordination Sequence:
#
# PCOD8206858 Si02
#       8
#     8   8   8   8   8   8   8   8
#     4   8  16  33  57  81 101 128 170 216 261 313
#     4   9  17  28  46  70  96 130 169 203 244 299
#     4  10  18  30  48  71  99 127 165 214 256 298
#     4  11  22  34  50  74 107 140 174 214 259 312
#     4   9  17  29  46  72 102 130 162 207 259 301
#     4   9  18  34  55  76 100 134 177 219 257 303
#     4  10  21  35  49  67  97 138 177 211 254 309
#     4  10  19  33  54  78 106 136 170 215 266 314
#
# _framework density 17.945018000000001
#
# number of rings (size 3 to 8) (size 9 to 14) (size 15 to 20)
#    0.000    2.500    1.250    2.250    0.000    4.500 
#    0.000    3.125    0.000    1.875    0.000    1.750 
#    0.000    0.000    0.000    0.000    0.000    0.000 
#
# Total GULP energy -793617.442496 kJ/mol
# GULP energy per Si atom -12400.272539 kJ/mol
# Density = 1.790417 g / cm^3
# Si number density = 17.945018 Si / 1000 Ang^3
#
#
#
# Elastic Constant Matrix: (Units=GPa)
#
#
# Indices 1 2 3 4 5 6 
#
# 1 86.6718 36.3927 57.3146 0.0000 0.0000 0.0000
# 2 36.3927 71.2051 46.2137 0.0000 0.0000 0.0000
# 3 57.3146 46.2137 118.2654 0.0000 0.0000 0.0000
# 4 0.0000 0.0000 0.0000 23.6757 0.0000 0.0000
# 5 0.0000 0.0000 0.0000 0.0000 21.9986 0.0000
# 6 0.0000 0.0000 0.0000 0.0000 0.0000 17.4414
#
#
#
# Elastic Compliance Matrix: (Units=1/GPa)
#
#
# Indices 1 2 3 4 5 6 
#
# 1 0.018113 -0.004770 -0.006914 0.000000 0.000000 0.000000
# 2 -0.004770 0.020072 -0.005532 0.000000 0.000000 0.000000
# 3 -0.006914 -0.005532 0.013968 0.000000 0.000000 0.000000
# 4 0.000000 0.000000 0.000000 0.042237 0.000000 0.000000
# 5 0.000000 0.000000 0.000000 0.000000 0.045457 0.000000
# 6 0.000000 0.000000 0.000000 0.000000 0.000000 0.057335
#
#
# Mechanical properties :
#
#
# Convention : Reuss Voigt Hill
#
# Bulk Modulus (GPa) = 56.42955 61.77602 59.10279
# Shear Modulus (GPa) = 21.05078 21.70457 21.37768
#
# Velocity S-wave (km/s) = 3.42873 3.48157 3.45525
# Velocity P-wave (km/s) = 6.86942 7.11770 6.99466
#
# Compressibility (1/GPa) = 0.01772121
#
# Stress axis : x y z
#
# Youngs Moduli (GPa) = 55.20967 49.82038 71.59296
#
# Poissons Ratio (x) = 0.23765 0.49499
# Poissons Ratio (y) = 0.26335 0.39603
# Poissons Ratio (z) = 0.38172 0.27559
#
# Static dielectric constant tensor:
#      x y z
#    x 3.271160 0.000000 0.000000 
#    y 0.000000 3.191730 0.000000 
#    z 0.000000 0.000000 3.415140 
# 
# 
# High freq. dielectric constant tensor:
#      x y z
#    x 1.669190 0.000000 0.000000 
#    y 0.000000 1.683780 0.000000 
#    z 0.000000 0.000000 1.699180 
# 
# From -- ./inp_files/30546.got.cif
#   From: 2010.03.12/outbox.cif.g09.slc.cpg/sg51_16_cif.got.tgz:30546.got - 2010.04.16 13:43:02.
