data_PCOD8206332
_publ_section_title
;
Structure prediction by ZEFSAII (Michael W. Deem and Ramdas Pophale) SiO2 
 PCOD8206332
Probable space group: P M M A
;
_chemical_formula_sum "Si O2"
_cell_formula_units_Z 64
_cell_length_a 8.755645
_cell_length_b 29.623557
_cell_length_c 13.654102
_cell_angle_alpha 90.000000
_cell_angle_beta 90.000000
_cell_angle_gamma 90.000000
_cell_volume 3541.510160
_symmetry_space_group_name_H-M "P M M A"
_symmetry_group_IT_number 51
_symmetry_cell_setting 'orthorhombic'
loop_
_space_group_symop_operation_xyz
x,y,z
1/2-x,-y,z
1/2+x,-y,-z
-x,y,-z
-x,-y,-z
1/2+x,y,-z
1/2-x,y,z
x,-y,z
loop_
_atom_site_type_symbol
_atom_site_label
_atom_site_fract_x
_atom_site_fract_y
_atom_site_fract_z
Si Si1 0.930991 0.354447 0.607832
Si Si2 0.573431 0.183258 0.397499
Si Si3 0.418115 0.948608 0.591901
Si Si4 0.931459 0.728893 0.285903
Si Si5 0.428161 0.949945 0.205443
Si Si6 0.428452 0.452385 0.394480
Si Si7 0.073073 0.859880 0.804831
Si Si8 0.430495 0.226280 0.104133
O O1 0.750000 0.345938 0.602894
O O2 0.972676 0.404200 0.654299
O O3 0.000000 0.349034 0.500000
O O4 0.009677 0.319122 0.678939
O O5 0.500000 0.168751 0.500000
O O6 0.750000 0.187950 0.418483
O O7 0.511358 0.231774 0.359946
O O8 0.540363 0.145761 0.312586
O O9 0.500000 0.923792 0.500000
O O10 0.250000 0.926215 0.615249
O O11 0.535223 0.946440 0.680621
O O12 0.385781 0.000000 0.562757
O O13 0.750000 0.729451 0.276712
O O14 0.002674 0.737556 0.179858
O O15 0.250000 0.941804 0.187860
O O16 0.524440 0.909579 0.155704
O O17 0.476383 0.000000 0.165637
O O18 0.500000 0.453483 0.500000
O O19 0.250000 0.451998 0.410871
O O20 0.475590 0.500000 0.338751
O O21 0.250000 0.851197 0.827810
O O22 0.976036 0.824349 0.865909
O O23 0.250000 0.230206 0.100385
O O24 0.500000 0.238838 0.000000
#
# Coordination Sequence:
#
# PCOD8206332 Si02
#       8
#     8   8   8   8   8   8   8   8
#     4  10  18  27  42  67 100 141 184 224 267 309
#     4   9  19  32  47  67  94 128 163 199 237 282
#     4   9  16  26  40  58  82 115 154 193 230 267
#     4  10  20  34  50  73 103 132 167 209 252 301
#     4  10  20  33  49  70  95 123 156 194 235 278
#     4   8  14  24  37  55  85 129 181 230 269 305
#     4  10  21  37  54  76 103 131 165 199 234 282
#     4  11  22  39  62  84 104 127 156 194 243 296
#
# _framework density 18.071387999999999
#
# number of rings (size 3 to 8) (size 9 to 14) (size 15 to 20)
#    0.000    2.375    0.000    4.125    0.000    7.250 
#    0.000    1.250    0.000    0.375    0.000    0.000 
#    0.000    0.500    0.000    1.375    0.000    2.250 
#
# Total GULP energy -792945.072000 kJ/mol
# GULP energy per Si atom -12389.766750 kJ/mol
# Density = 1.803026 g / cm^3
# Si number density = 18.071388 Si / 1000 Ang^3
#
#
#
# Elastic Constant Matrix: (Units=GPa)
#
#
# Indices 1 2 3 4 5 6 
#
# 1 84.0962 40.9703 28.7990 0.0000 0.0000 0.0000
# 2 40.9703 147.5971 33.7951 0.0000 0.0000 0.0000
# 3 28.7990 33.7951 66.9652 0.0000 0.0000 0.0000
# 4 0.0000 0.0000 0.0000 9.2431 0.0000 0.0000
# 5 0.0000 0.0000 0.0000 0.0000 23.8323 0.0000
# 6 0.0000 0.0000 0.0000 0.0000 0.0000 11.4187
#
#
#
# Elastic Compliance Matrix: (Units=1/GPa)
#
#
# Indices 1 2 3 4 5 6 
#
# 1 0.015070 -0.003052 -0.004941 0.000000 0.000000 0.000000
# 2 -0.003052 0.008278 -0.002865 0.000000 0.000000 0.000000
# 3 -0.004941 -0.002865 0.018504 0.000000 0.000000 0.000000
# 4 0.000000 0.000000 0.000000 0.108188 0.000000 0.000000
# 5 0.000000 0.000000 0.000000 0.000000 0.041960 0.000000
# 6 0.000000 0.000000 0.000000 0.000000 0.000000 0.087576
#
#
# Mechanical properties :
#
#
# Convention : Reuss Voigt Hill
#
# Bulk Modulus (GPa) = 49.66143 56.19859 52.93001
# Shear Modulus (GPa) = 16.23353 21.90510 19.06932
#
# Velocity S-wave (km/s) = 3.00042 3.48536 3.25194
# Velocity P-wave (km/s) = 6.28838 6.88205 6.59190
#
# Compressibility (1/GPa) = 0.02013635
#
# Stress axis : x y z
#
# Youngs Moduli (GPa) = 66.35723 120.79596 54.04230
#
# Poissons Ratio (x) = 0.36865 0.26701
# Poissons Ratio (y) = 0.20251 0.15485
# Poissons Ratio (z) = 0.32786 0.34613
#
# Static dielectric constant tensor:
#      x y z
#    x 3.476760 0.000000 0.000000 
#    y 0.000000 3.909280 0.000000 
#    z 0.000000 0.000000 3.008280 
# 
# 
# High freq. dielectric constant tensor:
#      x y z
#    x 1.712310 0.000000 0.000000 
#    y 0.000000 1.706610 0.000000 
#    z 0.000000 0.000000 1.648980 
# 
# From -- ./inp_files/14808.got.cif
#   From: 2010.03.12/outbox.cif.g09.slc.cpg/sg51_8_cif.got.tgz:14808.got - 2010.04.16 13:43:02.
