data_PCOD8206428
_publ_section_title
;
Structure prediction by ZEFSAII (Michael W. Deem and Ramdas Pophale) SiO2 
 PCOD8206428
Probable space group: P M M A
;
_chemical_formula_sum "Si O2"
_cell_formula_units_Z 52
_cell_length_a 8.699128
_cell_length_b 18.503906
_cell_length_c 18.391289
_cell_angle_alpha 90.000000
_cell_angle_beta 90.000000
_cell_angle_gamma 90.000000
_cell_volume 2960.406190
_symmetry_space_group_name_H-M "P M M A"
_symmetry_group_IT_number 51
_symmetry_cell_setting 'orthorhombic'
loop_
_space_group_symop_operation_xyz
x,y,z
1/2-x,-y,z
1/2+x,-y,-z
-x,y,-z
-x,-y,-z
1/2+x,y,-z
1/2-x,y,z
x,-y,z
loop_
_atom_site_type_symbol
_atom_site_label
_atom_site_fract_x
_atom_site_fract_y
_atom_site_fract_z
Si Si1 0.065674 0.715802 0.422544
Si Si2 0.433006 0.580698 0.143192
Si Si3 0.068232 0.852677 0.654000
Si Si4 0.917078 0.360312 0.712857
Si Si5 0.568300 0.279483 0.076331
Si Si6 0.430543 0.000000 0.579480
Si Si7 0.419869 0.207869 0.209925
O O1 0.250000 0.717164 0.422716
O O2 0.002102 0.654298 0.365240
O O3 0.000000 0.693066 0.500000
O O4 0.006038 0.794305 0.399969
O O5 0.250000 0.595435 0.143801
O O6 0.471890 0.500000 0.115484
O O7 0.499859 0.589387 0.226515
O O8 0.511760 0.638581 0.091018
O O9 0.250000 0.841958 0.652834
O O10 0.014992 0.930147 0.624298
O O11 0.009922 0.847018 0.737191
O O12 0.750000 0.394471 0.697391
O O13 0.900262 0.282268 0.748506
O O14 0.750000 0.279941 0.073143
O O15 0.513642 0.221432 0.135923
O O16 0.500000 0.253517 0.000000
O O17 0.500000 0.000000 0.500000
O O18 0.250000 0.000000 0.569897
O O19 0.250000 0.176790 0.191535
#
# Coordination Sequence:
#
# PCOD8206428 Si02
#       7
#     8   8   8   8   8   4   8
#     4  10  18  28  43  64  89 118 155 202 249 290
#     4   9  17  31  50  69  91 123 161 198 238 288
#     4  10  19  32  48  69  96 129 165 199 238 284
#     4   7  13  26  43  62  84 111 147 191 236 280
#     4  11  21  33  50  73 101 129 157 195 239 283
#     4  10  22  34  46  68 103 140 173 206 240 282
#     4   9  17  32  51  71  94 122 158 198 238 283
#
# _framework density 17.565158
#
# number of rings (size 3 to 8) (size 9 to 14) (size 15 to 20)
#    0.000    2.615    0.000    5.077    0.000    3.077 
#    0.000    0.769    0.000    0.462    0.000    0.538 
#    0.000    0.000    0.000    0.000    0.000    0.462 
#
# Total GULP energy -644293.452288 kJ/mol
# GULP energy per Si atom -12390.258698 kJ/mol
# Density = 1.752518 g / cm^3
# Si number density = 17.565158 Si / 1000 Ang^3
#
#
#
# Elastic Constant Matrix: (Units=GPa)
#
#
# Indices 1 2 3 4 5 6 
#
# 1 86.5671 18.8058 42.1618 0.0000 0.0000 0.0000
# 2 18.8058 42.0897 31.3453 0.0000 0.0000 0.0000
# 3 42.1618 31.3453 138.7359 0.0000 0.0000 0.0000
# 4 0.0000 0.0000 0.0000 21.4253 0.0000 0.0000
# 5 0.0000 0.0000 0.0000 0.0000 30.7593 0.0000
# 6 0.0000 0.0000 0.0000 0.0000 0.0000 17.0652
#
#
#
# Elastic Compliance Matrix: (Units=1/GPa)
#
#
# Indices 1 2 3 4 5 6 
#
# 1 0.014026 -0.003718 -0.003423 0.000000 0.000000 0.000000
# 2 -0.003718 0.029551 -0.005547 0.000000 0.000000 0.000000
# 3 -0.003423 -0.005547 0.009501 0.000000 0.000000 0.000000
# 4 0.000000 0.000000 0.000000 0.046674 0.000000 0.000000
# 5 0.000000 0.000000 0.000000 0.000000 0.032511 0.000000
# 6 0.000000 0.000000 0.000000 0.000000 0.000000 0.058599
#
#
# Mechanical properties :
#
#
# Convention : Reuss Voigt Hill
#
# Bulk Modulus (GPa) = 36.09625 50.22429 43.16027
# Shear Modulus (GPa) = 22.17585 25.52195 23.84890
#
# Velocity S-wave (km/s) = 3.55701 3.81594 3.68875
# Velocity P-wave (km/s) = 6.12081 6.93328 6.53968
#
# Compressibility (1/GPa) = 0.02770371
#
# Stress axis : x y z
#
# Youngs Moduli (GPa) = 71.29418 33.84011 105.24958
#
# Poissons Ratio (x) = 0.12582 0.36022
# Poissons Ratio (y) = 0.26508 0.58378
# Poissons Ratio (z) = 0.24401 0.18770
#
# Static dielectric constant tensor:
#      x y z
#    x 3.232940 0.000000 0.000000 
#    y 0.000000 3.109990 0.000000 
#    z 0.000000 0.000000 3.572800 
# 
# 
# High freq. dielectric constant tensor:
#      x y z
#    x 1.672780 0.000000 0.000000 
#    y 0.000000 1.637960 0.000000 
#    z 0.000000 0.000000 1.687480 
# 
# From -- ./inp_files/27908.got.cif
#   From: 2010.03.12/outbox.cif.g09.slc.cpg/sg51_14_cif.got.tgz:27908.got - 2010.04.16 13:43:02.
