data_PCOD8206010
_publ_section_title
;
Structure prediction by ZEFSAII (Michael W. Deem and Ramdas Pophale) SiO2 
 PCOD8206010
Probable space group: P M M A
;
_chemical_formula_sum "Si O2"
_cell_formula_units_Z 56
_cell_length_a 22.618506
_cell_length_b 9.286051
_cell_length_c 17.696344
_cell_angle_alpha 90.000000
_cell_angle_beta 90.000000
_cell_angle_gamma 90.000000
_cell_volume 3716.879931
_symmetry_space_group_name_H-M "P M M A"
_symmetry_group_IT_number 51
_symmetry_cell_setting 'orthorhombic'
loop_
_space_group_symop_operation_xyz
x,y,z
1/2-x,-y,z
1/2+x,-y,-z
-x,y,-z
-x,-y,-z
1/2+x,y,-z
1/2-x,y,z
x,-y,z
loop_
_atom_site_type_symbol
_atom_site_label
_atom_site_fract_x
_atom_site_fract_y
_atom_site_fract_z
Si Si1 0.066159 0.659452 0.468288
Si Si2 0.021730 0.833891 0.170076
Si Si3 0.524467 0.166095 0.661552
Si Si4 0.593286 0.670381 0.121161
Si Si5 0.684464 0.670241 0.246479
Si Si6 0.905383 0.330198 0.371379
Si Si7 0.569031 0.840516 0.981210
O O1 0.082662 0.500000 0.439211
O O2 0.071920 0.767746 0.397609
O O3 0.107563 0.703501 0.539717
O O4 0.000000 0.662507 0.500000
O O5 0.049329 0.813281 0.253444
O O6 0.072335 0.794609 0.107626
O O7 0.964722 0.733939 0.160473
O O8 0.001604 0.000000 0.157652
O O9 0.461975 0.244795 0.657717
O O10 0.515337 0.000000 0.640690
O O11 0.586109 0.500000 0.116783
O O12 0.649278 0.717969 0.171491
O O13 0.603342 0.730858 0.036228
O O14 0.750000 0.740050 0.245272
O O15 0.689684 0.500000 0.248074
O O16 0.650535 0.721666 0.322218
O O17 0.918545 0.500000 0.360346
O O18 0.595774 0.000000 0.993500
O O19 0.500000 0.838262 0.000000
#
# Coordination Sequence:
#
# PCOD8206010 Si02
#       7
#     8   8   8   8   8   8   8
#     4   8  15  25  37  53  75 102 130 157 190 232
#     4   9  17  27  38  54  78 108 132 152 188 237
#     4  10  17  24  38  58  79 102 131 160 189 229
#     4  10  17  25  40  58  75  98 132 168 196 223
#     4   9  17  28  42  59  78 103 136 169 198 230
#     4   9  16  28  41  53  74 105 134 160 194 231
#     4   8  15  27  39  51  74 105 130 153 190 236
#
# _framework density 15.0664
#
# number of rings (size 3 to 8) (size 9 to 14) (size 15 to 20)
#    0.000    3.000    1.429    2.571    0.000    5.714 
#    0.000    0.000    0.000    3.857    0.000    0.000 
#    0.000    1.143    0.000   11.714    0.000    1.429 
#
# Total GULP energy -693871.366834 kJ/mol
# GULP energy per Si atom -12390.560122 kJ/mol
# Density = 1.503211 g / cm^3
# Si number density = 15.066400 Si / 1000 Ang^3
#
#
#
# Elastic Constant Matrix: (Units=GPa)
#
#
# Indices 1 2 3 4 5 6 
#
# 1 50.0026 23.3303 47.4416 0.0000 0.0000 0.0000
# 2 23.3303 64.5128 55.6760 0.0000 0.0000 0.0000
# 3 47.4416 55.6760 154.6613 0.0000 0.0000 0.0000
# 4 0.0000 0.0000 0.0000 26.7362 0.0000 0.0000
# 5 0.0000 0.0000 0.0000 0.0000 16.2350 0.0000
# 6 0.0000 0.0000 0.0000 0.0000 0.0000 4.3019
#
#
#
# Elastic Compliance Matrix: (Units=1/GPa)
#
#
# Indices 1 2 3 4 5 6 
#
# 1 0.028926 -0.004067 -0.007409 0.000000 0.000000 0.000000
# 2 -0.004067 0.023059 -0.007053 0.000000 0.000000 0.000000
# 3 -0.007409 -0.007053 0.011278 0.000000 0.000000 0.000000
# 4 0.000000 0.000000 0.000000 0.037403 0.000000 0.000000
# 5 0.000000 0.000000 0.000000 0.000000 0.061595 0.000000
# 6 0.000000 0.000000 0.000000 0.000000 0.000000 0.232454
#
#
# Mechanical properties :
#
#
# Convention : Reuss Voigt Hill
#
# Bulk Modulus (GPa) = 38.16189 58.00804 48.08496
# Shear Modulus (GPa) = 11.35057 18.96987 15.16022
#
# Velocity S-wave (km/s) = 2.74774 3.55221 3.17555
# Velocity P-wave (km/s) = 5.95406 7.44375 6.74019
#
# Compressibility (1/GPa) = 0.02620415
#
# Stress axis : x y z
#
# Youngs Moduli (GPa) = 34.57121 43.36755 88.67195
#
# Poissons Ratio (x) = 0.17636 0.65696
# Poissons Ratio (y) = 0.14059 0.62544
# Poissons Ratio (z) = 0.25614 0.30589
#
# Static dielectric constant tensor:
#      x y z
#    x 2.579190 0.000000 0.000000 
#    y 0.000000 2.879450 0.000000 
#    z 0.000000 0.000000 3.535050 
# 
# 
# High freq. dielectric constant tensor:
#      x y z
#    x 1.502040 0.000000 0.000000 
#    y 0.000000 1.572130 0.000000 
#    z 0.000000 0.000000 1.598350 
# 
# From -- ./inp_files/30770.got.cif
#   From: 2010.03.12/outbox.cif.g09.slc.cpg/sg51_16_cif.got.tgz:30770.got - 2010.04.16 13:43:02.
