data_PCOD8206879
_publ_section_title
;
Structure prediction by ZEFSAII (Michael W. Deem and Ramdas Pophale) SiO2 
 PCOD8206879
Probable space group: P M M A
;
_chemical_formula_sum "Si O2"
_cell_formula_units_Z 64
_cell_length_a 8.965454
_cell_length_b 19.961329
_cell_length_c 19.818309
_cell_angle_alpha 90.000000
_cell_angle_beta 90.000000
_cell_angle_gamma 90.000000
_cell_volume 3546.731685
_symmetry_space_group_name_H-M "P M M A"
_symmetry_group_IT_number 51
_symmetry_cell_setting 'orthorhombic'
loop_
_space_group_symop_operation_xyz
x,y,z
1/2-x,-y,z
1/2+x,-y,-z
-x,y,-z
-x,-y,-z
1/2+x,y,-z
1/2-x,y,z
x,-y,z
loop_
_atom_site_type_symbol
_atom_site_label
_atom_site_fract_x
_atom_site_fract_y
_atom_site_fract_z
Si Si1 0.419288 0.880309 0.750688
Si Si2 0.423580 0.212401 0.432016
Si Si3 0.574751 0.207771 0.933740
Si Si4 0.575009 0.575758 0.431258
Si Si5 0.580465 0.074481 0.102352
Si Si6 0.418724 0.073037 0.374412
Si Si7 0.926407 0.689978 0.330449
Si Si8 0.925286 0.747990 0.788449
O O1 0.250000 0.854151 0.740898
O O2 0.432605 0.925456 0.816963
O O3 0.467922 0.925131 0.687935
O O4 0.530685 0.817790 0.754444
O O5 0.500000 0.239144 0.500000
O O6 0.250000 0.231546 0.433475
O O7 0.451428 0.132526 0.427123
O O8 0.501863 0.246980 0.368552
O O9 0.750000 0.210552 0.941910
O O10 0.526744 0.129976 0.929787
O O11 0.524175 0.249646 0.867281
O O12 0.500000 0.240975 0.000000
O O13 0.500000 0.602186 0.500000
O O14 0.750000 0.579941 0.443036
O O15 0.523010 0.500000 0.415022
O O16 0.525572 0.621717 0.368350
O O17 0.750000 0.090979 0.080319
O O18 0.533433 0.000000 0.077520
O O19 0.250000 0.080892 0.346894
O O20 0.439832 0.000000 0.409634
O O21 0.750000 0.698226 0.328404
O O22 0.990624 0.689227 0.253587
O O23 0.750000 0.736557 0.782157
#
# Coordination Sequence:
#
# PCOD8206879 Si02
#       8
#     8   8   8   8   8   8   8   8
#     4  10  18  30  49  71  93 119 158 206 256 309
#     4  11  23  37  52  70  97 129 167 215 261 310
#     4  10  21  35  51  70  95 128 164 204 256 310
#     4   9  19  35  54  80 115 151 184 214 248 294
#     4   9  18  31  46  66  92 121 156 200 250 308
#     4  10  21  35  49  65  89 123 161 207 265 319
#     4  11  21  34  56  82 106 137 175 213 253 297
#     4  10  20  34  52  75 102 131 165 208 255 303
#
# _framework density 18.044784
#
# number of rings (size 3 to 8) (size 9 to 14) (size 15 to 20)
#    0.000    2.000    1.250    2.625    0.000    6.000 
#    0.000    0.000    0.000    0.000    0.000    0.000 
#    0.000    0.500    0.000    1.125    0.000    1.750 
#
# Total GULP energy -793477.512107 kJ/mol
# GULP energy per Si atom -12398.086127 kJ/mol
# Density = 1.800371 g / cm^3
# Si number density = 18.044784 Si / 1000 Ang^3
#
#
#
# Elastic Constant Matrix: (Units=GPa)
#
#
# Indices 1 2 3 4 5 6 
#
# 1 73.7712 28.8536 50.5292 0.0000 0.0000 0.0000
# 2 28.8536 73.5832 42.7689 0.0000 0.0000 0.0000
# 3 50.5292 42.7689 120.6986 0.0000 0.0000 0.0000
# 4 0.0000 0.0000 0.0000 18.2996 0.0000 0.0000
# 5 0.0000 0.0000 0.0000 0.0000 31.2618 0.0000
# 6 0.0000 0.0000 0.0000 0.0000 0.0000 18.4087
#
#
#
# Elastic Compliance Matrix: (Units=1/GPa)
#
#
# Indices 1 2 3 4 5 6 
#
# 1 0.019776 -0.003706 -0.006966 0.000000 0.000000 0.000000
# 2 -0.003706 0.017809 -0.004759 0.000000 0.000000 0.000000
# 3 -0.006966 -0.004759 0.012888 0.000000 0.000000 0.000000
# 4 0.000000 0.000000 0.000000 0.054646 0.000000 0.000000
# 5 0.000000 0.000000 0.000000 0.000000 0.031988 0.000000
# 6 0.000000 0.000000 0.000000 0.000000 0.000000 0.054322
#
#
# Mechanical properties :
#
#
# Convention : Reuss Voigt Hill
#
# Bulk Modulus (GPa) = 50.99116 56.92849 53.95983
# Shear Modulus (GPa) = 21.85043 23.32078 22.58561
#
# Velocity S-wave (km/s) = 3.48357 3.59887 3.54169
# Velocity P-wave (km/s) = 6.67082 6.99186 6.83323
#
# Compressibility (1/GPa) = 0.01961124
#
# Stress axis : x y z
#
# Youngs Moduli (GPa) = 50.56596 56.14999 77.59312
#
# Poissons Ratio (x) = 0.20808 0.54051
# Poissons Ratio (y) = 0.18739 0.36929
# Poissons Ratio (z) = 0.35224 0.26723
#
# Static dielectric constant tensor:
#      x y z
#    x 3.352930 0.000000 0.000000 
#    y 0.000000 3.160590 0.000000 
#    z 0.000000 0.000000 3.461050 
# 
# 
# High freq. dielectric constant tensor:
#      x y z
#    x 1.707010 0.000000 0.000000 
#    y 0.000000 1.657480 0.000000 
#    z 0.000000 0.000000 1.696170 
# 
# From -- ./inp_files/32672.got.cif
#   From: 2010.03.12/outbox.cif.g09.slc.cpg/sg51_17_cif.got.tgz:32672.got - 2010.04.16 13:43:02.
