data_PCOD8206438
_publ_section_title
;
Structure prediction by ZEFSAII (Michael W. Deem and Ramdas Pophale) SiO2 
 PCOD8206438
Probable space group: P M M A
;
_chemical_formula_sum "Si O2"
_cell_formula_units_Z 56
_cell_length_a 9.332674
_cell_length_b 13.299133
_cell_length_c 30.410829
_cell_angle_alpha 90.000000
_cell_angle_beta 90.000000
_cell_angle_gamma 90.000000
_cell_volume 3774.484830
_symmetry_space_group_name_H-M "P M M A"
_symmetry_group_IT_number 51
_symmetry_cell_setting 'orthorhombic'
loop_
_space_group_symop_operation_xyz
x,y,z
1/2-x,-y,z
1/2+x,-y,-z
-x,y,-z
-x,-y,-z
1/2+x,y,-z
1/2-x,y,z
x,-y,z
loop_
_atom_site_type_symbol
_atom_site_label
_atom_site_fract_x
_atom_site_fract_y
_atom_site_fract_z
Si Si1 0.582791 0.710196 0.107917
Si Si2 0.416617 0.886093 0.956206
Si Si3 0.911971 0.619922 0.626148
Si Si4 0.589806 0.380537 0.291874
Si Si5 0.412896 0.619778 0.542104
Si Si6 0.906513 0.384443 0.961669
Si Si7 0.080727 0.612145 0.804282
O O1 0.750000 0.686745 0.101348
O O2 0.541799 0.817985 0.086380
O O3 0.491477 0.625020 0.083649
O O4 0.539102 0.696605 0.159204
O O5 0.250000 0.875752 0.967096
O O6 0.458047 0.000000 0.943283
O O7 0.500000 0.851799 0.000000
O O8 0.750000 0.661650 0.622623
O O9 0.910072 0.500000 0.626240
O O10 0.983982 0.662276 0.670794
O O11 0.005472 0.659973 0.585286
O O12 0.750000 0.336225 0.299205
O O13 0.597925 0.500000 0.295069
O O14 0.526215 0.350770 0.243697
O O15 0.500000 0.660431 0.500000
O O16 0.250000 0.661450 0.541345
O O17 0.409798 0.500000 0.541822
O O18 0.750000 0.332087 0.959350
O O19 0.884766 0.500000 0.973198
O O20 0.000000 0.331205 0.000000
O O21 0.250000 0.602201 0.800735
O O22 0.019359 0.500000 0.815831
#
# Coordination Sequence:
#
# PCOD8206438 Si02
#       7
#     8   8   8   8   8   8   8
#     4  10  18  28  44  61  76  96 120 146 176 210
#     4   9  18  31  45  61  79  97 118 145 177 212
#     4   9  15  21  29  41  56  75 101 132 166 204
#     4   8  13  22  34  45  58  78 104 132 161 196
#     4   9  15  21  28  38  53  73  98 131 172 214
#     4  10  20  31  41  55  76  99 120 142 168 201
#     4   8  14  24  38  55  72  90 114 142 171 206
#
# _framework density 14.836461999999999
#
# number of rings (size 3 to 8) (size 9 to 14) (size 15 to 20)
#    0.000    3.000    0.000    3.000    0.000    6.571 
#    0.000    0.714    0.000    2.571    0.000    0.000 
#    0.000    0.000    0.000    0.000    0.000    0.000 
#
# Total GULP energy -693866.925351 kJ/mol
# GULP energy per Si atom -12390.480810 kJ/mol
# Density = 1.480269 g / cm^3
# Si number density = 14.836462 Si / 1000 Ang^3
#
#
#
# Elastic Constant Matrix: (Units=GPa)
#
#
# Indices 1 2 3 4 5 6 
#
# 1 91.3515 15.5154 61.8370 0.0000 0.0000 0.0000
# 2 15.5154 32.8833 28.2016 0.0000 0.0000 0.0000
# 3 61.8370 28.2016 150.8430 0.0000 0.0000 0.0000
# 4 0.0000 0.0000 0.0000 6.9256 0.0000 0.0000
# 5 0.0000 0.0000 0.0000 0.0000 23.6173 0.0000
# 6 0.0000 0.0000 0.0000 0.0000 0.0000 7.1189
#
#
#
# Elastic Compliance Matrix: (Units=1/GPa)
#
#
# Indices 1 2 3 4 5 6 
#
# 1 0.015282 -0.002189 -0.005856 0.000000 0.000000 0.000000
# 2 -0.002189 0.036531 -0.005933 0.000000 0.000000 0.000000
# 3 -0.005856 -0.005933 0.010139 0.000000 0.000000 0.000000
# 4 0.000000 0.000000 0.000000 0.144391 0.000000 0.000000
# 5 0.000000 0.000000 0.000000 0.000000 0.042342 0.000000
# 6 0.000000 0.000000 0.000000 0.000000 0.000000 0.140472
#
#
# Mechanical properties :
#
#
# Convention : Reuss Voigt Hill
#
# Bulk Modulus (GPa) = 29.41300 54.02064 41.71682
# Shear Modulus (GPa) = 11.67015 18.83397 15.25206
#
# Velocity S-wave (km/s) = 2.80766 3.56678 3.20974
# Velocity P-wave (km/s) = 5.51166 7.31111 6.47421
#
# Compressibility (1/GPa) = 0.03399857
#
# Stress axis : x y z
#
# Youngs Moduli (GPa) = 65.43560 27.37383 98.62861
#
# Poissons Ratio (x) = 0.05991 0.57753
# Poissons Ratio (y) = 0.14322 0.58513
# Poissons Ratio (z) = 0.38317 0.16240
#
# Static dielectric constant tensor:
#      x y z
#    x 3.018620 0.000000 0.000000 
#    y 0.000000 2.374780 0.000000 
#    z 0.000000 0.000000 3.182890 
# 
# 
# High freq. dielectric constant tensor:
#      x y z
#    x 1.569000 0.000000 0.000000 
#    y 0.000000 1.489610 0.000000 
#    z 0.000000 0.000000 1.572910 
# 
# From -- ./inp_files/37453.got.cif
#   From: 2010.03.12/outbox.cif.g09.slc.cpg/sg51_19_cif.got.tgz:37453.got - 2010.04.16 13:43:02.
