data_PCOD8206713
_publ_section_title
;
Structure prediction by ZEFSAII (Michael W. Deem and Ramdas Pophale) SiO2 
 PCOD8206713
Probable space group: P M M A
;
_chemical_formula_sum "Si O2"
_cell_formula_units_Z 64
_cell_length_a 8.973255
_cell_length_b 14.382614
_cell_length_c 28.165696
_cell_angle_alpha 90.000000
_cell_angle_beta 90.000000
_cell_angle_gamma 90.000000
_cell_volume 3635.032701
_symmetry_space_group_name_H-M "P M M A"
_symmetry_group_IT_number 51
_symmetry_cell_setting 'orthorhombic'
loop_
_space_group_symop_operation_xyz
x,y,z
1/2-x,-y,z
1/2+x,-y,-z
-x,y,-z
-x,-y,-z
1/2+x,y,-z
1/2-x,y,z
x,-y,z
loop_
_atom_site_type_symbol
_atom_site_label
_atom_site_fract_x
_atom_site_fract_y
_atom_site_fract_z
Si Si1 0.423058 0.396412 0.318632
Si Si2 0.075073 0.605698 0.777411
Si Si3 0.924726 0.606569 0.950107
Si Si4 0.574985 0.894073 0.450715
Si Si5 0.076142 0.784149 0.368030
Si Si6 0.924320 0.892261 0.827733
Si Si7 0.926695 0.897635 0.721793
Si Si8 0.926620 0.277838 0.132269
O O1 0.250000 0.396519 0.306123
O O2 0.478623 0.500000 0.333057
O O3 0.502954 0.359032 0.271448
O O4 0.453878 0.326457 0.362571
O O5 0.250000 0.614019 0.771217
O O6 0.025435 0.500000 0.787824
O O7 0.018256 0.668176 0.820761
O O8 0.750000 0.626460 0.954074
O O9 0.956561 0.500000 0.935157
O O10 0.997153 0.674860 0.912380
O O11 0.000000 0.629351 0.000000
O O12 0.500000 0.865638 0.500000
O O13 0.750000 0.882361 0.456579
O O14 0.517802 0.823214 0.411318
O O15 0.531969 0.000000 0.436773
O O16 0.250000 0.806655 0.376649
O O17 0.016511 0.828902 0.319020
O O18 0.750000 0.870110 0.833477
O O19 0.981484 0.868296 0.774276
O O20 0.018141 0.828618 0.863887
O O21 0.956418 0.000000 0.839603
O O22 0.750000 0.900334 0.723231
O O23 0.988997 0.000000 0.709359
O O24 0.750000 0.281836 0.125841
#
# Coordination Sequence:
#
# PCOD8206713 Si02
#       8
#     8   8   8   8   8   8   8   8
#     4   9  18  31  47  70 100 133 169 207 243 281
#     4   9  18  31  46  68 101 138 171 204 245 291
#     4  10  21  37  57  80 105 132 163 202 249 301
#     4  10  21  36  53  74  99 124 152 191 240 293
#     4  10  18  29  49  73  98 130 164 199 241 289
#     4   9  18  33  51  71  99 136 177 217 251 288
#     4   8  14  25  43  68  96 127 164 203 243 288
#     4  11  21  32  50  75 104 137 171 208 251 301
#
# _framework density 17.606442999999999
#
# number of rings (size 3 to 8) (size 9 to 14) (size 15 to 20)
#    0.000    2.500    0.000    3.375    0.000    5.250 
#    0.000    1.875    0.000    1.500    0.000    0.000 
#    0.000    0.000    0.000    0.000    0.000    0.000 
#
# Total GULP energy -793527.742152 kJ/mol
# GULP energy per Si atom -12398.870971 kJ/mol
# Density = 1.756637 g / cm^3
# Si number density = 17.606443 Si / 1000 Ang^3
#
#
#
# Elastic Constant Matrix: (Units=GPa)
#
#
# Indices 1 2 3 4 5 6 
#
# 1 61.7235 43.3529 49.0631 0.0000 0.0000 0.0000
# 2 43.3529 102.8831 72.8825 0.0000 0.0000 0.0000
# 3 49.0631 72.8825 109.8504 0.0000 0.0000 0.0000
# 4 0.0000 0.0000 0.0000 29.2016 0.0000 0.0000
# 5 0.0000 0.0000 0.0000 0.0000 30.3168 0.0000
# 6 0.0000 0.0000 0.0000 0.0000 0.0000 23.7605
#
#
#
# Elastic Compliance Matrix: (Units=1/GPa)
#
#
# Indices 1 2 3 4 5 6 
#
# 1 0.026546 -0.005258 -0.008368 0.000000 0.000000 0.000000
# 2 -0.005258 0.019381 -0.010510 0.000000 0.000000 0.000000
# 3 -0.008368 -0.010510 0.019814 0.000000 0.000000 0.000000
# 4 0.000000 0.000000 0.000000 0.034245 0.000000 0.000000
# 5 0.000000 0.000000 0.000000 0.000000 0.032985 0.000000
# 6 0.000000 0.000000 0.000000 0.000000 0.000000 0.042087
#
#
# Mechanical properties :
#
#
# Convention : Reuss Voigt Hill
#
# Bulk Modulus (GPa) = 57.24608 67.22824 62.23716
# Shear Modulus (GPa) = 21.81960 23.93300 22.87630
#
# Velocity S-wave (km/s) = 3.52418 3.69091 3.60851
# Velocity P-wave (km/s) = 7.01033 7.51203 7.26551
#
# Compressibility (1/GPa) = 0.01746845
#
# Stress axis : x y z
#
# Youngs Moduli (GPa) = 37.67063 51.59729 50.47006
#
# Poissons Ratio (x) = 0.27131 0.42232
# Poissons Ratio (y) = 0.19808 0.53045
# Poissons Ratio (z) = 0.31521 0.54229
#
# Static dielectric constant tensor:
#      x y z
#    x 3.105810 0.000000 0.000000 
#    y 0.000000 3.433400 0.000000 
#    z 0.000000 0.000000 3.172590 
# 
# 
# High freq. dielectric constant tensor:
#      x y z
#    x 1.670440 0.000000 0.000000 
#    y 0.000000 1.683400 0.000000 
#    z 0.000000 0.000000 1.662330 
# 
# From -- ./inp_files/34930.got.cif
#   From: 2010.03.12/outbox.cif.g09.slc.cpg/sg51_18_cif.got.tgz:34930.got - 2010.04.16 13:43:02.
