data_PCOD8206148
_publ_section_title
;
Structure prediction by ZEFSAII (Michael W. Deem and Ramdas Pophale) SiO2 
 PCOD8206148
Probable space group: P M M A
;
_chemical_formula_sum "Si O2"
_cell_formula_units_Z 64
_cell_length_a 28.502167
_cell_length_b 9.458381
_cell_length_c 15.565195
_cell_angle_alpha 90.000000
_cell_angle_beta 90.000000
_cell_angle_gamma 90.000000
_cell_volume 4196.133052
_symmetry_space_group_name_H-M "P M M A"
_symmetry_group_IT_number 51
_symmetry_cell_setting 'orthorhombic'
loop_
_space_group_symop_operation_xyz
x,y,z
1/2-x,-y,z
1/2+x,-y,-z
-x,y,-z
-x,-y,-z
1/2+x,y,-z
1/2-x,y,z
x,-y,z
loop_
_atom_site_type_symbol
_atom_site_label
_atom_site_fract_x
_atom_site_fract_y
_atom_site_fract_z
Si Si1 0.637970 0.834006 0.345035
Si Si2 0.447959 0.332565 0.602062
Si Si3 0.695502 0.162851 0.513361
Si Si4 0.302192 0.331917 0.167199
Si Si5 0.694083 0.657629 0.019956
Si Si6 0.804044 0.164657 0.179241
Si Si7 0.648155 0.668173 0.662885
Si Si8 0.551173 0.333450 0.592132
O O1 0.589053 0.750201 0.339430
O O2 0.666766 0.789623 0.429512
O O3 0.667777 0.786376 0.262760
O O4 0.627607 0.000000 0.343777
O O5 0.439768 0.500000 0.611819
O O6 0.500786 0.286633 0.630824
O O7 0.441037 0.277657 0.504476
O O8 0.750000 0.185839 0.492601
O O9 0.681260 0.260321 0.592732
O O10 0.685002 0.000000 0.536581
O O11 0.250000 0.269906 0.183958
O O12 0.299231 0.500000 0.166348
O O13 0.336361 0.279058 0.242855
O O14 0.322035 0.283038 0.073864
O O15 0.750000 0.654990 0.019371
O O16 0.674239 0.500000 0.035592
O O17 0.674890 0.756820 0.095770
O O18 0.750000 0.205756 0.194775
O O19 0.809854 0.000000 0.161616
O O20 0.653434 0.500000 0.652286
O O21 0.594163 0.718375 0.651367
O O22 0.550165 0.500000 0.584549
#
# Coordination Sequence:
#
# PCOD8206148 Si02
#       8
#     8   8   8   8   8   8   8   8
#     4  10  19  30  43  61  84 112 144 175 208 247
#     4   9  16  29  45  61  83 110 140 177 218 253
#     4  10  20  31  40  55  86 121 144 167 204 244
#     4   8  14  24  40  63  88 110 134 169 209 244
#     4   8  14  26  42  60  83 108 134 169 211 247
#     4   9  17  29  44  61  83 112 143 173 207 250
#     4  10  17  28  46  65  83 111 148 176 201 246
#     4   8  15  27  44  63  84 109 138 177 219 249
#
# _framework density 15.252139
#
# number of rings (size 3 to 8) (size 9 to 14) (size 15 to 20)
#    0.000    3.000    1.250    2.250    0.000    2.750 
#    0.000    2.500    0.000    4.500    0.000    0.875 
#    0.000    7.000    0.000    0.000    0.000    0.000 
#
# Total GULP energy -793244.327260 kJ/mol
# GULP energy per Si atom -12394.442613 kJ/mol
# Density = 1.521742 g / cm^3
# Si number density = 15.252139 Si / 1000 Ang^3
#
#
#
# Elastic Constant Matrix: (Units=GPa)
#
#
# Indices 1 2 3 4 5 6 
#
# 1 90.5037 26.8516 48.9815 0.0000 0.0000 0.0000
# 2 26.8516 29.2693 33.7680 0.0000 0.0000 0.0000
# 3 48.9815 33.7680 117.7579 0.0000 0.0000 0.0000
# 4 0.0000 0.0000 0.0000 20.2733 0.0000 0.0000
# 5 0.0000 0.0000 0.0000 0.0000 12.4990 0.0000
# 6 0.0000 0.0000 0.0000 0.0000 0.0000 20.0030
#
#
#
# Elastic Compliance Matrix: (Units=1/GPa)
#
#
# Indices 1 2 3 4 5 6 
#
# 1 0.016192 -0.010587 -0.003699 0.000000 0.000000 0.000000
# 2 -0.010587 0.057979 -0.012222 0.000000 0.000000 0.000000
# 3 -0.003699 -0.012222 0.013536 0.000000 0.000000 0.000000
# 4 0.000000 0.000000 0.000000 0.049326 0.000000 0.000000
# 5 0.000000 0.000000 0.000000 0.000000 0.080006 0.000000
# 6 0.000000 0.000000 0.000000 0.000000 0.000000 0.049992
#
#
# Mechanical properties :
#
#
# Convention : Reuss Voigt Hill
#
# Bulk Modulus (GPa) = 28.82706 50.74810 39.78758
# Shear Modulus (GPa) = 15.07790 19.08373 17.08081
#
# Velocity S-wave (km/s) = 3.14757 3.54109 3.35012
# Velocity P-wave (km/s) = 5.67018 7.07560 6.41152
#
# Compressibility (1/GPa) = 0.03468963
#
# Stress axis : x y z
#
# Youngs Moduli (GPa) = 61.75715 17.24777 73.87959
#
# Poissons Ratio (x) = 0.18260 0.27331
# Poissons Ratio (y) = 0.65382 0.90297
# Poissons Ratio (z) = 0.22846 0.21080
#
# Static dielectric constant tensor:
#      x y z
#    x 3.034980 0.000000 0.000000 
#    y 0.000000 2.726540 0.000000 
#    z 0.000000 0.000000 3.093670 
# 
# 
# High freq. dielectric constant tensor:
#      x y z
#    x 1.568990 0.000000 0.000000 
#    y 0.000000 1.561370 0.000000 
#    z 0.000000 0.000000 1.575760 
# 
# From -- ./inp_files/26711.got.cif
#   From: 2010.03.12/outbox.cif.g09.slc.cpg/sg51_14_cif.got.tgz:26711.got - 2010.04.16 13:43:02.
