data_PCOD8206137
_publ_section_title
;
Structure prediction by ZEFSAII (Michael W. Deem and Ramdas Pophale) SiO2 
 PCOD8206137
Probable space group: P M M A
;
_chemical_formula_sum "Si O2"
_cell_formula_units_Z 56
_cell_length_a 17.895988
_cell_length_b 8.972105
_cell_length_c 22.210013
_cell_angle_alpha 90.000000
_cell_angle_beta 90.000000
_cell_angle_gamma 90.000000
_cell_volume 3566.143706
_symmetry_space_group_name_H-M "P M M A"
_symmetry_group_IT_number 51
_symmetry_cell_setting 'orthorhombic'
loop_
_space_group_symop_operation_xyz
x,y,z
1/2-x,-y,z
1/2+x,-y,-z
-x,y,-z
-x,-y,-z
1/2+x,y,-z
1/2-x,y,z
x,-y,z
loop_
_atom_site_type_symbol
_atom_site_label
_atom_site_fract_x
_atom_site_fract_y
_atom_site_fract_z
Si Si1 0.250000 0.822049 0.177030
Si Si2 0.332311 0.326429 0.525462
Si Si3 0.332675 0.172904 0.973428
Si Si4 0.017738 0.665646 0.570528
Si Si5 0.484228 0.165431 0.929280
Si Si6 0.750000 0.823517 0.686402
Si Si7 0.375275 0.824288 0.402993
Si Si8 0.627828 0.324137 0.903586
O O1 0.250000 0.764641 0.245660
O O2 0.175388 0.757277 0.147378
O O3 0.250000 0.000000 0.171037
O O4 0.250000 0.297352 0.553134
O O5 0.344583 0.500000 0.509282
O O6 0.395491 0.278987 0.574818
O O7 0.339882 0.236053 0.464136
O O8 0.250000 0.198488 0.945503
O O9 0.396409 0.213873 0.923577
O O10 0.343446 0.000000 0.993219
O O11 0.340752 0.275322 0.031910
O O12 0.008746 0.500000 0.597174
O O13 0.000000 0.669116 0.500000
O O14 0.960738 0.770330 0.606931
O O15 0.540439 0.278224 0.895844
O O16 0.496773 0.000000 0.902352
O O17 0.500000 0.166142 0.000000
O O18 0.675559 0.766093 0.652211
O O19 0.750000 0.000000 0.686045
O O20 0.375576 0.000000 0.406914
O O21 0.635836 0.500000 0.896414
#
# Coordination Sequence:
#
# PCOD8206137 Si02
#       8
#     4   8   8   8   8   4   8   8
#     4  11  21  35  49  57  75 111 149 181 216 257
#     4   9  16  26  40  58  82 113 142 165 194 238
#     4   9  16  27  44  63  85 116 147 170 197 243
#     4   8  15  26  38  56  80 107 139 165 194 243
#     4   8  15  27  42  60  81 112 147 168 196 248
#     4   9  20  33  45  61  79 105 143 183 216 251
#     4  10  17  28  42  58  80 104 135 174 213 248
#     4  11  20  29  41  61  85 108 138 179 219 249
#
# _framework density 15.703237
#
# number of rings (size 3 to 8) (size 9 to 14) (size 15 to 20)
#    0.000    2.714    1.429    3.643    0.000    5.143 
#    0.000    2.857    0.000    0.000    0.000    0.000 
#    0.000    1.143    0.000    5.429    0.000    3.143 
#
# Total GULP energy -693873.839226 kJ/mol
# GULP energy per Si atom -12390.604272 kJ/mol
# Density = 1.566750 g / cm^3
# Si number density = 15.703237 Si / 1000 Ang^3
#
#
#
# Elastic Constant Matrix: (Units=GPa)
#
#
# Indices 1 2 3 4 5 6 
#
# 1 175.7881 45.9463 43.6550 0.0000 0.0000 0.0000
# 2 45.9463 72.9478 27.1402 0.0000 0.0000 0.0000
# 3 43.6550 27.1402 47.1702 0.0000 0.0000 0.0000
# 4 0.0000 0.0000 0.0000 2.2813 0.0000 0.0000
# 5 0.0000 0.0000 0.0000 0.0000 14.5449 0.0000
# 6 0.0000 0.0000 0.0000 0.0000 0.0000 20.6416
#
#
#
# Elastic Compliance Matrix: (Units=1/GPa)
#
#
# Indices 1 2 3 4 5 6 
#
# 1 0.007824 -0.002842 -0.005605 0.000000 0.000000 0.000000
# 2 -0.002842 0.018475 -0.007999 0.000000 0.000000 0.000000
# 3 -0.005605 -0.007999 0.030990 0.000000 0.000000 0.000000
# 4 0.000000 0.000000 0.000000 0.438343 0.000000 0.000000
# 5 0.000000 0.000000 0.000000 0.000000 0.068753 0.000000
# 6 0.000000 0.000000 0.000000 0.000000 0.000000 0.048446
#
#
# Mechanical properties :
#
#
# Convention : Reuss Voigt Hill
#
# Bulk Modulus (GPa) = 40.99262 58.82101 49.90682
# Shear Modulus (GPa) = 7.64696 19.43786 13.54241
#
# Velocity S-wave (km/s) = 2.20913 3.52209 2.93984
# Velocity P-wave (km/s) = 5.71561 7.35387 6.58588
#
# Compressibility (1/GPa) = 0.02439463
#
# Stress axis : x y z
#
# Youngs Moduli (GPa) = 127.81936 54.12778 32.26864
#
# Poissons Ratio (x) = 0.15385 0.18087
# Poissons Ratio (y) = 0.36330 0.25813
# Poissons Ratio (z) = 0.71645 0.43299
#
# Static dielectric constant tensor:
#      x y z
#    x 3.809840 0.000000 0.000000 
#    y 0.000000 2.937780 0.000000 
#    z 0.000000 0.000000 2.521920 
# 
# 
# High freq. dielectric constant tensor:
#      x y z
#    x 1.630420 0.000000 0.000000 
#    y 0.000000 1.599200 0.000000 
#    z 0.000000 0.000000 1.522230 
# 
# From -- ./inp_files/34039.got.cif
#   From: 2010.03.12/outbox.cif.g09.slc.cpg/sg51_18_cif.got.tgz:34039.got - 2010.04.16 13:43:02.
