data_PCOD8206259
_publ_section_title
;
Structure prediction by ZEFSAII (Michael W. Deem and Ramdas Pophale) SiO2 
 PCOD8206259
Probable space group: P M M A
;
_chemical_formula_sum "Si O2"
_cell_formula_units_Z 52
_cell_length_a 8.970665
_cell_length_b 26.957470
_cell_length_c 13.610567
_cell_angle_alpha 90.000000
_cell_angle_beta 90.000000
_cell_angle_gamma 90.000000
_cell_volume 3291.394864
_symmetry_space_group_name_H-M "P M M A"
_symmetry_group_IT_number 51
_symmetry_cell_setting 'orthorhombic'
loop_
_space_group_symop_operation_xyz
x,y,z
1/2-x,-y,z
1/2+x,-y,-z
-x,y,-z
-x,-y,-z
1/2+x,y,-z
1/2-x,y,z
x,-y,z
loop_
_atom_site_type_symbol
_atom_site_label
_atom_site_fract_x
_atom_site_fract_y
_atom_site_fract_z
Si Si1 0.424038 0.895211 0.896057
Si Si2 0.920363 0.700535 0.792243
Si Si3 0.078371 0.556877 0.712809
Si Si4 0.574787 0.358631 0.599699
Si Si5 0.075044 0.787649 0.894414
Si Si6 0.924772 0.400500 0.897031
Si Si7 0.425177 0.000000 0.894500
O O1 0.250000 0.894876 0.915347
O O2 0.467319 0.842138 0.847394
O O3 0.468748 0.947382 0.839269
O O4 0.500000 0.896749 0.000000
O O5 0.750000 0.717474 0.800501
O O6 0.958129 0.682394 0.682587
O O7 0.954525 0.656589 0.868776
O O8 0.022587 0.747328 0.816027
O O9 0.250000 0.573632 0.722353
O O10 0.065280 0.500000 0.680154
O O11 0.997854 0.589069 0.629331
O O12 0.998114 0.563647 0.817137
O O13 0.500000 0.339035 0.500000
O O14 0.750000 0.367012 0.585675
O O15 0.250000 0.781772 0.910441
O O16 0.000000 0.779033 0.000000
O O17 0.750000 0.412104 0.901720
O O18 0.000000 0.412547 0.000000
O O19 0.250000 0.000000 0.912029
O O20 0.500000 0.000000 0.000000
#
# Coordination Sequence:
#
# PCOD8206259 Si02
#       7
#     8   8   8   8   8   8   4
#     4   8  14  22  32  49  72 103 143 181 216 249
#     4   9  19  33  47  65  87 112 142 175 212 253
#     4  10  21  36  53  73  95 118 145 176 210 250
#     4  10  21  37  56  74  91 112 139 172 212 259
#     4  10  18  26  39  60  86 116 149 183 217 253
#     4  10  20  33  49  68  91 120 152 183 215 254
#     4   8  12  20  32  44  66 100 139 182 217 246
#
# _framework density 15.798773000000001
#
# number of rings (size 3 to 8) (size 9 to 14) (size 15 to 20)
#    0.000    2.615    0.000    3.231    0.000    7.385 
#    0.000    0.000    0.000    0.000    0.000    0.000 
#    0.000    0.000    0.000    0.692    0.000    7.308 
#
# Total GULP energy -644239.643802 kJ/mol
# GULP energy per Si atom -12389.223919 kJ/mol
# Density = 1.576281 g / cm^3
# Si number density = 15.798773 Si / 1000 Ang^3
#
#
#
# Elastic Constant Matrix: (Units=GPa)
#
#
# Indices 1 2 3 4 5 6 
#
# 1 78.6281 47.3379 30.6185 0.0000 0.0000 0.0000
# 2 47.3379 116.9120 28.3199 0.0000 0.0000 0.0000
# 3 30.6185 28.3199 66.1890 0.0000 0.0000 0.0000
# 4 0.0000 0.0000 0.0000 9.7764 0.0000 0.0000
# 5 0.0000 0.0000 0.0000 0.0000 25.0160 0.0000
# 6 0.0000 0.0000 0.0000 0.0000 0.0000 16.0167
#
#
#
# Elastic Compliance Matrix: (Units=1/GPa)
#
#
# Indices 1 2 3 4 5 6 
#
# 1 0.018769 -0.006132 -0.006059 0.000000 0.000000 0.000000
# 2 -0.006132 0.011546 -0.002103 0.000000 0.000000 0.000000
# 3 -0.006059 -0.002103 0.018811 0.000000 0.000000 0.000000
# 4 0.000000 0.000000 0.000000 0.102288 0.000000 0.000000
# 5 0.000000 0.000000 0.000000 0.000000 0.039974 0.000000
# 6 0.000000 0.000000 0.000000 0.000000 0.000000 0.062435
#
#
# Mechanical properties :
#
#
# Convention : Reuss Voigt Hill
#
# Bulk Modulus (GPa) = 48.69142 52.69798 50.69470
# Shear Modulus (GPa) = 17.28565 20.52534 18.90550
#
# Velocity S-wave (km/s) = 3.31133 3.60831 3.46301
# Velocity P-wave (km/s) = 6.74585 7.12657 6.93882
#
# Compressibility (1/GPa) = 0.02053750
#
# Stress axis : x y z
#
# Youngs Moduli (GPa) = 53.27866 86.61134 53.16043
#
# Poissons Ratio (x) = 0.53111 0.32209
# Poissons Ratio (y) = 0.32671 0.11182
# Poissons Ratio (z) = 0.32281 0.18218
#
# Static dielectric constant tensor:
#      x y z
#    x 3.106910 0.000000 0.000000 
#    y 0.000000 3.553570 0.000000 
#    z 0.000000 0.000000 2.655670 
# 
# 
# High freq. dielectric constant tensor:
#      x y z
#    x 1.622570 0.000000 0.000000 
#    y 0.000000 1.616330 0.000000 
#    z 0.000000 0.000000 1.556380 
# 
# From -- ./inp_files/22022.got.cif
#   From: 2010.03.12/outbox.cif.g09.slc.cpg/sg51_12_cif.got.tgz:22022.got - 2010.04.16 13:43:02.
