data_PCOD8206471
_publ_section_title
;
Structure prediction by ZEFSAII (Michael W. Deem and Ramdas Pophale) SiO2 
 PCOD8206471
Probable space group: P M M A
;
_chemical_formula_sum "Si O2"
_cell_formula_units_Z 64
_cell_length_a 17.415864
_cell_length_b 17.726950
_cell_length_c 12.702063
_cell_angle_alpha 90.000000
_cell_angle_beta 90.000000
_cell_angle_gamma 90.000000
_cell_volume 3921.509820
_symmetry_space_group_name_H-M "P M M A"
_symmetry_group_IT_number 51
_symmetry_cell_setting 'orthorhombic'
loop_
_space_group_symop_operation_xyz
x,y,z
1/2-x,-y,z
1/2+x,-y,-z
-x,y,-z
-x,-y,-z
1/2+x,y,-z
1/2-x,y,z
x,-y,z
loop_
_atom_site_type_symbol
_atom_site_label
_atom_site_fract_x
_atom_site_fract_y
_atom_site_fract_z
Si Si1 0.163626 0.318768 0.016379
Si Si2 0.927624 0.086842 0.701334
Si Si3 0.594792 0.181100 0.900035
Si Si4 0.544835 0.279142 0.162060
Si Si5 0.093970 0.850642 0.708688
Si Si6 0.956082 0.416642 0.890311
Si Si7 0.661790 0.086851 0.494017
Si Si8 0.838268 0.912049 0.080895
O O1 0.250000 0.338495 0.984295
O O2 0.117218 0.298535 0.910620
O O3 0.159735 0.245732 0.091895
O O4 0.129749 0.389655 0.081203
O O5 0.889462 0.135552 0.793551
O O6 0.890282 0.112320 0.591669
O O7 0.018450 0.098694 0.695944
O O8 0.908936 0.000000 0.724625
O O9 0.510841 0.220757 0.899913
O O10 0.602568 0.125315 0.999287
O O11 0.572676 0.237717 0.269164
O O12 0.498543 0.356842 0.187408
O O13 0.142714 0.857622 0.602444
O O14 0.145826 0.880454 0.803578
O O15 0.954213 0.500000 0.838157
O O16 0.000000 0.418082 0.000000
O O17 0.750000 0.097309 0.526294
O O18 0.644797 0.000000 0.461924
O O19 0.750000 0.894063 0.050741
O O20 0.855126 0.000000 0.080189
#
# Coordination Sequence:
#
# PCOD8206471 Si02
#       8
#     8   8   8   8   8   8   8   8
#     4  10  18  28  44  67  97 128 157 195 239 281
#     4  10  21  34  50  66  85 122 169 211 250 291
#     4  10  19  32  47  65  94 130 163 202 241 294
#     4   9  19  31  47  69  96 126 162 193 239 295
#     4  11  20  32  50  69  92 121 158 205 247 298
#     4   8  15  29  47  66  93 128 159 186 220 274
#     4  10  21  36  50  65  90 122 160 209 261 303
#     4  11  22  31  44  69  96 125 161 204 253 296
#
# _framework density 16.320243999999999
#
# number of rings (size 3 to 8) (size 9 to 14) (size 15 to 20)
#    0.000    2.125    1.250    3.750    1.750    3.750 
#    0.000    3.125    0.000    0.000    0.000    0.000 
#    0.000   18.000    0.000    2.625    0.000    0.625 
#
# Total GULP energy -793377.758000 kJ/mol
# GULP energy per Si atom -12396.527469 kJ/mol
# Density = 1.628310 g / cm^3
# Si number density = 16.320244 Si / 1000 Ang^3
#
#
#
# Elastic Constant Matrix: (Units=GPa)
#
#
# Indices 1 2 3 4 5 6 
#
# 1 70.7503 30.4374 20.2700 0.0000 0.0000 0.0000
# 2 30.4374 105.5618 36.0856 0.0000 0.0000 0.0000
# 3 20.2700 36.0856 71.6386 0.0000 0.0000 0.0000
# 4 0.0000 0.0000 0.0000 14.5994 0.0000 0.0000
# 5 0.0000 0.0000 0.0000 0.0000 18.9107 0.0000
# 6 0.0000 0.0000 0.0000 0.0000 0.0000 14.9176
#
#
#
# Elastic Compliance Matrix: (Units=1/GPa)
#
#
# Indices 1 2 3 4 5 6 
#
# 1 0.016575 -0.003837 -0.002757 0.000000 0.000000 0.000000
# 2 -0.003837 0.012332 -0.005126 0.000000 0.000000 0.000000
# 3 -0.002757 -0.005126 0.017321 0.000000 0.000000 0.000000
# 4 0.000000 0.000000 0.000000 0.068496 0.000000 0.000000
# 5 0.000000 0.000000 0.000000 0.000000 0.052880 0.000000
# 6 0.000000 0.000000 0.000000 0.000000 0.000000 0.067035
#
#
# Mechanical properties :
#
#
# Convention : Reuss Voigt Hill
#
# Bulk Modulus (GPa) = 43.88324 46.83741 45.36032
# Shear Modulus (GPa) = 18.82002 20.42938 19.62470
#
# Velocity S-wave (km/s) = 3.39952 3.54189 3.47144
# Velocity P-wave (km/s) = 6.50816 6.74447 6.62737
#
# Compressibility (1/GPa) = 0.02278775
#
# Stress axis : x y z
#
# Youngs Moduli (GPa) = 60.33298 81.09202 57.73268
#
# Poissons Ratio (x) = 0.31111 0.15918
# Poissons Ratio (y) = 0.23147 0.29594
# Poissons Ratio (z) = 0.16635 0.41569
#
# Static dielectric constant tensor:
#      x y z
#    x 3.136810 0.000000 0.000000 
#    y 0.000000 3.324380 0.000000 
#    z 0.000000 0.000000 2.866750 
# 
# 
# High freq. dielectric constant tensor:
#      x y z
#    x 1.634560 0.000000 0.000000 
#    y 0.000000 1.614430 0.000000 
#    z 0.000000 0.000000 1.595050 
# 
# From -- ./inp_files/17692.got.cif
#   From: 2010.03.12/outbox.cif.g09.slc.cpg/sg51_9_cif.got.tgz:17692.got - 2010.04.16 13:43:02.
