data_PCOD8206373
_publ_section_title
;
Structure prediction by ZEFSAII (Michael W. Deem and Ramdas Pophale) SiO2 
 PCOD8206373
Probable space group: P M M A
;
_chemical_formula_sum "Si O2"
_cell_formula_units_Z 36
_cell_length_a 9.230578
_cell_length_b 12.774354
_cell_length_c 19.712761
_cell_angle_alpha 90.000000
_cell_angle_beta 90.000000
_cell_angle_gamma 90.000000
_cell_volume 2324.423728
_symmetry_space_group_name_H-M "P M M A"
_symmetry_group_IT_number 51
_symmetry_cell_setting 'orthorhombic'
loop_
_space_group_symop_operation_xyz
x,y,z
1/2-x,-y,z
1/2+x,-y,-z
-x,y,-z
-x,-y,-z
1/2+x,y,-z
1/2-x,y,z
x,-y,z
loop_
_atom_site_type_symbol
_atom_site_label
_atom_site_fract_x
_atom_site_fract_y
_atom_site_fract_z
Si Si1 0.078780 0.805984 0.840141
Si Si2 0.077433 0.000000 0.928630
Si Si3 0.080351 0.381445 0.931569
Si Si4 0.913606 0.124700 0.564824
Si Si5 0.582771 0.876712 0.303461
O O1 0.250000 0.816100 0.836265
O O2 0.021213 0.898503 0.888055
O O3 0.029207 0.694345 0.870724
O O4 0.020409 0.818365 0.763389
O O5 0.250000 0.000000 0.938768
O O6 0.000000 0.000000 0.000000
O O7 0.250000 0.368550 0.945670
O O8 0.040302 0.500000 0.910539
O O9 0.000000 0.347794 0.000000
O O10 0.750000 0.167773 0.562651
O O11 0.000000 0.169347 0.500000
O O12 0.990536 0.164987 0.633087
O O13 0.915291 0.000000 0.563199
O O14 0.750000 0.849325 0.317764
O O15 0.563555 0.000000 0.291807
#
# Coordination Sequence:
#
# PCOD8206373 Si02
#       5
#     8   4   8   8   8
#     4   9  16  27  42  58  78 105 136 166 201 245
#     4  10  18  28  40  56  77 104 135 166 199 240
#     4   9  17  29  44  60  78 102 134 172 210 246
#     4   9  16  25  37  55  79 107 137 166 192 226
#     4   9  15  25  40  55  74 104 136 164 196 235
#
# _framework density 15.48771
#
# number of rings (size 3 to 8) (size 9 to 14) (size 15 to 20)
#    0.000    2.889    1.111    1.333    0.000    2.667 
#    0.000    2.222    0.000    0.000    0.000    0.000 
#    0.000    0.889    0.000    1.556    0.000    2.222 
#
# Total GULP energy -446302.128112 kJ/mol
# GULP energy per Si atom -12397.281336 kJ/mol
# Density = 1.545246 g / cm^3
# Si number density = 15.487710 Si / 1000 Ang^3
#
#
#
# Elastic Constant Matrix: (Units=GPa)
#
#
# Indices 1 2 3 4 5 6 
#
# 1 62.7358 23.0449 59.2243 0.0000 0.0000 0.0000
# 2 23.0449 61.5429 54.5129 0.0000 0.0000 0.0000
# 3 59.2243 54.5129 171.5983 0.0000 0.0000 0.0000
# 4 0.0000 0.0000 0.0000 16.9192 0.0000 0.0000
# 5 0.0000 0.0000 0.0000 0.0000 28.5338 0.0000
# 6 0.0000 0.0000 0.0000 0.0000 0.0000 8.6285
#
#
#
# Elastic Compliance Matrix: (Units=1/GPa)
#
#
# Indices 1 2 3 4 5 6 
#
# 1 0.023872 -0.002284 -0.007513 0.000000 0.000000 0.000000
# 2 -0.002284 0.022830 -0.006464 0.000000 0.000000 0.000000
# 3 -0.007513 -0.006464 0.010474 0.000000 0.000000 0.000000
# 4 0.000000 0.000000 0.000000 0.059105 0.000000 0.000000
# 5 0.000000 0.000000 0.000000 0.000000 0.035046 0.000000
# 6 0.000000 0.000000 0.000000 0.000000 0.000000 0.115894
#
#
# Mechanical properties :
#
#
# Convention : Reuss Voigt Hill
#
# Bulk Modulus (GPa) = 40.56315 63.27126 51.91721
# Shear Modulus (GPa) = 16.23579 21.42262 18.82921
#
# Velocity S-wave (km/s) = 3.24126 3.72318 3.49055
# Velocity P-wave (km/s) = 6.34469 7.70869 7.05971
#
# Compressibility (1/GPa) = 0.02465292
#
# Stress axis : x y z
#
# Youngs Moduli (GPa) = 41.89080 43.80216 95.47176
#
# Poissons Ratio (x) = 0.10003 0.71732
# Poissons Ratio (y) = 0.09566 0.61717
# Poissons Ratio (z) = 0.31474 0.28316
#
# Static dielectric constant tensor:
#      x y z
#    x 2.856020 0.000000 0.000000 
#    y 0.000000 2.763060 0.000000 
#    z 0.000000 0.000000 3.169090 
# 
# 
# High freq. dielectric constant tensor:
#      x y z
#    x 1.577970 0.000000 0.000000 
#    y 0.000000 1.548250 0.000000 
#    z 0.000000 0.000000 1.603270 
# 
# From -- ./inp_files/31300.got.cif
#   From: 2010.03.12/outbox.cif.g09.slc.cpg/sg51_16_cif.got.tgz:31300.got - 2010.04.16 13:43:02.
