data_PCOD8206573
_publ_section_title
;
Structure prediction by ZEFSAII (Michael W. Deem and Ramdas Pophale) SiO2 
 PCOD8206573
Probable space group: P M M A
;
_chemical_formula_sum "Si O2"
_cell_formula_units_Z 64
_cell_length_a 21.448501
_cell_length_b 9.093681
_cell_length_c 20.377570
_cell_angle_alpha 90.000000
_cell_angle_beta 90.000000
_cell_angle_gamma 90.000000
_cell_volume 3974.559973
_symmetry_space_group_name_H-M "P M M A"
_symmetry_group_IT_number 51
_symmetry_cell_setting 'orthorhombic'
loop_
_space_group_symop_operation_xyz
x,y,z
1/2-x,-y,z
1/2+x,-y,-z
-x,y,-z
-x,-y,-z
1/2+x,y,-z
1/2-x,y,z
x,-y,z
loop_
_atom_site_type_symbol
_atom_site_label
_atom_site_fract_x
_atom_site_fract_y
_atom_site_fract_z
Si Si1 0.573596 0.833899 0.511323
Si Si2 0.109580 0.830135 0.743432
Si Si3 0.091287 0.333570 0.615201
Si Si4 0.961732 0.173317 0.907088
Si Si5 0.963529 0.831046 0.763626
Si Si6 0.555763 0.334552 0.637350
Si Si7 0.093491 0.825944 0.959795
Si Si8 0.176496 0.669207 0.861129
O O1 0.500000 0.832775 0.500000
O O2 0.608043 0.747126 0.452850
O O3 0.590182 0.756140 0.580132
O O4 0.599030 0.000000 0.513141
O O5 0.124820 0.751436 0.674500
O O6 0.150821 0.756690 0.799116
O O7 0.037621 0.811534 0.761652
O O8 0.128252 0.000000 0.737120
O O9 0.116523 0.500000 0.612380
O O10 0.017611 0.331566 0.625447
O O11 0.940854 0.229144 0.834938
O O12 0.030155 0.233135 0.925821
O O13 0.969857 0.000000 0.904061
O O14 0.910784 0.214565 0.962510
O O15 0.929081 0.737017 0.707809
O O16 0.944875 0.000000 0.752126
O O17 0.581675 0.500000 0.636642
O O18 0.150793 0.738604 0.928561
O O19 0.103090 0.000000 0.949356
O O20 0.250000 0.686067 0.862954
O O21 0.155734 0.500000 0.855765
#
# Coordination Sequence:
#
# PCOD8206573 Si02
#       8
#     8   8   8   8   8   8   8   8
#     4   9  15  23  34  49  70 101 140 174 201 236
#     4  10  18  29  45  61  77 103 142 179 210 254
#     4   9  16  25  37  53  76 103 131 170 212 246
#     4   8  14  26  46  67  86 106 134 176 221 258
#     4   9  15  25  40  59  81 107 135 169 211 254
#     4   9  16  23  32  50  76 106 137 169 204 242
#     4   9  16  30  49  66  82 106 140 176 214 263
#     4  11  23  35  45  60  86 115 142 179 224 263
#
# _framework density 16.102411
#
# number of rings (size 3 to 8) (size 9 to 14) (size 15 to 20)
#    0.000    2.750    1.250    2.625    0.000    6.000 
#    0.000    1.875    0.000    0.000    0.000    0.000 
#    0.000    0.000    0.000    1.125    0.000   19.625 
#
# Total GULP energy -793358.529891 kJ/mol
# GULP energy per Si atom -12396.227030 kJ/mol
# Density = 1.606576 g / cm^3
# Si number density = 16.102411 Si / 1000 Ang^3
#
#
#
# Elastic Constant Matrix: (Units=GPa)
#
#
# Indices 1 2 3 4 5 6 
#
# 1 21.4993 25.3676 24.2428 0.0000 0.0000 0.0000
# 2 25.3676 124.7544 78.3157 0.0000 0.0000 0.0000
# 3 24.2428 78.3157 172.0298 0.0000 0.0000 0.0000
# 4 0.0000 0.0000 0.0000 19.1460 0.0000 0.0000
# 5 0.0000 0.0000 0.0000 0.0000 9.4237 0.0000
# 6 0.0000 0.0000 0.0000 0.0000 0.0000 13.3888
#
#
#
# Elastic Compliance Matrix: (Units=1/GPa)
#
#
# Indices 1 2 3 4 5 6 
#
# 1 0.063380 -0.010194 -0.004291 0.000000 0.000000 0.000000
# 2 -0.010194 0.012863 -0.004419 0.000000 0.000000 0.000000
# 3 -0.004291 -0.004419 0.008429 0.000000 0.000000 0.000000
# 4 0.000000 0.000000 0.000000 0.052230 0.000000 0.000000
# 5 0.000000 0.000000 0.000000 0.000000 0.106115 0.000000
# 6 0.000000 0.000000 0.000000 0.000000 0.000000 0.074689
#
#
# Mechanical properties :
#
#
# Convention : Reuss Voigt Hill
#
# Bulk Modulus (GPa) = 21.33842 63.79286 42.56564
# Shear Modulus (GPa) = 13.47216 21.08221 17.27718
#
# Velocity S-wave (km/s) = 2.89564 3.62229 3.27915
# Velocity P-wave (km/s) = 4.94571 7.56291 6.38975
#
# Compressibility (1/GPa) = 0.04686382
#
# Stress axis : x y z
#
# Youngs Moduli (GPa) = 15.77793 77.74377 118.63232
#
# Poissons Ratio (x) = 0.79252 0.50903
# Poissons Ratio (y) = 0.16084 0.52425
# Poissons Ratio (z) = 0.06770 0.34356
#
# Static dielectric constant tensor:
#      x y z
#    x 2.395920 0.000000 0.000000 
#    y 0.000000 3.125170 0.000000 
#    z 0.000000 0.000000 3.492960 
# 
# 
# High freq. dielectric constant tensor:
#      x y z
#    x 1.533520 0.000000 0.000000 
#    y 0.000000 1.621800 0.000000 
#    z 0.000000 0.000000 1.639370 
# 
# From -- ./inp_files/34093.got.cif
#   From: 2010.03.12/outbox.cif.g09.slc.cpg/sg51_18_cif.got.tgz:34093.got - 2010.04.16 13:43:02.
