data_PCOD8206517
_publ_section_title
;
Structure prediction by ZEFSAII (Michael W. Deem and Ramdas Pophale) SiO2 
 PCOD8206517
Probable space group: P M M A
;
_chemical_formula_sum "Si O2"
_cell_formula_units_Z 48
_cell_length_a 29.687170
_cell_length_b 9.321585
_cell_length_c 10.050603
_cell_angle_alpha 90.000000
_cell_angle_beta 90.000000
_cell_angle_gamma 90.000000
_cell_volume 2781.318229
_symmetry_space_group_name_H-M "P M M A"
_symmetry_group_IT_number 51
_symmetry_cell_setting 'orthorhombic'
loop_
_space_group_symop_operation_xyz
x,y,z
1/2-x,-y,z
1/2+x,-y,-z
-x,y,-z
-x,-y,-z
1/2+x,y,-z
1/2-x,y,z
x,-y,z
loop_
_atom_site_type_symbol
_atom_site_label
_atom_site_fract_x
_atom_site_fract_y
_atom_site_fract_z
Si Si1 0.115089 0.668794 0.033749
Si Si2 0.117151 0.664169 0.726501
Si Si3 0.200915 0.838520 0.714330
Si Si4 0.799771 0.838535 0.969458
Si Si5 0.518945 0.335539 0.354512
Si Si6 0.969910 0.831242 0.872625
O O1 0.112052 0.500000 0.060424
O O2 0.163348 0.726998 0.085884
O O3 0.077119 0.748748 0.117784
O O4 0.108184 0.709258 0.879157
O O5 0.131389 0.500000 0.720826
O O6 0.158973 0.747375 0.658981
O O7 0.072305 0.697220 0.642827
O O8 0.250000 0.780552 0.664484
O O9 0.194334 0.000000 0.663250
O O10 0.200440 0.832107 0.872394
O O11 0.750000 0.795391 0.915989
O O12 0.811889 0.000000 0.922837
O O13 0.500000 0.308117 0.500000
O O14 0.510689 0.500000 0.307458
O O15 0.495065 0.225108 0.257137
O O16 0.960980 0.000000 0.859088
O O17 0.000000 0.794343 0.000000
#
# Coordination Sequence:
#
# PCOD8206517 Si02
#       6
#     8   8   8   8   8   8
#     4  10  18  28  46  70  97 128 164 207 247 293
#     4   9  17  28  44  68  95 125 160 198 242 289
#     4   8  14  24  39  61  90 124 158 192 235 286
#     4   8  14  25  40  61  94 130 160 195 242 295
#     4  10  21  37  54  72  99 134 168 206 254 304
#     4  11  22  34  51  74  99 130 168 208 249 295
#
# _framework density 17.258002000000001
#
# number of rings (size 3 to 8) (size 9 to 14) (size 15 to 20)
#    0.000    2.667    1.667    2.000    0.000    3.000 
#    0.000    3.333    0.000    0.000    0.000    1.167 
#    0.000    6.667    0.000    0.000    0.000    0.000 
#
# Total GULP energy -595026.135480 kJ/mol
# GULP energy per Si atom -12396.377822 kJ/mol
# Density = 1.721872 g / cm^3
# Si number density = 17.258002 Si / 1000 Ang^3
#
#
#
# Elastic Constant Matrix: (Units=GPa)
#
#
# Indices 1 2 3 4 5 6 
#
# 1 151.2899 70.6626 36.9558 0.0000 0.0000 0.0000
# 2 70.6626 87.7554 30.9213 0.0000 0.0000 0.0000
# 3 36.9558 30.9213 40.1295 0.0000 0.0000 0.0000
# 4 0.0000 0.0000 0.0000 9.3959 0.0000 0.0000
# 5 0.0000 0.0000 0.0000 0.0000 14.4648 0.0000
# 6 0.0000 0.0000 0.0000 0.0000 0.0000 36.9383
#
#
#
# Elastic Compliance Matrix: (Units=1/GPa)
#
#
# Indices 1 2 3 4 5 6 
#
# 1 0.011183 -0.007380 -0.004612 0.000000 0.000000 0.000000
# 2 -0.007380 0.020512 -0.009009 0.000000 0.000000 0.000000
# 3 -0.004612 -0.009009 0.036109 0.000000 0.000000 0.000000
# 4 0.000000 0.000000 0.000000 0.106429 0.000000 0.000000
# 5 0.000000 0.000000 0.000000 0.000000 0.069133 0.000000
# 6 0.000000 0.000000 0.000000 0.000000 0.000000 0.027072
#
#
# Mechanical properties :
#
#
# Convention : Reuss Voigt Hill
#
# Bulk Modulus (GPa) = 38.75751 61.80603 50.28177
# Shear Modulus (GPa) = 15.57426 21.53550 18.55488
#
# Velocity S-wave (km/s) = 3.00732 3.53633 3.28250
# Velocity P-wave (km/s) = 5.87921 7.25017 6.60038
#
# Compressibility (1/GPa) = 0.02580145
#
# Stress axis : x y z
#
# Youngs Moduli (GPa) = 89.41802 48.75141 27.69394
#
# Poissons Ratio (x) = 0.35978 0.12774
# Poissons Ratio (y) = 0.65990 0.24950
# Poissons Ratio (z) = 0.41244 0.43921
#
# Static dielectric constant tensor:
#      x y z
#    x 3.792780 0.000000 0.000000 
#    y 0.000000 3.291500 0.000000 
#    z 0.000000 0.000000 2.857000 
# 
# 
# High freq. dielectric constant tensor:
#      x y z
#    x 1.686820 0.000000 0.000000 
#    y 0.000000 1.669190 0.000000 
#    z 0.000000 0.000000 1.598350 
# 
# From -- ./inp_files/12803.got.cif
#   From: 2010.03.12/outbox.cif.g09.slc.cpg/sg51_7_cif.got.tgz:12803.got - 2010.04.16 13:43:02.
