data_PCOD8206794
_publ_section_title
;
Structure prediction by ZEFSAII (Michael W. Deem and Ramdas Pophale) SiO2 
 PCOD8206794
Probable space group: P M M A
;
_chemical_formula_sum "Si O2"
_cell_formula_units_Z 48
_cell_length_a 26.176957
_cell_length_b 9.240308
_cell_length_c 11.868295
_cell_angle_alpha 90.000000
_cell_angle_beta 90.000000
_cell_angle_gamma 90.000000
_cell_volume 2870.740523
_symmetry_space_group_name_H-M "P M M A"
_symmetry_group_IT_number 51
_symmetry_cell_setting 'orthorhombic'
loop_
_space_group_symop_operation_xyz
x,y,z
1/2-x,-y,z
1/2+x,-y,-z
-x,y,-z
-x,-y,-z
1/2+x,y,-z
1/2-x,y,z
x,-y,z
loop_
_atom_site_type_symbol
_atom_site_label
_atom_site_fract_x
_atom_site_fract_y
_atom_site_fract_z
Si Si1 0.569949 0.669049 0.710002
Si Si2 0.442763 0.328389 0.038092
Si Si3 0.542247 0.663497 0.327221
Si Si4 0.307930 0.830573 0.672146
Si Si5 0.893918 0.829725 0.156742
Si Si6 0.628800 0.665528 0.503880
O O1 0.579119 0.500000 0.720137
O O2 0.568715 0.732903 0.836345
O O3 0.516448 0.700288 0.646765
O O4 0.615966 0.728346 0.629536
O O5 0.436141 0.500000 0.030205
O O6 0.500000 0.283365 0.000000
O O7 0.399535 0.252618 0.961591
O O8 0.546791 0.500000 0.276183
O O9 0.559806 0.778890 0.234928
O O10 0.575061 0.677288 0.439363
O O11 0.250000 0.782121 0.695427
O O12 0.340935 0.784401 0.781457
O O13 0.327417 0.756587 0.557354
O O14 0.312792 0.000000 0.651067
O O15 0.897008 0.000000 0.136002
O O16 0.647759 0.500000 0.508319
#
# Coordination Sequence:
#
# PCOD8206794 Si02
#       6
#     8   8   8   8   8   8
#     4   9  16  27  44  67  96 129 159 184 220 272
#     4  10  18  30  47  66  95 135 167 186 220 279
#     4   9  15  27  45  65  93 128 159 184 221 278
#     4   9  19  36  54  69  90 121 153 193 248 296
#     4  10  19  30  46  70  95 120 159 205 238 265
#     4   9  17  28  47  73  95 117 153 198 233 270
#
# _framework density 16.720424999999999
#
# number of rings (size 3 to 8) (size 9 to 14) (size 15 to 20)
#    0.000    2.667    1.667    1.000    0.000    3.333 
#    0.000    1.667    0.000    5.000    0.000    4.667 
#    0.000    0.000    0.000    0.000    0.000    0.000 
#
# Total GULP energy -594836.233019 kJ/mol
# GULP energy per Si atom -12392.421521 kJ/mol
# Density = 1.668237 g / cm^3
# Si number density = 16.720425 Si / 1000 Ang^3
#
#
#
# Elastic Constant Matrix: (Units=GPa)
#
#
# Indices 1 2 3 4 5 6 
#
# 1 88.4166 30.7824 54.1453 0.0000 0.0000 0.0000
# 2 30.7824 35.3393 33.0395 0.0000 0.0000 0.0000
# 3 54.1453 33.0395 108.0137 0.0000 0.0000 0.0000
# 4 0.0000 0.0000 0.0000 17.1597 0.0000 0.0000
# 5 0.0000 0.0000 0.0000 0.0000 17.6749 0.0000
# 6 0.0000 0.0000 0.0000 0.0000 0.0000 20.6174
#
#
#
# Elastic Compliance Matrix: (Units=1/GPa)
#
#
# Indices 1 2 3 4 5 6 
#
# 1 0.018776 -0.010581 -0.006175 0.000000 0.000000 0.000000
# 2 -0.010581 0.045594 -0.008642 0.000000 0.000000 0.000000
# 3 -0.006175 -0.008642 0.014997 0.000000 0.000000 0.000000
# 4 0.000000 0.000000 0.000000 0.058276 0.000000 0.000000
# 5 0.000000 0.000000 0.000000 0.000000 0.056577 0.000000
# 6 0.000000 0.000000 0.000000 0.000000 0.000000 0.048503
#
#
# Mechanical properties :
#
#
# Convention : Reuss Voigt Hill
#
# Bulk Modulus (GPa) = 35.00275 51.96711 43.48493
# Shear Modulus (GPa) = 16.49931 18.67722 17.58827
#
# Velocity S-wave (km/s) = 3.14471 3.34583 3.24682
# Velocity P-wave (km/s) = 5.84510 6.78775 6.33398
#
# Compressibility (1/GPa) = 0.02856919
#
# Stress axis : x y z
#
# Youngs Moduli (GPa) = 53.26055 21.93288 66.67935
#
# Poissons Ratio (x) = 0.23207 0.41176
# Poissons Ratio (y) = 0.56356 0.57625
# Poissons Ratio (z) = 0.32890 0.18955
#
# Static dielectric constant tensor:
#      x y z
#    x 3.005160 0.000000 0.000000 
#    y 0.000000 2.955230 0.000000 
#    z 0.000000 0.000000 3.440200 
# 
# 
# High freq. dielectric constant tensor:
#      x y z
#    x 1.615830 0.000000 0.000000 
#    y 0.000000 1.622360 0.000000 
#    z 0.000000 0.000000 1.647530 
# 
# From -- ./inp_files/18631.got.cif
#   From: 2010.03.12/outbox.cif.g09.slc.cpg/sg51_10_cif.got.tgz:18631.got - 2010.04.16 13:43:02.
