data_PCOD8206501
_publ_section_title
;
Structure prediction by ZEFSAII (Michael W. Deem and Ramdas Pophale) SiO2 
 PCOD8206501
Probable space group: P M M A
;
_chemical_formula_sum "Si O2"
_cell_formula_units_Z 64
_cell_length_a 18.101763
_cell_length_b 9.085030
_cell_length_c 21.602893
_cell_angle_alpha 90.000000
_cell_angle_beta 90.000000
_cell_angle_gamma 90.000000
_cell_volume 3552.705062
_symmetry_space_group_name_H-M "P M M A"
_symmetry_group_IT_number 51
_symmetry_cell_setting 'orthorhombic'
loop_
_space_group_symop_operation_xyz
x,y,z
1/2-x,-y,z
1/2+x,-y,-z
-x,y,-z
-x,-y,-z
1/2+x,y,-z
1/2-x,y,z
x,-y,z
loop_
_atom_site_type_symbol
_atom_site_label
_atom_site_fract_x
_atom_site_fract_y
_atom_site_fract_z
Si Si1 0.977620 0.173404 0.933263
Si Si2 0.095461 0.828271 0.615644
Si Si3 0.167580 0.170079 0.135133
Si Si4 0.334815 0.331646 0.727713
Si Si5 0.043905 0.331543 0.822298
Si Si6 0.576228 0.172583 0.628715
Si Si7 0.895000 0.329093 0.751734
Si Si8 0.087502 0.666340 0.493705
O O1 0.893510 0.220726 0.915505
O O2 0.035368 0.233885 0.883288
O O3 0.986136 0.000000 0.934120
O O4 0.000000 0.239649 0.000000
O O5 0.146898 0.773460 0.670813
O O6 0.121827 0.745583 0.553583
O O7 0.010790 0.792661 0.632032
O O8 0.107849 0.000000 0.604944
O O9 0.250000 0.194372 0.107562
O O10 0.160925 0.264738 0.197486
O O11 0.154142 0.000000 0.152603
O O12 0.250000 0.313141 0.745968
O O13 0.354446 0.500000 0.709335
O O14 0.380825 0.284694 0.788300
O O15 0.044806 0.500000 0.843924
O O16 0.978228 0.301827 0.774198
O O17 0.616540 0.244069 0.687506
O O18 0.611470 0.245125 0.567499
O O19 0.592409 0.000000 0.627350
O O20 0.877363 0.500000 0.741481
O O21 0.117817 0.500000 0.489628
O O22 0.000000 0.668371 0.500000
#
# Coordination Sequence:
#
# PCOD8206501 Si02
#       8
#     8   8   8   8   8   8   8   8
#     4   9  18  33  54  79 105 135 171 208 247 295
#     4  10  19  30  46  68  97 129 166 215 262 308
#     4   9  18  33  52  74 103 137 170 205 250 303
#     4  10  20  34  51  70  97 135 176 216 260 310
#     4   9  18  32  50  73 100 130 167 209 251 296
#     4  10  18  28  45  71 100 129 164 208 259 309
#     4  10  18  29  49  74 100 130 166 209 254 300
#     4   9  17  28  44  66  94 127 163 206 255 306
#
# _framework density 18.014444000000001
#
# number of rings (size 3 to 8) (size 9 to 14) (size 15 to 20)
#    0.000    2.500    1.250    1.500    0.000    4.250 
#    0.000    0.625    0.000    1.500    0.000    0.000 
#    0.000    0.000    0.000    0.000    0.000    0.000 
#
# Total GULP energy -793669.477815 kJ/mol
# GULP energy per Si atom -12401.085591 kJ/mol
# Density = 1.797344 g / cm^3
# Si number density = 18.014444 Si / 1000 Ang^3
#
#
#
# Elastic Constant Matrix: (Units=GPa)
#
#
# Indices 1 2 3 4 5 6 
#
# 1 75.3538 27.0644 47.0712 0.0000 0.0000 0.0000
# 2 27.0644 79.4387 57.2569 0.0000 0.0000 0.0000
# 3 47.0712 57.2569 147.9096 0.0000 0.0000 0.0000
# 4 0.0000 0.0000 0.0000 31.2095 0.0000 0.0000
# 5 0.0000 0.0000 0.0000 0.0000 18.1699 0.0000
# 6 0.0000 0.0000 0.0000 0.0000 0.0000 18.2898
#
#
#
# Elastic Compliance Matrix: (Units=1/GPa)
#
#
# Indices 1 2 3 4 5 6 
#
# 1 0.016947 -0.002616 -0.004380 0.000000 0.000000 0.000000
# 2 -0.002616 0.017864 -0.006083 0.000000 0.000000 0.000000
# 3 -0.004380 -0.006083 0.010509 0.000000 0.000000 0.000000
# 4 0.000000 0.000000 0.000000 0.032042 0.000000 0.000000
# 5 0.000000 0.000000 0.000000 0.000000 0.055036 0.000000
# 6 0.000000 0.000000 0.000000 0.000000 0.000000 0.054675
#
#
# Mechanical properties :
#
#
# Convention : Reuss Voigt Hill
#
# Bulk Modulus (GPa) = 52.18833 62.83189 57.51011
# Shear Modulus (GPa) = 22.76672 24.95448 23.86060
#
# Velocity S-wave (km/s) = 3.55886 3.72593 3.64335
# Velocity P-wave (km/s) = 6.77646 7.31194 7.04929
#
# Compressibility (1/GPa) = 0.01916137
#
# Stress axis : x y z
#
# Youngs Moduli (GPa) = 59.00845 55.97897 95.15216
#
# Poissons Ratio (x) = 0.14647 0.41680
# Poissons Ratio (y) = 0.15439 0.57877
# Poissons Ratio (z) = 0.25848 0.34049
#
# Static dielectric constant tensor:
#      x y z
#    x 3.080870 0.000000 0.000000 
#    y 0.000000 3.358910 0.000000 
#    z 0.000000 0.000000 3.348950 
# 
# 
# High freq. dielectric constant tensor:
#      x y z
#    x 1.665010 0.000000 0.000000 
#    y 0.000000 1.702650 0.000000 
#    z 0.000000 0.000000 1.693860 
# 
# From -- ./inp_files/33833.got.cif
#   From: 2010.03.12/outbox.cif.g09.slc.cpg/sg51_17_cif.got.tgz:33833.got - 2010.04.16 13:43:02.
