data_PCOD8206857
_publ_section_title
;
Structure prediction by ZEFSAII (Michael W. Deem and Ramdas Pophale) SiO2 
 PCOD8206857
Probable space group: P M M A
;
_chemical_formula_sum "Si O2"
_cell_formula_units_Z 64
_cell_length_a 21.845375
_cell_length_b 9.521279
_cell_length_c 18.845592
_cell_angle_alpha 90.000000
_cell_angle_beta 90.000000
_cell_angle_gamma 90.000000
_cell_volume 3919.806062
_symmetry_space_group_name_H-M "P M M A"
_symmetry_group_IT_number 51
_symmetry_cell_setting 'orthorhombic'
loop_
_space_group_symop_operation_xyz
x,y,z
1/2-x,-y,z
1/2+x,-y,-z
-x,y,-z
-x,-y,-z
1/2+x,y,-z
1/2-x,y,z
x,-y,z
loop_
_atom_site_type_symbol
_atom_site_label
_atom_site_fract_x
_atom_site_fract_y
_atom_site_fract_z
Si Si1 0.482762 0.159283 0.161986
Si Si2 0.490316 0.837612 0.326036
Si Si3 0.108130 0.840547 0.923708
Si Si4 0.628554 0.162606 0.346565
Si Si5 0.180539 0.662477 0.530519
Si Si6 0.056925 0.664430 0.449143
Si Si7 0.182993 0.167054 0.796834
Si Si8 0.936681 0.341289 0.957627
O O1 0.487233 0.209306 0.243707
O O2 0.547803 0.165686 0.124201
O O3 0.439001 0.265407 0.118924
O O4 0.457100 0.000000 0.158080
O O5 0.557132 0.812506 0.359867
O O6 0.445404 0.744556 0.373945
O O7 0.471570 0.000000 0.332659
O O8 0.160555 0.777841 0.872951
O O9 0.119620 0.000000 0.949081
O O10 0.110120 0.744172 0.993219
O O11 0.671820 0.248762 0.398603
O O12 0.640515 0.218503 0.267190
O O13 0.646729 0.000000 0.354957
O O14 0.250000 0.692092 0.500172
O O15 0.174015 0.500000 0.550692
O O16 0.124620 0.704349 0.478356
O O17 0.051556 0.500000 0.433971
O O18 0.000000 0.711278 0.500000
O O19 0.250000 0.227368 0.782894
O O20 0.181127 0.000000 0.800017
O O21 0.913790 0.500000 0.945596
O O22 0.000000 0.338642 0.000000
#
# Coordination Sequence:
#
# PCOD8206857 Si02
#       8
#     8   8   8   8   8   8   8   8
#     4   9  16  28  44  64  90 118 149 183 225 277
#     4  10  19  30  48  73  99 126 157 195 239 285
#     4   9  15  26  43  61  85 120 154 184 222 267
#     4  10  18  30  48  71  97 126 161 198 234 276
#     4  10  21  36  51  68  93 126 163 201 240 285
#     4  10  20  34  50  69  94 126 162 197 238 289
#     4   9  16  26  42  65  92 123 160 196 226 266
#     4   9  17  27  40  62  88 114 146 183 222 263
#
# _framework density 16.32734
#
# number of rings (size 3 to 8) (size 9 to 14) (size 15 to 20)
#    0.000    2.500    2.500    0.750    0.000    3.500 
#    0.000    0.625    0.000    1.125    0.000    0.875 
#    0.000    1.000    0.000    0.000    0.000    0.000 
#
# Total GULP energy -793125.443251 kJ/mol
# GULP energy per Si atom -12392.585051 kJ/mol
# Density = 1.629018 g / cm^3
# Si number density = 16.327340 Si / 1000 Ang^3
#
#
#
# Elastic Constant Matrix: (Units=GPa)
#
#
# Indices 1 2 3 4 5 6 
#
# 1 71.8140 28.2718 37.0674 0.0000 0.0000 0.0000
# 2 28.2718 64.2611 48.2127 0.0000 0.0000 0.0000
# 3 37.0674 48.2127 91.7945 0.0000 0.0000 0.0000
# 4 0.0000 0.0000 0.0000 13.8263 0.0000 0.0000
# 5 0.0000 0.0000 0.0000 0.0000 23.6024 0.0000
# 6 0.0000 0.0000 0.0000 0.0000 0.0000 14.5304
#
#
#
# Elastic Compliance Matrix: (Units=1/GPa)
#
#
# Indices 1 2 3 4 5 6 
#
# 1 0.018230 -0.004121 -0.005197 0.000000 0.000000 0.000000
# 2 -0.004121 0.026613 -0.012314 0.000000 0.000000 0.000000
# 3 -0.005197 -0.012314 0.019460 0.000000 0.000000 0.000000
# 4 0.000000 0.000000 0.000000 0.072326 0.000000 0.000000
# 5 0.000000 0.000000 0.000000 0.000000 0.042369 0.000000
# 6 0.000000 0.000000 0.000000 0.000000 0.000000 0.068821
#
#
# Mechanical properties :
#
#
# Convention : Reuss Voigt Hill
#
# Bulk Modulus (GPa) = 47.53006 50.55261 49.04134
# Shear Modulus (GPa) = 16.77322 18.01302 17.39312
#
# Velocity S-wave (km/s) = 3.20864 3.32511 3.26740
# Velocity P-wave (km/s) = 6.54989 6.76543 6.65853
#
# Compressibility (1/GPa) = 0.02103932
#
# Stress axis : x y z
#
# Youngs Moduli (GPa) = 54.85567 37.57540 51.38803
#
# Poissons Ratio (x) = 0.15486 0.26705
# Poissons Ratio (y) = 0.22608 0.63277
# Poissons Ratio (z) = 0.28507 0.46269
#
# Static dielectric constant tensor:
#      x y z
#    x 3.028090 0.000000 0.000000 
#    y 0.000000 3.020470 0.000000 
#    z 0.000000 0.000000 3.095470 
# 
# 
# High freq. dielectric constant tensor:
#      x y z
#    x 1.596940 0.000000 0.000000 
#    y 0.000000 1.616460 0.000000 
#    z 0.000000 0.000000 1.624070 
# 
# From -- ./inp_files/30867.got.cif
#   From: 2010.03.12/outbox.cif.g09.slc.cpg/sg51_16_cif.got.tgz:30867.got - 2010.04.16 13:43:02.
