data_PCOD8206831
_publ_section_title
;
Structure prediction by ZEFSAII (Michael W. Deem and Ramdas Pophale) SiO2 
 PCOD8206831
Probable space group: P M M A
;
_chemical_formula_sum "Si O2"
_cell_formula_units_Z 64
_cell_length_a 28.786277
_cell_length_b 9.032373
_cell_length_c 15.563456
_cell_angle_alpha 90.000000
_cell_angle_beta 90.000000
_cell_angle_gamma 90.000000
_cell_volume 4046.629155
_symmetry_space_group_name_H-M "P M M A"
_symmetry_group_IT_number 51
_symmetry_cell_setting 'orthorhombic'
loop_
_space_group_symop_operation_xyz
x,y,z
1/2-x,-y,z
1/2+x,-y,-z
-x,y,-z
-x,-y,-z
1/2+x,y,-z
1/2-x,y,z
x,-y,z
loop_
_atom_site_type_symbol
_atom_site_label
_atom_site_fract_x
_atom_site_fract_y
_atom_site_fract_z
Si Si1 0.149964 0.323962 0.659514
Si Si2 0.047888 0.675086 0.401185
Si Si3 0.303868 0.173897 0.816282
Si Si4 0.644968 0.675856 0.658819
Si Si5 0.305206 0.163812 0.006858
Si Si6 0.302790 0.325645 0.173169
Si Si7 0.695597 0.828306 0.500699
Si Si8 0.052781 0.324392 0.593826
O O1 0.154516 0.500000 0.651435
O O2 0.165664 0.271649 0.752804
O O3 0.182199 0.250210 0.587881
O O4 0.096620 0.268074 0.648753
O O5 0.045818 0.500000 0.407219
O O6 0.090430 0.722696 0.339621
O O7 0.057843 0.737104 0.496786
O O8 0.997164 0.732007 0.367888
O O9 0.250000 0.213318 0.802348
O O10 0.312024 0.000000 0.800107
O O11 0.320693 0.219149 0.912410
O O12 0.651400 0.500000 0.648340
O O13 0.666927 0.734602 0.747477
O O14 0.669766 0.752418 0.579478
O O15 0.250000 0.160940 0.007308
O O16 0.324133 0.266919 0.083489
O O17 0.324969 0.000000 0.023616
O O18 0.250000 0.269618 0.186348
O O19 0.304896 0.500000 0.168939
O O20 0.750000 0.807817 0.515647
O O21 0.681612 0.000000 0.495489
O O22 0.053644 0.500000 0.592566
#
# Coordination Sequence:
#
# PCOD8206831 Si02
#       8
#     8   8   8   8   8   8   8   8
#     4  11  20  30  46  68  89 114 149 186 222 262
#     4   8  13  25  45  65  86 112 144 183 223 261
#     4   9  18  32  47  64  89 119 149 181 218 262
#     4  10  18  30  48  68  88 116 151 185 221 262
#     4   8  15  29  47  63  82 114 151 180 211 258
#     4   9  17  27  41  65  94 116 138 177 223 259
#     4  11  23  34  42  57  88 127 157 180 211 255
#     4   8  14  25  43  66  87 110 144 184 223 261
#
# _framework density 15.815632000000001
#
# number of rings (size 3 to 8) (size 9 to 14) (size 15 to 20)
#    0.000    2.750    1.250    3.000    0.000    4.250 
#    0.000    2.500    0.000    2.250    0.000    0.875 
#    0.000    7.000    0.000    0.000    0.000    0.000 
#
# Total GULP energy -793117.427960 kJ/mol
# GULP energy per Si atom -12392.459812 kJ/mol
# Density = 1.577963 g / cm^3
# Si number density = 15.815632 Si / 1000 Ang^3
#
#
#
# Elastic Constant Matrix: (Units=GPa)
#
#
# Indices 1 2 3 4 5 6 
#
# 1 88.9190 22.6278 40.6174 0.0000 0.0000 0.0000
# 2 22.6278 33.7933 25.1729 0.0000 0.0000 0.0000
# 3 40.6174 25.1729 100.1069 0.0000 0.0000 0.0000
# 4 0.0000 0.0000 0.0000 22.4872 0.0000 0.0000
# 5 0.0000 0.0000 0.0000 0.0000 9.8251 0.0000
# 6 0.0000 0.0000 0.0000 0.0000 0.0000 8.5758
#
#
#
# Elastic Compliance Matrix: (Units=1/GPa)
#
#
# Indices 1 2 3 4 5 6 
#
# 1 0.014964 -0.006764 -0.004371 0.000000 0.000000 0.000000
# 2 -0.006764 0.039470 -0.007181 0.000000 0.000000 0.000000
# 3 -0.004371 -0.007181 0.013568 0.000000 0.000000 0.000000
# 4 0.000000 0.000000 0.000000 0.044470 0.000000 0.000000
# 5 0.000000 0.000000 0.000000 0.000000 0.101780 0.000000
# 6 0.000000 0.000000 0.000000 0.000000 0.000000 0.116607
#
#
# Mechanical properties :
#
#
# Convention : Reuss Voigt Hill
#
# Bulk Modulus (GPa) = 31.87614 44.40615 38.14114
# Shear Modulus (GPa) = 13.22937 17.13768 15.18352
#
# Velocity S-wave (km/s) = 2.89532 3.29537 3.10180
# Velocity P-wave (km/s) = 5.60141 6.52821 6.08249
#
# Compressibility (1/GPa) = 0.03137143
#
# Stress axis : x y z
#
# Youngs Moduli (GPa) = 66.82737 25.33584 73.70131
#
# Poissons Ratio (x) = 0.17137 0.32212
# Poissons Ratio (y) = 0.45203 0.52922
# Poissons Ratio (z) = 0.29207 0.18193
#
# Static dielectric constant tensor:
#      x y z
#    x 3.312450 0.000000 0.000000 
#    y 0.000000 2.849720 0.000000 
#    z 0.000000 0.000000 3.114480 
# 
# 
# High freq. dielectric constant tensor:
#      x y z
#    x 1.594380 0.000000 0.000000 
#    y 0.000000 1.587580 0.000000 
#    z 0.000000 0.000000 1.597170 
# 
# From -- ./inp_files/26589.got.cif
#   From: 2010.03.12/outbox.cif.g09.slc.cpg/sg51_14_cif.got.tgz:26589.got - 2010.04.16 13:43:02.
