data_PCOD8206658
_publ_section_title
;
Structure prediction by ZEFSAII (Michael W. Deem and Ramdas Pophale) SiO2 
 PCOD8206658
Probable space group: P M M A
;
_chemical_formula_sum "Si O2"
_cell_formula_units_Z 64
_cell_length_a 8.961437
_cell_length_b 23.466682
_cell_length_c 18.902252
_cell_angle_alpha 90.000000
_cell_angle_beta 90.000000
_cell_angle_gamma 90.000000
_cell_volume 3975.052720
_symmetry_space_group_name_H-M "P M M A"
_symmetry_group_IT_number 51
_symmetry_cell_setting 'orthorhombic'
loop_
_space_group_symop_operation_xyz
x,y,z
1/2-x,-y,z
1/2+x,-y,-z
-x,y,-z
-x,-y,-z
1/2+x,y,-z
1/2-x,y,z
x,-y,z
loop_
_atom_site_type_symbol
_atom_site_label
_atom_site_fract_x
_atom_site_fract_y
_atom_site_fract_z
Si Si1 0.924622 0.936722 0.427209
Si Si2 0.422208 0.566082 0.790953
Si Si3 0.076113 0.386177 0.072074
Si Si4 0.577307 0.274802 0.571825
Si Si5 0.424327 0.660318 0.288439
Si Si6 0.577111 0.825873 0.350107
Si Si7 0.423141 0.747568 0.071794
Si Si8 0.575118 0.236502 0.210968
O O1 0.750000 0.936739 0.441366
O O2 0.967165 0.891365 0.366198
O O3 0.000000 0.917598 0.500000
O O4 0.979019 0.000000 0.403736
O O5 0.250000 0.584556 0.795936
O O6 0.439216 0.500000 0.773207
O O7 0.501623 0.579626 0.864583
O O8 0.502827 0.599109 0.726608
O O9 0.250000 0.400975 0.068909
O O10 0.048290 0.319291 0.082933
O O11 0.000000 0.407432 0.000000
O O12 0.500000 0.295215 0.500000
O O13 0.750000 0.265962 0.556652
O O14 0.548276 0.323815 0.629880
O O15 0.514956 0.214613 0.598134
O O16 0.250000 0.659713 0.268950
O O17 0.503663 0.705011 0.237308
O O18 0.750000 0.813890 0.366177
O O19 0.541184 0.813250 0.267960
O O20 0.250000 0.763044 0.068415
O O21 0.498986 0.781085 0.137081
O O22 0.500000 0.769117 0.000000
O O23 0.750000 0.245937 0.199358
#
# Coordination Sequence:
#
# PCOD8206658 Si02
#       8
#     8   8   8   8   8   8   8   8
#     4   9  17  29  44  63  92 130 169 203 231 265
#     4  11  23  36  51  70  91 117 149 185 225 271
#     4  10  20  33  50  69  92 121 152 186 222 265
#     4  10  20  32  49  72  96 120 149 186 231 276
#     4  10  20  34  50  69  91 117 148 183 225 275
#     4   9  18  30  45  68  96 127 161 194 232 271
#     4  10  19  30  46  68  93 122 154 185 223 274
#     4  10  18  29  47  68  93 122 151 189 231 274
#
# _framework density 16.100414000000001
#
# number of rings (size 3 to 8) (size 9 to 14) (size 15 to 20)
#    0.000    2.125    1.250    2.625    0.000    5.750 
#    0.000    0.000    0.000    0.375    0.000    0.000 
#    0.000    0.500    0.000    0.875    0.000    1.250 
#
# Total GULP energy -793692.202983 kJ/mol
# GULP energy per Si atom -12401.440672 kJ/mol
# Density = 1.606377 g / cm^3
# Si number density = 16.100414 Si / 1000 Ang^3
#
#
#
# Elastic Constant Matrix: (Units=GPa)
#
#
# Indices 1 2 3 4 5 6 
#
# 1 101.9146 43.2482 66.3143 0.0000 0.0000 0.0000
# 2 43.2482 79.6005 54.0190 0.0000 0.0000 0.0000
# 3 66.3143 54.0190 129.2066 0.0000 0.0000 0.0000
# 4 0.0000 0.0000 0.0000 22.6780 0.0000 0.0000
# 5 0.0000 0.0000 0.0000 0.0000 32.0548 0.0000
# 6 0.0000 0.0000 0.0000 0.0000 0.0000 16.9778
#
#
#
# Elastic Compliance Matrix: (Units=1/GPa)
#
#
# Indices 1 2 3 4 5 6 
#
# 1 0.015710 -0.004277 -0.006275 0.000000 0.000000 0.000000
# 2 -0.004277 0.018703 -0.005624 0.000000 0.000000 0.000000
# 3 -0.006275 -0.005624 0.013312 0.000000 0.000000 0.000000
# 4 0.000000 0.000000 0.000000 0.044096 0.000000 0.000000
# 5 0.000000 0.000000 0.000000 0.000000 0.031197 0.000000
# 6 0.000000 0.000000 0.000000 0.000000 0.000000 0.058901
#
#
# Mechanical properties :
#
#
# Convention : Reuss Voigt Hill
#
# Bulk Modulus (GPa) = 65.05246 70.87608 67.96427
# Shear Modulus (GPa) = 22.78995 24.15145 23.47070
#
# Velocity S-wave (km/s) = 3.76638 3.87725 3.82222
# Velocity P-wave (km/s) = 7.70753 8.01005 7.86025
#
# Compressibility (1/GPa) = 0.01537221
#
# Stress axis : x y z
#
# Youngs Moduli (GPa) = 63.65289 53.46602 75.12300
#
# Poissons Ratio (x) = 0.22869 0.47139
# Poissons Ratio (y) = 0.27226 0.42251
# Poissons Ratio (z) = 0.39941 0.30071
#
# Static dielectric constant tensor:
#      x y z
#    x 3.201840 0.000000 0.000000 
#    y 0.000000 2.929230 0.000000 
#    z 0.000000 0.000000 3.188730 
# 
# 
# High freq. dielectric constant tensor:
#      x y z
#    x 1.636660 0.000000 0.000000 
#    y 0.000000 1.582430 0.000000 
#    z 0.000000 0.000000 1.618260 
# 
# From -- ./inp_files/28575.got.cif
#   From: 2010.03.12/outbox.cif.g09.slc.cpg/sg51_15_cif.got.tgz:28575.got - 2010.04.16 13:43:02.
