data_PCOD8206621
_publ_section_title
;
Structure prediction by ZEFSAII (Michael W. Deem and Ramdas Pophale) SiO2 
 PCOD8206621
Probable space group: P M M A
;
_chemical_formula_sum "Si O2"
_cell_formula_units_Z 56
_cell_length_a 8.934553
_cell_length_b 18.166003
_cell_length_c 21.264379
_cell_angle_alpha 90.000000
_cell_angle_beta 90.000000
_cell_angle_gamma 90.000000
_cell_volume 3451.317513
_symmetry_space_group_name_H-M "P M M A"
_symmetry_group_IT_number 51
_symmetry_cell_setting 'orthorhombic'
loop_
_space_group_symop_operation_xyz
x,y,z
1/2-x,-y,z
1/2+x,-y,-z
-x,y,-z
-x,-y,-z
1/2+x,y,-z
1/2-x,y,z
x,-y,z
loop_
_atom_site_type_symbol
_atom_site_label
_atom_site_fract_x
_atom_site_fract_y
_atom_site_fract_z
Si Si1 0.427502 0.667581 0.179984
Si Si2 0.084705 0.295959 0.630314
Si Si3 0.928322 0.847161 0.434698
Si Si4 0.421944 0.085314 0.315694
Si Si5 0.918244 0.204342 0.242402
Si Si6 0.925973 0.417993 0.695507
Si Si7 0.925273 0.584965 0.065722
O O1 0.250000 0.671490 0.173265
O O2 0.491982 0.749729 0.189709
O O3 0.477139 0.615648 0.237951
O O4 0.498589 0.635110 0.117666
O O5 0.250000 0.324183 0.613035
O O6 0.026097 0.238527 0.577709
O O7 0.087139 0.251317 0.694623
O O8 0.981370 0.367836 0.637267
O O9 0.750000 0.856219 0.435988
O O10 0.000000 0.872857 0.500000
O O11 0.992487 0.899594 0.380710
O O12 0.250000 0.110503 0.323291
O O13 0.495713 0.128551 0.257173
O O14 0.434904 0.000000 0.298991
O O15 0.750000 0.187408 0.218522
O O16 0.750000 0.420926 0.691219
O O17 0.994302 0.500000 0.689529
O O18 0.750000 0.601965 0.062201
O O19 0.956583 0.500000 0.082357
O O20 0.000000 0.606216 0.000000
#
# Coordination Sequence:
#
# PCOD8206621 Si02
#       7
#     8   8   8   8   8   8   8
#     4  10  18  29  46  66  91 122 156 193 231 273
#     4   8  16  29  43  61  83 108 139 177 221 265
#     4  10  20  33  49  67  87 114 149 184 219 265
#     4  10  20  33  49  70  96 123 149 179 219 267
#     4   9  17  30  47  67  91 118 150 186 225 269
#     4   9  17  27  41  63  87 111 141 179 224 270
#     4  10  20  32  45  63  91 128 167 204 241 279
#
# _framework density 16.225687000000001
#
# number of rings (size 3 to 8) (size 9 to 14) (size 15 to 20)
#    0.000    2.571    0.000    3.429    0.000    7.714 
#    0.000    0.000    0.000    0.429    0.000    0.000 
#    0.000    0.571    0.000    2.143    0.000    3.286 
#
# Total GULP energy -694291.111945 kJ/mol
# GULP energy per Si atom -12398.055570 kJ/mol
# Density = 1.618876 g / cm^3
# Si number density = 16.225687 Si / 1000 Ang^3
#
#
#
# Elastic Constant Matrix: (Units=GPa)
#
#
# Indices 1 2 3 4 5 6 
#
# 1 92.3991 47.3626 34.6455 0.0000 0.0000 0.0000
# 2 47.3626 94.9362 34.2725 0.0000 0.0000 0.0000
# 3 34.6455 34.2725 54.8538 0.0000 0.0000 0.0000
# 4 0.0000 0.0000 0.0000 22.7472 0.0000 0.0000
# 5 0.0000 0.0000 0.0000 0.0000 26.5796 0.0000
# 6 0.0000 0.0000 0.0000 0.0000 0.0000 27.3062
#
#
#
# Elastic Compliance Matrix: (Units=1/GPa)
#
#
# Indices 1 2 3 4 5 6 
#
# 1 0.016254 -0.005685 -0.006714 0.000000 0.000000 0.000000
# 2 -0.005685 0.015590 -0.006150 0.000000 0.000000 0.000000
# 3 -0.006714 -0.006150 0.026313 0.000000 0.000000 0.000000
# 4 0.000000 0.000000 0.000000 0.043961 0.000000 0.000000
# 5 0.000000 0.000000 0.000000 0.000000 0.037623 0.000000
# 6 0.000000 0.000000 0.000000 0.000000 0.000000 0.036622
#
#
# Mechanical properties :
#
#
# Convention : Reuss Voigt Hill
#
# Bulk Modulus (GPa) = 47.48495 52.75002 50.11749
# Shear Modulus (GPa) = 22.67772 23.72050 23.19911
#
# Velocity S-wave (km/s) = 3.74256 3.82764 3.78534
# Velocity P-wave (km/s) = 6.92853 7.21909 7.07530
#
# Compressibility (1/GPa) = 0.02105930
#
# Stress axis : x y z
#
# Youngs Moduli (GPa) = 61.52238 64.14475 38.00393
#
# Poissons Ratio (x) = 0.36468 0.25516
# Poissons Ratio (y) = 0.34977 0.23371
# Poissons Ratio (z) = 0.41306 0.39447
#
# Static dielectric constant tensor:
#      x y z
#    x 3.233750 0.000000 0.000000 
#    y 0.000000 3.135940 0.000000 
#    z 0.000000 0.000000 2.906710 
# 
# 
# High freq. dielectric constant tensor:
#      x y z
#    x 1.639130 0.000000 0.000000 
#    y 0.000000 1.613670 0.000000 
#    z 0.000000 0.000000 1.588180 
# 
# From -- ./inp_files/32209.got.cif
#   From: 2010.03.12/outbox.cif.g09.slc.cpg/sg51_17_cif.got.tgz:32209.got - 2010.04.16 13:43:02.
