data_PCOD8206927
_publ_section_title
;
Structure prediction by ZEFSAII (Michael W. Deem and Ramdas Pophale) SiO2 
 PCOD8206927
Probable space group: P M M A
;
_chemical_formula_sum "Si O2"
_cell_formula_units_Z 44
_cell_length_a 8.675565
_cell_length_b 28.718918
_cell_length_c 9.321781
_cell_angle_alpha 90.000000
_cell_angle_beta 90.000000
_cell_angle_gamma 90.000000
_cell_volume 2322.548209
_symmetry_space_group_name_H-M "P M M A"
_symmetry_group_IT_number 51
_symmetry_cell_setting 'orthorhombic'
loop_
_space_group_symop_operation_xyz
x,y,z
1/2-x,-y,z
1/2+x,-y,-z
-x,y,-z
-x,-y,-z
1/2+x,y,-z
1/2-x,y,z
x,-y,z
loop_
_atom_site_type_symbol
_atom_site_label
_atom_site_fract_x
_atom_site_fract_y
_atom_site_fract_z
Si Si1 0.932980 0.363663 0.842836
Si Si2 0.432719 0.824046 0.157838
Si Si3 0.568199 0.448284 0.652141
Si Si4 0.431723 0.912381 0.342060
Si Si5 0.067240 0.000000 0.158747
Si Si6 0.933251 0.729570 0.159309
O O1 0.750000 0.359689 0.846935
O O2 0.992001 0.409776 0.762627
O O3 0.002107 0.317351 0.764614
O O4 0.000000 0.368035 0.000000
O O5 0.250000 0.819556 0.144260
O O6 0.484210 0.865268 0.263154
O O7 0.502428 0.777007 0.230108
O O8 0.500000 0.833623 0.000000
O O9 0.500000 0.434875 0.500000
O O10 0.750000 0.446662 0.639614
O O11 0.513009 0.500000 0.700935
O O12 0.500000 0.914945 0.500000
O O13 0.250000 0.914952 0.357021
O O14 0.492929 0.955082 0.245767
O O15 0.250000 0.000000 0.145212
O O16 0.000000 0.000000 0.000000
O O17 0.750000 0.729457 0.160033
O O18 0.000000 0.729137 0.000000
#
# Coordination Sequence:
#
# PCOD8206927 Si02
#       6
#     8   8   8   8   4   8
#     4  10  19  32  51  76 105 134 167 210 256 303
#     4  10  19  33  53  78 104 135 174 214 254 302
#     4   9  19  35  53  73  99 132 169 208 252 303
#     4  10  22  37  55  79 110 142 175 214 259 308
#     4  10  21  38  58  84 110 138 177 218 258 306
#     4  10  18  30  50  75 102 134 170 210 256 304
#
# _framework density 18.944710000000001
#
# number of rings (size 3 to 8) (size 9 to 14) (size 15 to 20)
#    0.000    2.182    0.000    5.727    0.000    4.000 
#    0.000    0.909    0.000    0.000    0.000    0.000 
#    0.000    0.000    0.000    0.000    0.000    0.000 
#
# Total GULP energy -545458.984630 kJ/mol
# GULP energy per Si atom -12396.795105 kJ/mol
# Density = 1.890159 g / cm^3
# Si number density = 18.944710 Si / 1000 Ang^3
#
#
#
# Elastic Constant Matrix: (Units=GPa)
#
#
# Indices 1 2 3 4 5 6 
#
# 1 75.2656 57.0855 31.7716 0.0000 0.0000 0.0000
# 2 57.0855 211.8866 91.7014 0.0000 0.0000 0.0000
# 3 31.7716 91.7014 106.0926 0.0000 0.0000 0.0000
# 4 0.0000 0.0000 0.0000 20.0220 0.0000 0.0000
# 5 0.0000 0.0000 0.0000 0.0000 29.4004 0.0000
# 6 0.0000 0.0000 0.0000 0.0000 0.0000 22.1673
#
#
#
# Elastic Compliance Matrix: (Units=1/GPa)
#
#
# Indices 1 2 3 4 5 6 
#
# 1 0.016911 -0.003777 -0.001799 0.000000 0.000000 0.000000
# 2 -0.003777 0.008384 -0.006115 0.000000 0.000000 0.000000
# 3 -0.001799 -0.006115 0.015250 0.000000 0.000000 0.000000
# 4 0.000000 0.000000 0.000000 0.049945 0.000000 0.000000
# 5 0.000000 0.000000 0.000000 0.000000 0.034013 0.000000
# 6 0.000000 0.000000 0.000000 0.000000 0.000000 0.045112
#
#
# Mechanical properties :
#
#
# Convention : Reuss Voigt Hill
#
# Bulk Modulus (GPa) = 58.27194 83.81797 71.04496
# Shear Modulus (GPa) = 25.16113 28.49701 26.82907
#
# Velocity S-wave (km/s) = 3.64831 3.88263 3.76730
# Velocity P-wave (km/s) = 6.96941 8.02741 7.51705
#
# Compressibility (1/GPa) = 0.01716092
#
# Stress axis : x y z
#
# Youngs Moduli (GPa) = 59.13409 119.27759 65.57191
#
# Poissons Ratio (x) = 0.45054 0.11799
# Poissons Ratio (y) = 0.22337 0.40100
# Poissons Ratio (z) = 0.10640 0.72943
#
# Static dielectric constant tensor:
#      x y z
#    x 3.434610 0.000000 0.000000 
#    y 0.000000 4.528850 0.000000 
#    z 0.000000 0.000000 3.235030 
# 
# 
# High freq. dielectric constant tensor:
#      x y z
#    x 1.739230 0.000000 0.000000 
#    y 0.000000 1.765830 0.000000 
#    z 0.000000 0.000000 1.704590 
# 
# From -- ./inp_files/5871.got.cif
#   From: 2010.03.12/outbox.cif.g09.slc.cpg/sg51_3_cif.got.tgz:5871.got - 2010.04.16 13:43:02.
