data_PCOD8206033
_publ_section_title
;
Structure prediction by ZEFSAII (Michael W. Deem and Ramdas Pophale) SiO2 
 PCOD8206033
Probable space group: P M M A
;
_chemical_formula_sum "Si O2"
_cell_formula_units_Z 64
_cell_length_a 9.013823
_cell_length_b 18.634059
_cell_length_c 20.952708
_cell_angle_alpha 90.000000
_cell_angle_beta 90.000000
_cell_angle_gamma 90.000000
_cell_volume 3519.302943
_symmetry_space_group_name_H-M "P M M A"
_symmetry_group_IT_number 51
_symmetry_cell_setting 'orthorhombic'
loop_
_space_group_symop_operation_xyz
x,y,z
1/2-x,-y,z
1/2+x,-y,-z
-x,y,-z
-x,-y,-z
1/2+x,y,-z
1/2-x,y,z
x,-y,z
loop_
_atom_site_type_symbol
_atom_site_label
_atom_site_fract_x
_atom_site_fract_y
_atom_site_fract_z
Si Si1 0.586858 0.341433 0.059217
Si Si2 0.422704 0.837961 0.681095
Si Si3 0.580252 0.170015 0.063158
Si Si4 0.578108 0.320263 0.193267
Si Si5 0.579075 0.915356 0.564720
Si Si6 0.574453 0.827854 0.809193
Si Si7 0.083825 0.668853 0.668130
Si Si8 0.423379 0.418457 0.436120
O O1 0.750000 0.366713 0.043310
O O2 0.570126 0.255893 0.062420
O O3 0.541404 0.369355 0.130627
O O4 0.500000 0.375761 0.000000
O O5 0.250000 0.857986 0.685035
O O6 0.497443 0.878992 0.623303
O O7 0.501626 0.864148 0.746486
O O8 0.445682 0.753478 0.670029
O O9 0.750000 0.143691 0.063686
O O10 0.496782 0.139550 0.125994
O O11 0.500000 0.139148 0.000000
O O12 0.750000 0.290832 0.187282
O O13 0.460995 0.256172 0.194080
O O14 0.562830 0.363080 0.259905
O O15 0.500000 0.889296 0.500000
O O16 0.750000 0.890874 0.562431
O O17 0.564175 0.000000 0.573002
O O18 0.750000 0.841118 0.809516
O O19 0.250000 0.652461 0.643412
O O20 0.966536 0.630947 0.622995
O O21 0.500000 0.388782 0.500000
O O22 0.250000 0.413237 0.446797
O O23 0.474761 0.500000 0.422395
#
# Coordination Sequence:
#
# PCOD8206033 Si02
#       8
#     8   8   8   8   8   8   8   8
#     4   8  13  20  31  48  74 109 147 184 220 264
#     4  10  20  34  51  72  99 130 163 199 240 285
#     4   9  15  23  34  51  78 114 155 195 235 281
#     4   8  15  27  39  55  84 119 152 188 231 277
#     4  10  21  37  56  77 100 127 160 197 238 285
#     4  10  17  25  39  60  87 120 156 194 238 284
#     4   9  18  32  50  71  95 125 159 195 236 281
#     4  10  21  36  53  72  94 121 153 190 233 282
#
# _framework density 18.185417999999999
#
# number of rings (size 3 to 8) (size 9 to 14) (size 15 to 20)
#    0.000    2.750    0.000    4.125    0.000    7.500 
#    0.000    0.000    0.000    0.000    0.000    0.000 
#    0.000    1.000    0.000    3.000    0.000    9.625 
#
# Total GULP energy -793115.366283 kJ/mol
# GULP energy per Si atom -12392.427598 kJ/mol
# Density = 1.814403 g / cm^3
# Si number density = 18.185418 Si / 1000 Ang^3
#
#
#
# Elastic Constant Matrix: (Units=GPa)
#
#
# Indices 1 2 3 4 5 6 
#
# 1 135.6145 21.1018 87.5624 0.0000 0.0000 0.0000
# 2 21.1018 13.8522 28.0820 0.0000 0.0000 0.0000
# 3 87.5624 28.0820 193.7711 0.0000 0.0000 0.0000
# 4 0.0000 0.0000 0.0000 -5.8399 0.0000 0.0000
# 5 0.0000 0.0000 0.0000 0.0000 41.1321 0.0000
# 6 0.0000 0.0000 0.0000 0.0000 0.0000 16.3800
#
#
#
# Elastic Compliance Matrix: (Units=1/GPa)
#
#
# Indices 1 2 3 4 5 6 
#
# 1 0.011260 -0.009682 -0.003685 0.000000 0.000000 0.000000
# 2 -0.009682 0.110549 -0.011646 0.000000 0.000000 0.000000
# 3 -0.003685 -0.011646 0.008514 0.000000 0.000000 0.000000
# 4 0.000000 0.000000 0.000000 -0.171235 0.000000 0.000000
# 5 0.000000 0.000000 0.000000 0.000000 0.024312 0.000000
# 6 0.000000 0.000000 0.000000 0.000000 0.000000 0.061050
#
#
# Mechanical properties :
#
#
# Convention : Reuss Voigt Hill
#
# Bulk Modulus (GPa) = 12.45386 68.52557 40.48971
# Shear Modulus (GPa) = 41.24039 24.10056 32.67047
#
# Velocity S-wave (km/s) = 4.76728 3.64437 4.24314
# Velocity P-wave (km/s) = 6.09637 7.44795 6.80580
#
# Compressibility (1/GPa) = 0.08029638
#
# Stress axis : x y z
#
# Youngs Moduli (GPa) = 88.81291 9.04577 117.45847
#
# Poissons Ratio (x) = 0.08758 0.43282
# Poissons Ratio (y) = 0.85990 1.36791
# Poissons Ratio (z) = 0.32727 0.10535
#
# Static dielectric constant tensor:
#      x y z
#    x 3.437290 0.000000 0.000000 
#    y 0.000000 2.692710 0.000000 
#    z 0.000000 0.000000 3.896580 
# 
# 
# High freq. dielectric constant tensor:
#      x y z
#    x 1.713480 0.000000 0.000000 
#    y 0.000000 1.624410 0.000000 
#    z 0.000000 0.000000 1.735080 
# 
# From -- ./inp_files/32311.got.cif
#   From: 2010.03.12/outbox.cif.g09.slc.cpg/sg51_17_cif.got.tgz:32311.got - 2010.04.16 13:43:02.
