data_PCOD8206387
_publ_section_title
;
Structure prediction by ZEFSAII (Michael W. Deem and Ramdas Pophale) SiO2 
 PCOD8206387
Probable space group: P M M A
;
_chemical_formula_sum "Si O2"
_cell_formula_units_Z 64
_cell_length_a 26.440820
_cell_length_b 9.374034
_cell_length_c 16.898958
_cell_angle_alpha 90.000000
_cell_angle_beta 90.000000
_cell_angle_gamma 90.000000
_cell_volume 4188.527495
_symmetry_space_group_name_H-M "P M M A"
_symmetry_group_IT_number 51
_symmetry_cell_setting 'orthorhombic'
loop_
_space_group_symop_operation_xyz
x,y,z
1/2-x,-y,z
1/2+x,-y,-z
-x,y,-z
-x,-y,-z
1/2+x,y,-z
1/2-x,y,z
x,-y,z
loop_
_atom_site_type_symbol
_atom_site_label
_atom_site_fract_x
_atom_site_fract_y
_atom_site_fract_z
Si Si1 0.807283 0.166471 0.596513
Si Si2 0.044066 0.661089 0.407654
Si Si3 0.940967 0.838517 0.018041
Si Si4 0.107403 0.168250 0.524863
Si Si5 0.368936 0.661606 0.284946
Si Si6 0.424511 0.333874 0.130487
Si Si7 0.539464 0.666374 0.166001
Si Si8 0.565643 0.665008 0.341678
O O1 0.750000 0.212448 0.577775
O O2 0.841033 0.211359 0.520891
O O3 0.825530 0.241006 0.677268
O O4 0.812236 0.000000 0.612645
O O5 0.047964 0.500000 0.441746
O O6 0.060004 0.770357 0.475903
O O7 0.078837 0.678742 0.331396
O O8 0.987939 0.697722 0.381452
O O9 0.930585 0.756959 0.100158
O O10 0.920781 0.000000 0.024538
O O11 0.911896 0.758442 0.947165
O O12 0.000000 0.834126 0.000000
O O13 0.107483 0.240558 0.611893
O O14 0.101637 0.000000 0.533997
O O15 0.349108 0.500000 0.288420
O O16 0.381735 0.706428 0.195014
O O17 0.421847 0.500000 0.107823
O O18 0.479862 0.297494 0.165364
O O19 0.547915 0.500000 0.148350
O O20 0.563256 0.710716 0.250099
O O21 0.580536 0.500000 0.349204
#
# Coordination Sequence:
#
# PCOD8206387 Si02
#       8
#     8   8   8   8   8   8   8   8
#     4   9  19  35  49  60  81 112 141 172 216 266
#     4   9  16  28  42  57  81 112 142 171 205 246
#     4   9  17  26  36  55  82 112 145 178 208 235
#     4  10  20  30  41  60  81 105 139 176 214 254
#     4   9  16  27  45  67  85 105 141 182 213 246
#     4   9  15  26  42  59  81 110 144 176 204 242
#     4   9  16  27  41  56  78 114 151 175 202 242
#     4  10  18  28  42  59  82 113 145 174 207 248
#
# _framework density 15.279833999999999
#
# number of rings (size 3 to 8) (size 9 to 14) (size 15 to 20)
#    0.000    2.750    1.250    1.125    0.000    5.250 
#    0.000    0.000    0.000    0.000    0.000    0.000 
#    0.000    1.000    0.000    7.500    0.000    3.875 
#
# Total GULP energy -793448.903686 kJ/mol
# GULP energy per Si atom -12397.639120 kJ/mol
# Density = 1.524506 g / cm^3
# Si number density = 15.279834 Si / 1000 Ang^3
#
#
#
# Elastic Constant Matrix: (Units=GPa)
#
#
# Indices 1 2 3 4 5 6 
#
# 1 49.4876 31.7855 43.4382 0.0000 0.0000 0.0000
# 2 31.7855 74.2931 67.8367 0.0000 0.0000 0.0000
# 3 43.4382 67.8367 134.0104 0.0000 0.0000 0.0000
# 4 0.0000 0.0000 0.0000 21.8181 0.0000 0.0000
# 5 0.0000 0.0000 0.0000 0.0000 10.7731 0.0000
# 6 0.0000 0.0000 0.0000 0.0000 0.0000 15.3566
#
#
#
# Elastic Compliance Matrix: (Units=1/GPa)
#
#
# Indices 1 2 3 4 5 6 
#
# 1 0.030298 -0.007429 -0.006060 0.000000 0.000000 0.000000
# 2 -0.007429 0.026851 -0.011184 0.000000 0.000000 0.000000
# 3 -0.006060 -0.011184 0.015088 0.000000 0.000000 0.000000
# 4 0.000000 0.000000 0.000000 0.045834 0.000000 0.000000
# 5 0.000000 0.000000 0.000000 0.000000 0.092824 0.000000
# 6 0.000000 0.000000 0.000000 0.000000 0.000000 0.065119
#
#
# Mechanical properties :
#
#
# Convention : Reuss Voigt Hill
#
# Bulk Modulus (GPa) = 43.68691 60.43465 52.06078
# Shear Modulus (GPa) = 15.01550 17.23825 16.12687
#
# Velocity S-wave (km/s) = 3.13821 3.36247 3.25227
# Velocity P-wave (km/s) = 6.46409 7.39680 6.94612
#
# Compressibility (1/GPa) = 0.02289015
#
# Stress axis : x y z
#
# Youngs Moduli (GPa) = 33.00523 37.24314 66.27908
#
# Poissons Ratio (x) = 0.27669 0.40166
# Poissons Ratio (y) = 0.24521 0.74125
# Poissons Ratio (z) = 0.20002 0.41652
#
# Static dielectric constant tensor:
#      x y z
#    x 2.585630 0.000000 0.000000 
#    y 0.000000 2.957840 0.000000 
#    z 0.000000 0.000000 3.136010 
# 
# 
# High freq. dielectric constant tensor:
#      x y z
#    x 1.528680 0.000000 0.000000 
#    y 0.000000 1.587830 0.000000 
#    z 0.000000 0.000000 1.590650 
# 
# From -- ./inp_files/30864.got.cif
#   From: 2010.03.12/outbox.cif.g09.slc.cpg/sg51_16_cif.got.tgz:30864.got - 2010.04.16 13:43:02.
