data_PCOD8206124
_publ_section_title
;
Structure prediction by ZEFSAII (Michael W. Deem and Ramdas Pophale) SiO2 
 PCOD8206124
Probable space group: P M M A
;
_chemical_formula_sum "Si O2"
_cell_formula_units_Z 64
_cell_length_a 9.033506
_cell_length_b 14.510596
_cell_length_c 31.109889
_cell_angle_alpha 90.000000
_cell_angle_beta 90.000000
_cell_angle_gamma 90.000000
_cell_volume 4077.932658
_symmetry_space_group_name_H-M "P M M A"
_symmetry_group_IT_number 51
_symmetry_cell_setting 'orthorhombic'
loop_
_space_group_symop_operation_xyz
x,y,z
1/2-x,-y,z
1/2+x,-y,-z
-x,y,-z
-x,-y,-z
1/2+x,y,-z
1/2-x,y,z
x,-y,z
loop_
_atom_site_type_symbol
_atom_site_label
_atom_site_fract_x
_atom_site_fract_y
_atom_site_fract_z
Si Si1 0.425879 0.896647 0.205767
Si Si2 0.923633 0.105736 0.044474
Si Si3 0.916675 0.890272 0.458255
Si Si4 0.925370 0.600723 0.841849
Si Si5 0.073997 0.399378 0.254674
Si Si6 0.576174 0.106588 0.627387
Si Si7 0.926357 0.210232 0.711202
Si Si8 0.925471 0.210635 0.879020
O O1 0.250000 0.897632 0.207761
O O2 0.489304 0.845927 0.247972
O O3 0.478298 0.844221 0.163129
O O4 0.489987 0.000000 0.204595
O O5 0.750000 0.122605 0.039869
O O6 0.988860 0.171749 0.080476
O O7 0.959779 0.000000 0.056581
O O8 0.000000 0.133120 0.000000
O O9 0.750000 0.852323 0.458496
O O10 0.000000 0.849991 0.500000
O O11 0.997274 0.855399 0.415268
O O12 0.919708 0.000000 0.459669
O O13 0.750000 0.603704 0.838814
O O14 0.978006 0.500000 0.859293
O O15 0.987504 0.616302 0.793630
O O16 0.976887 0.682822 0.873248
O O17 0.250000 0.396754 0.253123
O O18 0.020529 0.500000 0.271981
O O19 0.017483 0.316427 0.285246
O O20 0.750000 0.120286 0.620842
O O21 0.513180 0.165507 0.667337
O O22 0.537756 0.000000 0.636223
O O23 0.750000 0.204444 0.711276
O O24 0.750000 0.200802 0.886356
#
# Coordination Sequence:
#
# PCOD8206124 Si02
#       8
#     8   8   8   8   8   8   8   8
#     4   9  15  21  32  55  85 114 144 176 206 239
#     4  10  21  36  52  69  90 115 142 174 214 259
#     4   9  16  26  40  56  75 101 136 176 213 249
#     4   8  13  22  38  63  93 119 144 178 219 257
#     4   8  12  19  32  52  81 113 143 177 214 246
#     4   9  16  24  35  53  79 111 143 173 206 244
#     4   9  14  21  32  51  81 114 144 173 205 242
#     4  10  17  27  46  70  92 115 146 182 217 254
#
# _framework density 15.694226
#
# number of rings (size 3 to 8) (size 9 to 14) (size 15 to 20)
#    0.000    3.000    1.250    2.250    0.000    4.250 
#    0.000    0.000    0.000    1.500    0.000    1.750 
#    0.000    1.000    0.000    0.875    0.000    1.250 
#
# Total GULP energy -793190.518410 kJ/mol
# GULP energy per Si atom -12393.601850 kJ/mol
# Density = 1.565851 g / cm^3
# Si number density = 15.694226 Si / 1000 Ang^3
#
#
#
# Elastic Constant Matrix: (Units=GPa)
#
#
# Indices 1 2 3 4 5 6 
#
# 1 36.6682 26.6044 38.4891 0.0000 0.0000 0.0000
# 2 26.6044 122.6454 75.1703 0.0000 0.0000 0.0000
# 3 38.4891 75.1703 138.5460 0.0000 0.0000 0.0000
# 4 0.0000 0.0000 0.0000 11.6913 0.0000 0.0000
# 5 0.0000 0.0000 0.0000 0.0000 18.0789 0.0000
# 6 0.0000 0.0000 0.0000 0.0000 0.0000 7.9282
#
#
#
# Elastic Compliance Matrix: (Units=1/GPa)
#
#
# Indices 1 2 3 4 5 6 
#
# 1 0.039100 -0.002733 -0.009379 0.000000 0.000000 0.000000
# 2 -0.002733 0.012407 -0.005972 0.000000 0.000000 0.000000
# 3 -0.009379 -0.005972 0.013064 0.000000 0.000000 0.000000
# 4 0.000000 0.000000 0.000000 0.085534 0.000000 0.000000
# 5 0.000000 0.000000 0.000000 0.000000 0.055313 0.000000
# 6 0.000000 0.000000 0.000000 0.000000 0.000000 0.126132
#
#
# Mechanical properties :
#
#
# Convention : Reuss Voigt Hill
#
# Bulk Modulus (GPa) = 35.20987 64.26527 49.73757
# Shear Modulus (GPa) = 13.25608 18.04605 15.65107
#
# Velocity S-wave (km/s) = 2.90943 3.39463 3.16135
# Velocity P-wave (km/s) = 5.81120 7.51012 6.71461
#
# Compressibility (1/GPa) = 0.02840113
#
# Stress axis : x y z
#
# Youngs Moduli (GPa) = 25.57577 80.60023 76.54685
#
# Poissons Ratio (x) = 0.22027 0.71796
# Poissons Ratio (y) = 0.06989 0.45717
# Poissons Ratio (z) = 0.23989 0.48137
#
# Static dielectric constant tensor:
#      x y z
#    x 2.559580 0.000000 0.000000 
#    y 0.000000 3.220310 0.000000 
#    z 0.000000 0.000000 3.020780 
# 
# 
# High freq. dielectric constant tensor:
#      x y z
#    x 1.557270 0.000000 0.000000 
#    y 0.000000 1.589860 0.000000 
#    z 0.000000 0.000000 1.594010 
# 
# From -- ./inp_files/37577.got.cif
#   From: 2010.03.12/outbox.cif.g09.slc.cpg/sg51_19_cif.got.tgz:37577.got - 2010.04.16 13:43:02.
