data_PCOD8206371
_publ_section_title
;
Structure prediction by ZEFSAII (Michael W. Deem and Ramdas Pophale) SiO2 
 PCOD8206371
Probable space group: P M M A
;
_chemical_formula_sum "Si O2"
_cell_formula_units_Z 52
_cell_length_a 9.508655
_cell_length_b 12.736683
_cell_length_c 30.128046
_cell_angle_alpha 90.000000
_cell_angle_beta 90.000000
_cell_angle_gamma 90.000000
_cell_volume 3648.769222
_symmetry_space_group_name_H-M "P M M A"
_symmetry_group_IT_number 51
_symmetry_cell_setting 'orthorhombic'
loop_
_space_group_symop_operation_xyz
x,y,z
1/2-x,-y,z
1/2+x,-y,-z
-x,y,-z
-x,-y,-z
1/2+x,y,-z
1/2-x,y,z
x,-y,z
loop_
_atom_site_type_symbol
_atom_site_label
_atom_site_fract_x
_atom_site_fract_y
_atom_site_fract_z
Si Si1 0.415606 0.693695 0.104147
Si Si2 0.408773 0.374902 0.718144
Si Si3 0.908346 0.624837 0.637430
Si Si4 0.407241 0.624857 0.460593
Si Si5 0.917718 0.500000 0.954476
Si Si6 0.912006 0.376092 0.801778
Si Si7 0.413713 0.880594 0.043429
O O1 0.250000 0.681445 0.107487
O O2 0.470873 0.601675 0.072374
O O3 0.473059 0.681365 0.154252
O O4 0.460834 0.806219 0.084063
O O5 0.250000 0.330856 0.719671
O O6 0.408304 0.500000 0.716828
O O7 0.485701 0.329206 0.674299
O O8 0.493601 0.335478 0.761125
O O9 0.750000 0.666785 0.646197
O O10 0.905898 0.500000 0.640362
O O11 0.961134 0.659944 0.588325
O O12 0.500000 0.675083 0.500000
O O13 0.250000 0.666592 0.467698
O O14 0.410673 0.500000 0.463563
O O15 0.750000 0.500000 0.962747
O O16 0.000000 0.500000 0.000000
O O17 0.750000 0.346515 0.791767
O O18 0.926559 0.500000 0.809336
O O19 0.250000 0.864446 0.032132
O O20 0.446532 0.000000 0.057668
O O21 0.500000 0.848206 0.000000
#
# Coordination Sequence:
#
# PCOD8206371 Si02
#       7
#     8   8   8   8   4   8   8
#     4   9  16  27  42  57  73  94 120 144 168 204
#     4   9  16  23  31  45  63  80 100 132 169 203
#     4   8  13  21  30  39  52  74 104 132 160 203
#     4   8  13  19  26  36  50  68  93 127 166 205
#     4  10  18  28  40  56  76  96 118 142 167 202
#     4   9  15  25  39  50  62  86 114 136 162 200
#     4   9  17  29  44  60  77  96 118 144 172 203
#
# _framework density 14.251381
#
# number of rings (size 3 to 8) (size 9 to 14) (size 15 to 20)
#    0.000    3.231    0.769    1.846    0.000    2.462 
#    0.000    4.615    0.000    0.000    0.000    0.000 
#    0.000    0.000    0.000    0.000    0.000    0.000 
#
# Total GULP energy -644447.835497 kJ/mol
# GULP energy per Si atom -12393.227606 kJ/mol
# Density = 1.421894 g / cm^3
# Si number density = 14.251381 Si / 1000 Ang^3
#
#
#
# Elastic Constant Matrix: (Units=GPa)
#
#
# Indices 1 2 3 4 5 6 
#
# 1 71.7244 16.7402 69.7498 0.0000 0.0000 0.0000
# 2 16.7402 33.7458 31.9403 0.0000 0.0000 0.0000
# 3 69.7498 31.9403 158.7047 0.0000 0.0000 0.0000
# 4 0.0000 0.0000 0.0000 7.2157 0.0000 0.0000
# 5 0.0000 0.0000 0.0000 0.0000 27.0399 0.0000
# 6 0.0000 0.0000 0.0000 0.0000 0.0000 5.8469
#
#
#
# Elastic Compliance Matrix: (Units=1/GPa)
#
#
# Indices 1 2 3 4 5 6 
#
# 1 0.024508 -0.002425 -0.010283 0.000000 0.000000 0.000000
# 2 -0.002425 0.036846 -0.006350 0.000000 0.000000 0.000000
# 3 -0.010283 -0.006350 0.012098 0.000000 0.000000 0.000000
# 4 0.000000 0.000000 0.000000 0.138587 0.000000 0.000000
# 5 0.000000 0.000000 0.000000 0.000000 0.036982 0.000000
# 6 0.000000 0.000000 0.000000 0.000000 0.000000 0.171030
#
#
# Mechanical properties :
#
#
# Convention : Reuss Voigt Hill
#
# Bulk Modulus (GPa) = 28.29871 55.67062 41.98467
# Shear Modulus (GPa) = 10.63949 17.73681 14.18815
#
# Velocity S-wave (km/s) = 2.73529 3.53167 3.15868
# Velocity P-wave (km/s) = 5.46586 7.46849 6.54424
#
# Compressibility (1/GPa) = 0.03533730
#
# Stress axis : x y z
#
# Youngs Moduli (GPa) = 40.80237 27.13977 82.65532
#
# Poissons Ratio (x) = 0.06580 0.84997
# Poissons Ratio (y) = 0.09893 0.52486
# Poissons Ratio (z) = 0.41958 0.17234
#
# Static dielectric constant tensor:
#      x y z
#    x 2.816710 0.000000 0.000000 
#    y 0.000000 2.333650 0.000000 
#    z 0.000000 0.000000 3.093560 
# 
# 
# High freq. dielectric constant tensor:
#      x y z
#    x 1.536090 0.000000 0.000000 
#    y 0.000000 1.469190 0.000000 
#    z 0.000000 0.000000 1.557810 
# 
# From -- ./inp_files/37360.got.cif
#   From: 2010.03.12/outbox.cif.g09.slc.cpg/sg51_19_cif.got.tgz:37360.got - 2010.04.16 13:43:02.
