data_PCOD8206842
_publ_section_title
;
Structure prediction by ZEFSAII (Michael W. Deem and Ramdas Pophale) SiO2 
 PCOD8206842
Probable space group: P M M A
;
_chemical_formula_sum "Si O2"
_cell_formula_units_Z 64
_cell_length_a 18.276100
_cell_length_b 8.786724
_cell_length_c 21.829449
_cell_angle_alpha 90.000000
_cell_angle_beta 90.000000
_cell_angle_gamma 90.000000
_cell_volume 3505.526742
_symmetry_space_group_name_H-M "P M M A"
_symmetry_group_IT_number 51
_symmetry_cell_setting 'orthorhombic'
loop_
_space_group_symop_operation_xyz
x,y,z
1/2-x,-y,z
1/2+x,-y,-z
-x,y,-z
-x,-y,-z
1/2+x,y,-z
1/2-x,y,z
x,-y,z
loop_
_atom_site_type_symbol
_atom_site_label
_atom_site_fract_x
_atom_site_fract_y
_atom_site_fract_z
Si Si1 0.028463 0.821859 0.063082
Si Si2 0.332585 0.181176 0.492650
Si Si3 0.330800 0.179718 0.730473
Si Si4 0.097899 0.679190 0.246969
Si Si5 0.168131 0.178630 0.133193
Si Si6 0.584638 0.818674 0.387889
Si Si7 0.460151 0.822746 0.812059
Si Si8 0.581040 0.819259 0.626215
O O1 0.108513 0.759243 0.083793
O O2 0.969188 0.785302 0.116032
O O3 0.036178 0.000000 0.051649
O O4 0.000000 0.743737 0.000000
O O5 0.250000 0.244845 0.495209
O O6 0.377764 0.245276 0.550597
O O7 0.371056 0.238701 0.430837
O O8 0.332289 0.000000 0.494691
O O9 0.250000 0.252434 0.737724
O O10 0.370060 0.245581 0.670024
O O11 0.378382 0.221047 0.790783
O O12 0.323819 0.000000 0.723595
O O13 0.104329 0.500000 0.249469
O O14 0.156629 0.741552 0.198368
O O15 0.116498 0.747097 0.313278
O O16 0.016303 0.726970 0.228205
O O17 0.250000 0.214042 0.109059
O O18 0.155545 0.000000 0.143513
O O19 0.501609 0.759507 0.383730
O O20 0.585006 0.000000 0.388044
O O21 0.477050 0.000000 0.799044
O O22 0.582989 0.000000 0.632596
#
# Coordination Sequence:
#
# PCOD8206842 Si02
#       8
#     8   8   8   8   8   8   8   8
#     4   8  14  26  47  73 100 131 162 194 233 279
#     4   9  17  27  41  66  95 119 150 196 244 290
#     4   9  15  23  41  70  97 120 150 195 246 285
#     4  11  21  32  49  72  97 127 164 207 252 293
#     4   9  18  33  53  75 101 135 172 206 244 291
#     4   9  15  25  43  66  93 120 150 193 241 290
#     4   9  16  30  49  70  99 130 162 198 238 292
#     4  10  18  30  48  69  93 124 159 196 244 300
#
# _framework density 18.256885
#
# number of rings (size 3 to 8) (size 9 to 14) (size 15 to 20)
#    0.000    2.750    1.250    2.625    0.000    3.750 
#    0.000    1.875    0.000   11.625    0.000    0.000 
#    0.000    0.000    0.000    0.000    0.000    0.000 
#
# Total GULP energy -793355.117496 kJ/mol
# GULP energy per Si atom -12396.173711 kJ/mol
# Density = 1.821533 g / cm^3
# Si number density = 18.256885 Si / 1000 Ang^3
#
#
#
# Elastic Constant Matrix: (Units=GPa)
#
#
# Indices 1 2 3 4 5 6 
#
# 1 130.1577 14.7632 75.2124 0.0000 0.0000 0.0000
# 2 14.7632 27.7005 19.9074 0.0000 0.0000 0.0000
# 3 75.2124 19.9074 161.6832 0.0000 0.0000 0.0000
# 4 0.0000 0.0000 0.0000 2.1275 0.0000 0.0000
# 5 0.0000 0.0000 0.0000 0.0000 25.7122 0.0000
# 6 0.0000 0.0000 0.0000 0.0000 0.0000 5.2977
#
#
#
# Elastic Compliance Matrix: (Units=1/GPa)
#
#
# Indices 1 2 3 4 5 6 
#
# 1 0.010642 -0.002319 -0.004665 0.000000 0.000000 0.000000
# 2 -0.002319 0.040110 -0.003860 0.000000 0.000000 0.000000
# 3 -0.004665 -0.003860 0.008830 0.000000 0.000000 0.000000
# 4 0.000000 0.000000 0.000000 0.470032 0.000000 0.000000
# 5 0.000000 0.000000 0.000000 0.000000 0.038892 0.000000
# 6 0.000000 0.000000 0.000000 0.000000 0.000000 0.188760
#
#
# Mechanical properties :
#
#
# Convention : Reuss Voigt Hill
#
# Bulk Modulus (GPa) = 26.38893 59.92307 43.15600
# Shear Modulus (GPa) = 6.31644 20.60471 13.46057
#
# Velocity S-wave (km/s) = 1.86206 3.36311 2.71825
# Velocity P-wave (km/s) = 4.37134 6.92633 5.79149
#
# Compressibility (1/GPa) = 0.03789467
#
# Stress axis : x y z
#
# Youngs Moduli (GPa) = 93.97090 24.93124 113.24838
#
# Poissons Ratio (x) = 0.05782 0.52828
# Poissons Ratio (y) = 0.21793 0.43712
# Poissons Ratio (z) = 0.43835 0.09623
#
# Static dielectric constant tensor:
#      x y z
#    x 3.588940 0.000000 0.000000 
#    y 0.000000 2.740620 0.000000 
#    z 0.000000 0.000000 3.566920 
# 
# 
# High freq. dielectric constant tensor:
#      x y z
#    x 1.711220 0.000000 0.000000 
#    y 0.000000 1.642830 0.000000 
#    z 0.000000 0.000000 1.709970 
# 
# From -- ./inp_files/33989.got.cif
#   From: 2010.03.12/outbox.cif.g09.slc.cpg/sg51_17_cif.got.tgz:33989.got - 2010.04.16 13:43:02.
