data_PCOD8206926
_publ_section_title
;
Structure prediction by ZEFSAII (Michael W. Deem and Ramdas Pophale) SiO2 
 PCOD8206926
Probable space group: P M M A
;
_chemical_formula_sum "Si O2"
_cell_formula_units_Z 48
_cell_length_a 17.901134
_cell_length_b 11.857692
_cell_length_c 12.776900
_cell_angle_alpha 90.000000
_cell_angle_beta 90.000000
_cell_angle_gamma 90.000000
_cell_volume 2712.103160
_symmetry_space_group_name_H-M "P M M A"
_symmetry_group_IT_number 51
_symmetry_cell_setting 'orthorhombic'
loop_
_space_group_symop_operation_xyz
x,y,z
1/2-x,-y,z
1/2+x,-y,-z
-x,y,-z
-x,-y,-z
1/2+x,y,-z
1/2-x,y,z
x,-y,z
loop_
_atom_site_type_symbol
_atom_site_label
_atom_site_fract_x
_atom_site_fract_y
_atom_site_fract_z
Si Si1 0.838986 0.126099 0.618848
Si Si2 0.587947 0.871571 0.002923
Si Si3 0.338531 0.500000 0.264911
Si Si4 0.661065 0.500000 0.498153
Si Si5 0.161458 0.737879 0.180411
Si Si6 0.336551 0.870283 0.780218
Si Si7 0.838893 0.261959 0.421081
O O1 0.750000 0.126513 0.615939
O O2 0.867522 0.187713 0.722828
O O3 0.871319 0.189747 0.517583
O O4 0.871182 0.000000 0.619365
O O5 0.615894 0.840008 0.118155
O O6 0.611813 0.000000 0.974281
O O7 0.500000 0.857255 0.000000
O O8 0.624545 0.783481 0.924407
O O9 0.250000 0.500000 0.275370
O O10 0.371289 0.500000 0.383302
O O11 0.365186 0.390228 0.200972
O O12 0.750000 0.500000 0.504503
O O13 0.632701 0.609624 0.434634
O O14 0.250000 0.745822 0.167927
O O15 0.250000 0.845439 0.804549
O O16 0.367827 0.790796 0.687504
O O17 0.347531 0.000000 0.745867
O O18 0.750000 0.255942 0.423359
#
# Coordination Sequence:
#
# PCOD8206926 Si02
#       7
#     8   8   4   4   8   8   8
#     4   9  15  22  38  68 100 123 150 194 241 285
#     4  10  21  36  52  70  96 131 168 208 255 301
#     4   9  16  28  46  73 105 132 157 197 250 295
#     4   9  14  24  41  67 104 136 155 186 241 292
#     4  10  18  30  50  75 100 128 165 204 245 291
#     4   9  17  30  49  72  98 128 161 199 242 288
#     4   9  15  24  41  68 100 129 156 188 236 291
#
# _framework density 17.698440999999999
#
# number of rings (size 3 to 8) (size 9 to 14) (size 15 to 20)
#    0.000    2.667    1.667    1.500    0.000    3.667 
#    0.000    1.250    0.000    4.000    0.000    5.833 
#    0.000    0.000    0.000    0.000    0.000    0.000 
#
# Total GULP energy -595123.995621 kJ/mol
# GULP energy per Si atom -12398.416575 kJ/mol
# Density = 1.765816 g / cm^3
# Si number density = 17.698441 Si / 1000 Ang^3
#
#
#
# Elastic Constant Matrix: (Units=GPa)
#
#
# Indices 1 2 3 4 5 6 
#
# 1 22.9781 24.4209 28.5633 0.0000 0.0000 0.0000
# 2 24.4209 169.0440 95.8455 0.0000 0.0000 0.0000
# 3 28.5633 95.8455 145.8628 0.0000 0.0000 0.0000
# 4 0.0000 0.0000 0.0000 31.1563 0.0000 0.0000
# 5 0.0000 0.0000 0.0000 0.0000 -1.9246 0.0000
# 6 0.0000 0.0000 0.0000 0.0000 0.0000 3.1134
#
#
#
# Elastic Compliance Matrix: (Units=1/GPa)
#
#
# Indices 1 2 3 4 5 6 
#
# 1 0.058536 -0.003119 -0.009413 0.000000 0.000000 0.000000
# 2 -0.003119 0.009594 -0.005694 0.000000 0.000000 0.000000
# 3 -0.009413 -0.005694 0.012440 0.000000 0.000000 0.000000
# 4 0.000000 0.000000 0.000000 0.032096 0.000000 0.000000
# 5 0.000000 0.000000 0.000000 0.000000 -0.519592 0.000000
# 6 0.000000 0.000000 0.000000 0.000000 0.000000 0.321190
#
#
# Mechanical properties :
#
#
# Convention : Reuss Voigt Hill
#
# Bulk Modulus (GPa) = 22.66612 70.61602 46.64107
# Shear Modulus (GPa) = -144.60225 19.07272 -62.76477
#
# Velocity S-wave (km/s) = -9.04880 3.28632 -5.96158
# Velocity P-wave (km/s) = 9.81528 7.37469 4.58005
#
# Compressibility (1/GPa) = 0.04411870
#
# Stress axis : x y z
#
# Youngs Moduli (GPa) = 17.08356 104.22695 80.38418
#
# Poissons Ratio (x) = 0.32512 0.75665
# Poissons Ratio (y) = 0.05329 0.45768
# Poissons Ratio (z) = 0.16081 0.59343
#
# Static dielectric constant tensor:
#      x y z
#    x 2.684840 0.000000 0.000000 
#    y 0.000000 3.533120 0.000000 
#    z 0.000000 0.000000 3.322780 
# 
# 
# High freq. dielectric constant tensor:
#      x y z
#    x 1.623180 0.000000 0.000000 
#    y 0.000000 1.691770 0.000000 
#    z 0.000000 0.000000 1.690620 
# 
# From -- ./inp_files/18186.got.cif
#   From: 2010.03.12/outbox.cif.g09.slc.cpg/sg51_10_cif.got.tgz:18186.got - 2010.04.16 13:43:02.
