data_PCOD8206066
_publ_section_title
;
Structure prediction by ZEFSAII (Michael W. Deem and Ramdas Pophale) SiO2 
 PCOD8206066
Probable space group: P M M A
;
_chemical_formula_sum "Si O2"
_cell_formula_units_Z 28
_cell_length_a 8.551222
_cell_length_b 18.554068
_cell_length_c 9.225876
_cell_angle_alpha 90.000000
_cell_angle_beta 90.000000
_cell_angle_gamma 90.000000
_cell_volume 1463.777066
_symmetry_space_group_name_H-M "P M M A"
_symmetry_group_IT_number 51
_symmetry_cell_setting 'orthorhombic'
loop_
_space_group_symop_operation_xyz
x,y,z
1/2-x,-y,z
1/2+x,-y,-z
-x,y,-z
-x,-y,-z
1/2+x,y,-z
1/2-x,y,z
x,-y,z
loop_
_atom_site_type_symbol
_atom_site_label
_atom_site_fract_x
_atom_site_fract_y
_atom_site_fract_z
Si Si1 0.565093 0.367809 0.338308
Si Si2 0.065064 0.500000 0.160244
Si Si3 0.434233 0.220471 0.338536
Si Si4 0.567609 0.078041 0.340231
O O1 0.500000 0.375601 0.500000
O O2 0.750000 0.374384 0.341925
O O3 0.494637 0.429561 0.240376
O O4 0.513372 0.291157 0.267707
O O5 0.250000 0.500000 0.157564
O O6 0.000000 0.500000 0.000000
O O7 0.500000 0.213702 0.500000
O O8 0.250000 0.231000 0.337435
O O9 0.483397 0.145481 0.257570
O O10 0.500000 0.071526 0.500000
O O11 0.750000 0.095534 0.349582
O O12 0.538242 0.000000 0.261958
#
# Coordination Sequence:
#
# PCOD8206066 Si02
#       4
#     8   4   8   8
#     4  11  21  36  56  79 105 137 174 214 257 304
#     4  12  25  42  59  80 106 134 168 208 257 310
#     4  10  17  26  41  63  91 125 164 207 250 296
#     4   9  15  22  33  52  82 121 161 200 244 295
#
# _framework density 19.128596999999999
#
# number of rings (size 3 to 8) (size 9 to 14) (size 15 to 20)
#    0.000    1.714    0.000   11.143    0.000    1.714 
#    0.000    0.000    0.000    0.000    0.000    0.000 
#    0.000    1.143    0.000    4.286    0.000   16.571 
#
# Total GULP energy -346943.647486 kJ/mol
# GULP energy per Si atom -12390.844553 kJ/mol
# Density = 1.908506 g / cm^3
# Si number density = 19.128597 Si / 1000 Ang^3
#
#
#
# Elastic Constant Matrix: (Units=GPa)
#
#
# Indices 1 2 3 4 5 6 
#
# 1 185.1853 76.3572 31.1470 0.0000 0.0000 0.0000
# 2 76.3572 222.6138 48.2824 0.0000 0.0000 0.0000
# 3 31.1470 48.2824 42.9967 0.0000 0.0000 0.0000
# 4 0.0000 0.0000 0.0000 -5.0095 0.0000 0.0000
# 5 0.0000 0.0000 0.0000 0.0000 17.1970 0.0000
# 6 0.0000 0.0000 0.0000 0.0000 0.0000 39.4232
#
#
#
# Elastic Compliance Matrix: (Units=1/GPa)
#
#
# Indices 1 2 3 4 5 6 
#
# 1 0.006559 -0.001612 -0.002942 0.000000 0.000000 0.000000
# 2 -0.001612 0.006334 -0.005946 0.000000 0.000000 0.000000
# 3 -0.002942 -0.005946 0.032065 0.000000 0.000000 0.000000
# 4 0.000000 0.000000 0.000000 -0.199620 0.000000 0.000000
# 5 0.000000 0.000000 0.000000 0.000000 0.058150 0.000000
# 6 0.000000 0.000000 0.000000 0.000000 0.000000 0.025366
#
#
# Mechanical properties :
#
#
# Convention : Reuss Voigt Hill
#
# Bulk Modulus (GPa) = 41.73496 84.70767 63.22131
# Shear Modulus (GPa) = -118.59361 29.98943 -44.30209
#
# Velocity S-wave (km/s) = -7.88243 3.96382 -4.81772
# Velocity P-wave (km/s) = 7.80885 8.08261 1.47486
#
# Compressibility (1/GPa) = 0.02396073
#
# Stress axis : x y z
#
# Youngs Moduli (GPa) = 152.45337 157.86604 31.18675
#
# Poissons Ratio (x) = 0.25446 0.09174
# Poissons Ratio (y) = 0.24574 0.18542
# Poissons Ratio (z) = 0.44846 0.93860
#
# Static dielectric constant tensor:
#      x y z
#    x 3.731880 0.000000 0.000000 
#    y 0.000000 4.593280 0.000000 
#    z 0.000000 0.000000 2.789440 
# 
# 
# High freq. dielectric constant tensor:
#      x y z
#    x 1.769830 0.000000 0.000000 
#    y 0.000000 1.790930 0.000000 
#    z 0.000000 0.000000 1.647670 
# 
# From -- ./inp_files/4783.got.cif
#   From: 2010.03.12/outbox.cif.g09.slc.cpg/sg51_3_cif.got.tgz:4783.got - 2010.04.16 13:43:02.
