data_PCOD8206721
_publ_section_title
;
Structure prediction by ZEFSAII (Michael W. Deem and Ramdas Pophale) SiO2 
 PCOD8206721
Probable space group: P M M A
;
_chemical_formula_sum "Si O2"
_cell_formula_units_Z 56
_cell_length_a 9.294364
_cell_length_b 15.681694
_cell_length_c 20.177939
_cell_angle_alpha 90.000000
_cell_angle_beta 90.000000
_cell_angle_gamma 90.000000
_cell_volume 2940.962297
_symmetry_space_group_name_H-M "P M M A"
_symmetry_group_IT_number 51
_symmetry_cell_setting 'orthorhombic'
loop_
_space_group_symop_operation_xyz
x,y,z
1/2-x,-y,z
1/2+x,-y,-z
-x,y,-z
-x,-y,-z
1/2+x,y,-z
1/2-x,y,z
x,-y,z
loop_
_atom_site_type_symbol
_atom_site_label
_atom_site_fract_x
_atom_site_fract_y
_atom_site_fract_z
Si Si1 0.913163 0.094529 0.098776
Si Si2 0.079416 0.268111 0.433255
Si Si3 0.581938 0.258287 0.937885
Si Si4 0.915298 0.299904 0.792883
Si Si5 0.414461 0.138660 0.753693
Si Si6 0.082457 0.406854 0.328077
Si Si7 0.585244 0.093066 0.630435
O O1 0.750000 0.123311 0.080891
O O2 0.930575 0.088602 0.177748
O O3 0.025618 0.161170 0.068430
O O4 0.945806 0.000000 0.070386
O O5 0.250000 0.274178 0.443582
O O6 0.021958 0.333216 0.376549
O O7 0.031519 0.171283 0.415182
O O8 0.000000 0.295365 0.500000
O O9 0.750000 0.255919 0.953323
O O10 0.547364 0.312016 0.870956
O O11 0.500000 0.302269 0.000000
O O12 0.750000 0.269097 0.786444
O O13 0.942516 0.385005 0.749920
O O14 0.016626 0.231222 0.759528
O O15 0.250000 0.149844 0.732465
O O16 0.494407 0.086013 0.697325
O O17 0.250000 0.413445 0.342693
O O18 0.010983 0.500000 0.341648
O O19 0.750000 0.110742 0.650256
O O20 0.569332 0.000000 0.594548
#
# Coordination Sequence:
#
# PCOD8206721 Si02
#       7
#     8   8   8   8   8   8   8
#     4   9  18  31  45  65  97 133 171 218 266 312
#     4  10  21  37  55  78 110 144 179 218 263 315
#     4  10  20  32  49  71  98 134 174 214 258 312
#     4   9  17  33  55  78 104 136 176 216 258 315
#     4  10  18  29  49  76 105 136 173 220 272 315
#     4   9  17  33  60  87 108 134 172 218 265 316
#     4  10  20  34  52  73 102 143 185 224 263 307
#
# _framework density 19.041385999999999
#
# number of rings (size 3 to 8) (size 9 to 14) (size 15 to 20)
#    0.000    2.429    1.429    1.286    0.000    3.714 
#    0.000    0.000    0.000    1.714    0.000    0.000 
#    0.000    0.000    0.000    0.000    0.000    0.429 
#
# Total GULP energy -694056.643489 kJ/mol
# GULP energy per Si atom -12393.868634 kJ/mol
# Density = 1.899805 g / cm^3
# Si number density = 19.041386 Si / 1000 Ang^3
#
#
#
# Elastic Constant Matrix: (Units=GPa)
#
#
# Indices 1 2 3 4 5 6 
#
# 1 59.8975 23.5957 35.7696 0.0000 0.0000 0.0000
# 2 23.5957 112.6369 52.3280 0.0000 0.0000 0.0000
# 3 35.7696 52.3280 122.1026 0.0000 0.0000 0.0000
# 4 0.0000 0.0000 0.0000 9.1398 0.0000 0.0000
# 5 0.0000 0.0000 0.0000 0.0000 31.4123 0.0000
# 6 0.0000 0.0000 0.0000 0.0000 0.0000 9.0390
#
#
#
# Elastic Compliance Matrix: (Units=1/GPa)
#
#
# Indices 1 2 3 4 5 6 
#
# 1 0.020550 -0.001883 -0.005213 0.000000 0.000000 0.000000
# 2 -0.001883 0.011258 -0.004273 0.000000 0.000000 0.000000
# 3 -0.005213 -0.004273 0.011548 0.000000 0.000000 0.000000
# 4 0.000000 0.000000 0.000000 0.109411 0.000000 0.000000
# 5 0.000000 0.000000 0.000000 0.000000 0.031835 0.000000
# 6 0.000000 0.000000 0.000000 0.000000 0.000000 0.110632
#
#
# Mechanical properties :
#
#
# Convention : Reuss Voigt Hill
#
# Bulk Modulus (GPa) = 48.50173 57.55817 53.02995
# Shear Modulus (GPa) = 15.39200 22.11448 18.75324
#
# Velocity S-wave (km/s) = 2.84622 3.41161 3.14166
# Velocity P-wave (km/s) = 6.02730 6.76848 6.40862
#
# Compressibility (1/GPa) = 0.02061782
#
# Stress axis : x y z
#
# Youngs Moduli (GPa) = 48.66137 88.82859 86.59368
#
# Poissons Ratio (x) = 0.16727 0.45142
# Poissons Ratio (y) = 0.09163 0.37001
# Poissons Ratio (z) = 0.25368 0.37956
#
# Static dielectric constant tensor:
#      x y z
#    x 3.343380 0.000000 0.000000 
#    y 0.000000 3.460760 0.000000 
#    z 0.000000 0.000000 3.553980 
# 
# 
# High freq. dielectric constant tensor:
#      x y z
#    x 1.723110 0.000000 0.000000 
#    y 0.000000 1.717220 0.000000 
#    z 0.000000 0.000000 1.740340 
# 
# From -- ./inp_files/31924.got.cif
#   From: 2010.03.12/outbox.cif.g09.slc.cpg/sg51_16_cif.got.tgz:31924.got - 2010.04.16 13:43:02.
