data_PCOD8206958
_publ_section_title
;
Structure prediction by ZEFSAII (Michael W. Deem and Ramdas Pophale) SiO2 
 PCOD8206958
Probable space group: P M M A
;
_chemical_formula_sum "Si O2"
_cell_formula_units_Z 64
_cell_length_a 8.852376
_cell_length_b 15.152982
_cell_length_c 25.134634
_cell_angle_alpha 90.000000
_cell_angle_beta 90.000000
_cell_angle_gamma 90.000000
_cell_volume 3371.557145
_symmetry_space_group_name_H-M "P M M A"
_symmetry_group_IT_number 51
_symmetry_cell_setting 'orthorhombic'
loop_
_space_group_symop_operation_xyz
x,y,z
1/2-x,-y,z
1/2+x,-y,-z
-x,y,-z
-x,-y,-z
1/2+x,y,-z
1/2-x,y,z
x,-y,z
loop_
_atom_site_type_symbol
_atom_site_label
_atom_site_fract_x
_atom_site_fract_y
_atom_site_fract_z
Si Si1 0.571402 0.899164 0.444829
Si Si2 0.071733 0.216905 0.651153
Si Si3 0.077291 0.900771 0.136949
Si Si4 0.077782 0.401964 0.093733
Si Si5 0.427366 0.229774 0.945095
Si Si6 0.427378 0.827938 0.767804
Si Si7 0.076693 0.650025 0.211182
Si Si8 0.924853 0.404151 0.313991
O O1 0.500000 0.867076 0.500000
O O2 0.750000 0.889559 0.449410
O O3 0.502225 0.836522 0.398543
O O4 0.524927 0.000000 0.432110
O O5 0.250000 0.208838 0.647555
O O6 0.017133 0.171852 0.706306
O O7 0.022536 0.320868 0.649571
O O8 0.250000 0.868505 0.136845
O O9 0.981985 0.834149 0.101477
O O10 0.014443 0.901161 0.197574
O O11 0.062913 0.000000 0.114577
O O12 0.250000 0.377334 0.078856
O O13 0.036369 0.500000 0.072752
O O14 0.058088 0.404548 0.157295
O O15 0.969931 0.331248 0.066029
O O16 0.250000 0.221515 0.950050
O O17 0.500000 0.197076 0.000000
O O18 0.250000 0.845282 0.771758
O O19 0.468869 0.734478 0.793821
O O20 0.250000 0.679155 0.220317
O O21 0.022274 0.590776 0.260387
O O22 0.750000 0.388844 0.298359
O O23 0.945746 0.500000 0.343023
#
# Coordination Sequence:
#
# PCOD8206958 Si02
#       8
#     8   8   8   8   8   8   8   8
#     4   9  17  31  51  73  99 134 176 223 271 318
#     4   8  16  30  49  75 106 139 177 218 265 320
#     4  11  24  42  63  87 116 148 181 221 273 333
#     4  10  21  37  58  84 115 149 184 223 271 328
#     4  12  26  44  66  86 110 144 183 231 280 328
#     4  10  19  33  55  83 113 145 182 221 266 322
#     4  10  18  30  51  77 110 147 180 216 264 318
#     4   9  17  29  46  70 102 139 180 223 262 309
#
# _framework density 18.982326
#
# number of rings (size 3 to 8) (size 9 to 14) (size 15 to 20)
#    0.000    2.125    1.250    3.375    0.000    3.500 
#    0.000    4.375    0.000    1.875    0.000    0.000 
#    0.000    0.000    0.000    0.000    0.000    0.000 
#
# Total GULP energy -793383.267335 kJ/mol
# GULP energy per Si atom -12396.613552 kJ/mol
# Density = 1.893912 g / cm^3
# Si number density = 18.982326 Si / 1000 Ang^3
#
#
#
# Elastic Constant Matrix: (Units=GPa)
#
#
# Indices 1 2 3 4 5 6 
#
# 1 81.7768 33.9260 37.8322 0.0000 0.0000 0.0000
# 2 33.9260 99.4426 55.7010 0.0000 0.0000 0.0000
# 3 37.8322 55.7010 111.1291 0.0000 0.0000 0.0000
# 4 0.0000 0.0000 0.0000 20.2487 0.0000 0.0000
# 5 0.0000 0.0000 0.0000 0.0000 27.2694 0.0000
# 6 0.0000 0.0000 0.0000 0.0000 0.0000 19.4405
#
#
#
# Elastic Compliance Matrix: (Units=1/GPa)
#
#
# Indices 1 2 3 4 5 6 
#
# 1 0.015205 -0.003181 -0.003582 0.000000 0.000000 0.000000
# 2 -0.003181 0.014647 -0.006258 0.000000 0.000000 0.000000
# 3 -0.003582 -0.006258 0.013355 0.000000 0.000000 0.000000
# 4 0.000000 0.000000 0.000000 0.049386 0.000000 0.000000
# 5 0.000000 0.000000 0.000000 0.000000 0.036671 0.000000
# 6 0.000000 0.000000 0.000000 0.000000 0.000000 0.051439
#
#
# Mechanical properties :
#
#
# Convention : Reuss Voigt Hill
#
# Bulk Modulus (GPa) = 58.26149 60.80744 59.53447
# Shear Modulus (GPa) = 23.53303 24.38435 23.95869
#
# Velocity S-wave (km/s) = 3.52481 3.58799 3.55654
# Velocity P-wave (km/s) = 6.87930 7.01913 6.94957
#
# Compressibility (1/GPa) = 0.01716400
#
# Stress axis : x y z
#
# Youngs Moduli (GPa) = 65.76691 68.27381 74.87900
#
# Poissons Ratio (x) = 0.21718 0.26821
# Poissons Ratio (y) = 0.20921 0.46863
# Poissons Ratio (z) = 0.23557 0.42729
#
# Static dielectric constant tensor:
#      x y z
#    x 3.401090 0.000000 0.000000 
#    y 0.000000 3.573060 0.000000 
#    z 0.000000 0.000000 3.517490 
# 
# 
# High freq. dielectric constant tensor:
#      x y z
#    x 1.727620 0.000000 0.000000 
#    y 0.000000 1.740540 0.000000 
#    z 0.000000 0.000000 1.717380 
# 
# From -- ./inp_files/34852.got.cif
#   From: 2010.03.12/outbox.cif.g09.slc.cpg/sg51_18_cif.got.tgz:34852.got - 2010.04.16 13:43:02.
