data_PCOD8206139
_publ_section_title
;
Structure prediction by ZEFSAII (Michael W. Deem and Ramdas Pophale) SiO2 
 PCOD8206139
Probable space group: P M M A
;
_chemical_formula_sum "Si O2"
_cell_formula_units_Z 64
_cell_length_a 30.300181
_cell_length_b 14.647683
_cell_length_c 9.695990
_cell_angle_alpha 90.000000
_cell_angle_beta 90.000000
_cell_angle_gamma 90.000000
_cell_volume 4303.346479
_symmetry_space_group_name_H-M "P M M A"
_symmetry_group_IT_number 51
_symmetry_cell_setting 'orthorhombic'
loop_
_space_group_symop_operation_xyz
x,y,z
1/2-x,-y,z
1/2+x,-y,-z
-x,y,-z
-x,-y,-z
1/2+x,y,-z
1/2-x,y,z
x,-y,z
loop_
_atom_site_type_symbol
_atom_site_label
_atom_site_fract_x
_atom_site_fract_y
_atom_site_fract_z
Si Si1 0.428323 0.711336 0.785078
Si Si2 0.133821 0.605323 0.592161
Si Si3 0.537431 0.900429 0.808652
Si Si4 0.563768 0.899927 0.107362
Si Si5 0.519419 0.730012 0.651042
Si Si6 0.123033 0.391510 0.003783
Si Si7 0.798494 0.606866 0.185029
Si Si8 0.899304 0.605541 0.695284
O O1 0.403549 0.671584 0.652431
O O2 0.412840 0.816830 0.810526
O O3 0.480683 0.706492 0.759287
O O4 0.417921 0.651692 0.920808
O O5 0.120747 0.500000 0.624533
O O6 0.180590 0.628282 0.664174
O O7 0.136197 0.622250 0.427657
O O8 0.486806 0.902712 0.850761
O O9 0.545054 0.822766 0.694050
O O10 0.550628 0.000000 0.747327
O O11 0.567155 0.880055 0.943563
O O12 0.585123 0.000000 0.141531
O O13 0.500000 0.744016 0.500000
O O14 0.554241 0.648967 0.654963
O O15 0.119462 0.500000 0.990820
O O16 0.121294 0.357112 0.161889
O O17 0.168819 0.356143 0.934706
O O18 0.750000 0.653676 0.174711
O O19 0.792672 0.500000 0.165064
O O20 0.909998 0.500000 0.713348
#
# Coordination Sequence:
#
# PCOD8206139 Si02
#       8
#     8   8   8   8   8   8   8   8
#     4  10  17  28  43  59  79 111 145 180 207 237
#     4   9  17  29  43  59  85 113 136 165 209 249
#     4   8  15  27  40  54  75 100 134 183 225 250
#     4   8  14  25  41  58  74  99 135 177 221 252
#     4  11  20  28  39  58  79 113 157 181 204 244
#     4   9  18  30  44  62  84 109 138 174 215 245
#     4   8  14  27  47  66  81 101 132 166 202 255
#     4  10  20  31  40  56  85 116 143 177 210 237
#
# _framework density 14.872147
#
# number of rings (size 3 to 8) (size 9 to 14) (size 15 to 20)
#    0.000    2.875    1.250    2.625    0.000    3.000 
#    0.000    1.875    0.000    3.750    0.000    0.000 
#    0.000    8.000    0.000    0.000    0.000   18.500 
#
# Total GULP energy -793035.324028 kJ/mol
# GULP energy per Si atom -12391.176938 kJ/mol
# Density = 1.483830 g / cm^3
# Si number density = 14.872147 Si / 1000 Ang^3
#
#
#
# Elastic Constant Matrix: (Units=GPa)
#
#
# Indices 1 2 3 4 5 6 
#
# 1 55.6593 22.8397 32.5350 0.0000 0.0000 0.0000
# 2 22.8397 52.5608 32.9828 0.0000 0.0000 0.0000
# 3 32.5350 32.9828 112.5070 0.0000 0.0000 0.0000
# 4 0.0000 0.0000 0.0000 19.9974 0.0000 0.0000
# 5 0.0000 0.0000 0.0000 0.0000 10.0888 0.0000
# 6 0.0000 0.0000 0.0000 0.0000 0.0000 2.6644
#
#
#
# Elastic Compliance Matrix: (Units=1/GPa)
#
#
# Indices 1 2 3 4 5 6 
#
# 1 0.023739 -0.007362 -0.004707 0.000000 0.000000 0.000000
# 2 -0.007362 0.025598 -0.005375 0.000000 0.000000 0.000000
# 3 -0.004707 -0.005375 0.011825 0.000000 0.000000 0.000000
# 4 0.000000 0.000000 0.000000 0.050007 0.000000 0.000000
# 5 0.000000 0.000000 0.000000 0.000000 0.099120 0.000000
# 6 0.000000 0.000000 0.000000 0.000000 0.000000 0.375322
#
#
# Mechanical properties :
#
#
# Convention : Reuss Voigt Hill
#
# Bulk Modulus (GPa) = 38.06050 44.16021 41.11036
# Shear Modulus (GPa) = 7.94589 15.37474 11.66032
#
# Velocity S-wave (km/s) = 2.31396 3.21875 2.80310
# Velocity P-wave (km/s) = 5.72595 6.60087 6.17892
#
# Compressibility (1/GPa) = 0.02627396
#
# Stress axis : x y z
#
# Youngs Moduli (GPa) = 42.12558 39.06594 84.56490
#
# Poissons Ratio (x) = 0.28760 0.39801
# Poissons Ratio (y) = 0.31012 0.45457
# Poissons Ratio (z) = 0.19827 0.20999
#
# Static dielectric constant tensor:
#      x y z
#    x 2.693700 0.000000 0.000000 
#    y 0.000000 3.075060 0.000000 
#    z 0.000000 0.000000 3.065780 
# 
# 
# High freq. dielectric constant tensor:
#      x y z
#    x 1.521240 0.000000 0.000000 
#    y 0.000000 1.557730 0.000000 
#    z 0.000000 0.000000 1.575770 
# 
# From -- ./inp_files/13262.got.cif
#   From: 2010.03.12/outbox.cif.g09.slc.cpg/sg51_7_cif.got.tgz:13262.got - 2010.04.16 13:43:02.
