data_PCOD8206640
_publ_section_title
;
Structure prediction by ZEFSAII (Michael W. Deem and Ramdas Pophale) SiO2 
 PCOD8206640
Probable space group: P M M A
;
_chemical_formula_sum "Si O2"
_cell_formula_units_Z 48
_cell_length_a 17.700019
_cell_length_b 11.776590
_cell_length_c 13.918874
_cell_angle_alpha 90.000000
_cell_angle_beta 90.000000
_cell_angle_gamma 90.000000
_cell_volume 2901.331755
_symmetry_space_group_name_H-M "P M M A"
_symmetry_group_IT_number 51
_symmetry_cell_setting 'orthorhombic'
loop_
_space_group_symop_operation_xyz
x,y,z
1/2-x,-y,z
1/2+x,-y,-z
-x,y,-z
-x,-y,-z
1/2+x,y,-z
1/2-x,y,z
x,-y,z
loop_
_atom_site_type_symbol
_atom_site_label
_atom_site_fract_x
_atom_site_fract_y
_atom_site_fract_z
Si Si1 0.872134 0.125553 0.372190
Si Si2 0.039222 0.875247 0.294118
Si Si3 0.665750 0.263958 0.192975
Si Si4 0.534711 0.133096 0.101439
Si Si5 0.159969 0.500000 0.505642
Si Si6 0.915653 0.726714 0.540566
Si Si7 0.339551 0.500000 0.724765
O O1 0.826715 0.191995 0.290528
O O2 0.865903 0.192834 0.471821
O O3 0.958662 0.114333 0.343733
O O4 0.836870 0.000000 0.385110
O O5 0.026960 0.836734 0.183542
O O6 0.086715 0.782449 0.353022
O O7 0.078525 0.000000 0.298001
O O8 0.750000 0.273566 0.148314
O O9 0.611359 0.204379 0.115916
O O10 0.631861 0.388143 0.219141
O O11 0.555788 0.000000 0.106335
O O12 0.500000 0.168264 0.000000
O O13 0.250000 0.500000 0.499606
O O14 0.126427 0.607623 0.450210
O O15 0.129653 0.500000 0.615699
O O16 0.000000 0.709685 0.500000
O O17 0.250000 0.500000 0.719908
#
# Coordination Sequence:
#
# PCOD8206640 Si02
#       7
#     8   8   8   8   4   8   4
#     4   9  16  25  41  68  99 124 149 189 237 284
#     4   8  15  28  46  68  93 123 155 192 238 283
#     4  10  18  30  48  71  99 131 164 196 240 298
#     4   9  18  33  52  75 102 126 154 203 260 300
#     4  11  21  33  45  63  98 138 167 198 243 277
#     4  10  18  29  46  69  95 127 164 196 225 282
#     4   9  18  31  46  65  97 136 162 192 239 287
#
# _framework density 16.544125999999999
#
# number of rings (size 3 to 8) (size 9 to 14) (size 15 to 20)
#    0.000    2.667    1.667    2.250    0.000    3.333 
#    0.000    0.417    0.000    2.500    0.000    3.500 
#    0.000    0.000    0.000    0.000    0.000    0.000 
#
# Total GULP energy -595035.624749 kJ/mol
# GULP energy per Si atom -12396.575516 kJ/mol
# Density = 1.650647 g / cm^3
# Si number density = 16.544126 Si / 1000 Ang^3
#
#
#
# Elastic Constant Matrix: (Units=GPa)
#
#
# Indices 1 2 3 4 5 6 
#
# 1 52.0868 39.4517 37.0629 0.0000 0.0000 0.0000
# 2 39.4517 133.4573 56.1988 0.0000 0.0000 0.0000
# 3 37.0629 56.1988 115.7165 0.0000 0.0000 0.0000
# 4 0.0000 0.0000 0.0000 14.7124 0.0000 0.0000
# 5 0.0000 0.0000 0.0000 0.0000 17.3491 0.0000
# 6 0.0000 0.0000 0.0000 0.0000 0.0000 11.5851
#
#
#
# Elastic Compliance Matrix: (Units=1/GPa)
#
#
# Indices 1 2 3 4 5 6 
#
# 1 0.027870 -0.005631 -0.006191 0.000000 0.000000 0.000000
# 2 -0.005631 0.010557 -0.003324 0.000000 0.000000 0.000000
# 3 -0.006191 -0.003324 0.012239 0.000000 0.000000 0.000000
# 4 0.000000 0.000000 0.000000 0.067970 0.000000 0.000000
# 5 0.000000 0.000000 0.000000 0.000000 0.057640 0.000000
# 6 0.000000 0.000000 0.000000 0.000000 0.000000 0.086318
#
#
# Mechanical properties :
#
#
# Convention : Reuss Voigt Hill
#
# Bulk Modulus (GPa) = 49.08431 62.96529 56.02480
# Shear Modulus (GPa) = 16.68461 19.96580 18.32520
#
# Velocity S-wave (km/s) = 3.17912 3.47770 3.33176
# Velocity P-wave (km/s) = 6.57335 7.36665 6.98127
#
# Compressibility (1/GPa) = 0.02037311
#
# Stress axis : x y z
#
# Youngs Moduli (GPa) = 35.88131 94.72114 81.70611
#
# Poissons Ratio (x) = 0.53341 0.50588
# Poissons Ratio (y) = 0.20206 0.27156
# Poissons Ratio (z) = 0.22216 0.31481
#
# Static dielectric constant tensor:
#      x y z
#    x 2.774850 0.000000 0.000000 
#    y 0.000000 3.380670 0.000000 
#    z 0.000000 0.000000 3.056380 
# 
# 
# High freq. dielectric constant tensor:
#      x y z
#    x 1.601270 0.000000 0.000000 
#    y 0.000000 1.649180 0.000000 
#    z 0.000000 0.000000 1.609480 
# 
# From -- ./inp_files/24071.got.cif
#   From: 2010.03.12/outbox.cif.g09.slc.cpg/sg51_13_cif.got.tgz:24071.got - 2010.04.16 13:43:02.
