data_PCOD8206761
_publ_section_title
;
Structure prediction by ZEFSAII (Michael W. Deem and Ramdas Pophale) SiO2 
 PCOD8206761
Probable space group: P M M A
;
_chemical_formula_sum "Si O2"
_cell_formula_units_Z 52
_cell_length_a 8.774347
_cell_length_b 26.300607
_cell_length_c 13.698620
_cell_angle_alpha 90.000000
_cell_angle_beta 90.000000
_cell_angle_gamma 90.000000
_cell_volume 3161.239471
_symmetry_space_group_name_H-M "P M M A"
_symmetry_group_IT_number 51
_symmetry_cell_setting 'orthorhombic'
loop_
_space_group_symop_operation_xyz
x,y,z
1/2-x,-y,z
1/2+x,-y,-z
-x,y,-z
-x,-y,-z
1/2+x,y,-z
1/2-x,y,z
x,-y,z
loop_
_atom_site_type_symbol
_atom_site_label
_atom_site_fract_x
_atom_site_fract_y
_atom_site_fract_z
Si Si1 0.431754 0.000000 0.392286
Si Si2 0.429465 0.345439 0.786390
Si Si3 0.574817 0.194221 0.707123
Si Si4 0.928092 0.298346 0.603769
Si Si5 0.070377 0.897976 0.606364
Si Si6 0.928430 0.254059 0.898410
Si Si7 0.428662 0.556427 0.898182
O O1 0.500000 0.000000 0.500000
O O2 0.496293 0.948399 0.343594
O O3 0.250000 0.000000 0.391548
O O4 0.250000 0.336741 0.782560
O O5 0.499129 0.337313 0.679968
O O6 0.497373 0.306871 0.865732
O O7 0.474950 0.402755 0.816207
O O8 0.750000 0.177297 0.694560
O O9 0.536360 0.240828 0.635608
O O10 0.464559 0.148233 0.678925
O O11 0.540023 0.210332 0.818327
O O12 0.750000 0.308786 0.600282
O O13 0.000000 0.309610 0.500000
O O14 0.250000 0.905389 0.594787
O O15 0.000000 0.886705 0.500000
O O16 0.750000 0.263622 0.910579
O O17 0.000000 0.235358 0.000000
O O18 0.250000 0.556377 0.914182
O O19 0.486104 0.500000 0.866687
O O20 0.500000 0.573531 0.000000
#
# Coordination Sequence:
#
# PCOD8206761 Si02
#       7
#     4   8   8   8   8   8   8
#     4  10  18  30  46  64  91 124 157 192 230 274
#     4  10  19  31  49  70  94 124 156 190 231 278
#     4   9  19  33  47  67  93 123 155 188 228 273
#     4  10  20  33  49  69  95 124 157 194 231 275
#     4  11  20  30  46  68  95 125 157 193 230 272
#     4  10  20  33  49  69  96 125 156 193 232 278
#     4   9  18  31  47  69  95 122 152 188 231 278
#
# _framework density 16.449245000000001
#
# number of rings (size 3 to 8) (size 9 to 14) (size 15 to 20)
#    0.000    2.154    0.000    6.231    0.000    7.385 
#    0.000    0.000    0.000    0.462    0.000    0.538 
#    0.000    0.000    0.000    0.000    0.000    0.000 
#
# Total GULP energy -644811.589008 kJ/mol
# GULP energy per Si atom -12400.222866 kJ/mol
# Density = 1.641181 g / cm^3
# Si number density = 16.449245 Si / 1000 Ang^3
#
#
#
# Elastic Constant Matrix: (Units=GPa)
#
#
# Indices 1 2 3 4 5 6 
#
# 1 108.7367 61.9895 49.9360 0.0000 0.0000 0.0000
# 2 61.9895 115.8307 60.4059 0.0000 0.0000 0.0000
# 3 49.9360 60.4059 111.3214 0.0000 0.0000 0.0000
# 4 0.0000 0.0000 0.0000 5.5234 0.0000 0.0000
# 5 0.0000 0.0000 0.0000 0.0000 29.3161 0.0000
# 6 0.0000 0.0000 0.0000 0.0000 0.0000 25.9993
#
#
#
# Elastic Compliance Matrix: (Units=1/GPa)
#
#
# Indices 1 2 3 4 5 6 
#
# 1 0.013951 -0.005861 -0.003078 0.000000 0.000000 0.000000
# 2 -0.005861 0.014503 -0.005240 0.000000 0.000000 0.000000
# 3 -0.003078 -0.005240 0.013207 0.000000 0.000000 0.000000
# 4 0.000000 0.000000 0.000000 0.181047 0.000000 0.000000
# 5 0.000000 0.000000 0.000000 0.000000 0.034111 0.000000
# 6 0.000000 0.000000 0.000000 0.000000 0.000000 0.038463
#
#
# Mechanical properties :
#
#
# Convention : Reuss Voigt Hill
#
# Bulk Modulus (GPa) = 75.17362 75.61684 75.39523
# Shear Modulus (GPa) = 15.24040 23.07161 19.15600
#
# Velocity S-wave (km/s) = 3.04717 3.74918 3.41626
# Velocity P-wave (km/s) = 7.62757 8.05056 7.84192
#
# Compressibility (1/GPa) = 0.01330254
#
# Stress axis : x y z
#
# Youngs Moduli (GPa) = 71.67720 68.95099 75.71632
#
# Poissons Ratio (x) = 0.40415 0.23303
# Poissons Ratio (y) = 0.42013 0.39679
# Poissons Ratio (z) = 0.22060 0.36133
#
# Static dielectric constant tensor:
#      x y z
#    x 3.173790 0.000000 0.000000 
#    y 0.000000 3.391050 0.000000 
#    z 0.000000 0.000000 2.960070 
# 
# 
# High freq. dielectric constant tensor:
#      x y z
#    x 1.649140 0.000000 0.000000 
#    y 0.000000 1.629020 0.000000 
#    z 0.000000 0.000000 1.610630 
# 
# From -- ./inp_files/22091.got.cif
#   From: 2010.03.12/outbox.cif.g09.slc.cpg/sg51_12_cif.got.tgz:22091.got - 2010.04.16 13:43:02.
