data_PCOD8206841
_publ_section_title
;
Structure prediction by ZEFSAII (Michael W. Deem and Ramdas Pophale) SiO2 
 PCOD8206841
Probable space group: P M M A
;
_chemical_formula_sum "Si O2"
_cell_formula_units_Z 64
_cell_length_a 28.367739
_cell_length_b 9.042746
_cell_length_c 15.478867
_cell_angle_alpha 90.000000
_cell_angle_beta 90.000000
_cell_angle_gamma 90.000000
_cell_volume 3970.673920
_symmetry_space_group_name_H-M "P M M A"
_symmetry_group_IT_number 51
_symmetry_cell_setting 'orthorhombic'
loop_
_space_group_symop_operation_xyz
x,y,z
1/2-x,-y,z
1/2+x,-y,-z
-x,y,-z
-x,-y,-z
1/2+x,y,-z
1/2-x,y,z
x,-y,z
loop_
_atom_site_type_symbol
_atom_site_label
_atom_site_fract_x
_atom_site_fract_y
_atom_site_fract_z
Si Si1 0.305690 0.829084 0.316705
Si Si2 0.350892 0.175365 0.834668
Si Si3 0.947548 0.825337 0.092098
Si Si4 0.193967 0.666749 0.487863
Si Si5 0.304243 0.670394 0.992147
Si Si6 0.359239 0.675068 0.162305
Si Si7 0.695237 0.172614 0.341388
Si Si8 0.948540 0.175184 0.896441
O O1 0.250000 0.807837 0.307356
O O2 0.324343 0.761009 0.406642
O O3 0.329968 0.742001 0.240071
O O4 0.320256 0.000000 0.313832
O O5 0.404522 0.233283 0.848997
O O6 0.316641 0.236818 0.907821
O O7 0.333629 0.230724 0.741409
O O8 0.347853 0.000000 0.840201
O O9 0.998205 0.777375 0.131178
O O10 0.947032 0.000000 0.086634
O O11 0.940668 0.767975 0.994437
O O12 0.250000 0.668705 0.489264
O O13 0.174464 0.500000 0.481014
O O14 0.175135 0.740441 0.575930
O O15 0.250000 0.696932 0.016157
O O16 0.314764 0.500000 0.971829
O O17 0.334794 0.725740 0.073235
O O18 0.360031 0.500000 0.172597
O O19 0.412211 0.739055 0.164988
O O20 0.750000 0.207187 0.324740
O O21 0.687095 0.000000 0.358324
O O22 0.940556 0.000000 0.887067
#
# Coordination Sequence:
#
# PCOD8206841 Si02
#       8
#     8   8   8   8   8   8   8   8
#     4  10  20  33  50  71  94 122 157 195 232 274
#     4  10  18  30  48  69  91 121 161 198 232 273
#     4   8  15  28  48  69  90 118 155 201 245 278
#     4   9  17  30  48  68  91 121 154 189 230 274
#     4  10  21  33  42  58  91 130 160 188 226 271
#     4  11  21  32  46  67  95 127 159 194 235 280
#     4   9  17  28  43  66  95 123 153 191 229 268
#     4   9  16  30  49  67  89 120 158 200 241 281
#
# _framework density 16.118171
#
# number of rings (size 3 to 8) (size 9 to 14) (size 15 to 20)
#    0.000    2.500    1.250    2.625    0.000    4.500 
#    0.000    3.125    0.000    0.000    0.000    0.875 
#    0.000    7.000    0.000    0.000    0.000    0.000 
#
# Total GULP energy -793520.725059 kJ/mol
# GULP energy per Si atom -12398.761329 kJ/mol
# Density = 1.608149 g / cm^3
# Si number density = 16.118171 Si / 1000 Ang^3
#
#
#
# Elastic Constant Matrix: (Units=GPa)
#
#
# Indices 1 2 3 4 5 6 
#
# 1 68.5194 31.8747 34.8630 0.0000 0.0000 0.0000
# 2 31.8747 63.8335 47.3760 0.0000 0.0000 0.0000
# 3 34.8630 47.3760 108.0818 0.0000 0.0000 0.0000
# 4 0.0000 0.0000 0.0000 25.8862 0.0000 0.0000
# 5 0.0000 0.0000 0.0000 0.0000 10.7358 0.0000
# 6 0.0000 0.0000 0.0000 0.0000 0.0000 16.2854
#
#
#
# Elastic Compliance Matrix: (Units=1/GPa)
#
#
# Indices 1 2 3 4 5 6 
#
# 1 0.019654 -0.007572 -0.003020 0.000000 0.000000 0.000000
# 2 -0.007572 0.026137 -0.009014 0.000000 0.000000 0.000000
# 3 -0.003020 -0.009014 0.014178 0.000000 0.000000 0.000000
# 4 0.000000 0.000000 0.000000 0.038631 0.000000 0.000000
# 5 0.000000 0.000000 0.000000 0.000000 0.093146 0.000000
# 6 0.000000 0.000000 0.000000 0.000000 0.000000 0.061405
#
#
# Mechanical properties :
#
#
# Convention : Reuss Voigt Hill
#
# Bulk Modulus (GPa) = 48.18158 52.07358 50.12758
# Shear Modulus (GPa) = 16.70664 19.00288 17.85476
#
# Velocity S-wave (km/s) = 3.22298 3.43734 3.33189
# Velocity P-wave (km/s) = 6.61874 6.93767 6.78008
#
# Compressibility (1/GPa) = 0.02075482
#
# Stress axis : x y z
#
# Youngs Moduli (GPa) = 50.88094 38.25972 70.53287
#
# Poissons Ratio (x) = 0.28971 0.21303
# Poissons Ratio (y) = 0.38528 0.63580
# Poissons Ratio (z) = 0.15368 0.34488
#
# Static dielectric constant tensor:
#      x y z
#    x 3.157900 0.000000 0.000000 
#    y 0.000000 2.980140 0.000000 
#    z 0.000000 0.000000 3.066310 
# 
# 
# High freq. dielectric constant tensor:
#      x y z
#    x 1.601760 0.000000 0.000000 
#    y 0.000000 1.614320 0.000000 
#    z 0.000000 0.000000 1.608850 
# 
# From -- ./inp_files/26569.got.cif
#   From: 2010.03.12/outbox.cif.g09.slc.cpg/sg51_14_cif.got.tgz:26569.got - 2010.04.16 13:43:02.
