data_PCOD8206909
_publ_section_title
;
Structure prediction by ZEFSAII (Michael W. Deem and Ramdas Pophale) SiO2 
 PCOD8206909
Probable space group: P M M A
;
_chemical_formula_sum "Si O2"
_cell_formula_units_Z 56
_cell_length_a 28.115187
_cell_length_b 8.881400
_cell_length_c 13.780617
_cell_angle_alpha 90.000000
_cell_angle_beta 90.000000
_cell_angle_gamma 90.000000
_cell_volume 3441.050683
_symmetry_space_group_name_H-M "P M M A"
_symmetry_group_IT_number 51
_symmetry_cell_setting 'orthorhombic'
loop_
_space_group_symop_operation_xyz
x,y,z
1/2-x,-y,z
1/2+x,-y,-z
-x,y,-z
-x,-y,-z
1/2+x,y,-z
1/2-x,y,z
x,-y,z
loop_
_atom_site_type_symbol
_atom_site_label
_atom_site_fract_x
_atom_site_fract_y
_atom_site_fract_z
Si Si1 0.108085 0.678787 0.193420
Si Si2 0.695800 0.823267 0.731260
Si Si3 0.033637 0.326393 0.726006
Si Si4 0.478709 0.823848 0.103480
Si Si5 0.058212 0.672720 0.385408
Si Si6 0.895425 0.677884 0.424217
Si Si7 0.697028 0.675809 0.526316
O O1 0.109433 0.500000 0.183500
O O2 0.161562 0.745512 0.188375
O O3 0.072561 0.742075 0.111133
O O4 0.086707 0.741176 0.294463
O O5 0.750000 0.781896 0.759082
O O6 0.683780 0.763377 0.623904
O O7 0.687222 0.000000 0.732694
O O8 0.035625 0.500000 0.760942
O O9 0.083792 0.265769 0.680075
O O10 0.017289 0.227940 0.816656
O O11 0.997713 0.309488 0.634563
O O12 0.470305 0.000000 0.115157
O O13 0.500000 0.780319 0.000000
O O14 0.073682 0.500000 0.391299
O O15 0.074593 0.749976 0.485940
O O16 0.903345 0.500000 0.422361
O O17 0.839849 0.720044 0.440230
O O18 0.750000 0.717791 0.489801
O O19 0.692730 0.500000 0.551538
#
# Coordination Sequence:
#
# PCOD8206909 Si02
#       7
#     8   8   8   8   8   8   8
#     4  10  18  30  50  71  91 121 158 195 229 268
#     4  10  19  29  42  64  97 132 161 190 226 268
#     4   9  17  27  44  66  87 115 152 190 223 269
#     4  10  21  36  51  67  92 120 145 185 242 296
#     4   8  13  22  38  61  87 115 146 179 219 260
#     4   9  14  23  40  63  90 119 153 189 226 261
#     4   9  16  26  41  61  88 125 166 197 220 258
#
# _framework density 16.274097999999999
#
# number of rings (size 3 to 8) (size 9 to 14) (size 15 to 20)
#    0.000    2.714    1.429    2.571    0.000    3.714 
#    0.000    0.714    0.000    1.714    0.000    1.000 
#    0.000    3.429    0.000    0.000    0.000    0.000 
#
# Total GULP energy -693876.340175 kJ/mol
# GULP energy per Si atom -12390.648932 kJ/mol
# Density = 1.623706 g / cm^3
# Si number density = 16.274098 Si / 1000 Ang^3
#
#
#
# Elastic Constant Matrix: (Units=GPa)
#
#
# Indices 1 2 3 4 5 6 
#
# 1 123.2552 41.5582 53.1178 0.0000 0.0000 0.0000
# 2 41.5582 52.8492 27.6769 0.0000 0.0000 0.0000
# 3 53.1178 27.6769 69.4009 0.0000 0.0000 0.0000
# 4 0.0000 0.0000 0.0000 16.3358 0.0000 0.0000
# 5 0.0000 0.0000 0.0000 0.0000 21.1245 0.0000
# 6 0.0000 0.0000 0.0000 0.0000 0.0000 19.1207
#
#
#
# Elastic Compliance Matrix: (Units=1/GPa)
#
#
# Indices 1 2 3 4 5 6 
#
# 1 0.013761 -0.006706 -0.007858 0.000000 0.000000 0.000000
# 2 -0.006706 0.027184 -0.005709 0.000000 0.000000 0.000000
# 3 -0.007858 -0.005709 0.022700 0.000000 0.000000 0.000000
# 4 0.000000 0.000000 0.000000 0.061215 0.000000 0.000000
# 5 0.000000 0.000000 0.000000 0.000000 0.047338 0.000000
# 6 0.000000 0.000000 0.000000 0.000000 0.000000 0.052299
#
#
# Mechanical properties :
#
#
# Convention : Reuss Voigt Hill
#
# Bulk Modulus (GPa) = 43.28923 54.46791 48.87857
# Shear Modulus (GPa) = 18.33232 19.52636 18.92934
#
# Velocity S-wave (km/s) = 3.35994 3.46763 3.41421
# Velocity P-wave (km/s) = 6.45833 7.04091 6.75590
#
# Compressibility (1/GPa) = 0.02310043
#
# Stress axis : x y z
#
# Youngs Moduli (GPa) = 72.67132 36.78585 44.05312
#
# Poissons Ratio (x) = 0.24667 0.34616
# Poissons Ratio (y) = 0.48730 0.25149
# Poissons Ratio (z) = 0.57104 0.21000
#
# Static dielectric constant tensor:
#      x y z
#    x 3.362100 0.000000 0.000000 
#    y 0.000000 2.854020 0.000000 
#    z 0.000000 0.000000 2.838700 
# 
# 
# High freq. dielectric constant tensor:
#      x y z
#    x 1.633040 0.000000 0.000000 
#    y 0.000000 1.604270 0.000000 
#    z 0.000000 0.000000 1.582000 
# 
# From -- ./inp_files/26479.got.cif
#   From: 2010.03.12/outbox.cif.g09.slc.cpg/sg51_14_cif.got.tgz:26479.got - 2010.04.16 13:43:02.
