data_PCOD8206151
_publ_section_title
;
Structure prediction by ZEFSAII (Michael W. Deem and Ramdas Pophale) SiO2 
 PCOD8206151
Probable space group: P M M A
;
_chemical_formula_sum "Si O2"
_cell_formula_units_Z 64
_cell_length_a 23.999875
_cell_length_b 9.150403
_cell_length_c 18.271897
_cell_angle_alpha 90.000000
_cell_angle_beta 90.000000
_cell_angle_gamma 90.000000
_cell_volume 4012.664408
_symmetry_space_group_name_H-M "P M M A"
_symmetry_group_IT_number 51
_symmetry_cell_setting 'orthorhombic'
loop_
_space_group_symop_operation_xyz
x,y,z
1/2-x,-y,z
1/2+x,-y,-z
-x,y,-z
-x,-y,-z
1/2+x,y,-z
1/2-x,y,z
x,-y,z
loop_
_atom_site_type_symbol
_atom_site_label
_atom_site_fract_x
_atom_site_fract_y
_atom_site_fract_z
Si Si1 0.609967 0.172996 0.887884
Si Si2 0.984352 0.835066 0.104198
Si Si3 0.314482 0.829235 0.683791
Si Si4 0.316255 0.162501 0.402497
Si Si5 0.812126 0.825962 0.757941
Si Si6 0.816397 0.663739 0.459376
Si Si7 0.392009 0.326302 0.966624
Si Si8 0.625382 0.166104 0.171978
O O1 0.545659 0.217102 0.872564
O O2 0.645288 0.231536 0.819112
O O3 0.617670 0.000000 0.899535
O O4 0.632661 0.258629 0.958837
O O5 0.956152 0.732900 0.041270
O O6 0.942668 0.829574 0.174949
O O7 0.986547 0.000000 0.072680
O O8 0.250000 0.792360 0.697871
O O9 0.337835 0.749068 0.612055
O O10 0.349091 0.769993 0.753437
O O11 0.324157 0.000000 0.671416
O O12 0.250000 0.154731 0.407809
O O13 0.332366 0.227855 0.322550
O O14 0.340925 0.263198 0.466982
O O15 0.341157 0.000000 0.412845
O O16 0.750000 0.766270 0.775577
O O17 0.810717 0.000000 0.756242
O O18 0.750000 0.667549 0.461529
O O19 0.839501 0.500000 0.455422
O O20 0.390177 0.500000 0.968785
O O21 0.355580 0.265184 0.897785
O O22 0.646909 0.000000 0.160007
#
# Coordination Sequence:
#
# PCOD8206151 Si02
#       8
#     8   8   8   8   8   8   8   8
#     4  10  17  28  47  66  85 110 140 177 217 253
#     4   8  16  29  45  64  83 107 138 176 220 254
#     4   9  16  27  44  63  83 110 142 174 208 248
#     4   8  13  24  41  59  81 108 138 171 205 241
#     4   8  15  27  44  66  88 111 141 175 208 246
#     4   9  16  24  37  60  87 111 137 170 207 247
#     4  10  19  29  43  63  85 108 139 177 214 249
#     4   8  16  30  43  59  84 109 137 173 212 253
#
# _framework density 15.949503
#
# number of rings (size 3 to 8) (size 9 to 14) (size 15 to 20)
#    0.750    2.500    0.000    2.250    0.000    4.000 
#    0.000    1.250    0.000    4.875    0.000    0.875 
#    0.000    7.000    0.000    0.000    0.000    0.000 
#
# Total GULP energy -792908.989093 kJ/mol
# GULP energy per Si atom -12389.202955 kJ/mol
# Density = 1.591320 g / cm^3
# Si number density = 15.949503 Si / 1000 Ang^3
#
#
#
# Elastic Constant Matrix: (Units=GPa)
#
#
# Indices 1 2 3 4 5 6 
#
# 1 37.3495 17.0727 50.6726 0.0000 0.0000 0.0000
# 2 17.0727 72.2475 58.8100 0.0000 0.0000 0.0000
# 3 50.6726 58.8100 168.8568 0.0000 0.0000 0.0000
# 4 0.0000 0.0000 0.0000 9.4238 0.0000 0.0000
# 5 0.0000 0.0000 0.0000 0.0000 5.9473 0.0000
# 6 0.0000 0.0000 0.0000 0.0000 0.0000 7.0727
#
#
#
# Elastic Compliance Matrix: (Units=1/GPa)
#
#
# Indices 1 2 3 4 5 6 
#
# 1 0.045174 0.000502 -0.013731 0.000000 0.000000 0.000000
# 2 0.000502 0.019324 -0.006881 0.000000 0.000000 0.000000
# 3 -0.013731 -0.006881 0.012439 0.000000 0.000000 0.000000
# 4 0.000000 0.000000 0.000000 0.106114 0.000000 0.000000
# 5 0.000000 0.000000 0.000000 0.000000 0.168144 0.000000
# 6 0.000000 0.000000 0.000000 0.000000 0.000000 0.141388
#
#
# Mechanical properties :
#
#
# Convention : Reuss Voigt Hill
#
# Bulk Modulus (GPa) = 27.23509 59.06274 43.14891
# Shear Modulus (GPa) = 9.17360 14.61532 11.89446
#
# Velocity S-wave (km/s) = 2.40086 3.03041 2.73382
# Velocity P-wave (km/s) = 4.97980 7.02538 6.08911
#
# Compressibility (1/GPa) = 0.03671734
#
# Stress axis : x y z
#
# Youngs Moduli (GPa) = 22.13667 51.74997 80.39004
#
# Poissons Ratio (x) = -0.02600 1.10386
# Poissons Ratio (y) = -0.01112 0.55316
# Poissons Ratio (z) = 0.30397 0.35609
#
# Static dielectric constant tensor:
#      x y z
#    x 2.740830 0.000000 0.000000 
#    y 0.000000 2.870260 0.000000 
#    z 0.000000 0.000000 3.218560 
# 
# 
# High freq. dielectric constant tensor:
#      x y z
#    x 1.561160 0.000000 0.000000 
#    y 0.000000 1.595440 0.000000 
#    z 0.000000 0.000000 1.617700 
# 
# From -- ./inp_files/30961.got.cif
#   From: 2010.03.12/outbox.cif.g09.slc.cpg/sg51_16_cif.got.tgz:30961.got - 2010.04.16 13:43:02.
