data_PCOD8206170
_publ_section_title
;
Structure prediction by ZEFSAII (Michael W. Deem and Ramdas Pophale) SiO2 
 PCOD8206170
Probable space group: P M M A
;
_chemical_formula_sum "Si O2"
_cell_formula_units_Z 64
_cell_length_a 21.484506
_cell_length_b 9.281176
_cell_length_c 19.254076
_cell_angle_alpha 90.000000
_cell_angle_beta 90.000000
_cell_angle_gamma 90.000000
_cell_volume 3839.291279
_symmetry_space_group_name_H-M "P M M A"
_symmetry_group_IT_number 51
_symmetry_cell_setting 'orthorhombic'
loop_
_space_group_symop_operation_xyz
x,y,z
1/2-x,-y,z
1/2+x,-y,-z
-x,y,-z
-x,-y,-z
1/2+x,y,-z
1/2-x,y,z
x,-y,z
loop_
_atom_site_type_symbol
_atom_site_label
_atom_site_fract_x
_atom_site_fract_y
_atom_site_fract_z
Si Si1 0.431244 0.837882 0.468448
Si Si2 0.319035 0.330199 0.983324
Si Si3 0.444683 0.671888 0.050426
Si Si4 0.140748 0.330505 0.829037
Si Si5 0.180353 0.839050 0.702369
Si Si6 0.104713 0.660716 0.592482
Si Si7 0.999972 0.670671 0.193102
Si Si8 0.031264 0.338759 0.344794
O O1 0.500000 0.840336 0.500000
O O2 0.388397 0.743746 0.519567
O O3 0.427030 0.767139 0.391773
O O4 0.404888 0.000000 0.463205
O O5 0.250000 0.267914 0.003768
O O6 0.317517 0.500000 0.993577
O O7 0.333459 0.291277 0.904226
O O8 0.376344 0.266593 0.029120
O O9 0.444604 0.500000 0.044984
O O10 0.457024 0.724166 0.129344
O O11 0.500000 0.730056 0.000000
O O12 0.147149 0.500000 0.812927
O O13 0.181866 0.239126 0.776395
O O14 0.069834 0.276477 0.821472
O O15 0.250000 0.848261 0.673837
O O16 0.141333 0.745498 0.650086
O O17 0.151798 0.000000 0.708528
O O18 0.132135 0.500000 0.583165
O O19 0.034641 0.650244 0.618116
O O20 0.999325 0.500000 0.197070
O O21 0.025410 0.728914 0.267121
O O22 0.060614 0.500000 0.342055
#
# Coordination Sequence:
#
# PCOD8206170 Si02
#       8
#     8   8   8   8   8   8   8   8
#     4   9  17  28  43  65  91 117 145 177 222 275
#     4   9  16  24  38  63  91 118 152 196 241 283
#     4   9  14  22  37  58  89 121 151 190 240 289
#     4  10  17  29  46  64  87 118 157 197 234 274
#     4  11  23  34  43  61  92 127 160 191 227 276
#     4  10  18  30  48  66  87 117 152 192 229 265
#     4   9  15  24  40  63  88 117 152 191 235 283
#     4   9  16  27  42  63  89 114 149 188 227 275
#
# _framework density 16.669744000000001
#
# number of rings (size 3 to 8) (size 9 to 14) (size 15 to 20)
#    0.000    2.500    2.500    1.500    0.000    3.500 
#    0.000    0.000    0.000    0.000    0.000    3.500 
#    0.000    3.000    0.000    0.000    0.000    0.000 
#
# Total GULP energy -793184.255908 kJ/mol
# GULP energy per Si atom -12393.503999 kJ/mol
# Density = 1.663180 g / cm^3
# Si number density = 16.669744 Si / 1000 Ang^3
#
#
#
# Elastic Constant Matrix: (Units=GPa)
#
#
# Indices 1 2 3 4 5 6 
#
# 1 50.0959 13.1615 23.3311 0.0000 0.0000 0.0000
# 2 13.1615 71.8031 28.8070 0.0000 0.0000 0.0000
# 3 23.3311 28.8070 90.5443 0.0000 0.0000 0.0000
# 4 0.0000 0.0000 0.0000 1.7254 0.0000 0.0000
# 5 0.0000 0.0000 0.0000 0.0000 -11.6224 0.0000
# 6 0.0000 0.0000 0.0000 0.0000 0.0000 -1.0109
#
#
#
# Elastic Compliance Matrix: (Units=1/GPa)
#
#
# Indices 1 2 3 4 5 6 
#
# 1 0.022958 -0.002103 -0.005247 0.000000 0.000000 0.000000
# 2 -0.002103 0.016157 -0.004599 0.000000 0.000000 0.000000
# 3 -0.005247 -0.004599 0.013859 0.000000 0.000000 0.000000
# 4 0.000000 0.000000 0.000000 0.579580 0.000000 0.000000
# 5 0.000000 0.000000 0.000000 0.000000 -0.086041 0.000000
# 6 0.000000 0.000000 0.000000 0.000000 0.000000 -0.989239
#
#
# Mechanical properties :
#
#
# Convention : Reuss Voigt Hill
#
# Bulk Modulus (GPa) = 34.39060 38.11584 36.25322
# Shear Modulus (GPa) = -12.22087 7.62800 -2.29643
#
# Velocity S-wave (km/s) = -2.71055 2.14147 -1.17499
# Velocity P-wave (km/s) = 3.29837 5.38790 4.46703
#
# Compressibility (1/GPa) = 0.02907771
#
# Stress axis : x y z
#
# Youngs Moduli (GPa) = 43.55831 61.89109 72.15388
#
# Poissons Ratio (x) = 0.13017 0.37856
# Poissons Ratio (y) = 0.09162 0.33180
# Poissons Ratio (z) = 0.22853 0.28461
#
# Static dielectric constant tensor:
#      x y z
#    x 2.774040 0.000000 0.000000 
#    y 0.000000 2.994780 0.000000 
#    z 0.000000 0.000000 3.337000 
# 
# 
# High freq. dielectric constant tensor:
#      x y z
#    x 1.606860 0.000000 0.000000 
#    y 0.000000 1.610240 0.000000 
#    z 0.000000 0.000000 1.644390 
# 
# From -- ./inp_files/34101.got.cif
#   From: 2010.03.12/outbox.cif.g09.slc.cpg/sg51_18_cif.got.tgz:34101.got - 2010.04.16 13:43:02.
