data_PCOD8206797
_publ_section_title
;
Structure prediction by ZEFSAII (Michael W. Deem and Ramdas Pophale) SiO2 
 PCOD8206797
Probable space group: P M M A
;
_chemical_formula_sum "Si O2"
_cell_formula_units_Z 48
_cell_length_a 18.229287
_cell_length_b 9.210364
_cell_length_c 16.382362
_cell_angle_alpha 90.000000
_cell_angle_beta 90.000000
_cell_angle_gamma 90.000000
_cell_volume 2750.571856
_symmetry_space_group_name_H-M "P M M A"
_symmetry_group_IT_number 51
_symmetry_cell_setting 'orthorhombic'
loop_
_space_group_symop_operation_xyz
x,y,z
1/2-x,-y,z
1/2+x,-y,-z
-x,y,-z
-x,-y,-z
1/2+x,y,-z
1/2-x,y,z
x,-y,z
loop_
_atom_site_type_symbol
_atom_site_label
_atom_site_fract_x
_atom_site_fract_y
_atom_site_fract_z
Si Si1 0.584738 0.828903 0.511255
Si Si2 0.463711 0.831069 0.082485
Si Si3 0.666804 0.669486 0.838519
Si Si4 0.092534 0.329733 0.328356
Si Si5 0.830636 0.829400 0.352145
Si Si6 0.463255 0.832236 0.750800
O O1 0.500000 0.785693 0.500000
O O2 0.619593 0.748259 0.589420
O O3 0.629301 0.770422 0.433094
O O4 0.593672 0.000000 0.524133
O O5 0.386871 0.752599 0.099835
O O6 0.522583 0.801126 0.154076
O O7 0.445524 0.000000 0.073264
O O8 0.500000 0.768972 0.000000
O O9 0.750000 0.718045 0.856787
O O10 0.655377 0.500000 0.854251
O O11 0.648996 0.707617 0.744462
O O12 0.086520 0.500000 0.344011
O O13 0.013127 0.268474 0.305254
O O14 0.750000 0.757456 0.342233
O O15 0.879177 0.793634 0.271706
O O16 0.821961 0.000000 0.361623
O O17 0.480968 0.000000 0.728671
#
# Coordination Sequence:
#
# PCOD8206797 Si02
#       6
#     8   8   8   8   8   8
#     4  10  18  30  47  67  92 124 161 202 243 287
#     4   9  18  32  52  79 104 126 159 203 249 298
#     4   9  19  35  52  72 101 135 168 203 245 295
#     4  10  19  30  48  72  95 124 163 201 240 289
#     4   9  17  29  46  67  89 119 161 200 232 276
#     4   9  16  31  51  68  93 127 158 192 237 289
#
# _framework density 17.450915999999999
#
# number of rings (size 3 to 8) (size 9 to 14) (size 15 to 20)
#    0.000    2.667    1.667    0.500    0.000    2.333 
#    0.000    0.833    0.000    4.500    0.000    0.000 
#    0.000    0.000    0.000    0.000    0.000    0.000 
#
# Total GULP energy -595105.264282 kJ/mol
# GULP energy per Si atom -12398.026339 kJ/mol
# Density = 1.741120 g / cm^3
# Si number density = 17.450916 Si / 1000 Ang^3
#
#
#
# Elastic Constant Matrix: (Units=GPa)
#
#
# Indices 1 2 3 4 5 6 
#
# 1 149.6580 34.3192 73.3428 0.0000 0.0000 0.0000
# 2 34.3192 39.5390 36.2449 0.0000 0.0000 0.0000
# 3 73.3428 36.2449 124.0777 0.0000 0.0000 0.0000
# 4 0.0000 0.0000 0.0000 21.8286 0.0000 0.0000
# 5 0.0000 0.0000 0.0000 0.0000 22.8653 0.0000
# 6 0.0000 0.0000 0.0000 0.0000 0.0000 18.1432
#
#
#
# Elastic Compliance Matrix: (Units=1/GPa)
#
#
# Indices 1 2 3 4 5 6 
#
# 1 0.009944 -0.004429 -0.004584 0.000000 0.000000 0.000000
# 2 -0.004429 0.036513 -0.008048 0.000000 0.000000 0.000000
# 3 -0.004584 -0.008048 0.013120 0.000000 0.000000 0.000000
# 4 0.000000 0.000000 0.000000 0.045811 0.000000 0.000000
# 5 0.000000 0.000000 0.000000 0.000000 0.043734 0.000000
# 6 0.000000 0.000000 0.000000 0.000000 0.000000 0.055117
#
#
# Mechanical properties :
#
#
# Convention : Reuss Voigt Hill
#
# Bulk Modulus (GPa) = 39.28494 66.78759 53.03626
# Shear Modulus (GPa) = 20.25536 23.85862 22.05699
#
# Velocity S-wave (km/s) = 3.41061 3.70156 3.55906
# Velocity P-wave (km/s) = 6.17011 7.52486 6.88090
#
# Compressibility (1/GPa) = 0.02545505
#
# Stress axis : x y z
#
# Youngs Moduli (GPa) = 100.56168 27.38720 76.21847
#
# Poissons Ratio (x) = 0.12130 0.34940
# Poissons Ratio (y) = 0.44539 0.61341
# Poissons Ratio (z) = 0.46100 0.22041
#
# Static dielectric constant tensor:
#      x y z
#    x 3.362140 0.000000 0.000000 
#    y 0.000000 3.055040 0.000000 
#    z 0.000000 0.000000 3.326500 
# 
# 
# High freq. dielectric constant tensor:
#      x y z
#    x 1.666250 0.000000 0.000000 
#    y 0.000000 1.651870 0.000000 
#    z 0.000000 0.000000 1.671490 
# 
# From -- ./inp_files/24777.got.cif
#   From: 2010.03.12/outbox.cif.g09.slc.cpg/sg51_13_cif.got.tgz:24777.got - 2010.04.16 13:43:02.
