data_PCOD8206420
_publ_section_title
;
Structure prediction by ZEFSAII (Michael W. Deem and Ramdas Pophale) SiO2 
 PCOD8206420
Probable space group: P M M A
;
_chemical_formula_sum "Si O2"
_cell_formula_units_Z 56
_cell_length_a 9.204932
_cell_length_b 18.430810
_cell_length_c 21.158156
_cell_angle_alpha 90.000000
_cell_angle_beta 90.000000
_cell_angle_gamma 90.000000
_cell_volume 3589.573262
_symmetry_space_group_name_H-M "P M M A"
_symmetry_group_IT_number 51
_symmetry_cell_setting 'orthorhombic'
loop_
_space_group_symop_operation_xyz
x,y,z
1/2-x,-y,z
1/2+x,-y,-z
-x,y,-z
-x,-y,-z
1/2+x,y,-z
1/2-x,y,z
x,-y,z
loop_
_atom_site_type_symbol
_atom_site_label
_atom_site_fract_x
_atom_site_fract_y
_atom_site_fract_z
Si Si1 0.420517 0.664762 0.176012
Si Si2 0.089749 0.301281 0.633105
Si Si3 0.922228 0.838141 0.436222
Si Si4 0.577008 0.080791 0.312476
Si Si5 0.912294 0.214232 0.237238
Si Si6 0.919350 0.418780 0.696039
Si Si7 0.080028 0.583804 0.935173
O O1 0.250000 0.667057 0.160616
O O2 0.477453 0.746504 0.189042
O O3 0.455994 0.613973 0.235614
O O4 0.508612 0.633405 0.117694
O O5 0.250000 0.329668 0.615593
O O6 0.033437 0.245289 0.579743
O O7 0.095895 0.258055 0.698155
O O8 0.987285 0.371230 0.639554
O O9 0.750000 0.844769 0.444373
O O10 0.979390 0.890634 0.380314
O O11 0.000000 0.863177 0.500000
O O12 0.750000 0.081520 0.314270
O O13 0.527423 0.133733 0.254928
O O14 0.515349 0.000000 0.300172
O O15 0.750000 0.210599 0.207247
O O16 0.750000 0.419340 0.683644
O O17 0.983813 0.500000 0.693539
O O18 0.250000 0.601970 0.941733
O O19 0.055306 0.500000 0.916952
O O20 0.000000 0.602799 0.000000
#
# Coordination Sequence:
#
# PCOD8206420 Si02
#       7
#     8   8   8   8   8   8   8
#     4  10  18  28  43  62  87 116 144 175 211 252
#     4   8  15  27  40  55  76 102 132 167 206 247
#     4   9  17  28  42  60  81 106 138 171 202 244
#     4   8  14  26  44  64  87 114 140 169 208 252
#     4   8  14  26  43  61  81 107 141 176 208 247
#     4   9  17  27  40  60  82 102 128 167 213 254
#     4  10  20  32  45  62  87 120 155 187 217 248
#
# _framework density 15.600739000000001
#
# number of rings (size 3 to 8) (size 9 to 14) (size 15 to 20)
#    0.000    3.143    0.000    3.000    0.000    3.143 
#    0.000    2.143    0.000    1.714    0.000    0.000 
#    0.000    0.571    0.000    1.571    0.000    2.286 
#
# Total GULP energy -694069.317793 kJ/mol
# GULP energy per Si atom -12394.094961 kJ/mol
# Density = 1.556523 g / cm^3
# Si number density = 15.600739 Si / 1000 Ang^3
#
#
#
# Elastic Constant Matrix: (Units=GPa)
#
#
# Indices 1 2 3 4 5 6 
#
# 1 55.3464 40.9266 31.5313 0.0000 0.0000 0.0000
# 2 40.9266 125.4377 44.2646 0.0000 0.0000 0.0000
# 3 31.5313 44.2646 54.1498 0.0000 0.0000 0.0000
# 4 0.0000 0.0000 0.0000 19.3983 0.0000 0.0000
# 5 0.0000 0.0000 0.0000 0.0000 25.3700 0.0000
# 6 0.0000 0.0000 0.0000 0.0000 0.0000 16.1147
#
#
#
# Elastic Compliance Matrix: (Units=1/GPa)
#
#
# Indices 1 2 3 4 5 6 
#
# 1 0.029058 -0.004933 -0.012888 0.000000 0.000000 0.000000
# 2 -0.004933 0.012041 -0.006971 0.000000 0.000000 0.000000
# 3 -0.012888 -0.006971 0.031670 0.000000 0.000000 0.000000
# 4 0.000000 0.000000 0.000000 0.051551 0.000000 0.000000
# 5 0.000000 0.000000 0.000000 0.000000 0.039417 0.000000
# 6 0.000000 0.000000 0.000000 0.000000 0.000000 0.062055
#
#
# Mechanical properties :
#
#
# Convention : Reuss Voigt Hill
#
# Bulk Modulus (GPa) = 43.12909 52.04209 47.58559
# Shear Modulus (GPa) = 17.66129 20.05736 18.85933
#
# Velocity S-wave (km/s) = 3.36829 3.58951 3.48066
# Velocity P-wave (km/s) = 6.54467 7.11411 6.83532
#
# Compressibility (1/GPa) = 0.02318621
#
# Stress axis : x y z
#
# Youngs Moduli (GPa) = 34.41372 83.04696 31.57531
#
# Poissons Ratio (x) = 0.40965 0.40695
# Poissons Ratio (y) = 0.16976 0.22011
# Poissons Ratio (z) = 0.44353 0.57890
#
# Static dielectric constant tensor:
#      x y z
#    x 2.929540 0.000000 0.000000 
#    y 0.000000 3.309250 0.000000 
#    z 0.000000 0.000000 2.774960 
# 
# 
# High freq. dielectric constant tensor:
#      x y z
#    x 1.589610 0.000000 0.000000 
#    y 0.000000 1.591520 0.000000 
#    z 0.000000 0.000000 1.565690 
# 
# From -- ./inp_files/32224.got.cif
#   From: 2010.03.12/outbox.cif.g09.slc.cpg/sg51_17_cif.got.tgz:32224.got - 2010.04.16 13:43:02.
