data_PCOD8206989
_publ_section_title
;
Structure prediction by ZEFSAII (Michael W. Deem and Ramdas Pophale) SiO2 
 PCOD8206989
Probable space group: P M M A
;
_chemical_formula_sum "Si O2"
_cell_formula_units_Z 56
_cell_length_a 14.301511
_cell_length_b 9.185485
_cell_length_c 23.481445
_cell_angle_alpha 90.000000
_cell_angle_beta 90.000000
_cell_angle_gamma 90.000000
_cell_volume 3084.670895
_symmetry_space_group_name_H-M "P M M A"
_symmetry_group_IT_number 51
_symmetry_cell_setting 'orthorhombic'
loop_
_space_group_symop_operation_xyz
x,y,z
1/2-x,-y,z
1/2+x,-y,-z
-x,y,-z
-x,-y,-z
1/2+x,y,-z
1/2-x,y,z
x,-y,z
loop_
_atom_site_type_symbol
_atom_site_label
_atom_site_fract_x
_atom_site_fract_y
_atom_site_fract_z
Si Si1 0.144459 0.164769 0.021369
Si Si2 0.029571 0.829728 0.133239
Si Si3 0.250000 0.341921 0.419021
Si Si4 0.563625 0.663696 0.650148
Si Si5 0.356881 0.329285 0.906418
Si Si6 0.858562 0.671181 0.769928
Si Si7 0.750000 0.828986 0.470557
Si Si8 0.451107 0.827458 0.558225
O O1 0.250000 0.183227 0.044736
O O2 0.072729 0.200769 0.071329
O O3 0.128779 0.000000 0.998719
O O4 0.124936 0.275353 0.970426
O O5 0.100147 0.761488 0.178233
O O6 0.927693 0.753374 0.136235
O O7 0.018308 0.000000 0.145981
O O8 0.250000 0.500000 0.450034
O O9 0.162939 0.326801 0.378681
O O10 0.250000 0.213543 0.463777
O O11 0.523306 0.500000 0.648032
O O12 0.579247 0.714814 0.714954
O O13 0.493821 0.767848 0.616381
O O14 0.250000 0.294413 0.887877
O O15 0.377487 0.500000 0.903692
O O16 0.750000 0.713953 0.761013
O O17 0.867385 0.500000 0.782384
O O18 0.656058 0.771049 0.440651
O O19 0.750000 0.000000 0.469611
O O20 0.500000 0.767898 0.500000
O O21 0.459510 0.000000 0.559358
#
# Coordination Sequence:
#
# PCOD8206989 Si02
#       8
#     8   8   4   8   8   8   4   8
#     4   9  18  33  52  77 112 146 174 212 265 322
#     4  11  22  35  54  81 111 143 180 221 267 319
#     4  10  18  30  52  80 108 138 174 215 258 307
#     4  10  20  35  55  79 107 139 177 218 260 312
#     4  10  21  36  55  79 106 140 183 226 268 318
#     4  10  21  38  58  80 108 141 176 219 270 318
#     4  10  20  34  50  76 112 142 170 213 264 315
#     4  10  20  33  52  78 108 141 176 214 263 315
#
# _framework density 18.154287
#
# number of rings (size 3 to 8) (size 9 to 14) (size 15 to 20)
#    0.000    2.000    2.143    1.714    0.000    6.000 
#    0.000    1.429    1.571    0.000    0.000    0.000 
#    0.000    0.000    0.000    0.000    0.000    0.000 
#
# Total GULP energy -694330.508723 kJ/mol
# GULP energy per Si atom -12398.759084 kJ/mol
# Density = 1.811297 g / cm^3
# Si number density = 18.154287 Si / 1000 Ang^3
#
#
#
# Elastic Constant Matrix: (Units=GPa)
#
#
# Indices 1 2 3 4 5 6 
#
# 1 115.8718 51.4431 36.9964 0.0000 0.0000 0.0000
# 2 51.4431 59.2863 37.7161 0.0000 0.0000 0.0000
# 3 36.9964 37.7161 62.9139 0.0000 0.0000 0.0000
# 4 0.0000 0.0000 0.0000 27.1507 0.0000 0.0000
# 5 0.0000 0.0000 0.0000 0.0000 56.1311 0.0000
# 6 0.0000 0.0000 0.0000 0.0000 0.0000 30.5825
#
#
#
# Elastic Compliance Matrix: (Units=1/GPa)
#
#
# Indices 1 2 3 4 5 6 
#
# 1 0.014131 -0.011275 -0.001550 0.000000 0.000000 0.000000
# 2 -0.011275 0.036263 -0.015109 0.000000 0.000000 0.000000
# 3 -0.001550 -0.015109 0.025864 0.000000 0.000000 0.000000
# 4 0.000000 0.000000 0.000000 0.036831 0.000000 0.000000
# 5 0.000000 0.000000 0.000000 0.000000 0.017815 0.000000
# 6 0.000000 0.000000 0.000000 0.000000 0.000000 0.032698
#
#
# Mechanical properties :
#
#
# Convention : Reuss Voigt Hill
#
# Bulk Modulus (GPa) = 49.04596 54.48702 51.76649
# Shear Modulus (GPa) = 22.09774 30.23395 26.16584
#
# Velocity S-wave (km/s) = 3.49265 4.08534 3.80057
# Velocity P-wave (km/s) = 6.58329 7.23408 6.91634
#
# Compressibility (1/GPa) = 0.02038904
#
# Stress axis : x y z
#
# Youngs Moduli (GPa) = 70.76590 27.57666 38.66412
#
# Poissons Ratio (x) = 0.31094 0.05994
# Poissons Ratio (y) = 0.79791 0.58416
# Poissons Ratio (z) = 0.10971 0.41664
#
# Static dielectric constant tensor:
#      x y z
#    x 3.636200 0.000000 0.000000 
#    y 0.000000 3.358470 0.000000 
#    z 0.000000 0.000000 3.178110 
# 
# 
# High freq. dielectric constant tensor:
#      x y z
#    x 1.714060 0.000000 0.000000 
#    y 0.000000 1.701450 0.000000 
#    z 0.000000 0.000000 1.681160 
# 
# From -- ./inp_files/33552.got.cif
#   From: 2010.03.12/outbox.cif.g09.slc.cpg/sg51_17_cif.got.tgz:33552.got - 2010.04.16 13:43:02.
