data_PCOD8206412
_publ_section_title
;
Structure prediction by ZEFSAII (Michael W. Deem and Ramdas Pophale) SiO2 
 PCOD8206412
Probable space group: P M M A
;
_chemical_formula_sum "Si O2"
_cell_formula_units_Z 64
_cell_length_a 9.145167
_cell_length_b 22.151168
_cell_length_c 21.096105
_cell_angle_alpha 90.000000
_cell_angle_beta 90.000000
_cell_angle_gamma 90.000000
_cell_volume 4273.567322
_symmetry_space_group_name_H-M "P M M A"
_symmetry_group_IT_number 51
_symmetry_cell_setting 'orthorhombic'
loop_
_space_group_symop_operation_xyz
x,y,z
1/2-x,-y,z
1/2+x,-y,-z
-x,y,-z
-x,-y,-z
1/2+x,y,-z
1/2-x,y,z
x,-y,z
loop_
_atom_site_type_symbol
_atom_site_label
_atom_site_fract_x
_atom_site_fract_y
_atom_site_fract_z
Si Si1 0.919377 0.174657 0.152038
Si Si2 0.911978 0.742232 0.257417
Si Si3 0.416545 0.652964 0.335681
Si Si4 0.422232 0.431566 0.566865
Si Si5 0.413158 0.433021 0.216761
Si Si6 0.586711 0.651341 0.139606
Si Si7 0.921250 0.739124 0.937550
Si Si8 0.919337 0.931987 0.063122
O O1 0.750000 0.193190 0.136029
O O2 0.946860 0.190335 0.227474
O O3 0.948183 0.106191 0.128043
O O4 0.040025 0.213121 0.115915
O O5 0.750000 0.742055 0.287544
O O6 0.918725 0.698095 0.197402
O O7 0.020526 0.718557 0.312878
O O8 0.250000 0.662511 0.359211
O O9 0.512937 0.621458 0.389581
O O10 0.424903 0.608325 0.277457
O O11 0.500000 0.424587 0.500000
O O12 0.250000 0.420366 0.559266
O O13 0.451349 0.500000 0.593211
O O14 0.250000 0.429847 0.188470
O O15 0.456018 0.500000 0.238220
O O16 0.525037 0.412670 0.162578
O O17 0.750000 0.642382 0.113868
O O18 0.485550 0.674064 0.082189
O O19 0.750000 0.734474 0.948216
O O20 0.000000 0.762811 0.000000
O O21 0.750000 0.930325 0.045488
O O22 0.973253 0.000000 0.077849
O O23 0.000000 0.906396 0.000000
#
# Coordination Sequence:
#
# PCOD8206412 Si02
#       8
#     8   8   8   8   8   8   8   8
#     4   9  17  29  43  60  81 104 133 168 204 241
#     4   8  15  27  41  57  78 102 128 162 202 241
#     4  10  18  28  43  62  83 105 132 166 201 237
#     4  10  20  32  45  61  83 112 144 175 206 241
#     4   9  17  28  42  60  80 101 124 152 189 232
#     4   9  17  29  42  57  76  95 119 152 190 233
#     4  11  20  29  42  58  75  95 120 152 193 238
#     4   9  17  28  41  58  82 112 144 176 209 246
#
# _framework density 14.97578
#
# number of rings (size 3 to 8) (size 9 to 14) (size 15 to 20)
#    0.000    2.625    0.000    3.750    0.000    6.500 
#    0.000    0.000    0.000    0.375    0.000    0.000 
#    0.000    0.000    0.000    0.000    0.000    0.625 
#
# Total GULP energy -792849.064455 kJ/mol
# GULP energy per Si atom -12388.266632 kJ/mol
# Density = 1.494169 g / cm^3
# Si number density = 14.975780 Si / 1000 Ang^3
#
#
#
# Elastic Constant Matrix: (Units=GPa)
#
#
# Indices 1 2 3 4 5 6 
#
# 1 102.2481 28.7793 35.7332 0.0000 0.0000 0.0000
# 2 28.7793 64.2207 31.1304 0.0000 0.0000 0.0000
# 3 35.7332 31.1304 46.1037 0.0000 0.0000 0.0000
# 4 0.0000 0.0000 0.0000 25.7159 0.0000 0.0000
# 5 0.0000 0.0000 0.0000 0.0000 23.0932 0.0000
# 6 0.0000 0.0000 0.0000 0.0000 0.0000 16.3842
#
#
#
# Elastic Compliance Matrix: (Units=1/GPa)
#
#
# Indices 1 2 3 4 5 6 
#
# 1 0.013504 -0.001454 -0.009485 0.000000 0.000000 0.000000
# 2 -0.001454 0.023304 -0.014609 0.000000 0.000000 0.000000
# 3 -0.009485 -0.014609 0.038906 0.000000 0.000000 0.000000
# 4 0.000000 0.000000 0.000000 0.038886 0.000000 0.000000
# 5 0.000000 0.000000 0.000000 0.000000 0.043303 0.000000
# 6 0.000000 0.000000 0.000000 0.000000 0.000000 0.061034
#
#
# Mechanical properties :
#
#
# Convention : Reuss Voigt Hill
#
# Bulk Modulus (GPa) = 40.61876 44.87313 42.74595
# Shear Modulus (GPa) = 17.97018 20.83398 19.40208
#
# Velocity S-wave (km/s) = 3.46779 3.73390 3.60330
# Velocity P-wave (km/s) = 6.57388 6.97267 6.77621
#
# Compressibility (1/GPa) = 0.02461917
#
# Stress axis : x y z
#
# Youngs Moduli (GPa) = 74.05187 42.91044 25.70321
#
# Poissons Ratio (x) = 0.06239 0.24379
# Poissons Ratio (y) = 0.10767 0.37549
# Poissons Ratio (z) = 0.70236 0.62687
#
# Static dielectric constant tensor:
#      x y z
#    x 3.071240 0.000000 0.000000 
#    y 0.000000 2.981100 0.000000 
#    z 0.000000 0.000000 2.763760 
# 
# 
# High freq. dielectric constant tensor:
#      x y z
#    x 1.586610 0.000000 0.000000 
#    y 0.000000 1.545410 0.000000 
#    z 0.000000 0.000000 1.534600 
# 
# From -- ./inp_files/32693.got.cif
#   From: 2010.03.12/outbox.cif.g09.slc.cpg/sg51_17_cif.got.tgz:32693.got - 2010.04.16 13:43:02.
