data_PCOD8206288
_publ_section_title
;
Structure prediction by ZEFSAII (Michael W. Deem and Ramdas Pophale) SiO2 
 PCOD8206288
Probable space group: P M M A
;
_chemical_formula_sum "Si O2"
_cell_formula_units_Z 36
_cell_length_a 8.804427
_cell_length_b 18.393677
_cell_length_c 14.441437
_cell_angle_alpha 90.000000
_cell_angle_beta 90.000000
_cell_angle_gamma 90.000000
_cell_volume 2338.729872
_symmetry_space_group_name_H-M "P M M A"
_symmetry_group_IT_number 51
_symmetry_cell_setting 'orthorhombic'
loop_
_space_group_symop_operation_xyz
x,y,z
1/2-x,-y,z
1/2+x,-y,-z
-x,y,-z
-x,-y,-z
1/2+x,y,-z
1/2-x,y,z
x,-y,z
loop_
_atom_site_type_symbol
_atom_site_label
_atom_site_fract_x
_atom_site_fract_y
_atom_site_fract_z
Si Si1 0.569317 0.500000 0.100312
Si Si2 0.069540 0.222101 0.898013
Si Si3 0.070935 0.583361 0.593912
Si Si4 0.072284 0.078768 0.100405
Si Si5 0.569693 0.638398 0.212767
O O1 0.750000 0.500000 0.094236
O O2 0.507520 0.570952 0.153268
O O3 0.500000 0.500000 0.000000
O O4 0.250000 0.221161 0.905866
O O5 0.010342 0.286855 0.832189
O O6 0.010235 0.146943 0.849921
O O7 0.000000 0.232525 0.000000
O O8 0.250000 0.588267 0.585134
O O9 0.018892 0.500000 0.608690
O O10 0.011590 0.630528 0.681349
O O11 0.000000 0.615904 0.500000
O O12 0.250000 0.095663 0.091590
O O13 0.045803 0.000000 0.150688
O O14 0.000000 0.073621 0.000000
O O15 0.750000 0.636069 0.212044
#
# Coordination Sequence:
#
# PCOD8206288 Si02
#       5
#     4   8   8   8   8
#     4  10  18  30  43  56  78 112 147 174 199 232
#     4  10  18  27  40  59  83 112 143 172 203 239
#     4   9  16  29  47  63  79 102 134 173 213 252
#     4   9  16  26  40  57  78 106 138 170 205 243
#     4   9  17  29  44  59  80 112 142 167 205 251
#
# _framework density 15.392972
#
# number of rings (size 3 to 8) (size 9 to 14) (size 15 to 20)
#    0.000    2.667    1.111    3.333    0.000    1.333 
#    0.000    4.444    0.000    0.000    0.000    0.000 
#    0.000    0.889    0.000    2.000    0.000    4.000 
#
# Total GULP energy -446086.584096 kJ/mol
# GULP energy per Si atom -12391.294003 kJ/mol
# Density = 1.535794 g / cm^3
# Si number density = 15.392972 Si / 1000 Ang^3
#
#
#
# Elastic Constant Matrix: (Units=GPa)
#
#
# Indices 1 2 3 4 5 6 
#
# 1 43.5369 33.1722 22.0511 0.0000 0.0000 0.0000
# 2 33.1722 148.2170 63.6740 0.0000 0.0000 0.0000
# 3 22.0511 63.6740 105.5909 0.0000 0.0000 0.0000
# 4 0.0000 0.0000 0.0000 8.4989 0.0000 0.0000
# 5 0.0000 0.0000 0.0000 0.0000 19.3011 0.0000
# 6 0.0000 0.0000 0.0000 0.0000 0.0000 19.8427
#
#
#
# Elastic Compliance Matrix: (Units=1/GPa)
#
#
# Indices 1 2 3 4 5 6 
#
# 1 0.028301 -0.005122 -0.002822 0.000000 0.000000 0.000000
# 2 -0.005122 0.010033 -0.004980 0.000000 0.000000 0.000000
# 3 -0.002822 -0.004980 0.013063 0.000000 0.000000 0.000000
# 4 0.000000 0.000000 0.000000 0.117662 0.000000 0.000000
# 5 0.000000 0.000000 0.000000 0.000000 0.051811 0.000000
# 6 0.000000 0.000000 0.000000 0.000000 0.000000 0.050396
#
#
# Mechanical properties :
#
#
# Convention : Reuss Voigt Hill
#
# Bulk Modulus (GPa) = 39.14066 59.45993 49.30029
# Shear Modulus (GPa) = 16.35968 21.42504 18.89236
#
# Velocity S-wave (km/s) = 3.26360 3.73483 3.50714
# Velocity P-wave (km/s) = 6.29955 7.57036 6.96400
#
# Compressibility (1/GPa) = 0.02554888
#
# Stress axis : x y z
#
# Youngs Moduli (GPa) = 35.33500 99.67374 76.55170
#
# Poissons Ratio (x) = 0.51050 0.21600
# Poissons Ratio (y) = 0.18098 0.38126
# Poissons Ratio (z) = 0.09970 0.49641
#
# Static dielectric constant tensor:
#      x y z
#    x 2.821720 0.000000 0.000000 
#    y 0.000000 3.645010 0.000000 
#    z 0.000000 0.000000 2.846260 
# 
# 
# High freq. dielectric constant tensor:
#      x y z
#    x 1.581790 0.000000 0.000000 
#    y 0.000000 1.592570 0.000000 
#    z 0.000000 0.000000 1.552420 
# 
# From -- ./inp_files/20756.got.cif
#   From: 2010.03.12/outbox.cif.g09.slc.cpg/sg51_11_cif.got.tgz:20756.got - 2010.04.16 13:43:02.
