data_PCOD8206632
_publ_section_title
;
Structure prediction by ZEFSAII (Michael W. Deem and Ramdas Pophale) SiO2 
 PCOD8206632
Probable space group: P M M A
;
_chemical_formula_sum "Si O2"
_cell_formula_units_Z 64
_cell_length_a 9.256876
_cell_length_b 20.353224
_cell_length_c 19.910812
_cell_angle_alpha 90.000000
_cell_angle_beta 90.000000
_cell_angle_gamma 90.000000
_cell_volume 3751.341748
_symmetry_space_group_name_H-M "P M M A"
_symmetry_group_IT_number 51
_symmetry_cell_setting 'orthorhombic'
loop_
_space_group_symop_operation_xyz
x,y,z
1/2-x,-y,z
1/2+x,-y,-z
-x,y,-z
-x,-y,-z
1/2+x,y,-z
1/2-x,y,z
x,-y,z
loop_
_atom_site_type_symbol
_atom_site_label
_atom_site_fract_x
_atom_site_fract_y
_atom_site_fract_z
Si Si1 0.086127 0.426668 0.098920
Si Si2 0.079689 0.925039 0.568468
Si Si3 0.419497 0.739965 0.790398
Si Si4 0.919060 0.184485 0.333179
Si Si5 0.918610 0.295715 0.434654
Si Si6 0.585011 0.428384 0.370289
Si Si7 0.919841 0.298276 0.063777
Si Si8 0.085606 0.387831 0.247480
O O1 0.250000 0.407818 0.077226
O O2 0.045816 0.500000 0.072898
O O3 0.074959 0.428327 0.179028
O O4 0.975400 0.373380 0.069443
O O5 0.250000 0.914469 0.556776
O O6 0.017094 0.880404 0.630122
O O7 0.000000 0.904256 0.500000
O O8 0.043770 0.000000 0.587647
O O9 0.250000 0.725142 0.782397
O O10 0.462986 0.804905 0.745979
O O11 0.458545 0.745016 0.869788
O O12 0.504077 0.680715 0.757555
O O13 0.750000 0.175192 0.336819
O O14 0.966439 0.249883 0.372903
O O15 0.750000 0.290215 0.449254
O O16 0.967416 0.370611 0.419659
O O17 0.000000 0.269991 0.500000
O O18 0.750000 0.414174 0.348688
O O19 0.571046 0.500000 0.405835
O O20 0.488038 0.431534 0.304141
O O21 0.750000 0.299696 0.050716
O O22 0.000000 0.264924 0.000000
O O23 0.250000 0.373238 0.267527
#
# Coordination Sequence:
#
# PCOD8206632 Si02
#       8
#     8   8   8   8   8   8   8   8
#     4   9  18  31  45  62  86 113 142 180 227 280
#     4   9  17  29  47  73 104 137 165 190 225 268
#     4   9  17  32  51  68  88 119 155 186 225 275
#     4   9  16  30  51  70  93 123 156 193 225 263
#     4  10  20  33  47  63  85 114 148 189 233 273
#     4  10  20  33  47  60  79 112 150 188 234 289
#     4  10  20  32  48  66  87 115 146 183 229 281
#     4  10  18  29  46  68  90 110 139 188 242 281
#
# _framework density 17.060562000000001
#
# number of rings (size 3 to 8) (size 9 to 14) (size 15 to 20)
#    0.000    2.500    1.250    1.500    0.000    3.000 
#    0.000    0.625    0.000    0.000    0.000    0.000 
#    0.000    0.500    0.000    0.375    0.000    0.750 
#
# Total GULP energy -793101.632496 kJ/mol
# GULP energy per Si atom -12392.213008 kJ/mol
# Density = 1.702173 g / cm^3
# Si number density = 17.060562 Si / 1000 Ang^3
#
#
#
# Elastic Constant Matrix: (Units=GPa)
#
#
# Indices 1 2 3 4 5 6 
#
# 1 47.7440 20.0177 36.2605 0.0000 0.0000 0.0000
# 2 20.0177 84.8630 50.5548 0.0000 0.0000 0.0000
# 3 36.2605 50.5548 114.0442 0.0000 0.0000 0.0000
# 4 0.0000 0.0000 0.0000 16.6992 0.0000 0.0000
# 5 0.0000 0.0000 0.0000 0.0000 25.6959 0.0000
# 6 0.0000 0.0000 0.0000 0.0000 0.0000 10.6262
#
#
#
# Elastic Compliance Matrix: (Units=1/GPa)
#
#
# Indices 1 2 3 4 5 6 
#
# 1 0.027804 -0.001756 -0.008062 0.000000 0.000000 0.000000
# 2 -0.001756 0.016123 -0.006589 0.000000 0.000000 0.000000
# 3 -0.008062 -0.006589 0.014253 0.000000 0.000000 0.000000
# 4 0.000000 0.000000 0.000000 0.059883 0.000000 0.000000
# 5 0.000000 0.000000 0.000000 0.000000 0.038917 0.000000
# 6 0.000000 0.000000 0.000000 0.000000 0.000000 0.094107
#
#
# Mechanical properties :
#
#
# Convention : Reuss Voigt Hill
#
# Bulk Modulus (GPa) = 39.42231 51.14635 45.28433
# Shear Modulus (GPa) = 17.10247 19.92548 18.51398
#
# Velocity S-wave (km/s) = 3.16959 3.42120 3.29780
# Velocity P-wave (km/s) = 6.04587 6.75652 6.41105
#
# Compressibility (1/GPa) = 0.02536635
#
# Stress axis : x y z
#
# Youngs Moduli (GPa) = 35.96584 62.02303 70.16219
#
# Poissons Ratio (x) = 0.10890 0.56565
# Poissons Ratio (y) = 0.06315 0.46230
# Poissons Ratio (z) = 0.28996 0.40867
#
# Static dielectric constant tensor:
#      x y z
#    x 3.112720 0.000000 0.000000 
#    y 0.000000 3.096990 0.000000 
#    z 0.000000 0.000000 3.373350 
# 
# 
# High freq. dielectric constant tensor:
#      x y z
#    x 1.648920 0.000000 0.000000 
#    y 0.000000 1.621750 0.000000 
#    z 0.000000 0.000000 1.657260 
# 
# From -- ./inp_files/32611.got.cif
#   From: 2010.03.12/outbox.cif.g09.slc.cpg/sg51_17_cif.got.tgz:32611.got - 2010.04.16 13:43:02.
