data_PCOD8206970
_publ_section_title
;
Structure prediction by ZEFSAII (Michael W. Deem and Ramdas Pophale) SiO2 
 PCOD8206970
Probable space group: P M M A
;
_chemical_formula_sum "Si O2"
_cell_formula_units_Z 44
_cell_length_a 8.618475
_cell_length_b 28.176876
_cell_length_c 9.515553
_cell_angle_alpha 90.000000
_cell_angle_beta 90.000000
_cell_angle_gamma 90.000000
_cell_volume 2310.773080
_symmetry_space_group_name_H-M "P M M A"
_symmetry_group_IT_number 51
_symmetry_cell_setting 'orthorhombic'
loop_
_space_group_symop_operation_xyz
x,y,z
1/2-x,-y,z
1/2+x,-y,-z
-x,y,-z
-x,-y,-z
1/2+x,y,-z
1/2-x,y,z
x,-y,z
loop_
_atom_site_type_symbol
_atom_site_label
_atom_site_fract_x
_atom_site_fract_y
_atom_site_fract_z
Si Si1 0.566010 0.096599 0.655463
Si Si2 0.932030 0.369375 0.349471
Si Si3 0.928345 0.446111 0.847648
Si Si4 0.565786 0.000000 0.344042
Si Si5 0.433826 0.729900 0.346626
Si Si6 0.566853 0.184147 0.844872
O O1 0.500000 0.105704 0.500000
O O2 0.750000 0.093249 0.644271
O O3 0.499115 0.048196 0.726271
O O4 0.509883 0.138686 0.756810
O O5 0.750000 0.361797 0.361869
O O6 0.000000 0.382291 0.500000
O O7 0.969725 0.413011 0.250182
O O8 0.006732 0.320864 0.290945
O O9 0.750000 0.429281 0.849387
O O10 0.941629 0.500000 0.792248
O O11 0.000000 0.441683 0.000000
O O12 0.500000 0.000000 0.500000
O O13 0.750000 0.000000 0.341800
O O14 0.500000 0.741878 0.500000
O O15 0.250000 0.729341 0.357886
O O16 0.493031 0.769077 0.236131
O O17 0.750000 0.184551 0.856126
O O18 0.500000 0.182621 0.000000
#
# Coordination Sequence:
#
# PCOD8206970 Si02
#       6
#     8   8   8   4   8   8
#     4  10  19  34  55  81 108 139 177 220 266 315
#     4  11  22  37  58  84 113 146 183 227 276 325
#     4  10  21  38  59  83 112 147 186 227 272 325
#     4  10  18  30  51  80 107 138 176 218 264 312
#     4  10  20  37  58  82 109 140 180 225 271 324
#     4  10  23  38  55  79 109 142 179 221 267 319
#
# _framework density 19.041246999999998
#
# number of rings (size 3 to 8) (size 9 to 14) (size 15 to 20)
#    0.000    1.818    0.000    6.818    0.000    5.091 
#    0.000    2.273    0.000    0.000    0.000    0.000 
#    0.000    0.000    0.000    0.000    0.000    0.000 
#
# Total GULP energy -545639.829138 kJ/mol
# GULP energy per Si atom -12400.905208 kJ/mol
# Density = 1.899791 g / cm^3
# Si number density = 19.041247 Si / 1000 Ang^3
#
#
#
# Elastic Constant Matrix: (Units=GPa)
#
#
# Indices 1 2 3 4 5 6 
#
# 1 97.6667 42.7577 32.9948 0.0000 0.0000 0.0000
# 2 42.7577 151.6158 80.4278 0.0000 0.0000 0.0000
# 3 32.9948 80.4278 98.7244 0.0000 0.0000 0.0000
# 4 0.0000 0.0000 0.0000 8.5517 0.0000 0.0000
# 5 0.0000 0.0000 0.0000 0.0000 31.8213 0.0000
# 6 0.0000 0.0000 0.0000 0.0000 0.0000 45.7415
#
#
#
# Elastic Compliance Matrix: (Units=1/GPa)
#
#
# Indices 1 2 3 4 5 6 
#
# 1 0.011946 -0.002203 -0.002198 0.000000 0.000000 0.000000
# 2 -0.002203 0.012022 -0.009057 0.000000 0.000000 0.000000
# 3 -0.002198 -0.009057 0.018242 0.000000 0.000000 0.000000
# 4 0.000000 0.000000 0.000000 0.116936 0.000000 0.000000
# 5 0.000000 0.000000 0.000000 0.000000 0.031426 0.000000
# 6 0.000000 0.000000 0.000000 0.000000 0.000000 0.021862
#
#
# Mechanical properties :
#
#
# Convention : Reuss Voigt Hill
#
# Bulk Modulus (GPa) = 65.38631 73.37414 69.38023
# Shear Modulus (GPa) = 20.45427 30.01133 25.23280
#
# Velocity S-wave (km/s) = 3.28107 3.97435 3.64423
# Velocity P-wave (km/s) = 6.98339 7.72519 7.36364
#
# Compressibility (1/GPa) = 0.01529372
#
# Stress axis : x y z
#
# Youngs Moduli (GPa) = 83.71120 83.18385 54.81739
#
# Poissons Ratio (x) = 0.18326 0.12047
# Poissons Ratio (y) = 0.18442 0.49650
# Poissons Ratio (z) = 0.18397 0.75342
#
# Static dielectric constant tensor:
#      x y z
#    x 3.554490 0.000000 0.000000 
#    y 0.000000 4.014040 0.000000 
#    z 0.000000 0.000000 3.338330 
# 
# 
# High freq. dielectric constant tensor:
#      x y z
#    x 1.754290 0.000000 0.000000 
#    y 0.000000 1.759610 0.000000 
#    z 0.000000 0.000000 1.720810 
# 
# From -- ./inp_files/5724.got.cif
#   From: 2010.03.12/outbox.cif.g09.slc.cpg/sg51_3_cif.got.tgz:5724.got - 2010.04.16 13:43:02.
