data_PCOD8206779
_publ_section_title
;
Structure prediction by ZEFSAII (Michael W. Deem and Ramdas Pophale) SiO2 
 PCOD8206779
Probable space group: P M M A
;
_chemical_formula_sum "Si O2"
_cell_formula_units_Z 44
_cell_length_a 8.747126
_cell_length_b 14.083672
_cell_length_c 19.095016
_cell_angle_alpha 90.000000
_cell_angle_beta 90.000000
_cell_angle_gamma 90.000000
_cell_volume 2352.346595
_symmetry_space_group_name_H-M "P M M A"
_symmetry_group_IT_number 51
_symmetry_cell_setting 'orthorhombic'
loop_
_space_group_symop_operation_xyz
x,y,z
1/2-x,-y,z
1/2+x,-y,-z
-x,y,-z
-x,-y,-z
1/2+x,y,-z
1/2-x,y,z
x,-y,z
loop_
_atom_site_type_symbol
_atom_site_label
_atom_site_fract_x
_atom_site_fract_y
_atom_site_fract_z
Si Si1 0.571018 0.892104 0.811994
Si Si2 0.928940 0.730476 0.704954
Si Si3 0.927878 0.391818 0.183097
Si Si4 0.567436 0.000000 0.577109
Si Si5 0.930703 0.191976 0.423876
Si Si6 0.571071 0.767969 0.075823
O O1 0.750000 0.882742 0.825817
O O2 0.520847 0.824097 0.748386
O O3 0.487429 0.860720 0.883114
O O4 0.524626 0.000000 0.793048
O O5 0.750000 0.728912 0.688669
O O6 0.975920 0.637438 0.748477
O O7 0.020945 0.727106 0.631353
O O8 0.750000 0.377330 0.200542
O O9 0.966750 0.500000 0.163765
O O10 0.977571 0.327275 0.117426
O O11 0.500000 0.000000 0.500000
O O12 0.502704 0.096181 0.611043
O O13 0.750000 0.000000 0.579623
O O14 0.750000 0.182684 0.431699
O O15 0.000000 0.214993 0.500000
O O16 0.750000 0.776360 0.067333
O O17 0.500000 0.762675 0.000000
#
# Coordination Sequence:
#
# PCOD8206779 Si02
#       6
#     8   8   8   4   8   8
#     4   9  19  35  53  74 102 140 180 217 259 307
#     4  10  20  34  54  80 107 138 176 221 268 319
#     4   9  19  37  58  79 105 137 173 216 267 321
#     4  10  18  30  46  68 100 136 175 216 259 306
#     4  11  21  34  51  75 106 143 182 222 267 316
#     4  10  20  34  53  78 107 138 173 216 261 312
#
# _framework density 18.704726999999998
#
# number of rings (size 3 to 8) (size 9 to 14) (size 15 to 20)
#    0.000    2.182    0.000    4.636    1.273    2.909 
#    0.000    0.000    0.000    0.545    0.000    0.000 
#    0.000    0.000    0.000    0.000    0.000    0.000 
#
# Total GULP energy -545596.669708 kJ/mol
# GULP energy per Si atom -12399.924312 kJ/mol
# Density = 1.866215 g / cm^3
# Si number density = 18.704727 Si / 1000 Ang^3
#
#
#
# Elastic Constant Matrix: (Units=GPa)
#
#
# Indices 1 2 3 4 5 6 
#
# 1 93.7246 17.6558 40.0587 0.0000 0.0000 0.0000
# 2 17.6558 65.8441 18.5916 0.0000 0.0000 0.0000
# 3 40.0587 18.5916 106.9008 0.0000 0.0000 0.0000
# 4 0.0000 0.0000 0.0000 14.0077 0.0000 0.0000
# 5 0.0000 0.0000 0.0000 0.0000 31.2569 0.0000
# 6 0.0000 0.0000 0.0000 0.0000 0.0000 26.2363
#
#
#
# Elastic Compliance Matrix: (Units=1/GPa)
#
#
# Indices 1 2 3 4 5 6 
#
# 1 0.013006 -0.002220 -0.004487 0.000000 0.000000 0.000000
# 2 -0.002220 0.016351 -0.002012 0.000000 0.000000 0.000000
# 3 -0.004487 -0.002012 0.011386 0.000000 0.000000 0.000000
# 4 0.000000 0.000000 0.000000 0.071389 0.000000 0.000000
# 5 0.000000 0.000000 0.000000 0.000000 0.031993 0.000000
# 6 0.000000 0.000000 0.000000 0.000000 0.000000 0.038115
#
#
# Mechanical properties :
#
#
# Convention : Reuss Voigt Hill
#
# Bulk Modulus (GPa) = 42.91190 46.56463 44.73827
# Shear Modulus (GPa) = 24.10259 26.97775 25.54017
#
# Velocity S-wave (km/s) = 3.59358 3.80188 3.69919
# Velocity P-wave (km/s) = 6.34113 6.64989 6.49734
#
# Compressibility (1/GPa) = 0.02330356
#
# Stress axis : x y z
#
# Youngs Moduli (GPa) = 76.88869 61.15922 87.82792
#
# Poissons Ratio (x) = 0.13580 0.39413
# Poissons Ratio (y) = 0.17072 0.17668
# Poissons Ratio (z) = 0.34504 0.12303
#
# Static dielectric constant tensor:
#      x y z
#    x 3.422580 0.000000 0.000000 
#    y 0.000000 3.586090 0.000000 
#    z 0.000000 0.000000 3.404660 
# 
# 
# High freq. dielectric constant tensor:
#      x y z
#    x 1.733980 0.000000 0.000000 
#    y 0.000000 1.704710 0.000000 
#    z 0.000000 0.000000 1.725900 
# 
# From -- ./inp_files/27398.got.cif
#   From: 2010.03.12/outbox.cif.g09.slc.cpg/sg51_14_cif.got.tgz:27398.got - 2010.04.16 13:43:02.
