data_PCOD8206458
_publ_section_title
;
Structure prediction by ZEFSAII (Michael W. Deem and Ramdas Pophale) SiO2 
 PCOD8206458
Probable space group: P M M A
;
_chemical_formula_sum "Si O2"
_cell_formula_units_Z 56
_cell_length_a 20.386657
_cell_length_b 9.259437
_cell_length_c 17.594483
_cell_angle_alpha 90.000000
_cell_angle_beta 90.000000
_cell_angle_gamma 90.000000
_cell_volume 3321.292366
_symmetry_space_group_name_H-M "P M M A"
_symmetry_group_IT_number 51
_symmetry_cell_setting 'orthorhombic'
loop_
_space_group_symop_operation_xyz
x,y,z
1/2-x,-y,z
1/2+x,-y,-z
-x,y,-z
-x,-y,-z
1/2+x,y,-z
1/2-x,y,z
x,-y,z
loop_
_atom_site_type_symbol
_atom_site_label
_atom_site_fract_x
_atom_site_fract_y
_atom_site_fract_z
Si Si1 0.568841 0.834686 0.968480
Si Si2 0.077485 0.837445 0.486704
Si Si3 0.406186 0.339992 0.626828
Si Si4 0.901348 0.332778 0.207547
Si Si5 0.466350 0.833739 0.200412
Si Si6 0.176127 0.668042 0.939747
Si Si7 0.439506 0.336973 0.343580
O O1 0.573548 0.820589 0.877697
O O2 0.574727 0.000000 0.995353
O O3 0.500000 0.770683 0.000000
O O4 0.629595 0.748365 0.001654
O O5 0.113860 0.770564 0.560463
O O6 0.096908 0.744752 0.412628
O O7 0.000000 0.834327 0.500000
O O8 0.102994 0.000000 0.475525
O O9 0.384022 0.500000 0.601115
O O10 0.373535 0.296622 0.707762
O O11 0.483647 0.337757 0.640607
O O12 0.925077 0.500000 0.205672
O O13 0.844229 0.302244 0.147408
O O14 0.961980 0.231615 0.186259
O O15 0.426149 0.747812 0.265080
O O16 0.474145 0.000000 0.225961
O O17 0.250000 0.725609 0.950113
O O18 0.171323 0.500000 0.958749
O O19 0.411993 0.500000 0.337542
#
# Coordination Sequence:
#
# PCOD8206458 Si02
#       7
#     8   8   8   8   8   8   8
#     4  10  20  34  50  71  96 125 161 201 246 296
#     4   9  15  22  33  52  79 112 148 183 222 266
#     4   8  14  23  35  52  77 112 149 182 219 268
#     4   9  17  29  44  63  89 120 154 191 235 282
#     4  10  18  28  44  65  90 117 154 198 235 280
#     4  10  21  35  51  72  97 126 162 203 245 290
#     4   9  16  25  37  55  83 116 149 183 227 277
#
# _framework density 16.860906
#
# number of rings (size 3 to 8) (size 9 to 14) (size 15 to 20)
#    0.000    2.714    1.429    2.143    0.000    6.857 
#    0.000    0.000    0.000    0.000    0.000    0.000 
#    0.000    1.143    0.000    6.000    0.000    4.571 
#
# Total GULP energy -694243.073778 kJ/mol
# GULP energy per Si atom -12397.197746 kJ/mol
# Density = 1.682253 g / cm^3
# Si number density = 16.860906 Si / 1000 Ang^3
#
#
#
# Elastic Constant Matrix: (Units=GPa)
#
#
# Indices 1 2 3 4 5 6 
#
# 1 58.7842 35.8747 41.5742 0.0000 0.0000 0.0000
# 2 35.8747 113.7267 68.1630 0.0000 0.0000 0.0000
# 3 41.5742 68.1630 125.2537 0.0000 0.0000 0.0000
# 4 0.0000 0.0000 0.0000 33.6151 0.0000 0.0000
# 5 0.0000 0.0000 0.0000 0.0000 11.1909 0.0000
# 6 0.0000 0.0000 0.0000 0.0000 0.0000 12.7466
#
#
#
# Elastic Compliance Matrix: (Units=1/GPa)
#
#
# Indices 1 2 3 4 5 6 
#
# 1 0.023423 -0.004050 -0.005571 0.000000 0.000000 0.000000
# 2 -0.004050 0.013750 -0.006138 0.000000 0.000000 0.000000
# 3 -0.005571 -0.006138 0.013173 0.000000 0.000000 0.000000
# 4 0.000000 0.000000 0.000000 0.029749 0.000000 0.000000
# 5 0.000000 0.000000 0.000000 0.000000 0.089359 0.000000
# 6 0.000000 0.000000 0.000000 0.000000 0.000000 0.078452
#
#
# Mechanical properties :
#
#
# Convention : Reuss Voigt Hill
#
# Bulk Modulus (GPa) = 53.11216 65.44316 59.27766
# Shear Modulus (GPa) = 17.50100 21.65402 19.57751
#
# Velocity S-wave (km/s) = 3.22524 3.58756 3.41122
# Velocity P-wave (km/s) = 6.74078 7.48723 7.12379
#
# Compressibility (1/GPa) = 0.01882808
#
# Stress axis : x y z
#
# Youngs Moduli (GPa) = 42.69384 72.72975 75.91175
#
# Poissons Ratio (x) = 0.29454 0.42287
# Poissons Ratio (y) = 0.17290 0.46597
# Poissons Ratio (z) = 0.23783 0.44643
#
# Static dielectric constant tensor:
#      x y z
#    x 2.552040 0.000000 0.000000 
#    y 0.000000 3.300530 0.000000 
#    z 0.000000 0.000000 3.444430 
# 
# 
# High freq. dielectric constant tensor:
#      x y z
#    x 1.569090 0.000000 0.000000 
#    y 0.000000 1.658900 0.000000 
#    z 0.000000 0.000000 1.668230 
# 
# From -- ./inp_files/30412.got.cif
#   From: 2010.03.12/outbox.cif.g09.slc.cpg/sg51_16_cif.got.tgz:30412.got - 2010.04.16 13:43:02.
