data_PCOD8206637
_publ_section_title
;
Structure prediction by ZEFSAII (Michael W. Deem and Ramdas Pophale) SiO2 
 PCOD8206637
Probable space group: P M M A
;
_chemical_formula_sum "Si O2"
_cell_formula_units_Z 64
_cell_length_a 14.004332
_cell_length_b 17.199511
_cell_length_c 14.025342
_cell_angle_alpha 90.000000
_cell_angle_beta 90.000000
_cell_angle_gamma 90.000000
_cell_volume 3378.251340
_symmetry_space_group_name_H-M "P M M A"
_symmetry_group_IT_number 51
_symmetry_cell_setting 'orthorhombic'
loop_
_space_group_symop_operation_xyz
x,y,z
1/2-x,-y,z
1/2+x,-y,-z
-x,y,-z
-x,-y,-z
1/2+x,y,-z
1/2-x,y,z
x,-y,z
loop_
_atom_site_type_symbol
_atom_site_label
_atom_site_fract_x
_atom_site_fract_y
_atom_site_fract_z
Si Si1 0.510485 0.269845 0.397671
Si Si2 0.499396 0.197367 0.788220
Si Si3 0.857553 0.362642 0.039376
Si Si4 0.361602 0.910315 0.132951
Si Si5 0.856915 0.820620 0.053882
Si Si6 0.961076 0.368762 0.849966
Si Si7 0.858853 0.414306 0.453099
Si Si8 0.639856 0.375729 0.664194
O O1 0.500000 0.227593 0.500000
O O2 0.549549 0.212395 0.316115
O O3 0.572903 0.349138 0.407296
O O4 0.403859 0.291253 0.361250
O O5 0.583668 0.133461 0.780969
O O6 0.417425 0.159652 0.852907
O O7 0.541503 0.276172 0.833897
O O8 0.750000 0.392450 0.061257
O O9 0.861609 0.270265 0.031200
O O10 0.929149 0.392577 0.123419
O O11 0.892887 0.394187 0.937142
O O12 0.250000 0.898799 0.149932
O O13 0.390758 0.000000 0.129793
O O14 0.396872 0.868826 0.035769
O O15 0.750000 0.848188 0.075744
O O16 0.921064 0.410798 0.753926
O O17 0.750000 0.389422 0.430681
O O18 0.881649 0.500000 0.409814
O O19 0.872320 0.425005 0.567391
O O20 0.750000 0.368014 0.695345
#
# Coordination Sequence:
#
# PCOD8206637 Si02
#       8
#     8   8   8   8   8   8   8   8
#     4   9  19  32  48  74 104 135 172 216 262 313
#     4  10  18  29  46  68  99 136 175 214 262 314
#     4   9  15  24  39  60  92 130 164 206 262 316
#     4  10  20  32  48  72 101 134 173 217 266 315
#     4   9  17  28  42  65  96 131 166 209 261 313
#     4   9  16  25  40  65  93 126 169 211 260 313
#     4   9  18  34  55  77 103 133 162 202 262 324
#     4   9  17  28  44  68  95 127 167 209 253 306
#
# _framework density 18.944711999999999
#
# number of rings (size 3 to 8) (size 9 to 14) (size 15 to 20)
#    0.000    2.750    1.250    0.750    0.000    5.750 
#    0.000    1.875    0.000    1.125    0.000    1.750 
#    0.000    6.000    0.000   18.125    0.000    0.000 
#
# Total GULP energy -792879.444207 kJ/mol
# GULP energy per Si atom -12388.741316 kJ/mol
# Density = 1.890159 g / cm^3
# Si number density = 18.944712 Si / 1000 Ang^3
#
#
#
# Elastic Constant Matrix: (Units=GPa)
#
#
# Indices 1 2 3 4 5 6 
#
# 1 109.4296 27.8466 56.0685 0.0000 0.0000 0.0000
# 2 27.8466 53.3392 30.6623 0.0000 0.0000 0.0000
# 3 56.0685 30.6623 124.3178 0.0000 0.0000 0.0000
# 4 0.0000 0.0000 0.0000 7.3811 0.0000 0.0000
# 5 0.0000 0.0000 0.0000 0.0000 25.5857 0.0000
# 6 0.0000 0.0000 0.0000 0.0000 0.0000 10.8290
#
#
#
# Elastic Compliance Matrix: (Units=1/GPa)
#
#
# Indices 1 2 3 4 5 6 
#
# 1 0.012524 -0.003835 -0.004702 0.000000 0.000000 0.000000
# 2 -0.003835 0.023020 -0.003948 0.000000 0.000000 0.000000
# 3 -0.004702 -0.003948 0.011138 0.000000 0.000000 0.000000
# 4 0.000000 0.000000 0.000000 0.135482 0.000000 0.000000
# 5 0.000000 0.000000 0.000000 0.000000 0.039084 0.000000
# 6 0.000000 0.000000 0.000000 0.000000 0.000000 0.092345
#
#
# Mechanical properties :
#
#
# Convention : Reuss Voigt Hill
#
# Bulk Modulus (GPa) = 46.05986 57.36014 51.71000
# Shear Modulus (GPa) = 14.45922 20.25978 17.35950
#
# Velocity S-wave (km/s) = 2.76566 3.27374 3.03037
# Velocity P-wave (km/s) = 5.87912 6.68081 6.29275
#
# Compressibility (1/GPa) = 0.02171088
#
# Stress axis : x y z
#
# Youngs Moduli (GPa) = 79.84980 43.44129 89.77890
#
# Poissons Ratio (x) = 0.16659 0.42217
# Poissons Ratio (y) = 0.30622 0.35445
# Poissons Ratio (z) = 0.37548 0.17151
#
# Static dielectric constant tensor:
#      x y z
#    x 3.776510 0.000000 0.000000 
#    y 0.000000 3.065460 0.000000 
#    z 0.000000 0.000000 3.614210 
# 
# 
# High freq. dielectric constant tensor:
#      x y z
#    x 1.746320 0.000000 0.000000 
#    y 0.000000 1.682750 0.000000 
#    z 0.000000 0.000000 1.726290 
# 
# From -- ./inp_files/24454.got.cif
#   From: 2010.03.12/outbox.cif.g09.slc.cpg/sg51_13_cif.got.tgz:24454.got - 2010.04.16 13:43:02.
