data_PCOD8206789
_publ_section_title
;
Structure prediction by ZEFSAII (Michael W. Deem and Ramdas Pophale) SiO2 
 PCOD8206789
Probable space group: P M M A
;
_chemical_formula_sum "Si O2"
_cell_formula_units_Z 64
_cell_length_a 9.345132
_cell_length_b 22.613688
_cell_length_c 17.998827
_cell_angle_alpha 90.000000
_cell_angle_beta 90.000000
_cell_angle_gamma 90.000000
_cell_volume 3803.654301
_symmetry_space_group_name_H-M "P M M A"
_symmetry_group_IT_number 51
_symmetry_cell_setting 'orthorhombic'
loop_
_space_group_symop_operation_xyz
x,y,z
1/2-x,-y,z
1/2+x,-y,-z
-x,y,-z
-x,-y,-z
1/2+x,y,-z
1/2-x,y,z
x,-y,z
loop_
_atom_site_type_symbol
_atom_site_label
_atom_site_fract_x
_atom_site_fract_y
_atom_site_fract_z
Si Si1 0.592424 0.433541 0.211713
Si Si2 0.578517 0.318056 0.572130
Si Si3 0.585708 0.433373 0.385988
Si Si4 0.412160 0.334715 0.149784
Si Si5 0.407310 0.748531 0.936835
Si Si6 0.587723 0.244399 0.715513
Si Si7 0.082526 0.931536 0.925254
Si Si8 0.907844 0.160203 0.193698
O O1 0.750000 0.406127 0.195236
O O2 0.586438 0.500000 0.181839
O O3 0.563163 0.431672 0.298589
O O4 0.468541 0.399045 0.169913
O O5 0.500000 0.290519 0.500000
O O6 0.750000 0.319618 0.563715
O O7 0.522080 0.385416 0.579737
O O8 0.530854 0.275680 0.640388
O O9 0.750000 0.417371 0.406849
O O10 0.548937 0.500000 0.414716
O O11 0.250000 0.339826 0.122895
O O12 0.506857 0.311151 0.081876
O O13 0.427052 0.292649 0.220693
O O14 0.250000 0.733276 0.967684
O O15 0.394596 0.787573 0.864615
O O16 0.500000 0.782264 0.000000
O O17 0.750000 0.223747 0.704615
O O18 0.502357 0.184008 0.737183
O O19 0.250000 0.917205 0.938198
O O20 0.026860 0.895780 0.852178
O O21 0.054659 0.000000 0.908111
O O22 0.000000 0.912056 0.000000
O O23 0.750000 0.144047 0.224831
#
# Coordination Sequence:
#
# PCOD8206789 Si02
#       8
#     8   8   8   8   8   8   8   8
#     4   9  17  29  46  67  88 110 140 179 222 270
#     4  11  22  35  49  68  92 122 155 191 238 288
#     4   9  18  32  49  68  90 118 151 187 229 279
#     4  10  18  30  47  66  87 112 143 183 227 271
#     4  10  19  30  44  65  90 117 150 187 226 269
#     4   9  19  33  47  66  91 117 152 194 233 273
#     4   9  17  29  45  69 103 139 172 202 230 266
#     4   9  18  30  47  69  93 126 163 195 229 266
#
# _framework density 16.825924000000001
#
# number of rings (size 3 to 8) (size 9 to 14) (size 15 to 20)
#    0.000    2.500    1.250    2.250    0.000    3.250 
#    0.000    1.250    0.000    0.375    0.000    0.000 
#    0.000    0.500    0.000    1.125    0.000    1.750 
#
# Total GULP energy -793167.108989 kJ/mol
# GULP energy per Si atom -12393.236078 kJ/mol
# Density = 1.678763 g / cm^3
# Si number density = 16.825924 Si / 1000 Ang^3
#
#
#
# Elastic Constant Matrix: (Units=GPa)
#
#
# Indices 1 2 3 4 5 6 
#
# 1 96.9931 37.7110 38.3522 0.0000 0.0000 0.0000
# 2 37.7110 72.5003 32.6127 0.0000 0.0000 0.0000
# 3 38.3522 32.6127 57.5668 0.0000 0.0000 0.0000
# 4 0.0000 0.0000 0.0000 20.3270 0.0000 0.0000
# 5 0.0000 0.0000 0.0000 0.0000 25.6008 0.0000
# 6 0.0000 0.0000 0.0000 0.0000 0.0000 22.2752
#
#
#
# Elastic Compliance Matrix: (Units=1/GPa)
#
#
# Indices 1 2 3 4 5 6 
#
# 1 0.014990 -0.004435 -0.007474 0.000000 0.000000 0.000000
# 2 -0.004435 0.019822 -0.008275 0.000000 0.000000 0.000000
# 3 -0.007474 -0.008275 0.027038 0.000000 0.000000 0.000000
# 4 0.000000 0.000000 0.000000 0.049196 0.000000 0.000000
# 5 0.000000 0.000000 0.000000 0.000000 0.039061 0.000000
# 6 0.000000 0.000000 0.000000 0.000000 0.000000 0.044893
#
#
# Mechanical properties :
#
#
# Convention : Reuss Voigt Hill
#
# Bulk Modulus (GPa) = 46.54957 49.37909 47.96433
# Shear Modulus (GPa) = 20.61612 21.53288 21.07450
#
# Velocity S-wave (km/s) = 3.50417 3.58123 3.54291
# Velocity P-wave (km/s) = 6.64061 6.81990 6.73085
#
# Compressibility (1/GPa) = 0.02148248
#
# Stress axis : x y z
#
# Youngs Moduli (GPa) = 66.71311 50.44854 36.98442
#
# Poissons Ratio (x) = 0.22373 0.27642
# Poissons Ratio (y) = 0.29586 0.30605
# Poissons Ratio (z) = 0.49861 0.41747
#
# Static dielectric constant tensor:
#      x y z
#    x 3.367070 0.000000 0.000000 
#    y 0.000000 3.080670 0.000000 
#    z 0.000000 0.000000 3.103780 
# 
# 
# High freq. dielectric constant tensor:
#      x y z
#    x 1.656220 0.000000 0.000000 
#    y 0.000000 1.622440 0.000000 
#    z 0.000000 0.000000 1.625850 
# 
# From -- ./inp_files/28319.got.cif
#   From: 2010.03.12/outbox.cif.g09.slc.cpg/sg51_15_cif.got.tgz:28319.got - 2010.04.16 13:43:02.
