data_PCOD8206289
_publ_section_title
;
Structure prediction by ZEFSAII (Michael W. Deem and Ramdas Pophale) SiO2 
 PCOD8206289
Probable space group: P M M A
;
_chemical_formula_sum "Si O2"
_cell_formula_units_Z 56
_cell_length_a 8.729304
_cell_length_b 21.458925
_cell_length_c 18.465765
_cell_angle_alpha 90.000000
_cell_angle_beta 90.000000
_cell_angle_gamma 90.000000
_cell_volume 3459.034426
_symmetry_space_group_name_H-M "P M M A"
_symmetry_group_IT_number 51
_symmetry_cell_setting 'orthorhombic'
loop_
_space_group_symop_operation_xyz
x,y,z
1/2-x,-y,z
1/2+x,-y,-z
-x,y,-z
-x,-y,-z
1/2+x,y,-z
1/2-x,y,z
x,-y,z
loop_
_atom_site_type_symbol
_atom_site_label
_atom_site_fract_x
_atom_site_fract_y
_atom_site_fract_z
Si Si1 0.429500 0.430594 0.075188
Si Si2 0.083331 0.871533 0.791652
Si Si3 0.567406 0.070123 0.347903
Si Si4 0.919402 0.255254 0.295467
Si Si5 0.068775 0.186792 0.423256
Si Si6 0.433898 0.798736 0.921821
Si Si7 0.430385 0.313536 0.164635
O O1 0.250000 0.431410 0.063311
O O2 0.490237 0.500000 0.095270
O O3 0.473606 0.383303 0.139452
O O4 0.500000 0.406850 0.000000
O O5 0.250000 0.899981 0.808806
O O6 0.000995 0.918238 0.734480
O O7 0.099100 0.806269 0.751168
O O8 0.003803 0.854984 0.868617
O O9 0.750000 0.082147 0.348049
O O10 0.490103 0.117588 0.403302
O O11 0.526373 0.000000 0.371839
O O12 0.750000 0.279998 0.317043
O O13 0.016326 0.239943 0.367152
O O14 0.005734 0.306251 0.246131
O O15 0.250000 0.185111 0.427032
O O16 0.000000 0.206021 0.500000
O O17 0.250000 0.797302 0.922501
O O18 0.493879 0.732862 0.893304
O O19 0.500000 0.813785 0.000000
O O20 0.250000 0.300965 0.164959
#
# Coordination Sequence:
#
# PCOD8206289 Si02
#       7
#     8   8   8   8   8   8   8
#     4   9  18  30  42  59  88 126 164 199 232 266
#     4   7  13  26  42  59  79 105 136 174 219 263
#     4   9  17  31  50  68  86 113 150 186 220 262
#     4   9  17  31  48  66  89 115 145 180 221 266
#     4  11  21  33  49  69  95 122 147 177 217 262
#     4  10  18  27  40  59  84 111 143 186 233 275
#     4  10  18  28  44  65  88 116 152 189 227 269
#
# _framework density 16.189488000000001
#
# number of rings (size 3 to 8) (size 9 to 14) (size 15 to 20)
#    0.000    2.714    0.000    4.714    0.000    2.857 
#    0.000    0.714    0.000    0.429    0.000    0.000 
#    0.000    0.571    0.000    1.571    0.000    2.714 
#
# Total GULP energy -693837.869974 kJ/mol
# GULP energy per Si atom -12389.961964 kJ/mol
# Density = 1.615264 g / cm^3
# Si number density = 16.189488 Si / 1000 Ang^3
#
#
#
# Elastic Constant Matrix: (Units=GPa)
#
#
# Indices 1 2 3 4 5 6 
#
# 1 79.7331 27.6807 42.2149 0.0000 0.0000 0.0000
# 2 27.6807 57.0849 44.2794 0.0000 0.0000 0.0000
# 3 42.2149 44.2794 125.1317 0.0000 0.0000 0.0000
# 4 0.0000 0.0000 0.0000 18.1889 0.0000 0.0000
# 5 0.0000 0.0000 0.0000 0.0000 26.9247 0.0000
# 6 0.0000 0.0000 0.0000 0.0000 0.0000 16.3979
#
#
#
# Elastic Compliance Matrix: (Units=1/GPa)
#
#
# Indices 1 2 3 4 5 6 
#
# 1 0.016241 -0.004997 -0.003711 0.000000 0.000000 0.000000
# 2 -0.004997 0.025683 -0.007402 0.000000 0.000000 0.000000
# 3 -0.003711 -0.007402 0.011863 0.000000 0.000000 0.000000
# 4 0.000000 0.000000 0.000000 0.054979 0.000000 0.000000
# 5 0.000000 0.000000 0.000000 0.000000 0.037141 0.000000
# 6 0.000000 0.000000 0.000000 0.000000 0.000000 0.060983
#
#
# Mechanical properties :
#
#
# Convention : Reuss Voigt Hill
#
# Bulk Modulus (GPa) = 46.36848 54.47773 50.42311
# Shear Modulus (GPa) = 20.30052 22.15394 21.22723
#
# Velocity S-wave (km/s) = 3.54493 3.70322 3.62494
# Velocity P-wave (km/s) = 6.74230 7.21168 6.98094
#
# Compressibility (1/GPa) = 0.02156637
#
# Stress axis : x y z
#
# Youngs Moduli (GPa) = 61.57088 38.93682 84.29606
#
# Poissons Ratio (x) = 0.19457 0.31283
# Poissons Ratio (y) = 0.30767 0.62399
# Poissons Ratio (z) = 0.22849 0.28822
#
# Static dielectric constant tensor:
#      x y z
#    x 3.057670 0.000000 0.000000 
#    y 0.000000 3.034680 0.000000 
#    z 0.000000 0.000000 3.262130 
# 
# 
# High freq. dielectric constant tensor:
#      x y z
#    x 1.620300 0.000000 0.000000 
#    y 0.000000 1.586760 0.000000 
#    z 0.000000 0.000000 1.619340 
# 
# From -- ./inp_files/28275.got.cif
#   From: 2010.03.12/outbox.cif.g09.slc.cpg/sg51_15_cif.got.tgz:28275.got - 2010.04.16 13:43:02.
