data_PCOD8206662
_publ_section_title
;
Structure prediction by ZEFSAII (Michael W. Deem and Ramdas Pophale) SiO2 
 PCOD8206662
Probable space group: P M M A
;
_chemical_formula_sum "Si O2"
_cell_formula_units_Z 64
_cell_length_a 25.165169
_cell_length_b 9.260091
_cell_length_c 17.069709
_cell_angle_alpha 90.000000
_cell_angle_beta 90.000000
_cell_angle_gamma 90.000000
_cell_volume 3977.784245
_symmetry_space_group_name_H-M "P M M A"
_symmetry_group_IT_number 51
_symmetry_cell_setting 'orthorhombic'
loop_
_space_group_symop_operation_xyz
x,y,z
1/2-x,-y,z
1/2+x,-y,-z
-x,y,-z
-x,-y,-z
1/2+x,y,-z
1/2-x,y,z
x,-y,z
loop_
_atom_site_type_symbol
_atom_site_label
_atom_site_fract_x
_atom_site_fract_y
_atom_site_fract_z
Si Si1 0.189312 0.168164 0.070911
Si Si2 0.104813 0.169366 0.818369
Si Si3 0.001771 0.828054 0.911923
Si Si4 0.902332 0.829178 0.816138
Si Si5 0.560401 0.834141 0.349423
Si Si6 0.688191 0.667908 0.086149
Si Si7 0.063227 0.337017 0.500908
Si Si8 0.563307 0.831994 0.650072
O O1 0.250000 0.200893 0.094343
O O2 0.153189 0.217228 0.144201
O O3 0.180425 0.000000 0.050967
O O4 0.171466 0.257708 0.995268
O O5 0.055588 0.224349 0.870592
O O6 0.093342 0.204455 0.727936
O O7 0.156641 0.258475 0.842886
O O8 0.115087 0.000000 0.831246
O O9 0.951284 0.763247 0.865565
O O10 0.999276 0.000000 0.911718
O O11 0.000000 0.766910 0.000000
O O12 0.904515 0.775236 0.726268
O O13 0.909051 0.000000 0.815031
O O14 0.583982 0.739218 0.420215
O O15 0.498626 0.801306 0.333429
O O16 0.567712 0.000000 0.373485
O O17 0.750000 0.693548 0.103326
O O18 0.673919 0.500000 0.080756
O O19 0.084521 0.500000 0.499753
O O20 0.085325 0.255474 0.424417
O O21 0.000000 0.329452 0.500000
O O22 0.573343 0.000000 0.633230
#
# Coordination Sequence:
#
# PCOD8206662 Si02
#       8
#     8   8   8   8   8   8   8   8
#     4   9  17  30  49  70  89 114 154 198 230 257
#     4  10  18  29  47  70  90 113 149 190 227 267
#     4   9  15  23  39  64  91 117 145 177 218 269
#     4   9  15  25  43  68  93 118 148 185 228 270
#     4   9  16  27  43  65  90 115 147 183 220 267
#     4  10  21  35  48  63  87 120 155 189 228 271
#     4   9  17  27  40  60  88 121 152 179 218 265
#     4   9  15  26  43  63  89 119 150 182 219 268
#
# _framework density 16.089359000000002
#
# number of rings (size 3 to 8) (size 9 to 14) (size 15 to 20)
#    0.000    2.750    1.250    1.500    0.000    4.750 
#    0.000    0.625    0.000    3.375    0.000    0.875 
#    0.000    5.000    0.000    0.000    0.000    0.000 
#
# Total GULP energy -793544.276391 kJ/mol
# GULP energy per Si atom -12399.129319 kJ/mol
# Density = 1.605274 g / cm^3
# Si number density = 16.089359 Si / 1000 Ang^3
#
#
#
# Elastic Constant Matrix: (Units=GPa)
#
#
# Indices 1 2 3 4 5 6 
#
# 1 63.2424 34.1214 56.1029 0.0000 0.0000 0.0000
# 2 34.1214 66.3737 61.4754 0.0000 0.0000 0.0000
# 3 56.1029 61.4754 153.6968 0.0000 0.0000 0.0000
# 4 0.0000 0.0000 0.0000 9.0637 0.0000 0.0000
# 5 0.0000 0.0000 0.0000 0.0000 20.0972 0.0000
# 6 0.0000 0.0000 0.0000 0.0000 0.0000 13.7720
#
#
#
# Elastic Compliance Matrix: (Units=1/GPa)
#
#
# Indices 1 2 3 4 5 6 
#
# 1 0.025318 -0.007078 -0.006411 0.000000 0.000000 0.000000
# 2 -0.007078 0.025911 -0.007780 0.000000 0.000000 0.000000
# 3 -0.006411 -0.007780 0.011958 0.000000 0.000000 0.000000
# 4 0.000000 0.000000 0.000000 0.110330 0.000000 0.000000
# 5 0.000000 0.000000 0.000000 0.000000 0.049758 0.000000
# 6 0.000000 0.000000 0.000000 0.000000 0.000000 0.072611
#
#
# Mechanical properties :
#
#
# Convention : Reuss Voigt Hill
#
# Bulk Modulus (GPa) = 48.42720 65.19026 56.80873
# Shear Modulus (GPa) = 14.47987 17.36079 15.92033
#
# Velocity S-wave (km/s) = 3.00320 3.28841 3.14904
# Velocity P-wave (km/s) = 6.49537 7.41780 6.97186
#
# Compressibility (1/GPa) = 0.02064955
#
# Stress axis : x y z
#
# Youngs Moduli (GPa) = 39.49787 38.59392 83.62443
#
# Poissons Ratio (x) = 0.27316 0.53608
# Poissons Ratio (y) = 0.27956 0.65061
# Poissons Ratio (z) = 0.25320 0.30027
#
# Static dielectric constant tensor:
#      x y z
#    x 2.828780 0.000000 0.000000 
#    y 0.000000 2.854030 0.000000 
#    z 0.000000 0.000000 3.205180 
# 
# 
# High freq. dielectric constant tensor:
#      x y z
#    x 1.584450 0.000000 0.000000 
#    y 0.000000 1.593770 0.000000 
#    z 0.000000 0.000000 1.626450 
# 
# From -- ./inp_files/30817.got.cif
#   From: 2010.03.12/outbox.cif.g09.slc.cpg/sg51_16_cif.got.tgz:30817.got - 2010.04.16 13:43:02.
