data_PCOD8206864
_publ_section_title
;
Structure prediction by ZEFSAII (Michael W. Deem and Ramdas Pophale) SiO2 
 PCOD8206864
Probable space group: P M M A
;
_chemical_formula_sum "Si O2"
_cell_formula_units_Z 48
_cell_length_a 8.714649
_cell_length_b 9.857019
_cell_length_c 29.264957
_cell_angle_alpha 90.000000
_cell_angle_beta 90.000000
_cell_angle_gamma 90.000000
_cell_volume 2513.873291
_symmetry_space_group_name_H-M "P M M A"
_symmetry_group_IT_number 51
_symmetry_cell_setting 'orthorhombic'
loop_
_space_group_symop_operation_xyz
x,y,z
1/2-x,-y,z
1/2+x,-y,-z
-x,y,-z
-x,-y,-z
1/2+x,y,-z
1/2-x,y,z
x,-y,z
loop_
_atom_site_type_symbol
_atom_site_label
_atom_site_fract_x
_atom_site_fract_y
_atom_site_fract_z
Si Si1 0.430895 0.153832 0.049096
Si Si2 0.567692 0.500000 0.449582
Si Si3 0.931048 0.342494 0.125882
Si Si4 0.929339 0.844248 0.798429
Si Si5 0.432473 0.248005 0.607173
Si Si6 0.075305 0.842609 0.703473
Si Si7 0.432326 0.000000 0.549722
O O1 0.250000 0.168755 0.046309
O O2 0.493753 0.265829 0.083438
O O3 0.475814 0.000000 0.064597
O O4 0.500000 0.186778 0.000000
O O5 0.750000 0.500000 0.454203
O O6 0.500000 0.500000 0.500000
O O7 0.504659 0.377054 0.419505
O O8 0.750000 0.335731 0.120397
O O9 0.986192 0.500000 0.127786
O O10 0.978762 0.263390 0.171494
O O11 0.750000 0.825866 0.807930
O O12 0.965969 0.809725 0.745976
O O13 0.979433 0.000000 0.809616
O O14 0.250000 0.242736 0.608461
O O15 0.488316 0.241815 0.659917
O O16 0.498398 0.126065 0.577503
O O17 0.250000 0.801647 0.716176
O O18 0.068846 0.000000 0.689716
O O19 0.500000 0.000000 0.500000
O O20 0.250000 0.000000 0.546359
#
# Coordination Sequence:
#
# PCOD8206864 Si02
#       7
#     8   4   8   8   8   8   4
#     4  10  21  38  62  91 121 156 198 242 288 338
#     4  10  20  34  50  70  98 132 168 208 255 310
#     4  11  24  40  58  84 117 154 197 240 283 335
#     4  10  21  37  58  84 113 146 183 227 282 341
#     4   9  17  31  51  72  97 130 169 210 255 310
#     4   9  16  31  55  78 100 132 174 219 266 319
#     4  10  18  30  48  72  98 128 166 208 255 308
#
# _framework density 19.094041000000001
#
# number of rings (size 3 to 8) (size 9 to 14) (size 15 to 20)
#    0.000    2.167    0.833    2.500    0.000    5.667 
#    1.500    1.667    0.000    0.000    0.000    0.000 
#    0.000    0.000    0.000    0.000    0.000    0.000 
#
# Total GULP energy -595070.627677 kJ/mol
# GULP energy per Si atom -12397.304743 kJ/mol
# Density = 1.905058 g / cm^3
# Si number density = 19.094041 Si / 1000 Ang^3
#
#
#
# Elastic Constant Matrix: (Units=GPa)
#
#
# Indices 1 2 3 4 5 6 
#
# 1 45.8890 32.6911 30.6201 0.0000 0.0000 0.0000
# 2 32.6911 148.5190 84.7367 0.0000 0.0000 0.0000
# 3 30.6201 84.7367 146.6451 0.0000 0.0000 0.0000
# 4 0.0000 0.0000 0.0000 36.6550 0.0000 0.0000
# 5 0.0000 0.0000 0.0000 0.0000 35.7914 0.0000
# 6 0.0000 0.0000 0.0000 0.0000 0.0000 14.5880
#
#
#
# Elastic Compliance Matrix: (Units=1/GPa)
#
#
# Indices 1 2 3 4 5 6 
#
# 1 0.026856 -0.004046 -0.003270 0.000000 0.000000 0.000000
# 2 -0.004046 0.010654 -0.005312 0.000000 0.000000 0.000000
# 3 -0.003270 -0.005312 0.010571 0.000000 0.000000 0.000000
# 4 0.000000 0.000000 0.000000 0.027281 0.000000 0.000000
# 5 0.000000 0.000000 0.000000 0.000000 0.027940 0.000000
# 6 0.000000 0.000000 0.000000 0.000000 0.000000 0.068549
#
#
# Mechanical properties :
#
#
# Convention : Reuss Voigt Hill
#
# Bulk Modulus (GPa) = 43.80827 70.79432 57.30130
# Shear Modulus (GPa) = 24.42425 30.27390 27.34907
#
# Velocity S-wave (km/s) = 3.58041 3.98617 3.78873
# Velocity P-wave (km/s) = 6.33132 7.63828 7.01530
#
# Compressibility (1/GPa) = 0.02282674
#
# Stress axis : x y z
#
# Youngs Moduli (GPa) = 37.23605 93.86001 94.59699
#
# Poissons Ratio (x) = 0.37973 0.30932
# Poissons Ratio (y) = 0.15065 0.50246
# Poissons Ratio (z) = 0.12176 0.49855
#
# Static dielectric constant tensor:
#      x y z
#    x 3.293660 0.000000 0.000000 
#    y 0.000000 3.682910 0.000000 
#    z 0.000000 0.000000 3.588510 
# 
# 
# High freq. dielectric constant tensor:
#      x y z
#    x 1.724070 0.000000 0.000000 
#    y 0.000000 1.738300 0.000000 
#    z 0.000000 0.000000 1.758450 
# 
# From -- ./inp_files/37224.got.cif
#   From: 2010.03.12/outbox.cif.g09.slc.cpg/sg51_19_cif.got.tgz:37224.got - 2010.04.16 13:43:02.
