data_PCOD8206783
_publ_section_title
;
Structure prediction by ZEFSAII (Michael W. Deem and Ramdas Pophale) SiO2 
 PCOD8206783
Probable space group: P M M A
;
_chemical_formula_sum "Si O2"
_cell_formula_units_Z 44
_cell_length_a 8.749581
_cell_length_b 14.163343
_cell_length_c 19.131519
_cell_angle_alpha 90.000000
_cell_angle_beta 90.000000
_cell_angle_gamma 90.000000
_cell_volume 2370.841290
_symmetry_space_group_name_H-M "P M M A"
_symmetry_group_IT_number 51
_symmetry_cell_setting 'orthorhombic'
loop_
_space_group_symop_operation_xyz
x,y,z
1/2-x,-y,z
1/2+x,-y,-z
-x,y,-z
-x,-y,-z
1/2+x,y,-z
1/2-x,y,z
x,-y,z
loop_
_atom_site_type_symbol
_atom_site_label
_atom_site_fract_x
_atom_site_fract_y
_atom_site_fract_z
Si Si1 0.427241 0.891239 0.801597
Si Si2 0.928600 0.742586 0.705993
Si Si3 0.069751 0.392921 0.171403
Si Si4 0.432504 0.000000 0.423120
Si Si5 0.930477 0.191541 0.424223
Si Si6 0.573062 0.755132 0.073763
O O1 0.250000 0.879582 0.780699
O O2 0.529328 0.840984 0.743215
O O3 0.460084 0.844401 0.876625
O O4 0.476815 0.000000 0.805739
O O5 0.750000 0.740749 0.689203
O O6 0.979152 0.656410 0.755878
O O7 0.020470 0.729878 0.632705
O O8 0.250000 0.387521 0.161834
O O9 0.009942 0.500000 0.173211
O O10 0.995731 0.340553 0.105737
O O11 0.500000 0.000000 0.500000
O O12 0.499299 0.904468 0.389717
O O13 0.250000 0.000000 0.422091
O O14 0.750000 0.183367 0.432359
O O15 0.000000 0.215668 0.500000
O O16 0.750000 0.736859 0.062711
O O17 0.500000 0.779602 0.000000
#
# Coordination Sequence:
#
# PCOD8206783 Si02
#       6
#     8   8   8   4   8   8
#     4   9  19  35  52  72 102 140 180 216 254 302
#     4  10  20  34  53  78 105 134 172 217 262 314
#     4   9  19  37  59  80 103 133 170 214 265 317
#     4  10  18  30  46  68  98 132 171 210 251 298
#     4  11  21  34  51  73 104 140 176 216 261 307
#     4  10  20  34  53  78 107 138 172 214 259 308
#
# _framework density 18.558812
#
# number of rings (size 3 to 8) (size 9 to 14) (size 15 to 20)
#    0.000    2.182    0.000    4.636    1.273    2.909 
#    0.000    0.000    0.000    0.545    0.000    0.000 
#    0.000    0.000    0.000    0.000    0.000    0.000 
#
# Total GULP energy -545575.892295 kJ/mol
# GULP energy per Si atom -12399.452098 kJ/mol
# Density = 1.851657 g / cm^3
# Si number density = 18.558812 Si / 1000 Ang^3
#
#
#
# Elastic Constant Matrix: (Units=GPa)
#
#
# Indices 1 2 3 4 5 6 
#
# 1 84.1855 17.9011 33.5487 0.0000 0.0000 0.0000
# 2 17.9011 91.2474 22.0526 0.0000 0.0000 0.0000
# 3 33.5487 22.0526 99.3778 0.0000 0.0000 0.0000
# 4 0.0000 0.0000 0.0000 16.7945 0.0000 0.0000
# 5 0.0000 0.0000 0.0000 0.0000 35.9766 0.0000
# 6 0.0000 0.0000 0.0000 0.0000 0.0000 22.9970
#
#
#
# Elastic Compliance Matrix: (Units=1/GPa)
#
#
# Indices 1 2 3 4 5 6 
#
# 1 0.013968 -0.001691 -0.004340 0.000000 0.000000 0.000000
# 2 -0.001691 0.011785 -0.002044 0.000000 0.000000 0.000000
# 3 -0.004340 -0.002044 0.011981 0.000000 0.000000 0.000000
# 4 0.000000 0.000000 0.000000 0.059543 0.000000 0.000000
# 5 0.000000 0.000000 0.000000 0.000000 0.027796 0.000000
# 6 0.000000 0.000000 0.000000 0.000000 0.000000 0.043484
#
#
# Mechanical properties :
#
#
# Convention : Reuss Voigt Hill
#
# Bulk Modulus (GPa) = 46.33265 46.86838 46.60052
# Shear Modulus (GPa) = 26.05488 28.57417 27.31452
#
# Velocity S-wave (km/s) = 3.75094 3.92810 3.84054
# Velocity P-wave (km/s) = 6.61656 6.77363 6.69556
#
# Compressibility (1/GPa) = 0.02158305
#
# Stress axis : x y z
#
# Youngs Moduli (GPa) = 71.59369 84.85309 83.46292
#
# Poissons Ratio (x) = 0.14351 0.36223
# Poissons Ratio (y) = 0.12109 0.17062
# Poissons Ratio (z) = 0.31072 0.17346
#
# Static dielectric constant tensor:
#      x y z
#    x 3.418400 0.000000 0.000000 
#    y 0.000000 3.689470 0.000000 
#    z 0.000000 0.000000 3.455530 
# 
# 
# High freq. dielectric constant tensor:
#      x y z
#    x 1.727550 0.000000 0.000000 
#    y 0.000000 1.696360 0.000000 
#    z 0.000000 0.000000 1.727410 
# 
# From -- ./inp_files/27400.got.cif
#   From: 2010.03.12/outbox.cif.g09.slc.cpg/sg51_14_cif.got.tgz:27400.got - 2010.04.16 13:43:02.
