data_PCOD8206211
_publ_section_title
;
Structure prediction by ZEFSAII (Michael W. Deem and Ramdas Pophale) SiO2 
 PCOD8206211
Probable space group: P M M A
;
_chemical_formula_sum "Si O2"
_cell_formula_units_Z 40
_cell_length_a 26.388824
_cell_length_b 7.598624
_cell_length_c 10.687951
_cell_angle_alpha 90.000000
_cell_angle_beta 90.000000
_cell_angle_gamma 90.000000
_cell_volume 2143.134589
_symmetry_space_group_name_H-M "P M M A"
_symmetry_group_IT_number 51
_symmetry_cell_setting 'orthorhombic'
loop_
_space_group_symop_operation_xyz
x,y,z
1/2-x,-y,z
1/2+x,-y,-z
-x,y,-z
-x,-y,-z
1/2+x,y,-z
1/2-x,y,z
x,-y,z
loop_
_atom_site_type_symbol
_atom_site_label
_atom_site_fract_x
_atom_site_fract_y
_atom_site_fract_z
Si Si1 0.750000 0.806565 0.672685
Si Si2 0.750000 0.703368 0.943139
Si Si3 0.075208 0.500000 0.439263
Si Si4 0.140954 0.793953 0.323807
Si Si5 0.041014 0.801804 0.897348
Si Si6 0.361064 0.295676 0.035211
Si Si7 0.530507 0.500000 0.301256
O O1 0.803287 0.717478 0.634663
O O2 0.750000 0.000000 0.614155
O O3 0.750000 0.826501 0.822764
O O4 0.750000 0.500000 0.897894
O O5 0.803206 0.740668 0.016427
O O6 0.102136 0.680627 0.402297
O O7 0.071957 0.500000 0.589003
O O8 0.023222 0.500000 0.366057
O O9 0.134593 0.000000 0.356709
O O10 0.132717 0.769029 0.176658
O O11 0.098152 0.804136 0.950865
O O12 0.037465 0.675213 0.779273
O O13 0.027808 0.000000 0.853751
O O14 0.000000 0.737829 0.000000
O O15 0.374542 0.500000 0.028348
#
# Coordination Sequence:
#
# PCOD8206211 Si02
#       7
#     4   4   4   8   8   8   4
#     4   8  16  28  48  80 115 142 170 220 271 315
#     4   8  16  26  46  80 113 144 172 211 268 330
#     4  11  24  39  58  77 102 149 186 226 275 314
#     4  10  19  33  55  86 116 143 180 221 270 327
#     4  11  23  38  60  85 110 143 179 223 279 334
#     4  10  17  31  55  84 116 144 177 220 274 330
#     4  11  25  42  56  77 109 141 186 231 273 321
#
# _framework density 18.664249000000002
#
# number of rings (size 3 to 8) (size 9 to 14) (size 15 to 20)
#    0.000    2.000    2.000    2.100    1.400    4.000 
#    0.000    2.000    0.000    2.400    0.000    0.000 
#    0.000    0.000    0.000    0.000    0.000    0.000 
#
# Total GULP energy -495623.129763 kJ/mol
# GULP energy per Si atom -12390.578244 kJ/mol
# Density = 1.862177 g / cm^3
# Si number density = 18.664249 Si / 1000 Ang^3
#
#
#
# Elastic Constant Matrix: (Units=GPa)
#
#
# Indices 1 2 3 4 5 6 
#
# 1 113.2032 27.9993 49.7452 0.0000 0.0000 0.0000
# 2 27.9993 92.4486 42.8015 0.0000 0.0000 0.0000
# 3 49.7452 42.8015 95.5629 0.0000 0.0000 0.0000
# 4 0.0000 0.0000 0.0000 4.6182 0.0000 0.0000
# 5 0.0000 0.0000 0.0000 0.0000 23.8954 0.0000
# 6 0.0000 0.0000 0.0000 0.0000 0.0000 12.0027
#
#
#
# Elastic Compliance Matrix: (Units=1/GPa)
#
#
# Indices 1 2 3 4 5 6 
#
# 1 0.011513 -0.000898 -0.005590 0.000000 0.000000 0.000000
# 2 -0.000898 0.013717 -0.005676 0.000000 0.000000 0.000000
# 3 -0.005590 -0.005676 0.015917 0.000000 0.000000 0.000000
# 4 0.000000 0.000000 0.000000 0.216534 0.000000 0.000000
# 5 0.000000 0.000000 0.000000 0.000000 0.041849 0.000000
# 6 0.000000 0.000000 0.000000 0.000000 0.000000 0.083315
#
#
# Mechanical properties :
#
#
# Convention : Reuss Voigt Hill
#
# Bulk Modulus (GPa) = 59.46619 60.25631 59.86125
# Shear Modulus (GPa) = 12.11304 20.14783 16.13043
#
# Velocity S-wave (km/s) = 2.55031 3.28912 2.94299
# Velocity P-wave (km/s) = 6.37199 6.83951 6.60988
#
# Compressibility (1/GPa) = 0.01681628
#
# Stress axis : x y z
#
# Youngs Moduli (GPa) = 86.86203 72.90367 62.82769
#
# Poissons Ratio (x) = 0.06550 0.35123
# Poissons Ratio (y) = 0.07804 0.35660
# Poissons Ratio (z) = 0.48559 0.41379
#
# Static dielectric constant tensor:
#      x y z
#    x 3.947210 0.000000 0.000000 
#    y 0.000000 3.470640 0.000000 
#    z 0.000000 0.000000 3.019920 
# 
# 
# High freq. dielectric constant tensor:
#      x y z
#    x 1.750240 0.000000 0.000000 
#    y 0.000000 1.736820 0.000000 
#    z 0.000000 0.000000 1.661110 
# 
# From -- ./inp_files/12227.got.cif
#   From: 2010.03.12/outbox.cif.g09.slc.cpg/sg51_7_cif.got.tgz:12227.got - 2010.04.16 13:43:02.
