data_PCOD8206350
_publ_section_title
;
Structure prediction by ZEFSAII (Michael W. Deem and Ramdas Pophale) SiO2 
 PCOD8206350
Probable space group: P M M A
;
_chemical_formula_sum "Si O2"
_cell_formula_units_Z 64
_cell_length_a 20.147998
_cell_length_b 9.031438
_cell_length_c 19.830008
_cell_angle_alpha 90.000000
_cell_angle_beta 90.000000
_cell_angle_gamma 90.000000
_cell_volume 3608.375234
_symmetry_space_group_name_H-M "P M M A"
_symmetry_group_IT_number 51
_symmetry_cell_setting 'orthorhombic'
loop_
_space_group_symop_operation_xyz
x,y,z
1/2-x,-y,z
1/2+x,-y,-z
-x,y,-z
-x,-y,-z
1/2+x,y,-z
1/2-x,y,z
x,-y,z
loop_
_atom_site_type_symbol
_atom_site_label
_atom_site_fract_x
_atom_site_fract_y
_atom_site_fract_z
Si Si1 0.899340 0.827190 0.389393
Si Si2 0.822712 0.675085 0.888968
Si Si3 0.551369 0.324188 0.807253
Si Si4 0.173814 0.327081 0.956820
Si Si5 0.032015 0.673823 0.345532
Si Si6 0.678317 0.173643 0.263196
Si Si7 0.426448 0.834675 0.469190
Si Si8 0.081466 0.823605 0.850669
O O1 0.837122 0.793052 0.341555
O O2 0.880907 0.782920 0.466928
O O3 0.959721 0.736061 0.359077
O O4 0.920111 0.000000 0.387409
O O5 0.750000 0.738394 0.867197
O O6 0.820232 0.500000 0.883287
O O7 0.880626 0.736331 0.840604
O O8 0.837572 0.719515 0.965873
O O9 0.543279 0.500000 0.815070
O O10 0.554646 0.276185 0.728915
O O11 0.491053 0.248041 0.847103
O O12 0.250000 0.291950 0.935395
O O13 0.158476 0.500000 0.945328
O O14 0.121580 0.228738 0.916019
O O15 0.030219 0.500000 0.351943
O O16 0.082725 0.733228 0.403134
O O17 0.750000 0.246088 0.247000
O O18 0.622049 0.237986 0.214167
O O19 0.682012 0.000000 0.250119
O O20 0.500000 0.826006 0.500000
O O21 0.408179 0.000000 0.446190
O O22 0.074163 0.000000 0.851683
#
# Coordination Sequence:
#
# PCOD8206350 Si02
#       8
#     8   8   8   8   8   8   8   8
#     4   9  16  29  46  64  89 122 162 201 234 278
#     4   8  16  34  58  77  92 121 167 209 246 296
#     4  10  20  33  51  75 101 127 162 208 251 293
#     4   9  18  34  55  75  97 128 166 208 249 288
#     4  10  18  27  43  69  98 122 149 194 247 287
#     4   9  17  29  46  67  92 127 169 204 234 277
#     4   8  15  26  43  64  87 119 157 193 231 280
#     4  11  21  32  49  73 104 136 165 201 246 297
#
# _framework density 17.736515000000001
#
# number of rings (size 3 to 8) (size 9 to 14) (size 15 to 20)
#    0.000    2.750    1.250    2.625    0.000    4.000 
#    0.000    3.125    0.000    3.000    0.000    0.000 
#    0.000    0.000    0.000    0.000    0.000    0.250 
#
# Total GULP energy -793106.706167 kJ/mol
# GULP energy per Si atom -12392.292284 kJ/mol
# Density = 1.769615 g / cm^3
# Si number density = 17.736515 Si / 1000 Ang^3
#
#
#
# Elastic Constant Matrix: (Units=GPa)
#
#
# Indices 1 2 3 4 5 6 
#
# 1 110.7977 26.6439 68.9192 0.0000 0.0000 0.0000
# 2 26.6439 41.8599 36.3581 0.0000 0.0000 0.0000
# 3 68.9192 36.3581 123.7712 0.0000 0.0000 0.0000
# 4 0.0000 0.0000 0.0000 22.1009 0.0000 0.0000
# 5 0.0000 0.0000 0.0000 0.0000 19.1668 0.0000
# 6 0.0000 0.0000 0.0000 0.0000 0.0000 13.1771
#
#
#
# Elastic Compliance Matrix: (Units=1/GPa)
#
#
# Indices 1 2 3 4 5 6 
#
# 1 0.014063 -0.002886 -0.006983 0.000000 0.000000 0.000000
# 2 -0.002886 0.032664 -0.007988 0.000000 0.000000 0.000000
# 3 -0.006983 -0.007988 0.014314 0.000000 0.000000 0.000000
# 4 0.000000 0.000000 0.000000 0.045247 0.000000 0.000000
# 5 0.000000 0.000000 0.000000 0.000000 0.052174 0.000000
# 6 0.000000 0.000000 0.000000 0.000000 0.000000 0.075889
#
#
# Mechanical properties :
#
#
# Convention : Reuss Voigt Hill
#
# Bulk Modulus (GPa) = 39.48291 60.03013 49.75652
# Shear Modulus (GPa) = 17.95280 20.52282 19.23781
#
# Velocity S-wave (km/s) = 3.18495 3.40530 3.29697
# Velocity P-wave (km/s) = 5.98618 7.02712 6.52743
#
# Compressibility (1/GPa) = 0.02532741
#
# Stress axis : x y z
#
# Youngs Moduli (GPa) = 71.10850 30.61432 69.86037
#
# Poissons Ratio (x) = 0.08835 0.48783
# Poissons Ratio (y) = 0.20522 0.55806
# Poissons Ratio (z) = 0.49654 0.24455
#
# Static dielectric constant tensor:
#      x y z
#    x 3.388810 0.000000 0.000000 
#    y 0.000000 3.023020 0.000000 
#    z 0.000000 0.000000 3.680650 
# 
# 
# High freq. dielectric constant tensor:
#      x y z
#    x 1.660930 0.000000 0.000000 
#    y 0.000000 1.659220 0.000000 
#    z 0.000000 0.000000 1.697970 
# 
# From -- ./inp_files/34131.got.cif
#   From: 2010.03.12/outbox.cif.g09.slc.cpg/sg51_18_cif.got.tgz:34131.got - 2010.04.16 13:43:02.
