data_PCOD8206389
_publ_section_title
;
Structure prediction by ZEFSAII (Michael W. Deem and Ramdas Pophale) SiO2 
 PCOD8206389
Probable space group: P M M A
;
_chemical_formula_sum "Si O2"
_cell_formula_units_Z 56
_cell_length_a 18.199257
_cell_length_b 12.810812
_cell_length_c 15.363751
_cell_angle_alpha 90.000000
_cell_angle_beta 90.000000
_cell_angle_gamma 90.000000
_cell_volume 3582.016448
_symmetry_space_group_name_H-M "P M M A"
_symmetry_group_IT_number 51
_symmetry_cell_setting 'orthorhombic'
loop_
_space_group_symop_operation_xyz
x,y,z
1/2-x,-y,z
1/2+x,-y,-z
-x,y,-z
-x,-y,-z
1/2+x,y,-z
1/2-x,y,z
x,-y,z
loop_
_atom_site_type_symbol
_atom_site_label
_atom_site_fract_x
_atom_site_fract_y
_atom_site_fract_z
Si Si1 0.837437 0.883933 0.631565
Si Si2 0.337696 0.291702 0.500606
Si Si3 0.166334 0.500000 0.684829
Si Si4 0.918691 0.123997 0.987581
Si Si5 0.831793 0.876024 0.823362
Si Si6 0.336940 0.881096 0.840051
Si Si7 0.165483 0.725890 0.697999
Si Si8 0.087278 0.500000 0.507556
O O1 0.750000 0.888235 0.632343
O O2 0.865803 0.803474 0.559046
O O3 0.863671 0.846659 0.727761
O O4 0.868170 0.000000 0.609854
O O5 0.250000 0.307079 0.496198
O O6 0.365004 0.267889 0.599329
O O7 0.377333 0.396142 0.464491
O O8 0.250000 0.500000 0.645863
O O9 0.154774 0.608063 0.737836
O O10 0.108027 0.500000 0.608263
O O11 0.884195 0.170572 0.898644
O O12 0.921395 0.000000 0.980797
O O13 0.869711 0.158830 0.069188
O O14 0.000000 0.170577 0.000000
O O15 0.750000 0.829176 0.836331
O O16 0.827292 0.000000 0.830951
O O17 0.250000 0.869603 0.847833
O O18 0.371538 0.809613 0.762880
O O19 0.360292 0.000000 0.819947
O O20 0.250000 0.757170 0.693519
O O21 0.000000 0.500000 0.500000
#
# Coordination Sequence:
#
# PCOD8206389 Si02
#       8
#     8   8   4   8   8   8   8   4
#     4   8  14  24  41  65  86 106 138 173 203 244
#     4   9  16  28  45  63  85 112 140 171 207 245
#     4   8  14  28  46  60  76 102 138 172 200 236
#     4   9  16  25  37  54  76 104 137 168 197 231
#     4   8  13  23  38  54  74 101 132 166 200 233
#     4   9  16  25  38  60  87 108 127 156 199 247
#     4   8  14  24  40  60  80 104 132 162 195 232
#     4  10  18  28  42  60  81 106 143 184 213 238
#
# _framework density 15.633653000000001
#
# number of rings (size 3 to 8) (size 9 to 14) (size 15 to 20)
#    0.000    3.429    0.000    2.786    0.000    2.286 
#    0.000    5.714    0.000    0.429    0.000    1.500 
#    0.000    4.571    0.000    0.000    0.000    0.000 
#
# Total GULP energy -693784.524199 kJ/mol
# GULP energy per Si atom -12389.009361 kJ/mol
# Density = 1.559807 g / cm^3
# Si number density = 15.633653 Si / 1000 Ang^3
#
#
#
# Elastic Constant Matrix: (Units=GPa)
#
#
# Indices 1 2 3 4 5 6 
#
# 1 42.9132 25.4928 25.0290 0.0000 0.0000 0.0000
# 2 25.4928 91.0070 66.7293 0.0000 0.0000 0.0000
# 3 25.0290 66.7293 111.2649 0.0000 0.0000 0.0000
# 4 0.0000 0.0000 0.0000 6.5502 0.0000 0.0000
# 5 0.0000 0.0000 0.0000 0.0000 7.4331 0.0000
# 6 0.0000 0.0000 0.0000 0.0000 0.0000 8.7155
#
#
#
# Elastic Compliance Matrix: (Units=1/GPa)
#
#
# Indices 1 2 3 4 5 6 
#
# 1 0.028467 -0.005852 -0.002894 0.000000 0.000000 0.000000
# 2 -0.005852 0.020816 -0.011168 0.000000 0.000000 0.000000
# 3 -0.002894 -0.011168 0.016336 0.000000 0.000000 0.000000
# 4 0.000000 0.000000 0.000000 0.152666 0.000000 0.000000
# 5 0.000000 0.000000 0.000000 0.000000 0.134533 0.000000
# 6 0.000000 0.000000 0.000000 0.000000 0.000000 0.114738
#
#
# Mechanical properties :
#
#
# Convention : Reuss Voigt Hill
#
# Bulk Modulus (GPa) = 38.77199 53.29858 46.03528
# Shear Modulus (GPa) = 9.69028 13.06871 11.37950
#
# Velocity S-wave (km/s) = 2.49235 2.89439 2.70086
# Velocity P-wave (km/s) = 5.75644 6.73322 6.26390
#
# Compressibility (1/GPa) = 0.02579182
#
# Stress axis : x y z
#
# Youngs Moduli (GPa) = 35.12806 48.04015 61.21426
#
# Poissons Ratio (x) = 0.28115 0.17714
# Poissons Ratio (y) = 0.20558 0.68361
# Poissons Ratio (z) = 0.10165 0.53649
#
# Static dielectric constant tensor:
#      x y z
#    x 2.758160 0.000000 0.000000 
#    y 0.000000 3.045560 0.000000 
#    z 0.000000 0.000000 3.144550 
# 
# 
# High freq. dielectric constant tensor:
#      x y z
#    x 1.568640 0.000000 0.000000 
#    y 0.000000 1.571830 0.000000 
#    z 0.000000 0.000000 1.592040 
# 
# From -- ./inp_files/25300.got.cif
#   From: 2010.03.12/outbox.cif.g09.slc.cpg/sg51_13_cif.got.tgz:25300.got - 2010.04.16 13:43:02.
