data_PCOD8206436
_publ_section_title
;
Structure prediction by ZEFSAII (Michael W. Deem and Ramdas Pophale) SiO2 
 PCOD8206436
Probable space group: P M M A
;
_chemical_formula_sum "Si O2"
_cell_formula_units_Z 52
_cell_length_a 24.530682
_cell_length_b 14.844181
_cell_length_c 8.116425
_cell_angle_alpha 90.000000
_cell_angle_beta 90.000000
_cell_angle_gamma 90.000000
_cell_volume 2955.497822
_symmetry_space_group_name_H-M "P M M A"
_symmetry_group_IT_number 51
_symmetry_cell_setting 'orthorhombic'
loop_
_space_group_symop_operation_xyz
x,y,z
1/2-x,-y,z
1/2+x,-y,-z
-x,y,-z
-x,-y,-z
1/2+x,y,-z
1/2-x,y,z
x,-y,z
loop_
_atom_site_type_symbol
_atom_site_label
_atom_site_fract_x
_atom_site_fract_y
_atom_site_fract_z
Si Si1 0.867839 0.098184 0.546605
Si Si2 0.500000 0.651062 0.500000
Si Si3 0.812226 0.103708 0.868293
Si Si4 0.958210 0.400395 0.849959
Si Si5 0.073155 0.216341 0.668577
Si Si6 0.593915 0.231094 0.971732
Si Si7 0.473476 0.898652 0.226087
O O1 0.818388 0.118317 0.671529
O O2 0.871317 0.170855 0.400503
O O3 0.924678 0.104423 0.643896
O O4 0.859931 0.000000 0.466526
O O5 0.513469 0.597106 0.668436
O O6 0.446654 0.710033 0.538013
O O7 0.750000 0.119359 0.920546
O O8 0.830649 0.000000 0.910946
O O9 0.848475 0.179526 0.956849
O O10 0.932417 0.500000 0.875836
O O11 0.912143 0.321592 0.859074
O O12 0.000000 0.380044 0.000000
O O13 0.087511 0.263182 0.840638
O O14 0.027239 0.140043 0.689649
O O15 0.545179 0.161531 0.929739
O O16 0.484917 0.000000 0.165919
#
# Coordination Sequence:
#
# PCOD8206436 Si02
#       7
#     8   4   8   8   8   8   8
#     4   9  17  28  43  68  99 138 179 213 254 308
#     4  12  19  34  51  76 110 154 179 220 255 312
#     4   9  19  37  57  74  99 139 186 234 282 326
#     4  11  22  37  55  79 112 148 185 221 263 321
#     4  12  19  28  48  74 112 144 173 214 262 323
#     4  11  20  34  50  75 105 139 182 225 266 318
#     4  10  18  28  43  67 104 143 172 201 248 312
#
# _framework density 17.594329999999999
#
# number of rings (size 3 to 8) (size 9 to 14) (size 15 to 20)
#    0.000    1.538    4.615    3.462    0.000    4.308 
#    0.000    0.769    0.000    2.308    0.000    0.000 
#    0.000    0.308    0.000    0.000    0.000    0.000 
#
# Total GULP energy -644340.818794 kJ/mol
# GULP energy per Si atom -12391.169592 kJ/mol
# Density = 1.755428 g / cm^3
# Si number density = 17.594330 Si / 1000 Ang^3
#
#
#
# Elastic Constant Matrix: (Units=GPa)
#
#
# Indices 1 2 3 4 5 6 
#
# 1 57.0942 31.9835 9.0842 0.0000 0.0000 0.0000
# 2 31.9835 107.0139 24.5835 0.0000 0.0000 0.0000
# 3 9.0842 24.5835 88.1608 0.0000 0.0000 0.0000
# 4 0.0000 0.0000 0.0000 17.3333 0.0000 0.0000
# 5 0.0000 0.0000 0.0000 0.0000 15.8904 0.0000
# 6 0.0000 0.0000 0.0000 0.0000 0.0000 15.8598
#
#
#
# Elastic Compliance Matrix: (Units=1/GPa)
#
#
# Indices 1 2 3 4 5 6 
#
# 1 0.021053 -0.006190 -0.000443 0.000000 0.000000 0.000000
# 2 -0.006190 0.011804 -0.002654 0.000000 0.000000 0.000000
# 3 -0.000443 -0.002654 0.012129 0.000000 0.000000 0.000000
# 4 0.000000 0.000000 0.000000 0.057692 0.000000 0.000000
# 5 0.000000 0.000000 0.000000 0.000000 0.062931 0.000000
# 6 0.000000 0.000000 0.000000 0.000000 0.000000 0.063053
#
#
# Mechanical properties :
#
#
# Convention : Reuss Voigt Hill
#
# Bulk Modulus (GPa) = 37.86230 42.61900 40.24065
# Shear Modulus (GPa) = 19.52813 22.25786 20.89300
#
# Velocity S-wave (km/s) = 3.33515 3.56063 3.44973
# Velocity P-wave (km/s) = 6.03301 6.41715 6.22804
#
# Compressibility (1/GPa) = 0.02641149
#
# Stress axis : x y z
#
# Youngs Moduli (GPa) = 47.49864 84.71450 82.44993
#
# Poissons Ratio (x) = 0.52442 0.03654
# Poissons Ratio (y) = 0.29404 0.21880
# Poissons Ratio (z) = 0.02105 0.22481
#
# Static dielectric constant tensor:
#      x y z
#    x 2.952210 0.000000 0.000000 
#    y 0.000000 3.273460 0.000000 
#    z 0.000000 0.000000 3.375290 
# 
# 
# High freq. dielectric constant tensor:
#      x y z
#    x 1.626340 0.000000 0.000000 
#    y 0.000000 1.668330 0.000000 
#    z 0.000000 0.000000 1.690500 
# 
# From -- ./inp_files/12459.got.cif
#   From: 2010.03.12/outbox.cif.g09.slc.cpg/sg51_7_cif.got.tgz:12459.got - 2010.04.16 13:43:02.
