data_PCOD8206348
_publ_section_title
;
Structure prediction by ZEFSAII (Michael W. Deem and Ramdas Pophale) SiO2 
 PCOD8206348
Probable space group: P M M A
;
_chemical_formula_sum "Si O2"
_cell_formula_units_Z 64
_cell_length_a 18.934383
_cell_length_b 14.077126
_cell_length_c 15.492760
_cell_angle_alpha 90.000000
_cell_angle_beta 90.000000
_cell_angle_gamma 90.000000
_cell_volume 4129.466514
_symmetry_space_group_name_H-M "P M M A"
_symmetry_group_IT_number 51
_symmetry_cell_setting 'orthorhombic'
loop_
_space_group_symop_operation_xyz
x,y,z
1/2-x,-y,z
1/2+x,-y,-z
-x,y,-z
-x,-y,-z
1/2+x,y,-z
1/2-x,y,z
x,-y,z
loop_
_atom_site_type_symbol
_atom_site_label
_atom_site_fract_x
_atom_site_fract_y
_atom_site_fract_z
Si Si1 0.918339 0.890854 0.005858
Si Si2 0.077661 0.388917 0.597711
Si Si3 0.668112 0.707582 0.743163
Si Si4 0.669512 0.106166 0.834628
Si Si5 0.166750 0.270957 0.923134
Si Si6 0.666075 0.394081 0.914727
Si Si7 0.415989 0.611729 0.405455
Si Si8 0.331997 0.609825 0.755170
O O1 0.882455 0.874156 0.913449
O O2 0.911233 0.000000 0.035782
O O3 0.877452 0.827028 0.076513
O O4 0.000000 0.860493 0.000000
O O5 0.090282 0.500000 0.594463
O O6 0.099447 0.351425 0.502791
O O7 0.126249 0.346045 0.673410
O O8 0.996696 0.366291 0.618470
O O9 0.750000 0.685051 0.731426
O O10 0.653766 0.819790 0.757845
O O11 0.637746 0.650999 0.825836
O O12 0.631111 0.674724 0.656583
O O13 0.750000 0.121308 0.868424
O O14 0.658913 0.000000 0.797517
O O15 0.250000 0.248748 0.927118
O O16 0.146595 0.329363 0.838139
O O17 0.140166 0.332032 0.004770
O O18 0.750000 0.396795 0.914831
O O19 0.634818 0.500000 0.923492
O O20 0.398918 0.500000 0.394494
O O21 0.250000 0.619631 0.733773
O O22 0.352178 0.500000 0.773288
#
# Coordination Sequence:
#
# PCOD8206348 Si02
#       8
#     8   8   8   8   8   8   8   8
#     4  10  20  32  46  65  88 114 149 194 233 260
#     4   8  16  31  46  62  86 120 156 185 221 262
#     4  10  18  27  43  69  92 117 149 181 225 270
#     4   9  17  31  48  64  87 118 150 184 222 269
#     4  10  18  30  47  65  86 120 156 181 217 266
#     4   9  16  26  40  61  92 122 146 174 211 259
#     4   9  17  29  45  64  91 122 149 181 221 271
#     4   9  17  29  46  66  87 114 152 193 224 256
#
# _framework density 15.49837
#
# number of rings (size 3 to 8) (size 9 to 14) (size 15 to 20)
#    0.000    2.750    1.250    1.875    0.000    4.500 
#    0.000    1.250    0.000    0.750    0.000    2.625 
#    0.000    2.000    0.000    0.000    0.000    0.000 
#
# Total GULP energy -793412.522571 kJ/mol
# GULP energy per Si atom -12397.070665 kJ/mol
# Density = 1.546310 g / cm^3
# Si number density = 15.498370 Si / 1000 Ang^3
#
#
#
# Elastic Constant Matrix: (Units=GPa)
#
#
# Indices 1 2 3 4 5 6 
#
# 1 65.8544 44.2956 54.4282 0.0000 0.0000 0.0000
# 2 44.2956 89.0069 52.0233 0.0000 0.0000 0.0000
# 3 54.4282 52.0233 114.1717 0.0000 0.0000 0.0000
# 4 0.0000 0.0000 0.0000 14.5865 0.0000 0.0000
# 5 0.0000 0.0000 0.0000 0.0000 23.0176 0.0000
# 6 0.0000 0.0000 0.0000 0.0000 0.0000 19.3514
#
#
#
# Elastic Compliance Matrix: (Units=1/GPa)
#
#
# Indices 1 2 3 4 5 6 
#
# 1 0.029336 -0.008758 -0.009995 0.000000 0.000000 0.000000
# 2 -0.008758 0.017928 -0.003994 0.000000 0.000000 0.000000
# 3 -0.009995 -0.003994 0.015343 0.000000 0.000000 0.000000
# 4 0.000000 0.000000 0.000000 0.068557 0.000000 0.000000
# 5 0.000000 0.000000 0.000000 0.000000 0.043445 0.000000
# 6 0.000000 0.000000 0.000000 0.000000 0.000000 0.051676
#
#
# Mechanical properties :
#
#
# Convention : Reuss Voigt Hill
#
# Bulk Modulus (GPa) = 58.42974 63.39189 60.91081
# Shear Modulus (GPa) = 18.01911 19.27681 18.64796
#
# Velocity S-wave (km/s) = 3.41346 3.53058 3.47251
# Velocity P-wave (km/s) = 7.30192 7.59019 7.44745
#
# Compressibility (1/GPa) = 0.01711457
#
# Stress axis : x y z
#
# Youngs Moduli (GPa) = 34.08740 55.77866 65.17499
#
# Poissons Ratio (x) = 0.48850 0.65140
# Poissons Ratio (y) = 0.29853 0.26031
# Poissons Ratio (z) = 0.34069 0.22278
#
# Static dielectric constant tensor:
#      x y z
#    x 3.616590 0.000000 0.000000 
#    y 0.000000 2.987210 0.000000 
#    z 0.000000 0.000000 3.207990 
# 
# 
# High freq. dielectric constant tensor:
#      x y z
#    x 1.583340 0.000000 0.000000 
#    y 0.000000 1.579480 0.000000 
#    z 0.000000 0.000000 1.583690 
# 
# From -- ./inp_files/25370.got.cif
#   From: 2010.03.12/outbox.cif.g09.slc.cpg/sg51_13_cif.got.tgz:25370.got - 2010.04.16 13:43:02.
