data_PCOD8206934
_publ_section_title
;
Structure prediction by ZEFSAII (Michael W. Deem and Ramdas Pophale) SiO2 
 PCOD8206934
Probable space group: P M M A
;
_chemical_formula_sum "Si O2"
_cell_formula_units_Z 52
_cell_length_a 8.804588
_cell_length_b 18.086706
_cell_length_c 17.699727
_cell_angle_alpha 90.000000
_cell_angle_beta 90.000000
_cell_angle_gamma 90.000000
_cell_volume 2818.610630
_symmetry_space_group_name_H-M "P M M A"
_symmetry_group_IT_number 51
_symmetry_cell_setting 'orthorhombic'
loop_
_space_group_symop_operation_xyz
x,y,z
1/2-x,-y,z
1/2+x,-y,-z
-x,y,-z
-x,-y,-z
1/2+x,y,-z
1/2-x,y,z
x,-y,z
loop_
_atom_site_type_symbol
_atom_site_label
_atom_site_fract_x
_atom_site_fract_y
_atom_site_fract_z
Si Si1 0.074356 0.717490 0.691400
Si Si2 0.925208 0.227996 0.144160
Si Si3 0.428624 0.416953 0.239549
Si Si4 0.072707 0.079905 0.922120
Si Si5 0.932225 0.848667 0.417144
Si Si6 0.927975 0.638607 0.922480
Si Si7 0.932705 0.000000 0.583686
O O1 0.250000 0.701639 0.678044
O O2 0.037080 0.754997 0.770311
O O3 0.015058 0.775129 0.628339
O O4 0.992910 0.637432 0.695030
O O5 0.750000 0.243485 0.123496
O O6 0.969254 0.141964 0.138524
O O7 0.027108 0.275412 0.086408
O O8 0.250000 0.406018 0.238069
O O9 0.475884 0.500000 0.262264
O O10 0.490689 0.401392 0.154022
O O11 0.250000 0.075270 0.935809
O O12 0.010099 0.000000 0.894416
O O13 0.000000 0.104474 0.000000
O O14 0.750000 0.856120 0.418682
O O15 0.000000 0.838069 0.500000
O O16 0.002654 0.923770 0.378916
O O17 0.750000 0.627959 0.930184
O O18 0.000000 0.605945 0.000000
O O19 0.000000 0.000000 0.500000
O O20 0.750000 0.000000 0.584204
#
# Coordination Sequence:
#
# PCOD8206934 Si02
#       7
#     8   8   8   8   8   8   4
#     4   9  19  34  52  76 101 128 164 205 249 300
#     4   9  17  31  47  65  90 120 158 201 244 295
#     4   9  19  35  53  73  99 132 167 204 252 307
#     4   9  17  28  42  60  82 113 153 195 237 279
#     4  10  19  33  53  79 108 138 171 207 249 298
#     4  10  19  30  46  69  95 125 160 202 247 296
#     4  10  18  30  50  76 106 138 171 204 243 290
#
# _framework density 18.448806000000001
#
# number of rings (size 3 to 8) (size 9 to 14) (size 15 to 20)
#    0.000    2.615    0.000    3.000    0.000    4.308 
#    1.385    0.000    0.000    0.462    0.000    0.000 
#    0.000    0.000    0.000    0.000    0.000    0.000 
#
# Total GULP energy -644329.335178 kJ/mol
# GULP energy per Si atom -12390.948753 kJ/mol
# Density = 1.840682 g / cm^3
# Si number density = 18.448806 Si / 1000 Ang^3
#
#
#
# Elastic Constant Matrix: (Units=GPa)
#
#
# Indices 1 2 3 4 5 6 
#
# 1 55.9654 41.7795 23.4297 0.0000 0.0000 0.0000
# 2 41.7795 156.2749 53.0248 0.0000 0.0000 0.0000
# 3 23.4297 53.0248 52.3168 0.0000 0.0000 0.0000
# 4 0.0000 0.0000 0.0000 -4.3375 0.0000 0.0000
# 5 0.0000 0.0000 0.0000 0.0000 24.2215 0.0000
# 6 0.0000 0.0000 0.0000 0.0000 0.0000 28.2495
#
#
#
# Elastic Compliance Matrix: (Units=1/GPa)
#
#
# Indices 1 2 3 4 5 6 
#
# 1 0.023640 -0.004158 -0.006373 0.000000 0.000000 0.000000
# 2 -0.004158 0.010484 -0.008764 0.000000 0.000000 0.000000
# 3 -0.006373 -0.008764 0.030851 0.000000 0.000000 0.000000
# 4 0.000000 0.000000 0.000000 -0.230546 0.000000 0.000000
# 5 0.000000 0.000000 0.000000 0.000000 0.041286 0.000000
# 6 0.000000 0.000000 0.000000 0.000000 0.000000 0.035399
#
#
# Mechanical properties :
#
#
# Convention : Reuss Voigt Hill
#
# Bulk Modulus (GPa) = 37.89931 55.66943 46.78437
# Shear Modulus (GPa) = -120.47886 19.38157 -50.54864
#
# Velocity S-wave (km/s) = -8.08988 3.24475 -5.24012
# Velocity P-wave (km/s) = 8.16542 6.65421 3.34631
#
# Compressibility (1/GPa) = 0.02638571
#
# Stress axis : x y z
#
# Youngs Moduli (GPa) = 42.30116 95.38141 32.41362
#
# Poissons Ratio (x) = 0.39656 0.20658
# Poissons Ratio (y) = 0.17587 0.28408
# Poissons Ratio (z) = 0.26959 0.83594
#
# Static dielectric constant tensor:
#      x y z
#    x 2.967730 0.000000 0.000000 
#    y 0.000000 3.964800 0.000000 
#    z 0.000000 0.000000 3.211390 
# 
# 
# High freq. dielectric constant tensor:
#      x y z
#    x 1.710540 0.000000 0.000000 
#    y 0.000000 1.725990 0.000000 
#    z 0.000000 0.000000 1.680130 
# 
# From -- ./inp_files/27949.got.cif
#   From: 2010.03.12/outbox.cif.g09.slc.cpg/sg51_14_cif.got.tgz:27949.got - 2010.04.16 13:43:02.
