data_PCOD8206353
_publ_section_title
;
Structure prediction by ZEFSAII (Michael W. Deem and Ramdas Pophale) SiO2 
 PCOD8206353
Probable space group: P M M A
;
_chemical_formula_sum "Si O2"
_cell_formula_units_Z 48
_cell_length_a 25.264015
_cell_length_b 9.316752
_cell_length_c 12.642798
_cell_angle_alpha 90.000000
_cell_angle_beta 90.000000
_cell_angle_gamma 90.000000
_cell_volume 2975.843616
_symmetry_space_group_name_H-M "P M M A"
_symmetry_group_IT_number 51
_symmetry_cell_setting 'orthorhombic'
loop_
_space_group_symop_operation_xyz
x,y,z
1/2-x,-y,z
1/2+x,-y,-z
-x,y,-z
-x,-y,-z
1/2+x,y,-z
1/2-x,y,z
x,-y,z
loop_
_atom_site_type_symbol
_atom_site_label
_atom_site_fract_x
_atom_site_fract_y
_atom_site_fract_z
Si Si1 0.312888 0.659130 0.491915
Si Si2 0.505072 0.157713 0.125197
Si Si3 0.691112 0.670724 0.276774
Si Si4 0.389522 0.168811 0.110293
Si Si5 0.605303 0.670755 0.108132
Si Si6 0.810737 0.167686 0.707856
O O1 0.250000 0.652131 0.488731
O O2 0.336783 0.500000 0.475460
O O3 0.329155 0.722721 0.607157
O O4 0.334148 0.758591 0.397454
O O5 0.446453 0.202259 0.165700
O O6 0.549497 0.273700 0.156402
O O7 0.521132 0.000000 0.169351
O O8 0.500000 0.149517 0.000000
O O9 0.750000 0.731684 0.251754
O O10 0.693569 0.500000 0.279798
O O11 0.651043 0.724206 0.187205
O O12 0.344222 0.218429 0.191121
O O13 0.385583 0.000000 0.081747
O O14 0.381569 0.260359 0.004560
O O15 0.602649 0.500000 0.097166
O O16 0.750000 0.211879 0.729100
O O17 0.816895 0.000000 0.689254
#
# Coordination Sequence:
#
# PCOD8206353 Si02
#       6
#     8   8   8   8   8   8
#     4   8  14  27  46  63  81 110 145 173 202 249
#     4   8  15  29  45  58  79 114 148 173 204 251
#     4   8  15  28  44  63  89 117 139 166 212 260
#     4   9  18  31  44  60  87 120 143 164 209 263
#     4  10  18  27  44  68  88 108 141 181 211 241
#     4   9  17  29  45  65  88 111 138 176 215 247
#
# _framework density 16.12988
#
# number of rings (size 3 to 8) (size 9 to 14) (size 15 to 20)
#    0.000    3.333    0.000    2.500    0.000    4.333 
#    0.000    1.667    0.000    4.500    0.000    7.000 
#    0.000    0.000    0.000    0.000    0.000    0.000 
#
# Total GULP energy -594824.704331 kJ/mol
# GULP energy per Si atom -12392.181340 kJ/mol
# Density = 1.609317 g / cm^3
# Si number density = 16.129880 Si / 1000 Ang^3
#
#
#
# Elastic Constant Matrix: (Units=GPa)
#
#
# Indices 1 2 3 4 5 6 
#
# 1 99.7204 40.5268 67.2735 0.0000 0.0000 0.0000
# 2 40.5268 55.5984 48.6976 0.0000 0.0000 0.0000
# 3 67.2735 48.6976 106.8030 0.0000 0.0000 0.0000
# 4 0.0000 0.0000 0.0000 12.1746 0.0000 0.0000
# 5 0.0000 0.0000 0.0000 0.0000 4.1141 0.0000
# 6 0.0000 0.0000 0.0000 0.0000 0.0000 20.0273
#
#
#
# Elastic Compliance Matrix: (Units=1/GPa)
#
#
# Indices 1 2 3 4 5 6 
#
# 1 0.018369 -0.005420 -0.009099 0.000000 0.000000 0.000000
# 2 -0.005420 0.031544 -0.010969 0.000000 0.000000 0.000000
# 3 -0.009099 -0.010969 0.020096 0.000000 0.000000 0.000000
# 4 0.000000 0.000000 0.000000 0.082138 0.000000 0.000000
# 5 0.000000 0.000000 0.000000 0.000000 0.243066 0.000000
# 6 0.000000 0.000000 0.000000 0.000000 0.000000 0.049932
#
#
# Mechanical properties :
#
#
# Convention : Reuss Voigt Hill
#
# Bulk Modulus (GPa) = 52.53960 63.90195 58.22078
# Shear Modulus (GPa) = 9.95093 14.30481 12.12787
#
# Velocity S-wave (km/s) = 2.48649 2.98124 2.74503
# Velocity P-wave (km/s) = 6.39430 7.18008 6.79855
#
# Compressibility (1/GPa) = 0.01903326
#
# Stress axis : x y z
#
# Youngs Moduli (GPa) = 54.43886 31.70141 49.76132
#
# Poissons Ratio (x) = 0.17182 0.45279
# Poissons Ratio (y) = 0.29505 0.54583
# Poissons Ratio (z) = 0.49535 0.34773
#
# Static dielectric constant tensor:
#      x y z
#    x 3.362390 0.000000 0.000000 
#    y 0.000000 2.996520 0.000000 
#    z 0.000000 0.000000 3.099190 
# 
# 
# High freq. dielectric constant tensor:
#      x y z
#    x 1.608440 0.000000 0.000000 
#    y 0.000000 1.606640 0.000000 
#    z 0.000000 0.000000 1.603590 
# 
# From -- ./inp_files/19009.got.cif
#   From: 2010.03.12/outbox.cif.g09.slc.cpg/sg51_10_cif.got.tgz:19009.got - 2010.04.16 13:43:02.
