data_PCOD8206641
_publ_section_title
;
Structure prediction by ZEFSAII (Michael W. Deem and Ramdas Pophale) SiO2 
 PCOD8206641
Probable space group: P M M A
;
_chemical_formula_sum "Si O2"
_cell_formula_units_Z 64
_cell_length_a 29.506185
_cell_length_b 9.295717
_cell_length_c 14.753402
_cell_angle_alpha 90.000000
_cell_angle_beta 90.000000
_cell_angle_gamma 90.000000
_cell_volume 4046.580001
_symmetry_space_group_name_H-M "P M M A"
_symmetry_group_IT_number 51
_symmetry_cell_setting 'orthorhombic'
loop_
_space_group_symop_operation_xyz
x,y,z
1/2-x,-y,z
1/2+x,-y,-z
-x,y,-z
-x,-y,-z
1/2+x,y,-z
1/2-x,y,z
x,-y,z
loop_
_atom_site_type_symbol
_atom_site_label
_atom_site_fract_x
_atom_site_fract_y
_atom_site_fract_z
Si Si1 0.542387 0.331246 0.180160
Si Si2 0.699902 0.165822 0.981750
Si Si3 0.102703 0.169560 0.959516
Si Si4 0.434271 0.164648 0.446705
Si Si5 0.199869 0.665711 0.200446
Si Si6 0.440843 0.332452 0.127385
Si Si7 0.969325 0.833640 0.362927
Si Si8 0.614018 0.666905 0.695808
O O1 0.553443 0.500000 0.182989
O O2 0.581328 0.248306 0.126309
O O3 0.494536 0.303202 0.130584
O O4 0.543020 0.271706 0.281737
O O5 0.750000 0.208445 0.022837
O O6 0.690069 0.250173 0.890595
O O7 0.700196 0.000000 0.954734
O O8 0.657261 0.197556 0.047635
O O9 0.091740 0.000000 0.956823
O O10 0.081693 0.234413 0.051066
O O11 0.481559 0.206869 0.400562
O O12 0.434425 0.194679 0.554406
O O13 0.395389 0.256072 0.398953
O O14 0.423464 0.000000 0.427787
O O15 0.250000 0.696000 0.238615
O O16 0.192323 0.500000 0.175023
O O17 0.164767 0.713241 0.277286
O O18 0.430614 0.500000 0.105943
O O19 0.420291 0.286668 0.224202
O O20 0.967180 0.000000 0.331302
O O21 0.609215 0.500000 0.676747
#
# Coordination Sequence:
#
# PCOD8206641 Si02
#       8
#     8   8   8   8   8   8   8   8
#     4  11  22  34  48  66  94 130 162 196 235 273
#     4   9  18  32  48  67  91 118 152 195 239 279
#     4  11  22  33  48  69  92 125 163 196 233 279
#     4   9  18  31  49  70  93 121 152 189 233 275
#     4   9  17  29  46  67  92 123 156 191 231 274
#     4  10  20  33  45  65  97 130 162 194 226 267
#     4   9  18  33  49  68  93 120 154 195 232 271
#     4  10  18  29  46  69  97 126 158 191 228 276
#
# _framework density 15.815823999999999
#
# number of rings (size 3 to 8) (size 9 to 14) (size 15 to 20)
#    0.000    2.250    2.500    1.875    0.000    4.500 
#    0.000    1.250    0.000    0.000    0.000    0.875 
#    0.000    1.000    0.000    0.000    0.000    0.000 
#
# Total GULP energy -793385.233468 kJ/mol
# GULP energy per Si atom -12396.644273 kJ/mol
# Density = 1.577983 g / cm^3
# Si number density = 15.815824 Si / 1000 Ang^3
#
#
#
# Elastic Constant Matrix: (Units=GPa)
#
#
# Indices 1 2 3 4 5 6 
#
# 1 95.7830 51.7513 54.9682 0.0000 0.0000 0.0000
# 2 51.7513 69.2780 44.9866 0.0000 0.0000 0.0000
# 3 54.9682 44.9866 67.5773 0.0000 0.0000 0.0000
# 4 0.0000 0.0000 0.0000 32.6311 0.0000 0.0000
# 5 0.0000 0.0000 0.0000 0.0000 18.3872 0.0000
# 6 0.0000 0.0000 0.0000 0.0000 0.0000 20.7059
#
#
#
# Elastic Compliance Matrix: (Units=1/GPa)
#
#
# Indices 1 2 3 4 5 6 
#
# 1 0.022110 -0.008522 -0.012312 0.000000 0.000000 0.000000
# 2 -0.008522 0.028710 -0.012181 0.000000 0.000000 0.000000
# 3 -0.012312 -0.012181 0.032921 0.000000 0.000000 0.000000
# 4 0.000000 0.000000 0.000000 0.030646 0.000000 0.000000
# 5 0.000000 0.000000 0.000000 0.000000 0.054386 0.000000
# 6 0.000000 0.000000 0.000000 0.000000 0.000000 0.048295
#
#
# Mechanical properties :
#
#
# Convention : Reuss Voigt Hill
#
# Bulk Modulus (GPa) = 56.45573 59.56115 58.00844
# Shear Modulus (GPa) = 17.30102 19.74032 18.52067
#
# Velocity S-wave (km/s) = 3.31101 3.53673 3.42573
# Velocity P-wave (km/s) = 7.09861 7.37692 7.23910
#
# Compressibility (1/GPa) = 0.01771300
#
# Stress axis : x y z
#
# Youngs Moduli (GPa) = 45.22868 34.83092 30.37559
#
# Poissons Ratio (x) = 0.29681 0.37397
# Poissons Ratio (y) = 0.38542 0.37000
# Poissons Ratio (z) = 0.55684 0.42427
#
# Static dielectric constant tensor:
#      x y z
#    x 3.205860 0.000000 0.000000 
#    y 0.000000 3.043610 0.000000 
#    z 0.000000 0.000000 2.933080 
# 
# 
# High freq. dielectric constant tensor:
#      x y z
#    x 1.600790 0.000000 0.000000 
#    y 0.000000 1.613930 0.000000 
#    z 0.000000 0.000000 1.584510 
# 
# From -- ./inp_files/26624.got.cif
#   From: 2010.03.12/outbox.cif.g09.slc.cpg/sg51_14_cif.got.tgz:26624.got - 2010.04.16 13:43:02.
