data_PCOD8206646
_publ_section_title
;
Structure prediction by ZEFSAII (Michael W. Deem and Ramdas Pophale) SiO2 
 PCOD8206646
Probable space group: P M M A
;
_chemical_formula_sum "Si O2"
_cell_formula_units_Z 64
_cell_length_a 16.885325
_cell_length_b 14.323783
_cell_length_c 15.397205
_cell_angle_alpha 90.000000
_cell_angle_beta 90.000000
_cell_angle_gamma 90.000000
_cell_volume 3723.994657
_symmetry_space_group_name_H-M "P M M A"
_symmetry_group_IT_number 51
_symmetry_cell_setting 'orthorhombic'
loop_
_space_group_symop_operation_xyz
x,y,z
1/2-x,-y,z
1/2+x,-y,-z
-x,y,-z
-x,-y,-z
1/2+x,y,-z
1/2-x,y,z
x,-y,z
loop_
_atom_site_type_symbol
_atom_site_label
_atom_site_fract_x
_atom_site_fract_y
_atom_site_fract_z
Si Si1 0.155848 0.271850 0.637937
Si Si2 0.402146 0.609146 0.800597
Si Si3 0.917203 0.106506 0.454594
Si Si4 0.338380 0.610195 0.982325
Si Si5 0.841444 0.099801 0.630806
Si Si6 0.343854 0.603313 0.475707
Si Si7 0.083891 0.392527 0.155357
Si Si8 0.842971 0.290624 0.690321
O O1 0.250000 0.254234 0.642632
O O2 0.127637 0.325044 0.723930
O O3 0.108141 0.174281 0.625232
O O4 0.130088 0.335866 0.557428
O O5 0.381196 0.500000 0.781568
O O6 0.361337 0.648919 0.887809
O O7 0.494906 0.622353 0.815142
O O8 0.849854 0.117999 0.527931
O O9 0.000000 0.135035 0.500000
O O10 0.921414 0.000000 0.419135
O O11 0.250000 0.643802 0.006852
O O12 0.343597 0.500000 0.974451
O O13 0.399765 0.643410 0.057061
O O14 0.750000 0.092081 0.653356
O O15 0.879675 0.185644 0.684543
O O16 0.883004 0.000000 0.655207
O O17 0.250000 0.597388 0.469875
O O18 0.380283 0.500000 0.486245
O O19 0.379722 0.647066 0.387241
O O20 0.109778 0.500000 0.162850
O O21 0.140517 0.333535 0.216839
O O22 0.750000 0.283308 0.674425
#
# Coordination Sequence:
#
# PCOD8206646 Si02
#       8
#     8   8   8   8   8   8   8   8
#     4  11  21  33  51  74  99 135 175 209 248 300
#     4  10  21  34  49  72 104 138 171 211 255 303
#     4  10  21  35  52  73  99 132 170 214 260 299
#     4   9  17  32  53  73  95 127 169 215 257 301
#     4   9  17  31  50  69  92 124 164 210 255 298
#     4   9  17  28  42  63  94 129 165 202 238 282
#     4  10  20  32  48  72 102 135 168 207 256 305
#     4  10  18  29  46  70  97 130 169 210 255 302
#
# _framework density 17.185846000000002
#
# number of rings (size 3 to 8) (size 9 to 14) (size 15 to 20)
#    0.000    2.250    1.250    2.250    1.750    4.750 
#    0.000    0.000    0.000    3.000    0.000    0.875 
#    0.000    5.000    0.000    0.000    0.000    0.000 
#
# Total GULP energy -793216.201053 kJ/mol
# GULP energy per Si atom -12394.003141 kJ/mol
# Density = 1.714673 g / cm^3
# Si number density = 17.185846 Si / 1000 Ang^3
#
#
#
# Elastic Constant Matrix: (Units=GPa)
#
#
# Indices 1 2 3 4 5 6 
#
# 1 44.1124 35.8923 28.7214 0.0000 0.0000 0.0000
# 2 35.8923 111.3520 60.5537 0.0000 0.0000 0.0000
# 3 28.7214 60.5537 122.5992 0.0000 0.0000 0.0000
# 4 0.0000 0.0000 0.0000 12.3154 0.0000 0.0000
# 5 0.0000 0.0000 0.0000 0.0000 25.3089 0.0000
# 6 0.0000 0.0000 0.0000 0.0000 0.0000 16.3655
#
#
#
# Elastic Compliance Matrix: (Units=1/GPa)
#
#
# Indices 1 2 3 4 5 6 
#
# 1 0.031647 -0.008435 -0.003248 0.000000 0.000000 0.000000
# 2 -0.008435 0.014526 -0.005199 0.000000 0.000000 0.000000
# 3 -0.003248 -0.005199 0.011485 0.000000 0.000000 0.000000
# 4 0.000000 0.000000 0.000000 0.081199 0.000000 0.000000
# 5 0.000000 0.000000 0.000000 0.000000 0.039512 0.000000
# 6 0.000000 0.000000 0.000000 0.000000 0.000000 0.061104
#
#
# Mechanical properties :
#
#
# Convention : Reuss Voigt Hill
#
# Bulk Modulus (GPa) = 41.84814 58.71092 50.27953
# Shear Modulus (GPa) = 17.78084 20.99106 19.38595
#
# Velocity S-wave (km/s) = 3.22004 3.49867 3.36224
# Velocity P-wave (km/s) = 6.18289 7.11037 6.66279
#
# Compressibility (1/GPa) = 0.02389592
#
# Stress axis : x y z
#
# Youngs Moduli (GPa) = 31.59866 68.84017 87.06730
#
# Poissons Ratio (x) = 0.58063 0.28279
# Poissons Ratio (y) = 0.26652 0.45265
# Poissons Ratio (z) = 0.10263 0.35789
#
# Static dielectric constant tensor:
#      x y z
#    x 3.114290 0.000000 0.000000 
#    y 0.000000 3.388030 0.000000 
#    z 0.000000 0.000000 3.181960 
# 
# 
# High freq. dielectric constant tensor:
#      x y z
#    x 1.657660 0.000000 0.000000 
#    y 0.000000 1.646790 0.000000 
#    z 0.000000 0.000000 1.647140 
# 
# From -- ./inp_files/25337.got.cif
#   From: 2010.03.12/outbox.cif.g09.slc.cpg/sg51_13_cif.got.tgz:25337.got - 2010.04.16 13:43:02.
