data_PCOD8206717
_publ_section_title
;
Structure prediction by ZEFSAII (Michael W. Deem and Ramdas Pophale) SiO2 
 PCOD8206717
Probable space group: P M M A
;
_chemical_formula_sum "Si O2"
_cell_formula_units_Z 56
_cell_length_a 14.299748
_cell_length_b 9.103760
_cell_length_c 23.048344
_cell_angle_alpha 90.000000
_cell_angle_beta 90.000000
_cell_angle_gamma 90.000000
_cell_volume 3000.467392
_symmetry_space_group_name_H-M "P M M A"
_symmetry_group_IT_number 51
_symmetry_cell_setting 'orthorhombic'
loop_
_space_group_symop_operation_xyz
x,y,z
1/2-x,-y,z
1/2+x,-y,-z
-x,y,-z
-x,-y,-z
1/2+x,y,-z
1/2-x,y,z
x,-y,z
loop_
_atom_site_type_symbol
_atom_site_label
_atom_site_fract_x
_atom_site_fract_y
_atom_site_fract_z
Si Si1 0.357841 0.667194 0.531904
Si Si2 0.026561 0.827347 0.862298
Si Si3 0.642661 0.173758 0.249221
Si Si4 0.356677 0.327225 0.092402
Si Si5 0.647781 0.673980 0.595521
Si Si6 0.042441 0.326005 0.644379
Si Si7 0.357127 0.831922 0.974202
O O1 0.250000 0.680851 0.548576
O O2 0.391617 0.500000 0.529048
O O3 0.376964 0.739908 0.468622
O O4 0.415398 0.740015 0.584510
O O5 0.089386 0.774254 0.808610
O O6 0.080267 0.780751 0.920575
O O7 0.926249 0.745924 0.860795
O O8 0.008676 0.000000 0.859451
O O9 0.750000 0.227939 0.246168
O O10 0.590379 0.246103 0.302684
O O11 0.638462 0.000000 0.256254
O O12 0.250000 0.284454 0.108644
O O13 0.371253 0.500000 0.093028
O O14 0.382499 0.268293 0.028731
O O15 0.750000 0.733148 0.616248
O O16 0.654129 0.500000 0.587472
O O17 0.568413 0.714184 0.642526
O O18 0.059534 0.500000 0.650684
O O19 0.250000 0.813014 0.954982
O O20 0.378546 0.000000 0.991679
#
# Coordination Sequence:
#
# PCOD8206717 Si02
#       7
#     8   8   8   8   8   8   8
#     4   8  13  22  40  69 101 128 158 201 249 293
#     4  10  20  35  55  75  96 130 175 212 241 282
#     4  10  22  39  55  72  98 130 162 200 248 298
#     4  10  21  35  51  76 109 137 160 195 248 302
#     4   8  14  25  43  70 102 132 162 200 247 294
#     4  10  18  29  49  75 100 128 166 208 245 287
#     4   9  17  31  53  79 104 131 166 207 248 292
#
# _framework density 18.663758999999999
#
# number of rings (size 3 to 8) (size 9 to 14) (size 15 to 20)
#    0.000    2.714    0.000    3.000    0.000    8.000 
#    0.000    0.714    0.000    7.286    0.000    2.000 
#    0.000    0.000    0.000    0.000    0.000    0.000 
#
# Total GULP energy -694126.839816 kJ/mol
# GULP energy per Si atom -12395.122140 kJ/mol
# Density = 1.862128 g / cm^3
# Si number density = 18.663759 Si / 1000 Ang^3
#
#
#
# Elastic Constant Matrix: (Units=GPa)
#
#
# Indices 1 2 3 4 5 6 
#
# 1 151.1869 39.3378 91.6060 0.0000 0.0000 0.0000
# 2 39.3378 27.6817 32.0887 0.0000 0.0000 0.0000
# 3 91.6060 32.0887 97.8202 0.0000 0.0000 0.0000
# 4 0.0000 0.0000 0.0000 25.6070 0.0000 0.0000
# 5 0.0000 0.0000 0.0000 0.0000 34.9896 0.0000
# 6 0.0000 0.0000 0.0000 0.0000 0.0000 23.2321
#
#
#
# Elastic Compliance Matrix: (Units=1/GPa)
#
#
# Indices 1 2 3 4 5 6 
#
# 1 0.016564 -0.008967 -0.012570 0.000000 0.000000 0.000000
# 2 -0.008967 0.063145 -0.012316 0.000000 0.000000 0.000000
# 3 -0.012570 -0.012316 0.026035 0.000000 0.000000 0.000000
# 4 0.000000 0.000000 0.000000 0.039052 0.000000 0.000000
# 5 0.000000 0.000000 0.000000 0.000000 0.028580 0.000000
# 6 0.000000 0.000000 0.000000 0.000000 0.000000 0.043044
#
#
# Mechanical properties :
#
#
# Convention : Reuss Voigt Hill
#
# Bulk Modulus (GPa) = 26.29062 66.97265 46.63163
# Shear Modulus (GPa) = 16.84603 24.34282 20.59443
#
# Velocity S-wave (km/s) = 3.00760 3.61540 3.32542
# Velocity P-wave (km/s) = 5.11644 7.30684 6.30745
#
# Compressibility (1/GPa) = 0.03803638
#
# Stress axis : x y z
#
# Youngs Moduli (GPa) = 60.37222 15.83646 38.41055
#
# Poissons Ratio (x) = 0.14201 0.48282
# Poissons Ratio (y) = 0.54138 0.47308
# Poissons Ratio (z) = 0.75888 0.19505
#
# Static dielectric constant tensor:
#      x y z
#    x 3.800500 0.000000 0.000000 
#    y 0.000000 3.014910 0.000000 
#    z 0.000000 0.000000 3.365950 
# 
# 
# High freq. dielectric constant tensor:
#      x y z
#    x 1.746480 0.000000 0.000000 
#    y 0.000000 1.677360 0.000000 
#    z 0.000000 0.000000 1.709770 
# 
# From -- ./inp_files/33347.got.cif
#   From: 2010.03.12/outbox.cif.g09.slc.cpg/sg51_17_cif.got.tgz:33347.got - 2010.04.16 13:43:02.
