data_PCOD8206404
_publ_section_title
;
Structure prediction by ZEFSAII (Michael W. Deem and Ramdas Pophale) SiO2 
 PCOD8206404
Probable space group: P M M A
;
_chemical_formula_sum "Si O2"
_cell_formula_units_Z 56
_cell_length_a 8.766796
_cell_length_b 22.395118
_cell_length_c 15.413893
_cell_angle_alpha 90.000000
_cell_angle_beta 90.000000
_cell_angle_gamma 90.000000
_cell_volume 3026.262496
_symmetry_space_group_name_H-M "P M M A"
_symmetry_group_IT_number 51
_symmetry_cell_setting 'orthorhombic'
loop_
_space_group_symop_operation_xyz
x,y,z
1/2-x,-y,z
1/2+x,-y,-z
-x,y,-z
-x,-y,-z
1/2+x,y,-z
1/2-x,y,z
x,-y,z
loop_
_atom_site_type_symbol
_atom_site_label
_atom_site_fract_x
_atom_site_fract_y
_atom_site_fract_z
Si Si1 0.428185 0.122178 0.416118
Si Si2 0.069566 0.648430 0.907917
Si Si3 0.578101 0.428938 0.413093
Si Si4 0.581643 0.000000 0.402810
Si Si5 0.430820 0.774211 0.091751
Si Si6 0.429799 0.122215 0.221911
Si Si7 0.924691 0.570633 0.763335
Si Si8 0.916268 0.000000 0.201734
O O1 0.500000 0.157899 0.500000
O O2 0.250000 0.132324 0.421314
O O3 0.475722 0.054269 0.430906
O O4 0.489301 0.139356 0.319340
O O5 0.250000 0.653821 0.917278
O O6 0.000691 0.711504 0.877430
O O7 0.027910 0.598666 0.837943
O O8 0.000000 0.628838 0.000000
O O9 0.500000 0.403058 0.500000
O O10 0.750000 0.404139 0.407088
O O11 0.578560 0.500000 0.416583
O O12 0.483614 0.406461 0.329945
O O13 0.750000 0.000000 0.447519
O O14 0.611668 0.000000 0.302391
O O15 0.250000 0.767802 0.083503
O O16 0.479991 0.823431 0.161369
O O17 0.500000 0.793860 0.000000
O O18 0.250000 0.112925 0.225576
O O19 0.495138 0.061252 0.179391
O O20 0.750000 0.590890 0.774266
O O21 0.942377 0.500000 0.770761
O O22 0.750000 0.000000 0.154660
#
# Coordination Sequence:
#
# PCOD8206404 Si02
#       8
#     8   8   8   4   8   8   8   4
#     4  10  18  28  42  64  93 127 162 196 236 286
#     4  11  22  37  57  80 106 136 171 213 259 311
#     4   9  16  27  45  71 104 142 182 221 260 304
#     4   9  16  26  39  60  90 126 162 198 237 281
#     4  10  20  37  59  80  99 126 167 212 256 305
#     4   9  19  34  52  72 100 134 165 201 251 305
#     4  10  20  34  53  79 111 145 179 217 262 309
#     4   9  17  28  47  74 102 128 162 206 249 295
#
# _framework density 18.504674999999999
#
# number of rings (size 3 to 8) (size 9 to 14) (size 15 to 20)
#    0.000    2.286    0.000    4.500    0.000    6.286 
#    0.000    0.357    0.000    0.857    0.000    4.000 
#    0.000    0.000    0.000    0.000    0.000    0.000 
#
# Total GULP energy -694007.187873 kJ/mol
# GULP energy per Si atom -12392.985498 kJ/mol
# Density = 1.846256 g / cm^3
# Si number density = 18.504675 Si / 1000 Ang^3
#
#
#
# Elastic Constant Matrix: (Units=GPa)
#
#
# Indices 1 2 3 4 5 6 
#
# 1 97.3580 31.6733 43.4545 0.0000 0.0000 0.0000
# 2 31.6733 48.6783 50.8918 0.0000 0.0000 0.0000
# 3 43.4545 50.8918 120.2759 0.0000 0.0000 0.0000
# 4 0.0000 0.0000 0.0000 2.2454 0.0000 0.0000
# 5 0.0000 0.0000 0.0000 0.0000 32.5900 0.0000
# 6 0.0000 0.0000 0.0000 0.0000 0.0000 22.9934
#
#
#
# Elastic Compliance Matrix: (Units=1/GPa)
#
#
# Indices 1 2 3 4 5 6 
#
# 1 0.013306 -0.006513 -0.002052 0.000000 0.000000 0.000000
# 2 -0.006513 0.040028 -0.014584 0.000000 0.000000 0.000000
# 3 -0.002052 -0.014584 0.015226 0.000000 0.000000 0.000000
# 4 0.000000 0.000000 0.000000 0.445361 0.000000 0.000000
# 5 0.000000 0.000000 0.000000 0.000000 0.030684 0.000000
# 6 0.000000 0.000000 0.000000 0.000000 0.000000 0.043491
#
#
# Mechanical properties :
#
#
# Convention : Reuss Voigt Hill
#
# Bulk Modulus (GPa) = 44.91665 57.59460 51.25563
# Shear Modulus (GPa) = 7.79043 20.91858 14.35451
#
# Velocity S-wave (km/s) = 2.05405 3.36586 2.78820
# Velocity P-wave (km/s) = 5.47278 6.80421 6.17449
#
# Compressibility (1/GPa) = 0.02226346
#
# Stress axis : x y z
#
# Youngs Moduli (GPa) = 75.15483 24.98282 65.67668
#
# Poissons Ratio (x) = 0.16271 0.13474
# Poissons Ratio (y) = 0.48947 0.95780
# Poissons Ratio (z) = 0.15418 0.36434
#
# Static dielectric constant tensor:
#      x y z
#    x 3.576370 0.000000 0.000000 
#    y 0.000000 3.080500 0.000000 
#    z 0.000000 0.000000 3.657790 
# 
# 
# High freq. dielectric constant tensor:
#      x y z
#    x 1.732750 0.000000 0.000000 
#    y 0.000000 1.672830 0.000000 
#    z 0.000000 0.000000 1.728310 
# 
# From -- ./inp_files/21939.got.cif
#   From: 2010.03.12/outbox.cif.g09.slc.cpg/sg51_11_cif.got.tgz:21939.got - 2010.04.16 13:43:02.
