data_PCOD8206906
_publ_section_title
;
Structure prediction by ZEFSAII (Michael W. Deem and Ramdas Pophale) SiO2 
 PCOD8206906
Probable space group: P M M A
;
_chemical_formula_sum "Si O2"
_cell_formula_units_Z 48
_cell_length_a 18.173713
_cell_length_b 8.754114
_cell_length_c 16.115100
_cell_angle_alpha 90.000000
_cell_angle_beta 90.000000
_cell_angle_gamma 90.000000
_cell_volume 2563.827893
_symmetry_space_group_name_H-M "P M M A"
_symmetry_group_IT_number 51
_symmetry_cell_setting 'orthorhombic'
loop_
_space_group_symop_operation_xyz
x,y,z
1/2-x,-y,z
1/2+x,-y,-z
-x,y,-z
-x,-y,-z
1/2+x,y,-z
1/2-x,y,z
x,-y,z
loop_
_atom_site_type_symbol
_atom_site_label
_atom_site_fract_x
_atom_site_fract_y
_atom_site_fract_z
Si Si1 0.885625 0.182007 0.112175
Si Si2 0.750000 0.675531 0.395920
Si Si3 0.386419 0.820953 0.527769
Si Si4 0.527675 0.822173 0.630339
Si Si5 0.333180 0.818161 0.066178
Si Si6 0.750000 0.819655 0.218881
Si Si7 0.539084 0.182597 0.814454
O O1 0.823459 0.245477 0.175042
O O2 0.965747 0.244323 0.139360
O O3 0.886245 0.000000 0.112708
O O4 0.865488 0.243299 0.020755
O O5 0.750000 0.500000 0.369748
O O6 0.681380 0.714228 0.453067
O O7 0.750000 0.777893 0.314505
O O8 0.444662 0.792661 0.601218
O O9 0.416775 0.759475 0.439536
O O10 0.365126 0.000000 0.523923
O O11 0.541031 0.748461 0.720973
O O12 0.542749 0.000000 0.637167
O O13 0.250000 0.755750 0.080789
O O14 0.387665 0.758934 0.138528
O O15 0.331518 0.000000 0.064720
O O16 0.750000 0.000000 0.210271
O O17 0.536481 0.000000 0.812832
#
# Coordination Sequence:
#
# PCOD8206906 Si02
#       7
#     8   4   8   8   8   4   8
#     4   9  15  24  40  62  88 123 162 192 228 284
#     4  12  24  34  46  73 104 126 158 199 244 300
#     4   9  17  33  54  71  96 129 162 203 247 293
#     4   8  15  29  49  72  93 122 168 209 242 286
#     4   9  15  23  32  52  94 135 157 181 230 289
#     4  10  18  30  50  69  90 122 162 203 242 286
#     4   9  15  22  36  60  90 124 158 194 235 279
#
# _framework density 18.722006
#
# number of rings (size 3 to 8) (size 9 to 14) (size 15 to 20)
#    0.000    2.833    0.833    3.250    0.000    4.667 
#    1.500    1.667    0.000    0.000    0.000    0.000 
#    0.000   13.333    0.000    0.000    0.000    0.000 
#
# Total GULP energy -594952.866842 kJ/mol
# GULP energy per Si atom -12394.851393 kJ/mol
# Density = 1.867939 g / cm^3
# Si number density = 18.722006 Si / 1000 Ang^3
#
#
#
# Elastic Constant Matrix: (Units=GPa)
#
#
# Indices 1 2 3 4 5 6 
#
# 1 140.2068 8.6277 81.5062 0.0000 0.0000 0.0000
# 2 8.6277 7.3540 5.9686 0.0000 0.0000 0.0000
# 3 81.5062 5.9686 142.7300 0.0000 0.0000 0.0000
# 4 0.0000 0.0000 0.0000 1.3956 0.0000 0.0000
# 5 0.0000 0.0000 0.0000 0.0000 28.1655 0.0000
# 6 0.0000 0.0000 0.0000 0.0000 0.0000 -1.7417
#
#
#
# Elastic Compliance Matrix: (Units=1/GPa)
#
#
# Indices 1 2 3 4 5 6 
#
# 1 0.011132 -0.008178 -0.006015 0.000000 0.000000 0.000000
# 2 -0.008178 0.146767 -0.001467 0.000000 0.000000 0.000000
# 3 -0.006015 -0.001467 0.010503 0.000000 0.000000 0.000000
# 4 0.000000 0.000000 0.000000 0.716515 0.000000 0.000000
# 5 0.000000 0.000000 0.000000 0.000000 0.035504 0.000000
# 6 0.000000 0.000000 0.000000 0.000000 0.000000 -0.574139
#
#
# Mechanical properties :
#
#
# Convention : Reuss Voigt Hill
#
# Bulk Modulus (GPa) = 7.29500 53.61065 30.45283
# Shear Modulus (GPa) = 11.81205 18.50977 15.16091
#
# Velocity S-wave (km/s) = 2.51453 3.14771 2.84877
# Velocity P-wave (km/s) = 3.51219 6.47364 5.20786
#
# Compressibility (1/GPa) = 0.13708016
#
# Stress axis : x y z
#
# Youngs Moduli (GPa) = 89.82814 6.81354 95.21492
#
# Poissons Ratio (x) = 0.05572 0.57273
# Poissons Ratio (y) = 0.73466 0.13969
# Poissons Ratio (z) = 0.54033 0.01000
#
# Static dielectric constant tensor:
#      x y z
#    x 3.639330 0.000000 0.000000 
#    y 0.000000 2.604720 0.000000 
#    z 0.000000 0.000000 3.847240 
# 
# 
# High freq. dielectric constant tensor:
#      x y z
#    x 1.736880 0.000000 0.000000 
#    y 0.000000 1.640460 0.000000 
#    z 0.000000 0.000000 1.739260 
# 
# From -- ./inp_files/24888.got.cif
#   From: 2010.03.12/outbox.cif.g09.slc.cpg/sg51_13_cif.got.tgz:24888.got - 2010.04.16 13:43:02.
