data_PCOD8206195
_publ_section_title
;
Structure prediction by ZEFSAII (Michael W. Deem and Ramdas Pophale) SiO2 
 PCOD8206195
Probable space group: P M M A
;
_chemical_formula_sum "Si O2"
_cell_formula_units_Z 48
_cell_length_a 20.474815
_cell_length_b 8.969587
_cell_length_c 14.631531
_cell_angle_alpha 90.000000
_cell_angle_beta 90.000000
_cell_angle_gamma 90.000000
_cell_volume 2687.089951
_symmetry_space_group_name_H-M "P M M A"
_symmetry_group_IT_number 51
_symmetry_cell_setting 'orthorhombic'
loop_
_space_group_symop_operation_xyz
x,y,z
1/2-x,-y,z
1/2+x,-y,-z
-x,y,-z
-x,-y,-z
1/2+x,y,-z
1/2-x,y,z
x,-y,z
loop_
_atom_site_type_symbol
_atom_site_label
_atom_site_fract_x
_atom_site_fract_y
_atom_site_fract_z
Si Si1 0.175776 0.828070 0.565872
Si Si2 0.822438 0.322611 0.061254
Si Si3 0.439256 0.322189 0.059673
Si Si4 0.872939 0.322721 0.256724
Si Si5 0.979523 0.323652 0.745151
Si Si6 0.566421 0.324404 0.550205
O O1 0.250000 0.807505 0.531474
O O2 0.169093 0.747449 0.662752
O O3 0.128587 0.758076 0.490384
O O4 0.157492 0.000000 0.578301
O O5 0.750000 0.262735 0.038126
O O6 0.824034 0.500000 0.061037
O O7 0.843414 0.266183 0.161161
O O8 0.872390 0.260345 0.984886
O O9 0.439315 0.500000 0.059326
O O10 0.445330 0.259967 0.163160
O O11 0.500000 0.263270 0.000000
O O12 0.869439 0.500000 0.266075
O O13 0.946949 0.262621 0.263885
O O14 0.984212 0.500000 0.752776
O O15 0.938016 0.276898 0.656498
O O16 0.500000 0.274354 0.500000
O O17 0.576822 0.500000 0.537433
#
# Coordination Sequence:
#
# PCOD8206195 Si02
#       6
#     8   8   8   8   8   8
#     4  11  24  38  51  73 105 137 170 210 259 311
#     4   9  16  24  39  68 101 131 163 199 243 296
#     4   9  14  23  40  64 100 135 158 191 244 298
#     4  10  17  30  52  76 102 129 164 210 255 303
#     4   9  16  27  46  74 101 129 166 206 250 297
#     4  10  19  34  55  77 103 133 170 214 255 302
#
# _framework density 17.863191
#
# number of rings (size 3 to 8) (size 9 to 14) (size 15 to 20)
#    0.000    2.333    3.333    1.000    0.000    2.333 
#    0.000    0.833    0.000    3.000    0.000    3.500 
#    0.000    2.667    0.000    0.000    0.000    0.000 
#
# Total GULP energy -595100.534706 kJ/mol
# GULP energy per Si atom -12397.927806 kJ/mol
# Density = 1.782253 g / cm^3
# Si number density = 17.863191 Si / 1000 Ang^3
#
#
#
# Elastic Constant Matrix: (Units=GPa)
#
#
# Indices 1 2 3 4 5 6 
#
# 1 142.0059 29.6261 75.4637 0.0000 0.0000 0.0000
# 2 29.6261 28.7218 26.6961 0.0000 0.0000 0.0000
# 3 75.4637 26.6961 151.4660 0.0000 0.0000 0.0000
# 4 0.0000 0.0000 0.0000 1.2100 0.0000 0.0000
# 5 0.0000 0.0000 0.0000 0.0000 32.9626 0.0000
# 6 0.0000 0.0000 0.0000 0.0000 0.0000 15.0224
#
#
#
# Elastic Compliance Matrix: (Units=1/GPa)
#
#
# Indices 1 2 3 4 5 6 
#
# 1 0.010717 -0.007285 -0.004055 0.000000 0.000000 0.000000
# 2 -0.007285 0.046590 -0.004582 0.000000 0.000000 0.000000
# 3 -0.004055 -0.004582 0.009430 0.000000 0.000000 0.000000
# 4 0.000000 0.000000 0.000000 0.826426 0.000000 0.000000
# 5 0.000000 0.000000 0.000000 0.000000 0.030337 0.000000
# 6 0.000000 0.000000 0.000000 0.000000 0.000000 0.066567
#
#
# Mechanical properties :
#
#
# Convention : Reuss Voigt Hill
#
# Bulk Modulus (GPa) = 28.65967 65.08506 46.87236
# Shear Modulus (GPa) = 4.83773 22.53286 13.68530
#
# Velocity S-wave (km/s) = 1.64745 3.55549 2.77088
# Velocity P-wave (km/s) = 4.43820 7.30546 6.04431
#
# Compressibility (1/GPa) = 0.03489224
#
# Stress axis : x y z
#
# Youngs Moduli (GPa) = 93.31086 21.46392 106.04200
#
# Poissons Ratio (x) = 0.15636 0.43004
# Poissons Ratio (y) = 0.67976 0.48589
# Poissons Ratio (z) = 0.37841 0.09835
#
# Static dielectric constant tensor:
#      x y z
#    x 3.455780 0.000000 0.000000 
#    y 0.000000 2.750690 0.000000 
#    z 0.000000 0.000000 3.564860 
# 
# 
# High freq. dielectric constant tensor:
#      x y z
#    x 1.694460 0.000000 0.000000 
#    y 0.000000 1.631460 0.000000 
#    z 0.000000 0.000000 1.699650 
# 
# From -- ./inp_files/25471.got.cif
#   From: 2010.03.12/outbox.cif.g09.slc.cpg/sg51_13_cif.got.tgz:25471.got - 2010.04.16 13:43:02.
