data_PCOD8206209
_publ_section_title
;
Structure prediction by ZEFSAII (Michael W. Deem and Ramdas Pophale) SiO2 
 PCOD8206209
Probable space group: P M M A
;
_chemical_formula_sum "Si O2"
_cell_formula_units_Z 48
_cell_length_a 18.450579
_cell_length_b 14.518536
_cell_length_c 10.094116
_cell_angle_alpha 90.000000
_cell_angle_beta 90.000000
_cell_angle_gamma 90.000000
_cell_volume 2703.965315
_symmetry_space_group_name_H-M "P M M A"
_symmetry_group_IT_number 51
_symmetry_cell_setting 'orthorhombic'
loop_
_space_group_symop_operation_xyz
x,y,z
1/2-x,-y,z
1/2+x,-y,-z
-x,y,-z
-x,-y,-z
1/2+x,y,-z
1/2-x,y,z
x,-y,z
loop_
_atom_site_type_symbol
_atom_site_label
_atom_site_fract_x
_atom_site_fract_y
_atom_site_fract_z
Si Si1 0.971627 0.399852 0.709289
Si Si2 0.913792 0.101239 0.005171
Si Si3 0.581693 0.788712 0.756570
Si Si4 0.434050 0.890830 0.706451
Si Si5 0.831609 0.210434 0.493975
Si Si6 0.612883 0.399459 0.435678
O O1 0.955648 0.500000 0.776303
O O2 0.057849 0.388250 0.687742
O O3 0.941736 0.315538 0.796771
O O4 0.933466 0.394381 0.568281
O O5 0.884671 0.168875 0.891069
O O6 0.881293 0.000000 0.976621
O O7 0.893605 0.133420 0.154190
O O8 0.000000 0.097647 0.000000
O O9 0.512678 0.843492 0.698699
O O10 0.644105 0.790114 0.646710
O O11 0.384162 0.855781 0.588076
O O12 0.446169 0.000000 0.693598
O O13 0.750000 0.172390 0.485243
O O14 0.831460 0.314540 0.435098
O O15 0.652219 0.500000 0.426372
#
# Coordination Sequence:
#
# PCOD8206209 Si02
#       6
#     8   8   8   8   8   8
#     4   8  13  23  45  74  98 122 154 195 241 283
#     4   8  16  31  52  74  91 118 165 207 236 283
#     4  10  17  31  54  75  96 125 160 205 245 283
#     4  10  20  35  53  70  93 130 168 200 243 296
#     4  11  22  32  46  75 105 127 159 201 245 288
#     4   8  14  27  45  67  97 129 160 192 231 282
#
# _framework density 17.751705999999999
#
# number of rings (size 3 to 8) (size 9 to 14) (size 15 to 20)
#    0.000    2.833    1.667    3.000    0.000    2.667 
#    0.000    0.833    0.000    6.500    0.000    0.000 
#    0.000    2.667    0.000    0.000    0.000    0.000 
#
# Total GULP energy -594748.680865 kJ/mol
# GULP energy per Si atom -12390.597518 kJ/mol
# Density = 1.771130 g / cm^3
# Si number density = 17.751706 Si / 1000 Ang^3
#
#
#
# Elastic Constant Matrix: (Units=GPa)
#
#
# Indices 1 2 3 4 5 6 
#
# 1 47.0657 12.6328 4.4988 0.0000 0.0000 0.0000
# 2 12.6328 105.2175 28.0074 0.0000 0.0000 0.0000
# 3 4.4988 28.0074 56.3128 0.0000 0.0000 0.0000
# 4 0.0000 0.0000 0.0000 15.9249 0.0000 0.0000
# 5 0.0000 0.0000 0.0000 0.0000 8.1637 0.0000
# 6 0.0000 0.0000 0.0000 0.0000 0.0000 8.8218
#
#
#
# Elastic Compliance Matrix: (Units=1/GPa)
#
#
# Indices 1 2 3 4 5 6 
#
# 1 0.021967 -0.002501 -0.000511 0.000000 0.000000 0.000000
# 2 -0.002501 0.011239 -0.005390 0.000000 0.000000 0.000000
# 3 -0.000511 -0.005390 0.020480 0.000000 0.000000 0.000000
# 4 0.000000 0.000000 0.000000 0.062795 0.000000 0.000000
# 5 0.000000 0.000000 0.000000 0.000000 0.122493 0.000000
# 6 0.000000 0.000000 0.000000 0.000000 0.000000 0.113356
#
#
# Mechanical properties :
#
#
# Convention : Reuss Voigt Hill
#
# Bulk Modulus (GPa) = 27.11408 33.20822 30.16115
# Shear Modulus (GPa) = 13.10864 17.47921 15.29392
#
# Velocity S-wave (km/s) = 2.72038 3.14132 2.93840
# Velocity P-wave (km/s) = 5.01742 5.64844 5.34225
#
# Compressibility (1/GPa) = 0.03688121
#
# Stress axis : x y z
#
# Youngs Moduli (GPa) = 45.52252 88.97421 48.82925
#
# Poissons Ratio (x) = 0.22257 0.02494
# Poissons Ratio (y) = 0.11387 0.26319
# Poissons Ratio (z) = 0.02325 0.47957
#
# Static dielectric constant tensor:
#      x y z
#    x 2.793890 0.000000 0.000000 
#    y 0.000000 3.754390 0.000000 
#    z 0.000000 0.000000 3.288070 
# 
# 
# High freq. dielectric constant tensor:
#      x y z
#    x 1.635200 0.000000 0.000000 
#    y 0.000000 1.704730 0.000000 
#    z 0.000000 0.000000 1.660470 
# 
# From -- ./inp_files/17389.got.cif
#   From: 2010.03.12/outbox.cif.g09.slc.cpg/sg51_9_cif.got.tgz:17389.got - 2010.04.16 13:43:02.
