data_PCOD8206572
_publ_section_title
;
Structure prediction by ZEFSAII (Michael W. Deem and Ramdas Pophale) SiO2 
 PCOD8206572
Probable space group: P M M A
;
_chemical_formula_sum "Si O2"
_cell_formula_units_Z 64
_cell_length_a 9.078449
_cell_length_b 26.385970
_cell_length_c 18.331626
_cell_angle_alpha 90.000000
_cell_angle_beta 90.000000
_cell_angle_gamma 90.000000
_cell_volume 4391.225207
_symmetry_space_group_name_H-M "P M M A"
_symmetry_group_IT_number 51
_symmetry_cell_setting 'orthorhombic'
loop_
_space_group_symop_operation_xyz
x,y,z
1/2-x,-y,z
1/2+x,-y,-z
-x,y,-z
-x,-y,-z
1/2+x,y,-z
1/2-x,y,z
x,-y,z
loop_
_atom_site_type_symbol
_atom_site_label
_atom_site_fract_x
_atom_site_fract_y
_atom_site_fract_z
Si Si1 0.417332 0.744736 0.073992
Si Si2 0.076910 0.649364 0.169513
Si Si3 0.422842 0.442922 0.074802
Si Si4 0.918443 0.296867 0.286806
Si Si5 0.421897 0.941493 0.575163
Si Si6 0.584217 0.208087 0.783150
Si Si7 0.579548 0.856351 0.653017
Si Si8 0.923837 0.762366 0.424741
O O1 0.250000 0.735836 0.051427
O O2 0.476436 0.694194 0.114999
O O3 0.435695 0.793376 0.128838
O O4 0.500000 0.756834 0.000000
O O5 0.250000 0.650862 0.178967
O O6 0.023424 0.595434 0.137736
O O7 0.009285 0.656882 0.250617
O O8 0.250000 0.437626 0.061378
O O9 0.466308 0.500000 0.098463
O O10 0.500000 0.427256 0.000000
O O11 0.750000 0.309188 0.271725
O O12 0.948617 0.286811 0.372590
O O13 0.960682 0.244936 0.247385
O O14 0.500000 0.926056 0.500000
O O15 0.250000 0.928999 0.568363
O O16 0.495475 0.908947 0.639444
O O17 0.449844 0.000000 0.594198
O O18 0.750000 0.229803 0.767045
O O19 0.566454 0.154786 0.740463
O O20 0.750000 0.860795 0.629212
O O21 0.503544 0.812125 0.606383
O O22 0.750000 0.773932 0.433934
O O23 0.000000 0.747145 0.500000
#
# Coordination Sequence:
#
# PCOD8206572 Si02
#       8
#     8   8   8   8   8   8   8   8
#     4   9  16  25  37  55  78 103 132 161 191 229
#     4   9  17  28  40  54  77 108 136 163 198 238
#     4   9  17  28  41  58  80 106 137 171 203 235
#     4   9  17  27  40  58  77  99 131 167 195 227
#     4  10  20  32  44  59  81 107 135 168 201 232
#     4   8  16  29  41  55  78 106 132 160 196 236
#     4  10  18  29  45  60  78 107 138 166 197 233
#     4  10  19  29  41  59  82 106 133 163 195 234
#
# _framework density 14.57452
#
# number of rings (size 3 to 8) (size 9 to 14) (size 15 to 20)
#    0.000    2.750    0.000    3.000    0.000    5.250 
#    0.000    0.000    0.000    0.000    0.000    0.000 
#    0.000    1.000    0.000    2.250    0.000    3.750 
#
# Total GULP energy -793059.329051 kJ/mol
# GULP energy per Si atom -12391.552016 kJ/mol
# Density = 1.454135 g / cm^3
# Si number density = 14.574520 Si / 1000 Ang^3
#
#
#
# Elastic Constant Matrix: (Units=GPa)
#
#
# Indices 1 2 3 4 5 6 
#
# 1 66.5872 36.7836 46.8493 0.0000 0.0000 0.0000
# 2 36.7836 75.5219 50.3751 0.0000 0.0000 0.0000
# 3 46.8493 50.3751 99.1614 0.0000 0.0000 0.0000
# 4 0.0000 0.0000 0.0000 26.2895 0.0000 0.0000
# 5 0.0000 0.0000 0.0000 0.0000 25.2311 0.0000
# 6 0.0000 0.0000 0.0000 0.0000 0.0000 18.9010
#
#
#
# Elastic Compliance Matrix: (Units=1/GPa)
#
#
# Indices 1 2 3 4 5 6 
#
# 1 0.024345 -0.006330 -0.008286 0.000000 0.000000 0.000000
# 2 -0.006330 0.021674 -0.008020 0.000000 0.000000 0.000000
# 3 -0.008286 -0.008020 0.018073 0.000000 0.000000 0.000000
# 4 0.000000 0.000000 0.000000 0.038038 0.000000 0.000000
# 5 0.000000 0.000000 0.000000 0.000000 0.039634 0.000000
# 6 0.000000 0.000000 0.000000 0.000000 0.000000 0.052907
#
#
# Mechanical properties :
#
#
# Convention : Reuss Voigt Hill
#
# Bulk Modulus (GPa) = 53.13519 56.58741 54.86130
# Shear Modulus (GPa) = 20.30739 21.23516 20.77128
#
# Velocity S-wave (km/s) = 3.73681 3.82122 3.77925
# Velocity P-wave (km/s) = 7.42664 7.64065 7.53440
#
# Compressibility (1/GPa) = 0.01881992
#
# Stress axis : x y z
#
# Youngs Moduli (GPa) = 41.07689 46.13859 55.33000
#
# Poissons Ratio (x) = 0.29207 0.45846
# Poissons Ratio (y) = 0.26003 0.44373
# Poissons Ratio (z) = 0.34036 0.37002
#
# Static dielectric constant tensor:
#      x y z
#    x 2.923800 0.000000 0.000000 
#    y 0.000000 2.751400 0.000000 
#    z 0.000000 0.000000 2.960850 
# 
# 
# High freq. dielectric constant tensor:
#      x y z
#    x 1.569860 0.000000 0.000000 
#    y 0.000000 1.522100 0.000000 
#    z 0.000000 0.000000 1.545500 
# 
# From -- ./inp_files/28702.got.cif
#   From: 2010.03.12/outbox.cif.g09.slc.cpg/sg51_15_cif.got.tgz:28702.got - 2010.04.16 13:43:02.
