data_PCOD8206222
_publ_section_title
;
Structure prediction by ZEFSAII (Michael W. Deem and Ramdas Pophale) SiO2 
 PCOD8206222
Probable space group: P M M A
;
_chemical_formula_sum "Si O2"
_cell_formula_units_Z 56
_cell_length_a 19.056114
_cell_length_b 16.781136
_cell_length_c 9.554917
_cell_angle_alpha 90.000000
_cell_angle_beta 90.000000
_cell_angle_gamma 90.000000
_cell_volume 3055.502323
_symmetry_space_group_name_H-M "P M M A"
_symmetry_group_IT_number 51
_symmetry_cell_setting 'orthorhombic'
loop_
_space_group_symop_operation_xyz
x,y,z
1/2-x,-y,z
1/2+x,-y,-z
-x,y,-z
-x,-y,-z
1/2+x,y,-z
1/2-x,y,z
x,-y,z
loop_
_atom_site_type_symbol
_atom_site_label
_atom_site_fract_x
_atom_site_fract_y
_atom_site_fract_z
Si Si1 0.409399 0.258930 0.100984
Si Si2 0.938080 0.294337 0.198737
Si Si3 0.452290 0.857585 0.628368
Si Si4 0.328508 0.698634 0.366036
Si Si5 0.829972 0.122989 0.550950
Si Si6 0.422218 0.591055 0.556750
Si Si7 0.922888 0.086391 0.803528
O O1 0.480089 0.297386 0.161189
O O2 0.348549 0.287381 0.203919
O O3 0.417050 0.161922 0.092695
O O4 0.393292 0.290913 0.945296
O O5 0.921337 0.216633 0.288315
O O6 0.915527 0.371013 0.288514
O O7 0.500000 0.824577 0.500000
O O8 0.384008 0.906095 0.570788
O O9 0.502257 0.912147 0.723431
O O10 0.250000 0.666149 0.366877
O O11 0.335096 0.781495 0.448215
O O12 0.374116 0.632721 0.442074
O O13 0.750000 0.093791 0.523480
O O14 0.857120 0.088239 0.697432
O O15 0.500000 0.599824 0.500000
O O16 0.398445 0.500000 0.571054
O O17 0.919668 0.000000 0.882050
#
# Coordination Sequence:
#
# PCOD8206222 Si02
#       7
#     8   8   8   8   8   8   8
#     4   9  19  33  54  78 106 145 186 219 266 322
#     4  10  17  33  55  79 107 140 179 228 264 315
#     4   9  16  28  50  71 101 140 174 218 269 315
#     4  10  19  35  55  77 110 146 183 223 264 328
#     4   9  17  28  48  75  98 134 180 220 265 315
#     4  11  21  34  58  87 110 138 177 226 277 320
#     4   9  18  31  48  72 103 138 177 221 269 319
#
# _framework density 18.327591000000002
#
# number of rings (size 3 to 8) (size 9 to 14) (size 15 to 20)
#    0.000    2.429    2.857    1.286    0.000    3.143 
#    0.000    9.286    0.000    0.000    0.000    0.000 
#    0.000    6.857    0.000    0.000    0.000    0.000 
#
# Total GULP energy -694051.968932 kJ/mol
# GULP energy per Si atom -12393.785159 kJ/mol
# Density = 1.828588 g / cm^3
# Si number density = 18.327591 Si / 1000 Ang^3
#
#
#
# Elastic Constant Matrix: (Units=GPa)
#
#
# Indices 1 2 3 4 5 6 
#
# 1 91.9091 25.4562 18.9206 0.0000 0.0000 0.0000
# 2 25.4562 117.4205 42.8307 0.0000 0.0000 0.0000
# 3 18.9206 42.8307 92.3592 0.0000 0.0000 0.0000
# 4 0.0000 0.0000 0.0000 11.3002 0.0000 0.0000
# 5 0.0000 0.0000 0.0000 0.0000 17.2224 0.0000
# 6 0.0000 0.0000 0.0000 0.0000 0.0000 4.4508
#
#
#
# Elastic Compliance Matrix: (Units=1/GPa)
#
#
# Indices 1 2 3 4 5 6 
#
# 1 0.011740 -0.002007 -0.001474 0.000000 0.000000 0.000000
# 2 -0.002007 0.010594 -0.004501 0.000000 0.000000 0.000000
# 3 -0.001474 -0.004501 0.013217 0.000000 0.000000 0.000000
# 4 0.000000 0.000000 0.000000 0.088494 0.000000 0.000000
# 5 0.000000 0.000000 0.000000 0.000000 0.058064 0.000000
# 6 0.000000 0.000000 0.000000 0.000000 0.000000 0.224677
#
#
# Mechanical properties :
#
#
# Convention : Reuss Voigt Hill
#
# Bulk Modulus (GPa) = 51.06149 52.90044 51.98097
# Shear Modulus (GPa) = 11.64744 20.89344 16.27044
#
# Velocity S-wave (km/s) = 2.52367 3.38005 2.98276
# Velocity P-wave (km/s) = 6.03431 6.64526 6.34714
#
# Compressibility (1/GPa) = 0.01958423
#
# Stress axis : x y z
#
# Youngs Moduli (GPa) = 85.18054 94.39699 75.66153
#
# Poissons Ratio (x) = 0.18950 0.11153
# Poissons Ratio (y) = 0.17100 0.34058
# Poissons Ratio (z) = 0.12556 0.42492
#
# Static dielectric constant tensor:
#      x y z
#    x 3.376100 0.000000 0.000000 
#    y 0.000000 3.249790 0.000000 
#    z 0.000000 0.000000 3.359210 
# 
# 
# High freq. dielectric constant tensor:
#      x y z
#    x 1.696400 0.000000 0.000000 
#    y 0.000000 1.693890 0.000000 
#    z 0.000000 0.000000 1.694920 
# 
# From -- ./inp_files/11109.got.cif
#   From: 2010.03.12/outbox.cif.g09.slc.cpg/sg51_6_cif.got.tgz:11109.got - 2010.04.16 13:43:02.
