data_PCOD8206336
_publ_section_title
;
Structure prediction by ZEFSAII (Michael W. Deem and Ramdas Pophale) SiO2 
 PCOD8206336
Probable space group: P M M A
;
_chemical_formula_sum "Si O2"
_cell_formula_units_Z 64
_cell_length_a 13.947011
_cell_length_b 9.230512
_cell_length_c 32.139904
_cell_angle_alpha 90.000000
_cell_angle_beta 90.000000
_cell_angle_gamma 90.000000
_cell_volume 4137.628645
_symmetry_space_group_name_H-M "P M M A"
_symmetry_group_IT_number 51
_symmetry_cell_setting 'orthorhombic'
loop_
_space_group_symop_operation_xyz
x,y,z
1/2-x,-y,z
1/2+x,-y,-z
-x,y,-z
-x,-y,-z
1/2+x,y,-z
1/2-x,y,z
x,-y,z
loop_
_atom_site_type_symbol
_atom_site_label
_atom_site_fract_x
_atom_site_fract_y
_atom_site_fract_z
Si Si1 0.960276 0.328583 0.065053
Si Si2 0.363554 0.336369 0.526585
Si Si3 0.859522 0.827081 0.138549
Si Si4 0.855798 0.328394 0.982453
Si Si5 0.863427 0.158123 0.228675
Si Si6 0.142241 0.166648 0.446082
Si Si7 0.958749 0.167977 0.399300
Si Si8 0.357835 0.172897 0.682497
O O1 0.952132 0.500000 0.072353
O O2 0.931879 0.245701 0.106584
O O3 0.069133 0.281596 0.053289
O O4 0.891093 0.275962 0.027752
O O5 0.250000 0.330971 0.527065
O O6 0.402620 0.500000 0.526826
O O7 0.399873 0.259632 0.484339
O O8 0.399183 0.254305 0.566932
O O9 0.750000 0.782347 0.128081
O O10 0.889497 0.765361 0.184659
O O11 0.869952 0.000000 0.137229
O O12 0.750000 0.263081 0.973136
O O13 0.852048 0.500000 0.983635
O O14 0.750000 0.138380 0.229970
O O15 0.892820 0.237698 0.272304
O O16 0.912487 0.000000 0.227993
O O17 0.250000 0.214377 0.433304
O O18 0.072631 0.191426 0.406525
O O19 0.140763 0.000000 0.460466
O O20 0.930241 0.226446 0.353514
O O21 0.930131 0.000000 0.403595
O O22 0.250000 0.226567 0.671662
O O23 0.358398 0.000000 0.686280
#
# Coordination Sequence:
#
# PCOD8206336 Si02
#       8
#     8   8   8   8   8   8   8   8
#     4   9  16  25  40  60  77  99 134 169 197 228
#     4  10  20  31  42  58  81 107 131 155 187 229
#     4   9  16  25  38  57  81 107 132 159 193 231
#     4   8  14  25  39  55  78 106 133 162 197 235
#     4   7  11  21  36  54  77 103 127 151 184 229
#     4   9  18  31  43  56  78 105 131 162 196 224
#     4  10  18  27  43  64  80  99 130 163 193 224
#     4   8  13  22  38  60  81  98 122 156 188 226
#
# _framework density 15.467798
#
# number of rings (size 3 to 8) (size 9 to 14) (size 15 to 20)
#    0.000    3.250    0.000    3.750    0.000    4.000 
#    0.000    1.250    0.000    1.875    0.000    2.625 
#    0.000    3.000    0.000    0.000    0.000    0.000 
#
# Total GULP energy -792859.209840 kJ/mol
# GULP energy per Si atom -12388.425154 kJ/mol
# Density = 1.543259 g / cm^3
# Si number density = 15.467798 Si / 1000 Ang^3
#
#
#
# Elastic Constant Matrix: (Units=GPa)
#
#
# Indices 1 2 3 4 5 6 
#
# 1 76.6807 19.7001 67.4731 0.0000 0.0000 0.0000
# 2 19.7001 30.5580 31.7622 0.0000 0.0000 0.0000
# 3 67.4731 31.7622 154.6786 0.0000 0.0000 0.0000
# 4 0.0000 0.0000 0.0000 -2.9598 0.0000 0.0000
# 5 0.0000 0.0000 0.0000 0.0000 24.1892 0.0000
# 6 0.0000 0.0000 0.0000 0.0000 0.0000 13.6116
#
#
#
# Elastic Compliance Matrix: (Units=1/GPa)
#
#
# Indices 1 2 3 4 5 6 
#
# 1 0.021821 -0.005306 -0.008429 0.000000 0.000000 0.000000
# 2 -0.005306 0.042895 -0.006493 0.000000 0.000000 0.000000
# 3 -0.008429 -0.006493 0.011475 0.000000 0.000000 0.000000
# 4 0.000000 0.000000 0.000000 -0.337861 0.000000 0.000000
# 5 0.000000 0.000000 0.000000 0.000000 0.041341 0.000000
# 6 0.000000 0.000000 0.000000 0.000000 0.000000 0.073467
#
#
# Mechanical properties :
#
#
# Convention : Reuss Voigt Hill
#
# Bulk Modulus (GPa) = 27.98487 55.53200 41.75843
# Shear Modulus (GPa) = -52.91445 16.50033 -18.20706
#
# Velocity S-wave (km/s) = -5.85523 3.26966 -3.43460
# Velocity P-wave (km/s) = 5.25166 7.08759 3.36555
#
# Compressibility (1/GPa) = 0.03573359
#
# Stress axis : x y z
#
# Youngs Moduli (GPa) = 45.82652 23.31276 87.14334
#
# Poissons Ratio (x) = 0.12371 0.73455
# Poissons Ratio (y) = 0.24318 0.56586
# Poissons Ratio (z) = 0.38628 0.15138
#
# Static dielectric constant tensor:
#      x y z
#    x 3.056040 0.000000 0.000000 
#    y 0.000000 2.660790 0.000000 
#    z 0.000000 0.000000 3.228880 
# 
# 
# High freq. dielectric constant tensor:
#      x y z
#    x 1.573930 0.000000 0.000000 
#    y 0.000000 1.556470 0.000000 
#    z 0.000000 0.000000 1.591950 
# 
# From -- ./inp_files/37828.got.cif
#   From: 2010.03.12/outbox.cif.g09.slc.cpg/sg51_19_cif.got.tgz:37828.got - 2010.04.16 13:43:02.
