data_PCOD8206362
_publ_section_title
;
Structure prediction by ZEFSAII (Michael W. Deem and Ramdas Pophale) SiO2 
 PCOD8206362
Probable space group: P M M A
;
_chemical_formula_sum "Si O2"
_cell_formula_units_Z 48
_cell_length_a 21.422979
_cell_length_b 8.731988
_cell_length_c 15.108635
_cell_angle_alpha 90.000000
_cell_angle_beta 90.000000
_cell_angle_gamma 90.000000
_cell_volume 2826.299761
_symmetry_space_group_name_H-M "P M M A"
_symmetry_group_IT_number 51
_symmetry_cell_setting 'orthorhombic'
loop_
_space_group_symop_operation_xyz
x,y,z
1/2-x,-y,z
1/2+x,-y,-z
-x,y,-z
-x,-y,-z
1/2+x,y,-z
1/2-x,y,z
x,-y,z
loop_
_atom_site_type_symbol
_atom_site_label
_atom_site_fract_x
_atom_site_fract_y
_atom_site_fract_z
Si Si1 0.955290 0.176966 0.389506
Si Si2 0.469591 0.175698 0.806151
Si Si3 0.677318 0.822023 0.689051
Si Si4 0.915589 0.320228 0.557900
Si Si5 0.071225 0.330238 0.969880
Si Si6 0.100476 0.680317 0.159535
O O1 0.934902 0.202340 0.287602
O O2 0.910010 0.273608 0.454231
O O3 0.026596 0.230591 0.399558
O O4 0.950645 0.000000 0.416385
O O5 0.421313 0.219988 0.884870
O O6 0.531003 0.279559 0.808435
O O7 0.490142 0.000000 0.817241
O O8 0.750000 0.784860 0.687368
O O9 0.646640 0.726387 0.609562
O O10 0.651134 0.771705 0.784182
O O11 0.663120 0.000000 0.674407
O O12 0.927102 0.500000 0.566482
O O13 0.092829 0.500000 0.941605
O O14 0.110462 0.274272 0.055800
O O15 0.000000 0.332952 0.000000
O O16 0.109705 0.500000 0.173708
#
# Coordination Sequence:
#
# PCOD8206362 Si02
#       6
#     8   8   8   8   8   8
#     4  10  19  31  48  70 101 132 161 199 246 295
#     4  10  18  27  45  71  98 130 161 192 235 288
#     4  11  23  37  52  70  95 129 166 205 249 295
#     4  11  21  32  49  71  95 127 165 203 246 294
#     4   8  16  28  42  64  95 127 156 190 234 278
#     4  10  19  31  47  67  95 128 161 200 240 284
#
# _framework density 16.983336999999999
#
# number of rings (size 3 to 8) (size 9 to 14) (size 15 to 20)
#    0.000    2.000    1.667    5.500    0.000    7.000 
#    0.000    0.000    0.000    0.000    0.000    1.167 
#    0.000    6.667    0.000    0.000    0.000    0.000 
#
# Total GULP energy -595053.017904 kJ/mol
# GULP energy per Si atom -12396.937873 kJ/mol
# Density = 1.694468 g / cm^3
# Si number density = 16.983337 Si / 1000 Ang^3
#
#
#
# Elastic Constant Matrix: (Units=GPa)
#
#
# Indices 1 2 3 4 5 6 
#
# 1 50.5343 18.3772 36.4135 0.0000 0.0000 0.0000
# 2 18.3772 49.5213 34.7485 0.0000 0.0000 0.0000
# 3 36.4135 34.7485 140.0242 0.0000 0.0000 0.0000
# 4 0.0000 0.0000 0.0000 31.5854 0.0000 0.0000
# 5 0.0000 0.0000 0.0000 0.0000 17.9594 0.0000
# 6 0.0000 0.0000 0.0000 0.0000 0.0000 12.3096
#
#
#
# Elastic Compliance Matrix: (Units=1/GPa)
#
#
# Indices 1 2 3 4 5 6 
#
# 1 0.025686 -0.005866 -0.005224 0.000000 0.000000 0.000000
# 2 -0.005866 0.025791 -0.004875 0.000000 0.000000 0.000000
# 3 -0.005224 -0.004875 0.009710 0.000000 0.000000 0.000000
# 4 0.000000 0.000000 0.000000 0.031660 0.000000 0.000000
# 5 0.000000 0.000000 0.000000 0.000000 0.055681 0.000000
# 6 0.000000 0.000000 0.000000 0.000000 0.000000 0.081237
#
#
# Mechanical properties :
#
#
# Convention : Reuss Voigt Hill
#
# Bulk Modulus (GPa) = 34.18025 46.57312 40.37669
# Shear Modulus (GPa) = 18.41977 22.40693 20.41335
#
# Velocity S-wave (km/s) = 3.29687 3.63622 3.47070
# Velocity P-wave (km/s) = 5.88744 6.71654 6.31561
#
# Compressibility (1/GPa) = 0.02925666
#
# Stress axis : x y z
#
# Youngs Moduli (GPa) = 38.93157 38.77340 102.98867
#
# Poissons Ratio (x) = 0.22746 0.53800
# Poissons Ratio (y) = 0.22839 0.50204
# Poissons Ratio (z) = 0.20337 0.18901
#
# Static dielectric constant tensor:
#      x y z
#    x 2.673320 0.000000 0.000000 
#    y 0.000000 3.290710 0.000000 
#    z 0.000000 0.000000 3.743220 
# 
# 
# High freq. dielectric constant tensor:
#      x y z
#    x 1.582920 0.000000 0.000000 
#    y 0.000000 1.670630 0.000000 
#    z 0.000000 0.000000 1.675370 
# 
# From -- ./inp_files/25476.got.cif
#   From: 2010.03.12/outbox.cif.g09.slc.cpg/sg51_13_cif.got.tgz:25476.got - 2010.04.16 13:43:02.
