data_PCOD8206258
_publ_section_title
;
Structure prediction by ZEFSAII (Michael W. Deem and Ramdas Pophale) SiO2 
 PCOD8206258
Probable space group: P M M A
;
_chemical_formula_sum "Si O2"
_cell_formula_units_Z 52
_cell_length_a 9.162653
_cell_length_b 26.607992
_cell_length_c 13.503113
_cell_angle_alpha 90.000000
_cell_angle_beta 90.000000
_cell_angle_gamma 90.000000
_cell_volume 3292.056218
_symmetry_space_group_name_H-M "P M M A"
_symmetry_group_IT_number 51
_symmetry_cell_setting 'orthorhombic'
loop_
_space_group_symop_operation_xyz
x,y,z
1/2-x,-y,z
1/2+x,-y,-z
-x,y,-z
-x,-y,-z
1/2+x,y,-z
1/2-x,y,z
x,-y,z
loop_
_atom_site_type_symbol
_atom_site_label
_atom_site_fract_x
_atom_site_fract_y
_atom_site_fract_z
Si Si1 0.578151 0.837992 0.894713
Si Si2 0.081408 0.053062 0.102318
Si Si3 0.575646 0.500000 0.606673
Si Si4 0.920450 0.251299 0.202590
Si Si5 0.079437 0.592873 0.700215
Si Si6 0.580183 0.353081 0.099420
Si Si7 0.418184 0.304474 0.597842
O O1 0.750000 0.829090 0.909481
O O2 0.543887 0.893432 0.845783
O O3 0.515565 0.797453 0.819409
O O4 0.500000 0.831819 0.000000
O O5 0.250000 0.053898 0.075248
O O6 0.044618 0.000000 0.161190
O O7 0.000000 0.051584 0.000000
O O8 0.750000 0.500000 0.593829
O O9 0.500000 0.500000 0.500000
O O10 0.525510 0.451991 0.669067
O O11 0.750000 0.239792 0.187067
O O12 0.969958 0.297346 0.132320
O O13 0.954615 0.265258 0.315691
O O14 0.250000 0.578451 0.687418
O O15 0.045789 0.606944 0.814131
O O16 0.037051 0.639621 0.630834
O O17 0.750000 0.352360 0.076612
O O18 0.500000 0.370223 0.000000
O O19 0.500000 0.287158 0.500000
O O20 0.250000 0.303564 0.571971
#
# Coordination Sequence:
#
# PCOD8206258 Si02
#       7
#     8   8   4   8   8   8   8
#     4  10  18  26  39  60  85 116 151 184 218 256
#     4   8  14  24  36  51  75 108 145 182 217 253
#     4  12  24  36  53  76  97 118 145 180 222 266
#     4   9  18  31  44  63  91 119 146 179 218 260
#     4   9  19  36  53  71  95 121 148 180 217 257
#     4   9  18  32  50  69  92 122 153 183 216 254
#     4   9  18  32  50  69  90 116 145 177 217 262
#
# _framework density 15.795598999999999
#
# number of rings (size 3 to 8) (size 9 to 14) (size 15 to 20)
#    0.000    2.769    0.000    3.923    0.000    5.538 
#    0.000    3.462    0.000    0.000    0.000    0.000 
#    0.000    0.615    0.000    1.385    0.000    2.462 
#
# Total GULP energy -644320.436858 kJ/mol
# GULP energy per Si atom -12390.777632 kJ/mol
# Density = 1.575965 g / cm^3
# Si number density = 15.795599 Si / 1000 Ang^3
#
#
#
# Elastic Constant Matrix: (Units=GPa)
#
#
# Indices 1 2 3 4 5 6 
#
# 1 66.7887 56.9469 41.0922 0.0000 0.0000 0.0000
# 2 56.9469 129.5390 43.4799 0.0000 0.0000 0.0000
# 3 41.0922 43.4799 84.3400 0.0000 0.0000 0.0000
# 4 0.0000 0.0000 0.0000 16.3027 0.0000 0.0000
# 5 0.0000 0.0000 0.0000 0.0000 28.6227 0.0000
# 6 0.0000 0.0000 0.0000 0.0000 0.0000 21.6058
#
#
#
# Elastic Compliance Matrix: (Units=1/GPa)
#
#
# Indices 1 2 3 4 5 6 
#
# 1 0.028712 -0.009585 -0.009048 0.000000 0.000000 0.000000
# 2 -0.009585 0.012535 -0.001792 0.000000 0.000000 0.000000
# 3 -0.009048 -0.001792 0.017189 0.000000 0.000000 0.000000
# 4 0.000000 0.000000 0.000000 0.061339 0.000000 0.000000
# 5 0.000000 0.000000 0.000000 0.000000 0.034937 0.000000
# 6 0.000000 0.000000 0.000000 0.000000 0.000000 0.046284
#
#
# Mechanical properties :
#
#
# Convention : Reuss Voigt Hill
#
# Bulk Modulus (GPa) = 56.86342 62.63395 59.74869
# Shear Modulus (GPa) = 20.18505 22.58284 21.38394
#
# Velocity S-wave (km/s) = 3.57864 3.78523 3.68338
# Velocity P-wave (km/s) = 7.29063 7.67091 7.48318
#
# Compressibility (1/GPa) = 0.01758600
#
# Stress axis : x y z
#
# Youngs Moduli (GPa) = 34.82859 79.77657 58.17756
#
# Poissons Ratio (x) = 0.76469 0.52636
# Poissons Ratio (y) = 0.33384 0.10425
# Poissons Ratio (z) = 0.31511 0.14296
#
# Static dielectric constant tensor:
#      x y z
#    x 2.961320 0.000000 0.000000 
#    y 0.000000 3.370980 0.000000 
#    z 0.000000 0.000000 2.898700 
# 
# 
# High freq. dielectric constant tensor:
#      x y z
#    x 1.610030 0.000000 0.000000 
#    y 0.000000 1.611750 0.000000 
#    z 0.000000 0.000000 1.575310 
# 
# From -- ./inp_files/14632.got.cif
#   From: 2010.03.12/outbox.cif.g09.slc.cpg/sg51_8_cif.got.tgz:14632.got - 2010.04.16 13:43:02.
