data_PCOD8206230
_publ_section_title
;
Structure prediction by ZEFSAII (Michael W. Deem and Ramdas Pophale) SiO2 
 PCOD8206230
Probable space group: P M M A
;
_chemical_formula_sum "Si O2"
_cell_formula_units_Z 64
_cell_length_a 25.167048
_cell_length_b 9.486095
_cell_length_c 18.420043
_cell_angle_alpha 90.000000
_cell_angle_beta 90.000000
_cell_angle_gamma 90.000000
_cell_volume 4397.545957
_symmetry_space_group_name_H-M "P M M A"
_symmetry_group_IT_number 51
_symmetry_cell_setting 'orthorhombic'
loop_
_space_group_symop_operation_xyz
x,y,z
1/2-x,-y,z
1/2+x,-y,-z
-x,y,-z
-x,-y,-z
1/2+x,y,-z
1/2-x,y,z
x,-y,z
loop_
_atom_site_type_symbol
_atom_site_label
_atom_site_fract_x
_atom_site_fract_y
_atom_site_fract_z
Si Si1 0.006406 0.832257 0.118319
Si Si2 0.418270 0.834319 0.992638
Si Si3 0.921491 0.842370 0.456221
Si Si4 0.309222 0.834711 0.931996
Si Si5 0.189607 0.339070 0.788163
Si Si6 0.493995 0.336822 0.266290
Si Si7 0.389935 0.660737 0.668164
Si Si8 0.039075 0.840856 0.393021
O O1 0.012235 0.746285 0.191778
O O2 0.952337 0.783301 0.077278
O O3 0.006871 0.000000 0.134422
O O4 0.056126 0.782485 0.068080
O O5 0.356149 0.787615 0.987408
O O6 0.423860 0.000000 0.992723
O O7 0.884346 0.742282 0.407994
O O8 0.922304 0.793319 0.540683
O O9 0.979966 0.837415 0.423475
O O10 0.898565 0.000000 0.451506
O O11 0.250000 0.796586 0.962664
O O12 0.320643 0.755333 0.857851
O O13 0.313124 0.000000 0.915637
O O14 0.250000 0.329254 0.761969
O O15 0.173639 0.500000 0.807266
O O16 0.153870 0.278664 0.723248
O O17 0.478174 0.500000 0.256000
O O18 0.553700 0.319712 0.293611
O O19 0.454565 0.266411 0.325728
O O20 0.378103 0.500000 0.649129
O O21 0.053023 0.000000 0.367534
#
# Coordination Sequence:
#
# PCOD8206230 Si02
#       8
#     8   8   8   8   8   8   8   8
#     4   9  16  27  41  53  71 102 133 156 181 223
#     4   8  15  27  41  56  73  97 129 158 186 225
#     4   8  14  24  38  54  71  94 125 155 178 208
#     4   9  16  26  41  59  76  94 121 160 198 225
#     4   9  17  28  39  52  74 103 131 156 183 219
#     4  10  18  25  35  55  79  99 124 157 190 221
#     4   9  17  26  36  52  75 102 128 155 187 220
#     4   8  14  25  38  52  72  98 125 149 176 213
#
# _framework density 14.553572000000001
#
# number of rings (size 3 to 8) (size 9 to 14) (size 15 to 20)
#    0.000    3.250    0.000    2.625    0.000    1.500 
#    0.000    4.375    0.000    0.000    0.000    0.000 
#    0.000    1.000    0.000    4.250    0.000    2.750 
#
# Total GULP energy -793050.696788 kJ/mol
# GULP energy per Si atom -12391.417137 kJ/mol
# Density = 1.452045 g / cm^3
# Si number density = 14.553572 Si / 1000 Ang^3
#
#
#
# Elastic Constant Matrix: (Units=GPa)
#
#
# Indices 1 2 3 4 5 6 
#
# 1 61.5544 22.3820 29.7948 0.0000 0.0000 0.0000
# 2 22.3820 57.1349 46.2375 0.0000 0.0000 0.0000
# 3 29.7948 46.2375 93.5787 0.0000 0.0000 0.0000
# 4 0.0000 0.0000 0.0000 7.9364 0.0000 0.0000
# 5 0.0000 0.0000 0.0000 0.0000 21.4749 0.0000
# 6 0.0000 0.0000 0.0000 0.0000 0.0000 12.1822
#
#
#
# Elastic Compliance Matrix: (Units=1/GPa)
#
#
# Indices 1 2 3 4 5 6 
#
# 1 0.019858 -0.004436 -0.004131 0.000000 0.000000 0.000000
# 2 -0.004436 0.030155 -0.013487 0.000000 0.000000 0.000000
# 3 -0.004131 -0.013487 0.018665 0.000000 0.000000 0.000000
# 4 0.000000 0.000000 0.000000 0.126002 0.000000 0.000000
# 5 0.000000 0.000000 0.000000 0.000000 0.046566 0.000000
# 6 0.000000 0.000000 0.000000 0.000000 0.000000 0.082087
#
#
# Mechanical properties :
#
#
# Convention : Reuss Voigt Hill
#
# Bulk Modulus (GPa) = 40.69964 45.45518 43.07741
# Shear Modulus (GPa) = 13.31087 15.90894 14.60990
#
# Velocity S-wave (km/s) = 3.02754 3.30984 3.17183
# Velocity P-wave (km/s) = 6.34408 6.77551 6.56334
#
# Compressibility (1/GPa) = 0.02457024
#
# Stress axis : x y z
#
# Youngs Moduli (GPa) = 50.35656 33.16178 53.57481
#
# Poissons Ratio (x) = 0.14712 0.22130
# Poissons Ratio (y) = 0.22340 0.72258
# Poissons Ratio (z) = 0.20801 0.44726
#
# Static dielectric constant tensor:
#      x y z
#    x 2.839630 0.000000 0.000000 
#    y 0.000000 2.836130 0.000000 
#    z 0.000000 0.000000 2.940130 
# 
# 
# High freq. dielectric constant tensor:
#      x y z
#    x 1.520920 0.000000 0.000000 
#    y 0.000000 1.550340 0.000000 
#    z 0.000000 0.000000 1.548690 
# 
# From -- ./inp_files/30882.got.cif
#   From: 2010.03.12/outbox.cif.g09.slc.cpg/sg51_16_cif.got.tgz:30882.got - 2010.04.16 13:43:02.
