data_PCOD8206688
_publ_section_title
;
Structure prediction by ZEFSAII (Michael W. Deem and Ramdas Pophale) SiO2 
 PCOD8206688
Probable space group: P M M A
;
_chemical_formula_sum "Si O2"
_cell_formula_units_Z 48
_cell_length_a 18.512850
_cell_length_b 8.943967
_cell_length_c 16.400001
_cell_angle_alpha 90.000000
_cell_angle_beta 90.000000
_cell_angle_gamma 90.000000
_cell_volume 2715.484605
_symmetry_space_group_name_H-M "P M M A"
_symmetry_group_IT_number 51
_symmetry_cell_setting 'orthorhombic'
loop_
_space_group_symop_operation_xyz
x,y,z
1/2-x,-y,z
1/2+x,-y,-z
-x,y,-z
-x,-y,-z
1/2+x,y,-z
1/2-x,y,z
x,-y,z
loop_
_atom_site_type_symbol
_atom_site_label
_atom_site_fract_x
_atom_site_fract_y
_atom_site_fract_z
Si Si1 0.457969 0.824171 0.250826
Si Si2 0.168240 0.175502 0.675581
Si Si3 0.970526 0.823976 0.416352
Si Si4 0.334221 0.672894 0.164604
Si Si5 0.829676 0.322712 0.016591
Si Si6 0.092454 0.322446 0.823359
O O1 0.476181 0.775827 0.343332
O O2 0.377484 0.771291 0.230040
O O3 0.513314 0.743792 0.189937
O O4 0.466005 0.000000 0.239565
O O5 0.250000 0.213124 0.647521
O O6 0.111748 0.227196 0.605043
O O7 0.150532 0.261889 0.758607
O O8 0.158238 0.000000 0.693265
O O9 0.000000 0.748244 0.500000
O O10 0.971134 0.000000 0.427654
O O11 0.250000 0.700464 0.180456
O O12 0.354315 0.500000 0.177141
O O13 0.355961 0.727412 0.073364
O O14 0.750000 0.255879 0.034080
O O15 0.823917 0.500000 0.016730
O O16 0.883940 0.267638 0.086615
O O17 0.089907 0.500000 0.816558
#
# Coordination Sequence:
#
# PCOD8206688 Si02
#       6
#     8   8   8   8   8   8
#     4  10  20  33  49  71  97 121 151 194 241 285
#     4   9  17  29  46  70  99 126 153 192 243 290
#     4   8  15  30  50  69  91 122 158 194 232 278
#     4   9  18  34  53  69  90 124 163 198 231 271
#     4   8  15  28  46  68  92 122 163 202 228 260
#     4  10  18  29  48  71  95 125 161 196 230 274
#
# _framework density 17.676402
#
# number of rings (size 3 to 8) (size 9 to 14) (size 15 to 20)
#    0.000    3.000    0.000    3.500    0.000    2.000 
#    0.000    5.833    0.000   17.500    0.000    0.000 
#    0.000    0.000    0.000    0.000    0.000    0.000 
#
# Total GULP energy -594959.345143 kJ/mol
# GULP energy per Si atom -12394.986357 kJ/mol
# Density = 1.763617 g / cm^3
# Si number density = 17.676402 Si / 1000 Ang^3
#
#
#
# Elastic Constant Matrix: (Units=GPa)
#
#
# Indices 1 2 3 4 5 6 
#
# 1 115.8548 33.5598 79.5492 0.0000 0.0000 0.0000
# 2 33.5598 44.1232 29.8027 0.0000 0.0000 0.0000
# 3 79.5492 29.8027 121.3373 0.0000 0.0000 0.0000
# 4 0.0000 0.0000 0.0000 15.8609 0.0000 0.0000
# 5 0.0000 0.0000 0.0000 0.0000 26.1346 0.0000
# 6 0.0000 0.0000 0.0000 0.0000 0.0000 27.8446
#
#
#
# Elastic Compliance Matrix: (Units=1/GPa)
#
#
# Indices 1 2 3 4 5 6 
#
# 1 0.017135 -0.006528 -0.009630 0.000000 0.000000 0.000000
# 2 -0.006528 0.029659 -0.003005 0.000000 0.000000 0.000000
# 3 -0.009630 -0.003005 0.015293 0.000000 0.000000 0.000000
# 4 0.000000 0.000000 0.000000 0.063048 0.000000 0.000000
# 5 0.000000 0.000000 0.000000 0.000000 0.038263 0.000000
# 6 0.000000 0.000000 0.000000 0.000000 0.000000 0.035914
#
#
# Mechanical properties :
#
#
# Convention : Reuss Voigt Hill
#
# Bulk Modulus (GPa) = 42.08701 63.01543 52.55122
# Shear Modulus (GPa) = 20.36173 23.19492 21.77833
#
# Velocity S-wave (km/s) = 3.39767 3.62636 3.51387
# Velocity P-wave (km/s) = 6.26527 7.29800 6.80127
#
# Compressibility (1/GPa) = 0.02376030
#
# Stress axis : x y z
#
# Youngs Moduli (GPa) = 58.36039 33.71696 65.38841
#
# Poissons Ratio (x) = 0.22010 0.62971
# Poissons Ratio (y) = 0.38098 0.19649
# Poissons Ratio (z) = 0.56203 0.10132
#
# Static dielectric constant tensor:
#      x y z
#    x 3.368480 0.000000 0.000000 
#    y 0.000000 2.983350 0.000000 
#    z 0.000000 0.000000 3.473970 
# 
# 
# High freq. dielectric constant tensor:
#      x y z
#    x 1.686350 0.000000 0.000000 
#    y 0.000000 1.654770 0.000000 
#    z 0.000000 0.000000 1.674520 
# 
# From -- ./inp_files/30025.got.cif
#   From: 2010.03.12/outbox.cif.g09.slc.cpg/sg51_16_cif.got.tgz:30025.got - 2010.04.16 13:43:02.
