data_PCOD8206374
_publ_section_title
;
Structure prediction by ZEFSAII (Michael W. Deem and Ramdas Pophale) SiO2 
 PCOD8206374
Probable space group: P M M A
;
_chemical_formula_sum "Si O2"
_cell_formula_units_Z 64
_cell_length_a 9.066004
_cell_length_b 19.241031
_cell_length_c 23.759877
_cell_angle_alpha 90.000000
_cell_angle_beta 90.000000
_cell_angle_gamma 90.000000
_cell_volume 4144.655457
_symmetry_space_group_name_H-M "P M M A"
_symmetry_group_IT_number 51
_symmetry_cell_setting 'orthorhombic'
loop_
_space_group_symop_operation_xyz
x,y,z
1/2-x,-y,z
1/2+x,-y,-z
-x,y,-z
-x,-y,-z
1/2+x,y,-z
1/2-x,y,z
x,-y,z
loop_
_atom_site_type_symbol
_atom_site_label
_atom_site_fract_x
_atom_site_fract_y
_atom_site_fract_z
Si Si1 0.421811 0.078625 0.232606
Si Si2 0.078518 0.206931 0.165215
Si Si3 0.422986 0.920863 0.556315
Si Si4 0.925521 0.714752 0.942267
Si Si5 0.575492 0.157234 0.332016
Si Si6 0.924783 0.576136 0.885205
Si Si7 0.425080 0.575619 0.241144
Si Si8 0.575205 0.279494 0.721584
O O1 0.250000 0.085855 0.248819
O O2 0.456524 0.125689 0.177416
O O3 0.515241 0.104355 0.285382
O O4 0.465649 0.000000 0.217529
O O5 0.250000 0.222301 0.160760
O O6 0.012118 0.232655 0.105881
O O7 0.019675 0.251624 0.217859
O O8 0.500000 0.892698 0.500000
O O9 0.250000 0.916684 0.546699
O O10 0.473190 0.872215 0.607620
O O11 0.472536 0.000000 0.569295
O O12 0.750000 0.718403 0.949132
O O13 0.981591 0.637062 0.926101
O O14 0.000000 0.738071 0.000000
O O15 0.750000 0.161426 0.325795
O O16 0.506729 0.234464 0.326107
O O17 0.750000 0.580093 0.882226
O O18 0.975609 0.500000 0.907897
O O19 0.987276 0.587167 0.821989
O O20 0.250000 0.576222 0.237631
O O21 0.479429 0.500000 0.264427
O O22 0.474473 0.639283 0.281736
O O23 0.750000 0.269755 0.713793
#
# Coordination Sequence:
#
# PCOD8206374 Si02
#       8
#     8   8   8   8   8   8   8   8
#     4   9  17  29  47  68  84 102 134 175 213 250
#     4   8  14  26  42  58  78 102 130 166 207 249
#     4   9  18  31  45  61  85 119 154 181 204 235
#     4  10  18  28  41  56  76 103 133 169 206 246
#     4  10  19  29  42  64  94 122 143 169 208 251
#     4   8  13  22  38  58  77 101 133 166 202 244
#     4   8  12  20  39  64  84 105 138 178 214 247
#     4   9  15  26  44  64  84 109 144 181 211 246
#
# _framework density 15.441573
#
# number of rings (size 3 to 8) (size 9 to 14) (size 15 to 20)
#    0.000    3.125    1.250    2.250    0.000    2.000 
#    0.000    3.750    0.000    0.750    0.000    1.750 
#    0.000    0.500    0.000    1.125    0.000    1.750 
#
# Total GULP energy -792995.810966 kJ/mol
# GULP energy per Si atom -12390.559546 kJ/mol
# Density = 1.540643 g / cm^3
# Si number density = 15.441573 Si / 1000 Ang^3
#
#
#
# Elastic Constant Matrix: (Units=GPa)
#
#
# Indices 1 2 3 4 5 6 
#
# 1 27.6195 28.0855 29.4200 0.0000 0.0000 0.0000
# 2 28.0855 131.6662 64.8579 0.0000 0.0000 0.0000
# 3 29.4200 64.8579 103.5448 0.0000 0.0000 0.0000
# 4 0.0000 0.0000 0.0000 25.4267 0.0000 0.0000
# 5 0.0000 0.0000 0.0000 0.0000 20.9669 0.0000
# 6 0.0000 0.0000 0.0000 0.0000 0.0000 13.2936
#
#
#
# Elastic Compliance Matrix: (Units=1/GPa)
#
#
# Indices 1 2 3 4 5 6 
#
# 1 0.054837 -0.005817 -0.011937 0.000000 0.000000 0.000000
# 2 -0.005817 0.011601 -0.005614 0.000000 0.000000 0.000000
# 3 -0.011937 -0.005614 0.016566 0.000000 0.000000 0.000000
# 4 0.000000 0.000000 0.000000 0.039329 0.000000 0.000000
# 5 0.000000 0.000000 0.000000 0.000000 0.047694 0.000000
# 6 0.000000 0.000000 0.000000 0.000000 0.000000 0.075224
#
#
# Mechanical properties :
#
#
# Convention : Reuss Voigt Hill
#
# Bulk Modulus (GPa) = 27.57282 56.39526 41.98404
# Shear Modulus (GPa) = 16.44330 21.30192 18.87261
#
# Velocity S-wave (km/s) = 3.26678 3.71822 3.49978
# Velocity P-wave (km/s) = 5.66781 7.41852 6.60146
#
# Compressibility (1/GPa) = 0.03626760
#
# Stress axis : x y z
#
# Youngs Moduli (GPa) = 18.23602 86.19841 60.36567
#
# Poissons Ratio (x) = 0.50142 0.72059
# Poissons Ratio (y) = 0.10608 0.33889
# Poissons Ratio (z) = 0.21768 0.48391
#
# Static dielectric constant tensor:
#      x y z
#    x 2.607860 0.000000 0.000000 
#    y 0.000000 3.327630 0.000000 
#    z 0.000000 0.000000 2.821470 
# 
# 
# High freq. dielectric constant tensor:
#      x y z
#    x 1.557580 0.000000 0.000000 
#    y 0.000000 1.597720 0.000000 
#    z 0.000000 0.000000 1.560620 
# 
# From -- ./inp_files/32558.got.cif
#   From: 2010.03.12/outbox.cif.g09.slc.cpg/sg51_17_cif.got.tgz:32558.got - 2010.04.16 13:43:02.
