data_PCOD8206365
_publ_section_title
;
Structure prediction by ZEFSAII (Michael W. Deem and Ramdas Pophale) SiO2 
 PCOD8206365
Probable space group: P M M A
;
_chemical_formula_sum "Si O2"
_cell_formula_units_Z 64
_cell_length_a 14.251313
_cell_length_b 14.171604
_cell_length_c 18.105976
_cell_angle_alpha 90.000000
_cell_angle_beta 90.000000
_cell_angle_gamma 90.000000
_cell_volume 3656.754691
_symmetry_space_group_name_H-M "P M M A"
_symmetry_group_IT_number 51
_symmetry_cell_setting 'orthorhombic'
loop_
_space_group_symop_operation_xyz
x,y,z
1/2-x,-y,z
1/2+x,-y,-z
-x,y,-z
-x,-y,-z
1/2+x,y,-z
1/2-x,y,z
x,-y,z
loop_
_atom_site_type_symbol
_atom_site_label
_atom_site_fract_x
_atom_site_fract_y
_atom_site_fract_z
Si Si1 0.642920 0.814348 0.141963
Si Si2 0.859775 0.897171 0.299195
Si Si3 0.106768 0.396137 0.481808
Si Si4 0.856914 0.611233 0.812537
Si Si5 0.144874 0.711166 0.622971
Si Si6 0.962422 0.388394 0.669944
Si Si7 0.472750 0.275926 0.077549
Si Si8 0.643880 0.106506 0.983037
O O1 0.750000 0.774352 0.149799
O O2 0.610211 0.865610 0.216974
O O3 0.566661 0.731551 0.127827
O O4 0.636628 0.883538 0.071764
O O5 0.750000 0.911083 0.300050
O O6 0.887431 0.819661 0.361978
O O7 0.906442 0.000000 0.317075
O O8 0.157169 0.500000 0.488986
O O9 0.150199 0.316973 0.536054
O O10 0.000000 0.413599 0.500000
O O11 0.106494 0.357000 0.397685
O O12 0.750000 0.641791 0.801733
O O13 0.867566 0.500000 0.819378
O O14 0.896136 0.657121 0.886364
O O15 0.915579 0.651955 0.743604
O O16 0.250000 0.695976 0.656308
O O17 0.069692 0.646221 0.664335
O O18 0.967460 0.500000 0.670734
O O19 0.427223 0.173490 0.061059
O O20 0.500000 0.324299 0.000000
O O21 0.750000 0.129697 0.957732
O O22 0.616316 0.000000 0.962215
#
# Coordination Sequence:
#
# PCOD8206365 Si02
#       8
#     8   8   8   8   8   8   8   8
#     4   9  17  29  46  67  93 125 156 191 239 292
#     4   9  17  28  41  60  90 128 165 195 225 269
#     4   8  15  28  45  66  94 125 154 190 238 288
#     4  10  21  37  55  72  92 125 168 204 233 275
#     4  10  18  27  45  73 102 130 158 192 241 295
#     4   9  18  33  51  72  98 125 157 200 244 287
#     4  10  20  32  50  73  98 123 153 197 245 291
#     4   9  17  29  46  70  98 125 155 194 241 290
#
# _framework density 17.501857999999999
#
# number of rings (size 3 to 8) (size 9 to 14) (size 15 to 20)
#    0.000    2.750    0.000    2.625    0.000    6.500 
#    0.000    1.250    0.000    4.500    0.000    0.000 
#    0.000    2.000    0.000    0.000    0.000    0.000 
#
# Total GULP energy -792901.941991 kJ/mol
# GULP energy per Si atom -12389.092844 kJ/mol
# Density = 1.746202 g / cm^3
# Si number density = 17.501858 Si / 1000 Ang^3
#
#
#
# Elastic Constant Matrix: (Units=GPa)
#
#
# Indices 1 2 3 4 5 6 
#
# 1 91.5804 35.0932 39.0287 0.0000 0.0000 0.0000
# 2 35.0932 53.5966 51.1890 0.0000 0.0000 0.0000
# 3 39.0287 51.1890 99.8897 0.0000 0.0000 0.0000
# 4 0.0000 0.0000 0.0000 17.0093 0.0000 0.0000
# 5 0.0000 0.0000 0.0000 0.0000 21.9986 0.0000
# 6 0.0000 0.0000 0.0000 0.0000 0.0000 22.2985
#
#
#
# Elastic Compliance Matrix: (Units=1/GPa)
#
#
# Indices 1 2 3 4 5 6 
#
# 1 0.014704 -0.008110 -0.001589 0.000000 0.000000 0.000000
# 2 -0.008110 0.041017 -0.017850 0.000000 0.000000 0.000000
# 3 -0.001589 -0.017850 0.019780 0.000000 0.000000 0.000000
# 4 0.000000 0.000000 0.000000 0.058791 0.000000 0.000000
# 5 0.000000 0.000000 0.000000 0.000000 0.045457 0.000000
# 6 0.000000 0.000000 0.000000 0.000000 0.000000 0.044846
#
#
# Mechanical properties :
#
#
# Convention : Reuss Voigt Hill
#
# Bulk Modulus (GPa) = 49.01702 55.07651 52.04677
# Shear Modulus (GPa) = 17.45231 20.24502 18.84866
#
# Velocity S-wave (km/s) = 3.16122 3.40477 3.28526
# Velocity P-wave (km/s) = 6.43366 6.85521 6.64778
#
# Compressibility (1/GPa) = 0.02040108
#
# Stress axis : x y z
#
# Youngs Moduli (GPa) = 68.00689 24.38033 50.55736
#
# Poissons Ratio (x) = 0.19773 0.08035
# Poissons Ratio (y) = 0.55154 0.90247
# Poissons Ratio (z) = 0.10808 0.43520
#
# Static dielectric constant tensor:
#      x y z
#    x 3.330360 0.000000 0.000000 
#    y 0.000000 3.249870 0.000000 
#    z 0.000000 0.000000 3.690940 
# 
# 
# High freq. dielectric constant tensor:
#      x y z
#    x 1.676050 0.000000 0.000000 
#    y 0.000000 1.647380 0.000000 
#    z 0.000000 0.000000 1.670420 
# 
# From -- ./inp_files/29930.got.cif
#   From: 2010.03.12/outbox.cif.g09.slc.cpg/sg51_15_cif.got.tgz:29930.got - 2010.04.16 13:43:02.
