data_PCOD8206787
_publ_section_title
;
Structure prediction by ZEFSAII (Michael W. Deem and Ramdas Pophale) SiO2 
 PCOD8206787
Probable space group: P M M A
;
_chemical_formula_sum "Si O2"
_cell_formula_units_Z 48
_cell_length_a 23.949043
_cell_length_b 8.474399
_cell_length_c 13.912500
_cell_angle_alpha 90.000000
_cell_angle_beta 90.000000
_cell_angle_gamma 90.000000
_cell_volume 2823.593992
_symmetry_space_group_name_H-M "P M M A"
_symmetry_group_IT_number 51
_symmetry_cell_setting 'orthorhombic'
loop_
_space_group_symop_operation_xyz
x,y,z
1/2-x,-y,z
1/2+x,-y,-z
-x,y,-z
-x,-y,-z
1/2+x,y,-z
1/2-x,y,z
x,-y,z
loop_
_atom_site_type_symbol
_atom_site_label
_atom_site_fract_x
_atom_site_fract_y
_atom_site_fract_z
Si Si1 0.084296 0.187841 0.962393
Si Si2 0.186348 0.184760 0.632751
Si Si3 0.975363 0.185549 0.639167
Si Si4 0.419477 0.317158 0.540093
Si Si5 0.476061 0.187334 0.146412
Si Si6 0.311163 0.812171 0.850426
O O1 0.142858 0.258177 0.923792
O O2 0.034918 0.252252 0.893973
O O3 0.085446 0.000000 0.956932
O O4 0.073121 0.241225 0.072826
O O5 0.250000 0.224674 0.602870
O O6 0.144652 0.277677 0.562967
O O7 0.175174 0.241481 0.741875
O O8 0.174702 0.000000 0.622214
O O9 0.931635 0.274149 0.570635
O O10 0.965051 0.252514 0.746739
O O11 0.039231 0.218426 0.608725
O O12 0.964207 0.000000 0.632620
O O13 0.431525 0.500000 0.556780
O O14 0.479425 0.000000 0.150532
O O15 0.250000 0.748328 0.881271
O O16 0.310843 0.000000 0.853129
#
# Coordination Sequence:
#
# PCOD8206787 Si02
#       6
#     8   8   8   8   8   8
#     4   8  12  20  34  58  89 111 133 169 214 257
#     4   9  17  30  48  69  91 116 147 180 215 260
#     4  10  18  30  47  65  87 118 154 186 221 262
#     4  11  21  31  44  65  91 117 147 184 228 269
#     4   8  14  22  37  60  83 110 141 175 213 254
#     4   8  13  21  37  62  89 113 135 166 211 258
#
# _framework density 16.999611000000002
#
# number of rings (size 3 to 8) (size 9 to 14) (size 15 to 20)
#    0.000    3.000    0.000    6.000    0.000    3.000 
#    0.000    0.000    0.000    1.000    0.000   26.833 
#    0.000    0.000    0.000    0.000    0.000    0.000 
#
# Total GULP energy -594899.900496 kJ/mol
# GULP energy per Si atom -12393.747927 kJ/mol
# Density = 1.696092 g / cm^3
# Si number density = 16.999611 Si / 1000 Ang^3
#
#
#
# Elastic Constant Matrix: (Units=GPa)
#
#
# Indices 1 2 3 4 5 6 
#
# 1 128.3005 13.1348 75.1659 0.0000 0.0000 0.0000
# 2 13.1348 26.2911 12.3753 0.0000 0.0000 0.0000
# 3 75.1659 12.3753 141.3551 0.0000 0.0000 0.0000
# 4 0.0000 0.0000 0.0000 -0.4493 0.0000 0.0000
# 5 0.0000 0.0000 0.0000 0.0000 30.3376 0.0000
# 6 0.0000 0.0000 0.0000 0.0000 0.0000 8.3808
#
#
#
# Elastic Compliance Matrix: (Units=1/GPa)
#
#
# Indices 1 2 3 4 5 6 
#
# 1 0.011544 -0.003001 -0.005876 0.000000 0.000000 0.000000
# 2 -0.003001 0.040451 -0.001945 0.000000 0.000000 0.000000
# 3 -0.005876 -0.001945 0.010369 0.000000 0.000000 0.000000
# 4 0.000000 0.000000 0.000000 -2.225731 0.000000 0.000000
# 5 0.000000 0.000000 0.000000 0.000000 0.032962 0.000000
# 6 0.000000 0.000000 0.000000 0.000000 0.000000 0.119321
#
#
# Mechanical properties :
#
#
# Convention : Reuss Voigt Hill
#
# Bulk Modulus (GPa) = 24.55865 55.25540 39.90702
# Shear Modulus (GPa) = -2.53054 20.67186 9.07066
#
# Velocity S-wave (km/s) = -1.22140 3.49093 2.31244
# Velocity P-wave (km/s) = 3.53396 6.98737 5.53679
#
# Compressibility (1/GPa) = 0.04071885
#
# Stress axis : x y z
#
# Youngs Moduli (GPa) = 86.62672 24.72131 96.44053
#
# Poissons Ratio (x) = 0.07420 0.56665
# Poissons Ratio (y) = 0.26001 0.18761
# Poissons Ratio (z) = 0.50899 0.04809
#
# Static dielectric constant tensor:
#      x y z
#    x 3.353430 0.000000 0.000000 
#    y 0.000000 2.706590 0.000000 
#    z 0.000000 0.000000 3.399510 
# 
# 
# High freq. dielectric constant tensor:
#      x y z
#    x 1.647080 0.000000 0.000000 
#    y 0.000000 1.615000 0.000000 
#    z 0.000000 0.000000 1.649390 
# 
# From -- ./inp_files/26035.got.cif
#   From: 2010.03.12/outbox.cif.g09.slc.cpg/sg51_14_cif.got.tgz:26035.got - 2010.04.16 13:43:02.
