data_PCOD8206518
_publ_section_title
;
Structure prediction by ZEFSAII (Michael W. Deem and Ramdas Pophale) SiO2 
 PCOD8206518
Probable space group: P M M A
;
_chemical_formula_sum "Si O2"
_cell_formula_units_Z 64
_cell_length_a 9.148945
_cell_length_b 20.213992
_cell_length_c 19.561141
_cell_angle_alpha 90.000000
_cell_angle_beta 90.000000
_cell_angle_gamma 90.000000
_cell_volume 3617.572885
_symmetry_space_group_name_H-M "P M M A"
_symmetry_group_IT_number 51
_symmetry_cell_setting 'orthorhombic'
loop_
_space_group_symop_operation_xyz
x,y,z
1/2-x,-y,z
1/2+x,-y,-z
-x,y,-z
-x,-y,-z
1/2+x,y,-z
1/2-x,y,z
x,-y,z
loop_
_atom_site_type_symbol
_atom_site_label
_atom_site_fract_x
_atom_site_fract_y
_atom_site_fract_z
Si Si1 0.914663 0.115264 0.565915
Si Si2 0.419987 0.574676 0.068196
Si Si3 0.415561 0.272962 0.434075
Si Si4 0.580312 0.273071 0.300163
Si Si5 0.420223 0.690631 0.167327
Si Si6 0.581868 0.881638 0.301239
Si Si7 0.577784 0.813616 0.928561
Si Si8 0.081894 0.924404 0.847077
O O1 0.750000 0.088186 0.563312
O O2 0.918410 0.194079 0.564772
O O3 0.000000 0.087001 0.500000
O O4 0.988854 0.089470 0.635703
O O5 0.250000 0.580047 0.052036
O O6 0.465647 0.500000 0.088686
O O7 0.463769 0.623192 0.129249
O O8 0.500000 0.598383 0.000000
O O9 0.500000 0.301177 0.500000
O O10 0.250000 0.299598 0.434598
O O11 0.497517 0.299733 0.367093
O O12 0.750000 0.289884 0.308050
O O13 0.515881 0.310556 0.235235
O O14 0.552182 0.195582 0.290325
O O15 0.250000 0.692951 0.187052
O O16 0.462108 0.753113 0.120834
O O17 0.750000 0.895714 0.318836
O O18 0.532720 0.917947 0.231916
O O19 0.750000 0.819998 0.940827
O O20 0.520057 0.881327 0.895755
O O21 0.500000 0.800049 0.000000
O O22 0.250000 0.900633 0.854359
O O23 0.063680 0.000000 0.870331
#
# Coordination Sequence:
#
# PCOD8206518 Si02
#       8
#     8   8   8   8   8   8   8   8
#     4   9  16  25  41  65  92 123 156 194 238 286
#     4   9  18  33  52  74 102 136 172 207 245 291
#     4   9  16  26  40  62  95 131 166 203 245 294
#     4  10  18  28  46  70  97 130 165 204 249 295
#     4  10  20  33  50  75 104 134 166 204 247 292
#     4   9  17  30  47  68  93 121 155 197 244 294
#     4  11  23  37  55  76 100 126 159 201 248 299
#     4  10  21  38  57  74  94 123 160 203 252 304
#
# _framework density 17.691419
#
# number of rings (size 3 to 8) (size 9 to 14) (size 15 to 20)
#    0.000    2.375    1.250    1.875    0.000    5.500 
#    0.000    0.000    0.000    0.375    0.000    0.000 
#    0.000    0.500    0.000    1.375    0.000    2.000 
#
# Total GULP energy -793732.792585 kJ/mol
# GULP energy per Si atom -12402.074884 kJ/mol
# Density = 1.765115 g / cm^3
# Si number density = 17.691419 Si / 1000 Ang^3
#
#
#
# Elastic Constant Matrix: (Units=GPa)
#
#
# Indices 1 2 3 4 5 6 
#
# 1 105.4509 31.5661 72.7147 0.0000 0.0000 0.0000
# 2 31.5661 52.5679 38.0390 0.0000 0.0000 0.0000
# 3 72.7147 38.0390 136.0453 0.0000 0.0000 0.0000
# 4 0.0000 0.0000 0.0000 3.3014 0.0000 0.0000
# 5 0.0000 0.0000 0.0000 0.0000 40.6698 0.0000
# 6 0.0000 0.0000 0.0000 0.0000 0.0000 15.5923
#
#
#
# Elastic Compliance Matrix: (Units=1/GPa)
#
#
# Indices 1 2 3 4 5 6 
#
# 1 0.015729 -0.004214 -0.007229 0.000000 0.000000 0.000000
# 2 -0.004214 0.024977 -0.004731 0.000000 0.000000 0.000000
# 3 -0.007229 -0.004731 0.012537 0.000000 0.000000 0.000000
# 4 0.000000 0.000000 0.000000 0.302904 0.000000 0.000000
# 5 0.000000 0.000000 0.000000 0.000000 0.024588 0.000000
# 6 0.000000 0.000000 0.000000 0.000000 0.000000 0.064134
#
#
# Mechanical properties :
#
#
# Convention : Reuss Voigt Hill
#
# Bulk Modulus (GPa) = 47.85853 64.30042 56.07947
# Shear Modulus (GPa) = 10.32666 22.02898 16.17782
#
# Velocity S-wave (km/s) = 2.41863 3.53254 3.02726
# Velocity P-wave (km/s) = 5.90849 7.28443 6.63224
#
# Compressibility (1/GPa) = 0.02089492
#
# Stress axis : x y z
#
# Youngs Moduli (GPa) = 63.57571 40.03635 79.76333
#
# Poissons Ratio (x) = 0.16873 0.57659
# Poissons Ratio (y) = 0.26793 0.37738
# Poissons Ratio (z) = 0.45957 0.18942
#
# Static dielectric constant tensor:
#      x y z
#    x 3.359410 0.000000 0.000000 
#    y 0.000000 2.952640 0.000000 
#    z 0.000000 0.000000 3.380150 
# 
# 
# High freq. dielectric constant tensor:
#      x y z
#    x 1.691650 0.000000 0.000000 
#    y 0.000000 1.636950 0.000000 
#    z 0.000000 0.000000 1.693550 
# 
# From -- ./inp_files/28378.got.cif
#   From: 2010.03.12/outbox.cif.g09.slc.cpg/sg51_15_cif.got.tgz:28378.got - 2010.04.16 13:43:02.
