data_PCOD8206392
_publ_section_title
;
Structure prediction by ZEFSAII (Michael W. Deem and Ramdas Pophale) SiO2 
 PCOD8206392
Probable space group: P M M A
;
_chemical_formula_sum "Si O2"
_cell_formula_units_Z 56
_cell_length_a 28.243246
_cell_length_b 8.864056
_cell_length_c 13.907946
_cell_angle_alpha 90.000000
_cell_angle_beta 90.000000
_cell_angle_gamma 90.000000
_cell_volume 3481.850306
_symmetry_space_group_name_H-M "P M M A"
_symmetry_group_IT_number 51
_symmetry_cell_setting 'orthorhombic'
loop_
_space_group_symop_operation_xyz
x,y,z
1/2-x,-y,z
1/2+x,-y,-z
-x,y,-z
-x,-y,-z
1/2+x,y,-z
1/2-x,y,z
x,-y,z
loop_
_atom_site_type_symbol
_atom_site_label
_atom_site_fract_x
_atom_site_fract_y
_atom_site_fract_z
Si Si1 0.984648 0.821690 0.398423
Si Si2 0.802435 0.174033 0.035034
Si Si3 0.303084 0.323020 0.762441
Si Si4 0.970626 0.174357 0.795199
Si Si5 0.942379 0.676894 0.117879
Si Si6 0.602616 0.827087 0.943318
Si Si7 0.392459 0.822102 0.707531
O O1 0.931878 0.765000 0.369237
O O2 0.000000 0.746928 0.500000
O O3 0.022752 0.774159 0.315991
O O4 0.983598 0.000000 0.409793
O O5 0.750000 0.212093 0.993799
O O6 0.813445 0.272155 0.128719
O O7 0.805369 0.000000 0.066676
O O8 0.841343 0.211319 0.952341
O O9 0.250000 0.274719 0.731523
O O10 0.309832 0.500000 0.757607
O O11 0.340453 0.248018 0.688032
O O12 0.916601 0.196557 0.833559
O O13 0.003802 0.273699 0.863819
O O14 0.986798 0.000000 0.803439
O O15 0.936704 0.500000 0.136137
O O16 0.907574 0.768631 0.187156
O O17 0.928090 0.717452 0.009824
O O18 0.593590 0.000000 0.974802
O O19 0.388211 0.000000 0.705039
#
# Coordination Sequence:
#
# PCOD8206392 Si02
#       7
#     8   8   8   8   8   8   8
#     4   8  15  29  48  67  85 108 144 187 227 269
#     4   9  17  28  42  59  82 116 153 181 208 250
#     4  10  19  29  42  63  91 120 150 183 217 253
#     4   9  18  30  44  62  84 112 146 181 219 267
#     4  11  20  28  40  60  88 119 147 178 214 254
#     4  10  18  28  42  60  85 116 147 178 212 255
#     4  10  18  29  46  66  88 118 151 182 220 267
#
# _framework density 16.083402
#
# number of rings (size 3 to 8) (size 9 to 14) (size 15 to 20)
#    0.000    2.429    1.429    3.429    0.000    3.143 
#    0.000    0.000    0.000   10.714    0.000    1.000 
#    0.000    5.714    0.000    3.857    0.000    3.571 
#
# Total GULP energy -693961.317363 kJ/mol
# GULP energy per Si atom -12392.166381 kJ/mol
# Density = 1.604680 g / cm^3
# Si number density = 16.083402 Si / 1000 Ang^3
#
#
#
# Elastic Constant Matrix: (Units=GPa)
#
#
# Indices 1 2 3 4 5 6 
#
# 1 132.4874 31.8779 69.0599 0.0000 0.0000 0.0000
# 2 31.8779 42.0672 18.6133 0.0000 0.0000 0.0000
# 3 69.0599 18.6133 89.4824 0.0000 0.0000 0.0000
# 4 0.0000 0.0000 0.0000 2.1562 0.0000 0.0000
# 5 0.0000 0.0000 0.0000 0.0000 19.1339 0.0000
# 6 0.0000 0.0000 0.0000 0.0000 0.0000 16.7015
#
#
#
# Elastic Compliance Matrix: (Units=1/GPa)
#
#
# Indices 1 2 3 4 5 6 
#
# 1 0.014053 -0.006443 -0.009505 0.000000 0.000000 0.000000
# 2 -0.006443 0.029135 -0.001088 0.000000 0.000000 0.000000
# 3 -0.009505 -0.001088 0.018738 0.000000 0.000000 0.000000
# 4 0.000000 0.000000 0.000000 0.463779 0.000000 0.000000
# 5 0.000000 0.000000 0.000000 0.000000 0.052263 0.000000
# 6 0.000000 0.000000 0.000000 0.000000 0.000000 0.059875
#
#
# Mechanical properties :
#
#
# Convention : Reuss Voigt Hill
#
# Bulk Modulus (GPa) = 35.90259 55.90436 45.90347
# Shear Modulus (GPa) = 7.33999 17.23073 12.28536
#
# Velocity S-wave (km/s) = 2.13860 3.27668 2.76679
# Velocity P-wave (km/s) = 5.33567 7.01070 6.22974
#
# Compressibility (1/GPa) = 0.02785314
#
# Stress axis : x y z
#
# Youngs Moduli (GPa) = 71.15941 34.32253 53.36859
#
# Poissons Ratio (x) = 0.22115 0.50729
# Poissons Ratio (y) = 0.45850 0.05805
# Poissons Ratio (z) = 0.67640 0.03733
#
# Static dielectric constant tensor:
#      x y z
#    x 3.413520 0.000000 0.000000 
#    y 0.000000 2.943320 0.000000 
#    z 0.000000 0.000000 2.900020 
# 
# 
# High freq. dielectric constant tensor:
#      x y z
#    x 1.624520 0.000000 0.000000 
#    y 0.000000 1.609400 0.000000 
#    z 0.000000 0.000000 1.567580 
# 
# From -- ./inp_files/26524.got.cif
#   From: 2010.03.12/outbox.cif.g09.slc.cpg/sg51_14_cif.got.tgz:26524.got - 2010.04.16 13:43:02.
