data_PCOD8206480
_publ_section_title
;
Structure prediction by ZEFSAII (Michael W. Deem and Ramdas Pophale) SiO2 
 PCOD8206480
Probable space group: P M M A
;
_chemical_formula_sum "Si O2"
_cell_formula_units_Z 64
_cell_length_a 22.250521
_cell_length_b 13.250622
_cell_length_c 12.081339
_cell_angle_alpha 90.000000
_cell_angle_beta 90.000000
_cell_angle_gamma 90.000000
_cell_volume 3561.980358
_symmetry_space_group_name_H-M "P M M A"
_symmetry_group_IT_number 51
_symmetry_cell_setting 'orthorhombic'
loop_
_space_group_symop_operation_xyz
x,y,z
1/2-x,-y,z
1/2+x,-y,-z
-x,y,-z
-x,-y,-z
1/2+x,y,-z
1/2-x,y,z
x,-y,z
loop_
_atom_site_type_symbol
_atom_site_label
_atom_site_fract_x
_atom_site_fract_y
_atom_site_fract_z
Si Si1 0.319188 0.116991 0.053103
Si Si2 0.627106 0.388147 0.546383
Si Si3 0.901652 0.385455 0.297070
Si Si4 0.679927 0.250710 0.158609
Si Si5 0.404852 0.887242 0.255339
Si Si6 0.484587 0.729299 0.379399
Si Si7 0.317921 0.189612 0.422648
Si Si8 0.178943 0.109572 0.649498
O O1 0.250000 0.130427 0.095960
O O2 0.369772 0.143708 0.143512
O O3 0.326709 0.000000 0.011921
O O4 0.332135 0.201937 0.960693
O O5 0.643616 0.500000 0.588891
O O6 0.634202 0.384015 0.413271
O O7 0.560231 0.361766 0.588215
O O8 0.672208 0.308106 0.604005
O O9 0.920520 0.500000 0.267924
O O10 0.860539 0.347008 0.193481
O O11 0.960234 0.316202 0.311316
O O12 0.750000 0.279975 0.173342
O O13 0.657854 0.163527 0.240559
O O14 0.456518 0.809967 0.293353
O O15 0.353397 0.887684 0.347153
O O16 0.432054 0.000000 0.244938
O O17 0.500000 0.780046 0.500000
O O18 0.250000 0.157423 0.409262
O O19 0.343700 0.174612 0.546015
O O20 0.250000 0.099070 0.646331
O O21 0.148323 0.000000 0.646165
#
# Coordination Sequence:
#
# PCOD8206480 Si02
#       8
#     8   8   8   8   8   8   8   8
#     4   9  18  34  56  79 104 139 179 214 251 303
#     4   9  17  30  49  72 101 137 176 217 259 309
#     4  10  19  33  54  77 101 133 174 218 263 312
#     4  10  19  32  51  77 106 134 169 212 259 312
#     4  10  20  34  53  76 103 138 181 220 257 308
#     4   9  19  35  53  75 105 139 176 216 263 319
#     4  10  18  28  44  73 109 137 165 208 264 320
#     4   9  16  26  41  65 100 135 160 192 246 309
#
# _framework density 17.967534000000001
#
# number of rings (size 3 to 8) (size 9 to 14) (size 15 to 20)
#    0.000    2.500    1.250    1.500    0.000    5.000 
#    0.000    3.125    0.000    6.000    0.000    3.500 
#    0.000    0.000    0.000    0.000    0.000    0.000 
#
# Total GULP energy -792891.792421 kJ/mol
# GULP energy per Si atom -12388.934257 kJ/mol
# Density = 1.792664 g / cm^3
# Si number density = 17.967534 Si / 1000 Ang^3
#
#
#
# Elastic Constant Matrix: (Units=GPa)
#
#
# Indices 1 2 3 4 5 6 
#
# 1 69.6727 36.4248 37.8558 0.0000 0.0000 0.0000
# 2 36.4248 100.7169 39.6915 0.0000 0.0000 0.0000
# 3 37.8558 39.6915 77.9487 0.0000 0.0000 0.0000
# 4 0.0000 0.0000 0.0000 23.1261 0.0000 0.0000
# 5 0.0000 0.0000 0.0000 0.0000 25.9602 0.0000
# 6 0.0000 0.0000 0.0000 0.0000 0.0000 16.6071
#
#
#
# Elastic Compliance Matrix: (Units=1/GPa)
#
#
# Indices 1 2 3 4 5 6 
#
# 1 0.020993 -0.004472 -0.007918 0.000000 0.000000 0.000000
# 2 -0.004472 0.013374 -0.004638 0.000000 0.000000 0.000000
# 3 -0.007918 -0.004638 0.019036 0.000000 0.000000 0.000000
# 4 0.000000 0.000000 0.000000 0.043241 0.000000 0.000000
# 5 0.000000 0.000000 0.000000 0.000000 0.038521 0.000000
# 6 0.000000 0.000000 0.000000 0.000000 0.000000 0.060215
#
#
# Mechanical properties :
#
#
# Convention : Reuss Voigt Hill
#
# Bulk Modulus (GPa) = 51.68862 52.92028 52.30445
# Shear Modulus (GPa) = 21.19672 22.09641 21.64657
#
# Velocity S-wave (km/s) = 3.43844 3.51065 3.47473
# Velocity P-wave (km/s) = 6.67788 6.77865 6.72845
#
# Compressibility (1/GPa) = 0.01934662
#
# Stress axis : x y z
#
# Youngs Moduli (GPa) = 47.63515 74.77212 52.53127
#
# Poissons Ratio (x) = 0.33436 0.41595
# Poissons Ratio (y) = 0.21301 0.24366
# Poissons Ratio (z) = 0.37718 0.34682
#
# Static dielectric constant tensor:
#      x y z
#    x 3.155140 0.000000 0.000000 
#    y 0.000000 3.392870 0.000000 
#    z 0.000000 0.000000 3.194880 
# 
# 
# High freq. dielectric constant tensor:
#      x y z
#    x 1.678870 0.000000 0.000000 
#    y 0.000000 1.696690 0.000000 
#    z 0.000000 0.000000 1.671510 
# 
# From -- ./inp_files/18832.got.cif
#   From: 2010.03.12/outbox.cif.g09.slc.cpg/sg51_10_cif.got.tgz:18832.got - 2010.04.16 13:43:02.
