data_PCOD8206666
_publ_section_title
;
Structure prediction by ZEFSAII (Michael W. Deem and Ramdas Pophale) SiO2 
 PCOD8206666
Probable space group: P M M A
;
_chemical_formula_sum "Si O2"
_cell_formula_units_Z 56
_cell_length_a 27.456216
_cell_length_b 9.000175
_cell_length_c 13.836855
_cell_angle_alpha 90.000000
_cell_angle_beta 90.000000
_cell_angle_gamma 90.000000
_cell_volume 3419.235601
_symmetry_space_group_name_H-M "P M M A"
_symmetry_group_IT_number 51
_symmetry_cell_setting 'orthorhombic'
loop_
_space_group_symop_operation_xyz
x,y,z
1/2-x,-y,z
1/2+x,-y,-z
-x,y,-z
-x,-y,-z
1/2+x,y,-z
1/2-x,y,z
x,-y,z
loop_
_atom_site_type_symbol
_atom_site_label
_atom_site_fract_x
_atom_site_fract_y
_atom_site_fract_z
Si Si1 0.943213 0.172142 0.111223
Si Si2 0.992035 0.325584 0.390595
Si Si3 0.695466 0.826807 0.243225
Si Si4 0.604885 0.325781 0.286104
Si Si5 0.804245 0.330270 0.041986
Si Si6 0.099634 0.674212 0.066754
Si Si7 0.456986 0.828844 0.219548
O O1 0.907135 0.258288 0.181990
O O2 0.998137 0.191926 0.146693
O O3 0.928321 0.000000 0.106858
O O4 0.937313 0.245323 0.006740
O O5 0.001152 0.500000 0.376667
O O6 0.936562 0.282133 0.363266
O O7 0.000000 0.273953 0.500000
O O8 0.030424 0.239996 0.323697
O O9 0.750000 0.788789 0.279123
O O10 0.657284 0.743920 0.314801
O O11 0.688153 0.775033 0.133304
O O12 0.684790 0.000000 0.247980
O O13 0.610014 0.500000 0.275680
O O14 0.750000 0.306600 0.997813
O O15 0.811061 0.500000 0.077288
O O16 0.844125 0.291443 0.960176
O O17 0.088322 0.500000 0.067417
O O18 0.088854 0.742248 0.172837
O O19 0.443202 0.000000 0.234651
#
# Coordination Sequence:
#
# PCOD8206666 Si02
#       7
#     8   8   8   8   8   8   8
#     4  10  19  30  43  62  93 128 159 191 227 270
#     4   9  19  36  55  73  94 119 152 196 243 291
#     4  10  19  29  43  65  94 128 162 194 229 271
#     4  10  18  29  47  70  94 124 157 191 236 284
#     4   9  18  31  45  63  90 125 164 200 233 272
#     4  11  20  29  45  67  92 126 162 196 233 272
#     4  10  21  33  46  67  94 124 156 191 231 279
#
# _framework density 16.377929999999999
#
# number of rings (size 3 to 8) (size 9 to 14) (size 15 to 20)
#    0.000    2.143    1.429    2.571    0.000    5.714 
#    0.000    0.000    0.000    0.000    0.000    1.000 
#    0.000    3.429    0.000    0.000    0.000    0.000 
#
# Total GULP energy -694347.963086 kJ/mol
# GULP energy per Si atom -12399.070769 kJ/mol
# Density = 1.634065 g / cm^3
# Si number density = 16.377930 Si / 1000 Ang^3
#
#
#
# Elastic Constant Matrix: (Units=GPa)
#
#
# Indices 1 2 3 4 5 6 
#
# 1 79.0223 39.1915 43.8823 0.0000 0.0000 0.0000
# 2 39.1915 77.3695 38.2256 0.0000 0.0000 0.0000
# 3 43.8823 38.2256 88.1060 0.0000 0.0000 0.0000
# 4 0.0000 0.0000 0.0000 13.6377 0.0000 0.0000
# 5 0.0000 0.0000 0.0000 0.0000 15.7302 0.0000
# 6 0.0000 0.0000 0.0000 0.0000 0.0000 24.8756
#
#
#
# Elastic Compliance Matrix: (Units=1/GPa)
#
#
# Indices 1 2 3 4 5 6 
#
# 1 0.019808 -0.006567 -0.007016 0.000000 0.000000 0.000000
# 2 -0.006567 0.018629 -0.004811 0.000000 0.000000 0.000000
# 3 -0.007016 -0.004811 0.016932 0.000000 0.000000 0.000000
# 4 0.000000 0.000000 0.000000 0.073326 0.000000 0.000000
# 5 0.000000 0.000000 0.000000 0.000000 0.063572 0.000000
# 6 0.000000 0.000000 0.000000 0.000000 0.000000 0.040200
#
#
# Mechanical properties :
#
#
# Convention : Reuss Voigt Hill
#
# Bulk Modulus (GPa) = 53.82462 54.12183 53.97322
# Shear Modulus (GPa) = 18.15211 19.06191 18.60701
#
# Velocity S-wave (km/s) = 3.33277 3.41527 3.37427
# Velocity P-wave (km/s) = 6.90979 6.97634 6.94315
#
# Compressibility (1/GPa) = 0.01857886
#
# Stress axis : x y z
#
# Youngs Moduli (GPa) = 50.48465 53.68057 59.05970
#
# Poissons Ratio (x) = 0.35253 0.41439
# Poissons Ratio (y) = 0.33154 0.28416
# Poissons Ratio (z) = 0.35422 0.25828
#
# Static dielectric constant tensor:
#      x y z
#    x 3.421090 0.000000 0.000000 
#    y 0.000000 3.180140 0.000000 
#    z 0.000000 0.000000 2.764290 
# 
# 
# High freq. dielectric constant tensor:
#      x y z
#    x 1.632330 0.000000 0.000000 
#    y 0.000000 1.644870 0.000000 
#    z 0.000000 0.000000 1.581910 
# 
# From -- ./inp_files/26473.got.cif
#   From: 2010.03.12/outbox.cif.g09.slc.cpg/sg51_14_cif.got.tgz:26473.got - 2010.04.16 13:43:02.
