data_PCOD8206786
_publ_section_title
;
Structure prediction by ZEFSAII (Michael W. Deem and Ramdas Pophale) SiO2 
 PCOD8206786
Probable space group: P M M A
;
_chemical_formula_sum "Si O2"
_cell_formula_units_Z 64
_cell_length_a 9.090762
_cell_length_b 14.415194
_cell_length_c 31.137130
_cell_angle_alpha 90.000000
_cell_angle_beta 90.000000
_cell_angle_gamma 90.000000
_cell_volume 4080.368247
_symmetry_space_group_name_H-M "P M M A"
_symmetry_group_IT_number 51
_symmetry_cell_setting 'orthorhombic'
loop_
_space_group_symop_operation_xyz
x,y,z
1/2-x,-y,z
1/2+x,-y,-z
-x,y,-z
-x,-y,-z
1/2+x,y,-z
1/2-x,y,z
x,-y,z
loop_
_atom_site_type_symbol
_atom_site_label
_atom_site_fract_x
_atom_site_fract_y
_atom_site_fract_z
Si Si1 0.579915 0.890555 0.207899
Si Si2 0.077674 0.106358 0.042714
Si Si3 0.084195 0.889494 0.541488
Si Si4 0.924305 0.600605 0.840129
Si Si5 0.075743 0.399403 0.256363
Si Si6 0.578467 0.106911 0.626074
Si Si7 0.924251 0.205084 0.712873
Si Si8 0.924678 0.205568 0.871365
O O1 0.750000 0.861127 0.207404
O O2 0.504776 0.851939 0.250474
O O3 0.501400 0.851491 0.165967
O O4 0.559995 0.000000 0.207844
O O5 0.250000 0.116962 0.035833
O O6 0.022358 0.166480 0.082956
O O7 0.032439 0.000000 0.051328
O O8 0.000000 0.144835 0.000000
O O9 0.250000 0.851816 0.540524
O O10 0.000000 0.849068 0.500000
O O11 0.006801 0.853649 0.584782
O O12 0.079665 0.000000 0.540409
O O13 0.750000 0.598643 0.838697
O O14 0.981744 0.500000 0.857575
O O15 0.984602 0.616835 0.791888
O O16 0.975899 0.686446 0.869625
O O17 0.250000 0.401903 0.254882
O O18 0.017964 0.500000 0.273801
O O19 0.024784 0.313178 0.285722
O O20 0.750000 0.118956 0.616652
O O21 0.526693 0.165987 0.666927
O O22 0.538587 0.000000 0.635147
O O23 0.750000 0.193924 0.720026
O O24 0.750000 0.194515 0.865404
#
# Coordination Sequence:
#
# PCOD8206786 Si02
#       8
#     8   8   8   8   8   8   8   8
#     4  11  23  33  41  60  91 122 148 179 220 260
#     4   9  18  31  47  67  88 111 141 177 216 258
#     4   9  16  26  41  59  80 109 145 184 223 260
#     4   8  13  23  43  70  92 108 136 181 223 255
#     4   8  13  23  42  67  89 109 141 185 224 254
#     4   9  17  27  39  58  84 114 149 184 216 253
#     4  10  18  30  47  64  85 119 156 186 215 255
#     4  10  18  31  51  70  86 111 149 184 212 253
#
# _framework density 15.684858999999999
#
# number of rings (size 3 to 8) (size 9 to 14) (size 15 to 20)
#    0.000    2.750    1.250    2.250    0.000    4.500 
#    0.000    2.500    0.000    1.875    0.000    0.000 
#    0.000    0.500    0.000    0.875    0.000    1.250 
#
# Total GULP energy -793258.182847 kJ/mol
# GULP energy per Si atom -12394.659107 kJ/mol
# Density = 1.564916 g / cm^3
# Si number density = 15.684859 Si / 1000 Ang^3
#
#
#
# Elastic Constant Matrix: (Units=GPa)
#
#
# Indices 1 2 3 4 5 6 
#
# 1 47.2041 29.3589 49.2312 0.0000 0.0000 0.0000
# 2 29.3589 99.8585 70.8358 0.0000 0.0000 0.0000
# 3 49.2312 70.8358 147.0201 0.0000 0.0000 0.0000
# 4 0.0000 0.0000 0.0000 6.3810 0.0000 0.0000
# 5 0.0000 0.0000 0.0000 0.0000 24.0196 0.0000
# 6 0.0000 0.0000 0.0000 0.0000 0.0000 9.2709
#
#
#
# Elastic Compliance Matrix: (Units=1/GPa)
#
#
# Indices 1 2 3 4 5 6 
#
# 1 0.033075 -0.002837 -0.009708 0.000000 0.000000 0.000000
# 2 -0.002837 0.015457 -0.006497 0.000000 0.000000 0.000000
# 3 -0.009708 -0.006497 0.013183 0.000000 0.000000 0.000000
# 4 0.000000 0.000000 0.000000 0.156716 0.000000 0.000000
# 5 0.000000 0.000000 0.000000 0.000000 0.041633 0.000000
# 6 0.000000 0.000000 0.000000 0.000000 0.000000 0.107865
#
#
# Mechanical properties :
#
#
# Convention : Reuss Voigt Hill
#
# Bulk Modulus (GPa) = 42.32085 65.88162 54.10124
# Shear Modulus (GPa) = 12.08046 17.57806 14.82926
#
# Velocity S-wave (km/s) = 2.77826 3.35132 3.07815
# Velocity P-wave (km/s) = 6.11001 7.55445 6.87029
#
# Compressibility (1/GPa) = 0.02362902
#
# Stress axis : x y z
#
# Youngs Moduli (GPa) = 30.23470 64.69393 75.85395
#
# Poissons Ratio (x) = 0.18356 0.73641
# Poissons Ratio (y) = 0.08579 0.49285
# Poissons Ratio (z) = 0.29353 0.42034
#
# Static dielectric constant tensor:
#      x y z
#    x 2.822770 0.000000 0.000000 
#    y 0.000000 3.259750 0.000000 
#    z 0.000000 0.000000 3.038290 
# 
# 
# High freq. dielectric constant tensor:
#      x y z
#    x 1.581330 0.000000 0.000000 
#    y 0.000000 1.588280 0.000000 
#    z 0.000000 0.000000 1.591780 
# 
# From -- ./inp_files/37579.got.cif
#   From: 2010.03.12/outbox.cif.g09.slc.cpg/sg51_19_cif.got.tgz:37579.got - 2010.04.16 13:43:02.
