data_PCOD8206322
_publ_section_title
;
Structure prediction by ZEFSAII (Michael W. Deem and Ramdas Pophale) SiO2 
 PCOD8206322
Probable space group: P M M A
;
_chemical_formula_sum "Si O2"
_cell_formula_units_Z 52
_cell_length_a 8.972264
_cell_length_b 18.573888
_cell_length_c 18.073104
_cell_angle_alpha 90.000000
_cell_angle_beta 90.000000
_cell_angle_gamma 90.000000
_cell_volume 3011.879648
_symmetry_space_group_name_H-M "P M M A"
_symmetry_group_IT_number 51
_symmetry_cell_setting 'orthorhombic'
loop_
_space_group_symop_operation_xyz
x,y,z
1/2-x,-y,z
1/2+x,-y,-z
-x,y,-z
-x,-y,-z
1/2+x,y,-z
1/2-x,y,z
x,-y,z
loop_
_atom_site_type_symbol
_atom_site_label
_atom_site_fract_x
_atom_site_fract_y
_atom_site_fract_z
Si Si1 0.576307 0.786065 0.422254
Si Si2 0.085852 0.854953 0.296982
Si Si3 0.574906 0.642741 0.336595
Si Si4 0.424236 0.918894 0.148880
Si Si5 0.083349 0.708596 0.206791
Si Si6 0.572610 0.215459 0.077685
Si Si7 0.074375 0.500000 0.579208
O O1 0.500000 0.798981 0.500000
O O2 0.750000 0.791991 0.434431
O O3 0.526629 0.849379 0.365837
O O4 0.528970 0.708405 0.390302
O O5 0.250000 0.874220 0.327954
O O6 0.033038 0.913630 0.236273
O O7 0.091028 0.780192 0.254256
O O8 0.750000 0.643773 0.320814
O O9 0.492684 0.647324 0.257450
O O10 0.521619 0.569856 0.375729
O O11 0.250000 0.898209 0.139009
O O12 0.522563 0.864980 0.100375
O O13 0.456605 0.000000 0.121865
O O14 0.250000 0.684000 0.183609
O O15 0.983602 0.723729 0.134681
O O16 0.750000 0.217584 0.072737
O O17 0.500000 0.235640 0.000000
O O18 0.250000 0.500000 0.567190
O O19 0.000000 0.500000 0.500000
#
# Coordination Sequence:
#
# PCOD8206322 Si02
#       7
#     8   8   8   8   8   8   4
#     4  10  18  27  42  63  87 115 151 195 240 281
#     4   8  15  28  45  64  86 113 147 188 233 278
#     4   9  18  31  46  67  95 129 164 198 237 282
#     4   9  18  33  51  70  94 125 158 190 229 281
#     4   9  17  31  50  70  92 121 158 198 238 281
#     4  11  21  33  50  73 101 128 156 193 235 279
#     4  10  20  32  46  68 103 140 173 206 242 284
#
# _framework density 17.264966000000001
#
# number of rings (size 3 to 8) (size 9 to 14) (size 15 to 20)
#    0.000    2.615    0.000    3.692    0.000    5.538 
#    0.000    0.000    0.000    0.462    0.000    0.538 
#    0.000    0.000    0.000    0.000    0.000    0.000 
#
# Total GULP energy -644674.275954 kJ/mol
# GULP energy per Si atom -12397.582230 kJ/mol
# Density = 1.722567 g / cm^3
# Si number density = 17.264966 Si / 1000 Ang^3
#
#
#
# Elastic Constant Matrix: (Units=GPa)
#
#
# Indices 1 2 3 4 5 6 
#
# 1 94.5450 22.8431 62.9928 0.0000 0.0000 0.0000
# 2 22.8431 46.6484 36.2509 0.0000 0.0000 0.0000
# 3 62.9928 36.2509 128.0293 0.0000 0.0000 0.0000
# 4 0.0000 0.0000 0.0000 19.8080 0.0000 0.0000
# 5 0.0000 0.0000 0.0000 0.0000 34.3592 0.0000
# 6 0.0000 0.0000 0.0000 0.0000 0.0000 17.9887
#
#
#
# Elastic Compliance Matrix: (Units=1/GPa)
#
#
# Indices 1 2 3 4 5 6 
#
# 1 0.015908 -0.002189 -0.007207 0.000000 0.000000 0.000000
# 2 -0.002189 0.027786 -0.006790 0.000000 0.000000 0.000000
# 3 -0.007207 -0.006790 0.013279 0.000000 0.000000 0.000000
# 4 0.000000 0.000000 0.000000 0.050485 0.000000 0.000000
# 5 0.000000 0.000000 0.000000 0.000000 0.029104 0.000000
# 6 0.000000 0.000000 0.000000 0.000000 0.000000 0.055591
#
#
# Mechanical properties :
#
#
# Convention : Reuss Voigt Hill
#
# Bulk Modulus (GPa) = 40.65063 57.04403 48.84733
# Shear Modulus (GPa) = 21.48456 24.24024 22.86240
#
# Velocity S-wave (km/s) = 3.53144 3.75108 3.64291
# Velocity P-wave (km/s) = 6.34226 7.20228 6.78591
#
# Compressibility (1/GPa) = 0.02459986
#
# Stress axis : x y z
#
# Youngs Moduli (GPa) = 62.86229 35.98967 75.30467
#
# Poissons Ratio (x) = 0.07879 0.54273
# Poissons Ratio (y) = 0.13761 0.51134
# Poissons Ratio (z) = 0.45305 0.24438
#
# Static dielectric constant tensor:
#      x y z
#    x 3.326110 0.000000 0.000000 
#    y 0.000000 3.109180 0.000000 
#    z 0.000000 0.000000 3.298620 
# 
# 
# High freq. dielectric constant tensor:
#      x y z
#    x 1.671310 0.000000 0.000000 
#    y 0.000000 1.628450 0.000000 
#    z 0.000000 0.000000 1.665530 
# 
# From -- ./inp_files/27983.got.cif
#   From: 2010.03.12/outbox.cif.g09.slc.cpg/sg51_14_cif.got.tgz:27983.got - 2010.04.16 13:43:02.
