data_PCOD8206266
_publ_section_title
;
Structure prediction by ZEFSAII (Michael W. Deem and Ramdas Pophale) SiO2 
 PCOD8206266
Probable space group: P M M A
;
_chemical_formula_sum "Si O2"
_cell_formula_units_Z 52
_cell_length_a 9.155494
_cell_length_b 17.720659
_cell_length_c 18.841653
_cell_angle_alpha 90.000000
_cell_angle_beta 90.000000
_cell_angle_gamma 90.000000
_cell_volume 3056.895919
_symmetry_space_group_name_H-M "P M M A"
_symmetry_group_IT_number 51
_symmetry_cell_setting 'orthorhombic'
loop_
_space_group_symop_operation_xyz
x,y,z
1/2-x,-y,z
1/2+x,-y,-z
-x,y,-z
-x,-y,-z
1/2+x,y,-z
1/2-x,y,z
x,-y,z
loop_
_atom_site_type_symbol
_atom_site_label
_atom_site_fract_x
_atom_site_fract_y
_atom_site_fract_z
Si Si1 0.080533 0.500000 0.926222
Si Si2 0.588995 0.781602 0.226180
Si Si3 0.922015 0.377212 0.186806
Si Si4 0.417024 0.414826 0.328530
Si Si5 0.078736 0.084029 0.279129
Si Si6 0.085107 0.282728 0.616209
Si Si7 0.576938 0.142454 0.567699
O O1 0.250000 0.500000 0.943133
O O2 0.037212 0.424355 0.883191
O O3 0.000000 0.500000 0.000000
O O4 0.750000 0.809526 0.204743
O O5 0.538710 0.712183 0.175017
O O6 0.487143 0.855434 0.223848
O O7 0.587856 0.746441 0.303887
O O8 0.750000 0.385241 0.205571
O O9 0.014558 0.411940 0.250422
O O10 0.250000 0.385777 0.324370
O O11 0.424122 0.500000 0.357014
O O12 0.507525 0.364208 0.384352
O O13 0.250000 0.091983 0.272087
O O14 0.031704 0.098762 0.360589
O O15 0.025661 0.000000 0.258250
O O16 0.250000 0.288197 0.585684
O O17 0.987937 0.226849 0.569173
O O18 0.500000 0.101620 0.500000
O O19 0.750000 0.144073 0.557036
#
# Coordination Sequence:
#
# PCOD8206266 Si02
#       7
#     4   8   8   8   8   8   8
#     4  10  20  32  46  66  98 136 167 196 225 256
#     4   8  15  27  44  65  85 111 148 187 224 266
#     4   9  17  30  46  63  89 125 161 190 223 265
#     4  10  18  26  41  66  90 110 140 185 229 268
#     4   9  18  31  45  64  91 119 145 179 227 277
#     4   9  17  29  44  61  82 109 143 182 225 272
#     4  10  19  31  46  62  83 112 147 183 219 268
#
# _framework density 17.010719999999999
#
# number of rings (size 3 to 8) (size 9 to 14) (size 15 to 20)
#    0.000    2.769    0.769    2.308    0.000    6.462 
#    0.000    0.000    0.000    0.462    0.000    0.000 
#    0.000    0.615    0.000    1.385    0.000    2.462 
#
# Total GULP energy -644481.498087 kJ/mol
# GULP energy per Si atom -12393.874963 kJ/mol
# Density = 1.697200 g / cm^3
# Si number density = 17.010720 Si / 1000 Ang^3
#
#
#
# Elastic Constant Matrix: (Units=GPa)
#
#
# Indices 1 2 3 4 5 6 
#
# 1 68.7505 42.7772 13.8509 0.0000 0.0000 0.0000
# 2 42.7772 133.2370 30.3300 0.0000 0.0000 0.0000
# 3 13.8509 30.3300 37.8142 0.0000 0.0000 0.0000
# 4 0.0000 0.0000 0.0000 12.9303 0.0000 0.0000
# 5 0.0000 0.0000 0.0000 0.0000 21.3294 0.0000
# 6 0.0000 0.0000 0.0000 0.0000 0.0000 27.7159
#
#
#
# Elastic Compliance Matrix: (Units=1/GPa)
#
#
# Indices 1 2 3 4 5 6 
#
# 1 0.018359 -0.005338 -0.002443 0.000000 0.000000 0.000000
# 2 -0.005338 0.010734 -0.006654 0.000000 0.000000 0.000000
# 3 -0.002443 -0.006654 0.032677 0.000000 0.000000 0.000000
# 4 0.000000 0.000000 0.000000 0.077337 0.000000 0.000000
# 5 0.000000 0.000000 0.000000 0.000000 0.046884 0.000000
# 6 0.000000 0.000000 0.000000 0.000000 0.000000 0.036080
#
#
# Mechanical properties :
#
#
# Convention : Reuss Voigt Hill
#
# Bulk Modulus (GPa) = 30.39579 45.96866 38.18222
# Shear Modulus (GPa) = 19.09059 22.58471 20.83765
#
# Velocity S-wave (km/s) = 3.35366 3.64768 3.50376
# Velocity P-wave (km/s) = 5.73615 6.69498 6.23403
#
# Compressibility (1/GPa) = 0.03289929
#
# Stress axis : x y z
#
# Youngs Moduli (GPa) = 54.46913 93.16114 30.60243
#
# Poissons Ratio (x) = 0.49732 0.07476
# Poissons Ratio (y) = 0.29077 0.20364
# Poissons Ratio (z) = 0.13307 0.61992
#
# Static dielectric constant tensor:
#      x y z
#    x 3.270010 0.000000 0.000000 
#    y 0.000000 3.446870 0.000000 
#    z 0.000000 0.000000 2.772060 
# 
# 
# High freq. dielectric constant tensor:
#      x y z
#    x 1.663080 0.000000 0.000000 
#    y 0.000000 1.660220 0.000000 
#    z 0.000000 0.000000 1.594500 
# 
# From -- ./inp_files/27950.got.cif
#   From: 2010.03.12/outbox.cif.g09.slc.cpg/sg51_14_cif.got.tgz:27950.got - 2010.04.16 13:43:02.
