data_PCOD8206341
_publ_section_title
;
Structure prediction by ZEFSAII (Michael W. Deem and Ramdas Pophale) SiO2 
 PCOD8206341
Probable space group: P M M A
;
_chemical_formula_sum "Si O2"
_cell_formula_units_Z 64
_cell_length_a 9.639232
_cell_length_b 14.454704
_cell_length_c 28.621071
_cell_angle_alpha 90.000000
_cell_angle_beta 90.000000
_cell_angle_gamma 90.000000
_cell_volume 3987.838087
_symmetry_space_group_name_H-M "P M M A"
_symmetry_group_IT_number 51
_symmetry_cell_setting 'orthorhombic'
loop_
_space_group_symop_operation_xyz
x,y,z
1/2-x,-y,z
1/2+x,-y,-z
-x,y,-z
-x,-y,-z
1/2+x,y,-z
1/2-x,y,z
x,-y,z
loop_
_atom_site_type_symbol
_atom_site_label
_atom_site_fract_x
_atom_site_fract_y
_atom_site_fract_z
Si Si1 0.403708 0.890204 0.540492
Si Si2 0.084857 0.896808 0.643706
Si Si3 0.088097 0.607986 0.234869
Si Si4 0.086674 0.766289 0.726314
Si Si5 0.589556 0.277024 0.955714
Si Si6 0.085429 0.398047 0.130188
Si Si7 0.590464 0.893804 0.186568
Si Si8 0.408557 0.896207 0.099727
O O1 0.500000 0.846873 0.500000
O O2 0.250000 0.847971 0.534137
O O3 0.463990 0.865383 0.591873
O O4 0.396273 0.000000 0.535641
O O5 0.250000 0.902312 0.644889
O O6 0.032156 0.820996 0.680673
O O7 0.026758 0.000000 0.655646
O O8 0.250000 0.631570 0.241551
O O9 0.060967 0.500000 0.245777
O O10 0.037128 0.632008 0.182049
O O11 0.997106 0.670231 0.269965
O O12 0.250000 0.744395 0.723409
O O13 0.049938 0.831288 0.769817
O O14 0.750000 0.301457 0.965737
O O15 0.531448 0.329795 0.910001
O O16 0.568426 0.168215 0.945457
O O17 0.500000 0.307585 0.000000
O O18 0.250000 0.400097 0.130601
O O19 0.026927 0.500000 0.118695
O O20 0.750000 0.881424 0.172499
O O21 0.500703 0.860884 0.142586
O O22 0.557421 0.000000 0.199773
O O23 0.250000 0.889443 0.116814
O O24 0.449392 0.000000 0.084622
#
# Coordination Sequence:
#
# PCOD8206341 Si02
#       8
#     8   8   8   8   8   8   8   8
#     4   8  13  22  37  55  77 111 154 192 220 248
#     4   8  14  25  40  59  87 124 158 181 210 259
#     4   9  18  33  51  67  84 111 145 176 209 254
#     4  10  18  27  43  66  91 117 144 177 214 252
#     4  10  20  32  46  64  84 104 128 161 200 242
#     4   8  15  30  50  66  80 103 133 160 192 243
#     4   9  17  28  43  65  90 114 141 173 208 245
#     4   9  18  32  47  61  79 107 142 173 199 234
#
# _framework density 16.048794999999998
#
# number of rings (size 3 to 8) (size 9 to 14) (size 15 to 20)
#    0.000    3.125    0.000    2.625    0.000    4.250 
#    0.000    1.250    0.000    2.625    0.000    0.000 
#    0.000    0.500    0.000    1.125    0.000    2.000 
#
# Total GULP energy -793283.880348 kJ/mol
# GULP energy per Si atom -12395.060630 kJ/mol
# Density = 1.601227 g / cm^3
# Si number density = 16.048795 Si / 1000 Ang^3
#
#
#
# Elastic Constant Matrix: (Units=GPa)
#
#
# Indices 1 2 3 4 5 6 
#
# 1 43.6375 30.3329 38.5780 0.0000 0.0000 0.0000
# 2 30.3329 74.6950 51.3524 0.0000 0.0000 0.0000
# 3 38.5780 51.3524 101.8947 0.0000 0.0000 0.0000
# 4 0.0000 0.0000 0.0000 17.1533 0.0000 0.0000
# 5 0.0000 0.0000 0.0000 0.0000 24.5795 0.0000
# 6 0.0000 0.0000 0.0000 0.0000 0.0000 20.3737
#
#
#
# Elastic Compliance Matrix: (Units=1/GPa)
#
#
# Indices 1 2 3 4 5 6 
#
# 1 0.037591 -0.008387 -0.010006 0.000000 0.000000 0.000000
# 2 -0.008387 0.022357 -0.008092 0.000000 0.000000 0.000000
# 3 -0.010006 -0.008092 0.017680 0.000000 0.000000 0.000000
# 4 0.000000 0.000000 0.000000 0.058298 0.000000 0.000000
# 5 0.000000 0.000000 0.000000 0.000000 0.040684 0.000000
# 6 0.000000 0.000000 0.000000 0.000000 0.000000 0.049083
#
#
# Mechanical properties :
#
#
# Convention : Reuss Voigt Hill
#
# Bulk Modulus (GPa) = 40.55171 51.19486 45.87329
# Shear Modulus (GPa) = 17.42876 19.08555 18.25716
#
# Velocity S-wave (km/s) = 3.29900 3.45225 3.37650
# Velocity P-wave (km/s) = 6.31141 6.91805 6.62168
#
# Compressibility (1/GPa) = 0.02465987
#
# Stress axis : x y z
#
# Youngs Moduli (GPa) = 26.60190 44.72924 56.55974
#
# Poissons Ratio (x) = 0.37513 0.56592
# Poissons Ratio (y) = 0.22310 0.45768
# Poissons Ratio (z) = 0.26617 0.36195
#
# Static dielectric constant tensor:
#      x y z
#    x 2.858980 0.000000 0.000000 
#    y 0.000000 3.033540 0.000000 
#    z 0.000000 0.000000 3.125320 
# 
# 
# High freq. dielectric constant tensor:
#      x y z
#    x 1.592490 0.000000 0.000000 
#    y 0.000000 1.600720 0.000000 
#    z 0.000000 0.000000 1.604730 
# 
# From -- ./inp_files/37603.got.cif
#   From: 2010.03.12/outbox.cif.g09.slc.cpg/sg51_19_cif.got.tgz:37603.got - 2010.04.16 13:43:02.
