data_PCOD8206415
_publ_section_title
;
Structure prediction by ZEFSAII (Michael W. Deem and Ramdas Pophale) SiO2 
 PCOD8206415
Probable space group: P M M A
;
_chemical_formula_sum "Si O2"
_cell_formula_units_Z 64
_cell_length_a 9.562781
_cell_length_b 14.228190
_cell_length_c 31.017617
_cell_angle_alpha 90.000000
_cell_angle_beta 90.000000
_cell_angle_gamma 90.000000
_cell_volume 4220.290003
_symmetry_space_group_name_H-M "P M M A"
_symmetry_group_IT_number 51
_symmetry_cell_setting 'orthorhombic'
loop_
_space_group_symop_operation_xyz
x,y,z
1/2-x,-y,z
1/2+x,-y,-z
-x,y,-z
-x,-y,-z
1/2+x,y,-z
1/2-x,y,z
x,-y,z
loop_
_atom_site_type_symbol
_atom_site_label
_atom_site_fract_x
_atom_site_fract_y
_atom_site_fract_z
Si Si1 0.410935 0.890843 0.203999
Si Si2 0.911666 0.108680 0.040551
Si Si3 0.094615 0.887930 0.461901
Si Si4 0.084481 0.601440 0.838536
Si Si5 0.911126 0.393154 0.259225
Si Si6 0.583472 0.104380 0.632597
Si Si7 0.914807 0.227171 0.711849
Si Si8 0.084469 0.201772 0.870696
O O1 0.250000 0.870777 0.191748
O O2 0.455610 0.833065 0.246169
O O3 0.507369 0.861815 0.164205
O O4 0.434701 0.000000 0.214388
O O5 0.750000 0.124845 0.029608
O O6 0.958828 0.167736 0.081996
O O7 0.944046 0.000000 0.050290
O O8 0.000000 0.145426 0.000000
O O9 0.250000 0.847255 0.468662
O O10 0.035447 0.858393 0.414685
O O11 0.000000 0.845009 0.500000
O O12 0.097907 0.000000 0.464132
O O13 0.250000 0.596066 0.838400
O O14 0.026189 0.500000 0.855840
O O15 0.033619 0.616975 0.789716
O O16 0.034049 0.689388 0.867274
O O17 0.750000 0.361535 0.262732
O O18 0.929358 0.500000 0.275335
O O19 0.006486 0.326566 0.288436
O O20 0.750000 0.098879 0.633412
O O21 0.528535 0.173030 0.669776
O O22 0.522573 0.000000 0.641235
O O23 0.750000 0.245253 0.709499
O O24 0.250000 0.190943 0.862844
#
# Coordination Sequence:
#
# PCOD8206415 Si02
#       8
#     8   8   8   8   8   8   8   8
#     4  10  20  30  40  60  90 119 143 170 207 246
#     4   9  18  31  46  65  86 109 138 172 210 249
#     4   8  13  22  37  55  75 103 141 181 216 248
#     4   8  14  26  45  66  85 107 137 171 208 250
#     4   9  17  30  46  62  83 112 143 175 214 257
#     4   8  14  25  40  57  81 117 152 176 206 253
#     4  10  18  28  43  62  85 114 148 179 205 243
#     4  10  18  30  49  68  85 108 144 181 207 242
#
# _framework density 15.164835
#
# number of rings (size 3 to 8) (size 9 to 14) (size 15 to 20)
#    0.000    3.000    1.250    2.250    0.000    3.000 
#    0.000    1.875    0.000    2.625    0.000    0.000 
#    0.000    0.500    0.000    1.125    0.000    2.000 
#
# Total GULP energy -793288.673280 kJ/mol
# GULP energy per Si atom -12395.135520 kJ/mol
# Density = 1.513032 g / cm^3
# Si number density = 15.164835 Si / 1000 Ang^3
#
#
#
# Elastic Constant Matrix: (Units=GPa)
#
#
# Indices 1 2 3 4 5 6 
#
# 1 40.2051 30.8673 43.3628 0.0000 0.0000 0.0000
# 2 30.8673 86.9587 54.6534 0.0000 0.0000 0.0000
# 3 43.3628 54.6534 120.5472 0.0000 0.0000 0.0000
# 4 0.0000 0.0000 0.0000 8.1291 0.0000 0.0000
# 5 0.0000 0.0000 0.0000 0.0000 22.5658 0.0000
# 6 0.0000 0.0000 0.0000 0.0000 0.0000 20.0480
#
#
#
# Elastic Compliance Matrix: (Units=1/GPa)
#
#
# Indices 1 2 3 4 5 6 
#
# 1 0.044274 -0.007980 -0.012308 0.000000 0.000000 0.000000
# 2 -0.007980 0.017521 -0.005073 0.000000 0.000000 0.000000
# 3 -0.012308 -0.005073 0.015023 0.000000 0.000000 0.000000
# 4 0.000000 0.000000 0.000000 0.123015 0.000000 0.000000
# 5 0.000000 0.000000 0.000000 0.000000 0.044315 0.000000
# 6 0.000000 0.000000 0.000000 0.000000 0.000000 0.049880
#
#
# Mechanical properties :
#
#
# Convention : Reuss Voigt Hill
#
# Bulk Modulus (GPa) = 38.32106 56.16421 47.24263
# Shear Modulus (GPa) = 14.14635 18.07042 16.10838
#
# Velocity S-wave (km/s) = 3.05756 3.45570 3.26271
# Velocity P-wave (km/s) = 6.14731 7.28277 6.73900
#
# Compressibility (1/GPa) = 0.02609531
#
# Stress axis : x y z
#
# Youngs Moduli (GPa) = 22.58671 57.07540 66.56523
#
# Poissons Ratio (x) = 0.45547 0.81929
# Poissons Ratio (y) = 0.18024 0.33768
# Poissons Ratio (z) = 0.27800 0.28954
#
# Static dielectric constant tensor:
#      x y z
#    x 2.741690 0.000000 0.000000 
#    y 0.000000 3.050120 0.000000 
#    z 0.000000 0.000000 3.000820 
# 
# 
# High freq. dielectric constant tensor:
#      x y z
#    x 1.559200 0.000000 0.000000 
#    y 0.000000 1.565310 0.000000 
#    z 0.000000 0.000000 1.570940 
# 
# From -- ./inp_files/37575.got.cif
#   From: 2010.03.12/outbox.cif.g09.slc.cpg/sg51_19_cif.got.tgz:37575.got - 2010.04.16 13:43:02.
