data_PCOD8206588
_publ_section_title
;
Structure prediction by ZEFSAII (Michael W. Deem and Ramdas Pophale) SiO2 
 PCOD8206588
Probable space group: P M M A
;
_chemical_formula_sum "Si O2"
_cell_formula_units_Z 64
_cell_length_a 8.941082
_cell_length_b 28.687255
_cell_length_c 14.827485
_cell_angle_alpha 90.000000
_cell_angle_beta 90.000000
_cell_angle_gamma 90.000000
_cell_volume 3803.177238
_symmetry_space_group_name_H-M "P M M A"
_symmetry_group_IT_number 51
_symmetry_cell_setting 'orthorhombic'
loop_
_space_group_symop_operation_xyz
x,y,z
1/2-x,-y,z
1/2+x,-y,-z
-x,y,-z
-x,-y,-z
1/2+x,y,-z
1/2-x,y,z
x,-y,z
loop_
_atom_site_type_symbol
_atom_site_label
_atom_site_fract_x
_atom_site_fract_y
_atom_site_fract_z
Si Si1 0.574544 0.623043 0.091626
Si Si2 0.072595 0.150345 0.598115
Si Si3 0.575527 0.049169 0.404439
Si Si4 0.927542 0.686255 0.408576
Si Si5 0.421234 0.552153 0.219542
Si Si6 0.076775 0.588415 0.410862
Si Si7 0.073322 0.270300 0.908030
Si Si8 0.073263 0.232548 0.722273
O O1 0.750000 0.619215 0.080056
O O2 0.525758 0.590082 0.173127
O O3 0.524945 0.676226 0.111357
O O4 0.500000 0.604614 0.000000
O O5 0.250000 0.156771 0.586051
O O6 0.030782 0.098916 0.640142
O O7 0.007238 0.187276 0.670729
O O8 0.000000 0.158317 0.500000
O O9 0.500000 0.047199 0.500000
O O10 0.750000 0.050217 0.422287
O O11 0.533625 0.000000 0.351761
O O12 0.750000 0.682508 0.419166
O O13 0.975304 0.720984 0.329582
O O14 0.000000 0.706109 0.500000
O O15 0.995730 0.636385 0.384858
O O16 0.250000 0.563543 0.194442
O O17 0.464504 0.500000 0.187739
O O18 0.443401 0.553635 0.327437
O O19 0.250000 0.598445 0.432139
O O20 0.000000 0.566361 0.500000
O O21 0.250000 0.266889 0.918675
O O22 0.014948 0.237958 0.825277
O O23 0.000000 0.251549 0.000000
O O24 0.250000 0.228155 0.724281
#
# Coordination Sequence:
#
# PCOD8206588 Si02
#       8
#     8   8   8   8   8   8   8   8
#     4  10  20  35  56  77  95 116 141 172 211 258
#     4   9  16  26  39  57  85 119 150 180 215 253
#     4   8  13  21  34  52  75 107 147 185 216 247
#     4  10  18  29  45  65  89 116 146 176 207 249
#     4  10  22  38  53  71  95 119 144 177 215 254
#     4  10  20  34  51  69  90 117 149 183 216 250
#     4   9  18  33  50  68  88 110 140 175 211 253
#     4   9  17  28  43  62  87 117 143 172 214 259
#
# _framework density 16.828036000000001
#
# number of rings (size 3 to 8) (size 9 to 14) (size 15 to 20)
#    0.000    2.625    0.000    3.000    0.000    3.250 
#    0.000    2.500    0.000    0.000    0.000    0.000 
#    0.000    0.500    0.000    0.375    0.000    1.000 
#
# Total GULP energy -792992.066675 kJ/mol
# GULP energy per Si atom -12390.501042 kJ/mol
# Density = 1.678973 g / cm^3
# Si number density = 16.828036 Si / 1000 Ang^3
#
#
#
# Elastic Constant Matrix: (Units=GPa)
#
#
# Indices 1 2 3 4 5 6 
#
# 1 47.0846 24.8425 24.2756 0.0000 0.0000 0.0000
# 2 24.8425 85.7454 51.3685 0.0000 0.0000 0.0000
# 3 24.2756 51.3685 100.8592 0.0000 0.0000 0.0000
# 4 0.0000 0.0000 0.0000 20.2885 0.0000 0.0000
# 5 0.0000 0.0000 0.0000 0.0000 24.4036 0.0000
# 6 0.0000 0.0000 0.0000 0.0000 0.0000 13.9723
#
#
#
# Elastic Compliance Matrix: (Units=1/GPa)
#
#
# Indices 1 2 3 4 5 6 
#
# 1 0.025888 -0.005422 -0.003470 0.000000 0.000000 0.000000
# 2 -0.005422 0.017919 -0.007821 0.000000 0.000000 0.000000
# 3 -0.003470 -0.007821 0.014733 0.000000 0.000000 0.000000
# 4 0.000000 0.000000 0.000000 0.049289 0.000000 0.000000
# 5 0.000000 0.000000 0.000000 0.000000 0.040977 0.000000
# 6 0.000000 0.000000 0.000000 0.000000 0.000000 0.071570
#
#
# Mechanical properties :
#
#
# Convention : Reuss Voigt Hill
#
# Bulk Modulus (GPa) = 39.81718 48.29585 44.05651
# Shear Modulus (GPa) = 19.07135 20.61305 19.84220
#
# Velocity S-wave (km/s) = 3.37012 3.50369 3.43755
# Velocity P-wave (km/s) = 6.23347 6.71786 6.48020
#
# Compressibility (1/GPa) = 0.02511479
#
# Stress axis : x y z
#
# Youngs Moduli (GPa) = 38.62828 55.80719 67.87335
#
# Poissons Ratio (x) = 0.30257 0.23549
# Poissons Ratio (y) = 0.20943 0.53086
# Poissons Ratio (z) = 0.13402 0.43648
#
# Static dielectric constant tensor:
#      x y z
#    x 3.052290 0.000000 0.000000 
#    y 0.000000 3.542890 0.000000 
#    z 0.000000 0.000000 3.148020 
# 
# 
# High freq. dielectric constant tensor:
#      x y z
#    x 1.642510 0.000000 0.000000 
#    y 0.000000 1.642800 0.000000 
#    z 0.000000 0.000000 1.626970 
# 
# From -- ./inp_files/22587.got.cif
#   From: 2010.03.12/outbox.cif.g09.slc.cpg/sg51_12_cif.got.tgz:22587.got - 2010.04.16 13:43:02.
