data_PCOD8206813
_publ_section_title
;
Structure prediction by ZEFSAII (Michael W. Deem and Ramdas Pophale) SiO2 
 PCOD8206813
Probable space group: P M M A
;
_chemical_formula_sum "Si O2"
_cell_formula_units_Z 64
_cell_length_a 29.776652
_cell_length_b 9.387706
_cell_length_c 14.258384
_cell_angle_alpha 90.000000
_cell_angle_beta 90.000000
_cell_angle_gamma 90.000000
_cell_volume 3985.709595
_symmetry_space_group_name_H-M "P M M A"
_symmetry_group_IT_number 51
_symmetry_cell_setting 'orthorhombic'
loop_
_space_group_symop_operation_xyz
x,y,z
1/2-x,-y,z
1/2+x,-y,-z
-x,y,-z
-x,-y,-z
1/2+x,y,-z
1/2-x,y,z
x,-y,z
loop_
_atom_site_type_symbol
_atom_site_label
_atom_site_fract_x
_atom_site_fract_y
_atom_site_fract_z
Si Si1 0.456687 0.333595 0.442048
Si Si2 0.111630 0.837032 0.553213
Si Si3 0.565609 0.841664 0.251094
Si Si4 0.479948 0.666692 0.229789
Si Si5 0.626092 0.159971 0.077164
Si Si6 0.301153 0.662937 0.843054
Si Si7 0.454965 0.167535 0.055398
Si Si8 0.300463 0.164310 0.653606
O O1 0.500000 0.275254 0.500000
O O2 0.451503 0.500000 0.461481
O O3 0.410370 0.259293 0.472970
O O4 0.461685 0.297827 0.332838
O O5 0.082768 0.809749 0.645770
O O6 0.163569 0.793236 0.573001
O O7 0.108906 0.000000 0.520130
O O8 0.530459 0.722776 0.220833
O O9 0.607674 0.833408 0.182569
O O10 0.543615 0.000000 0.244084
O O11 0.479506 0.500000 0.208559
O O12 0.450042 0.747313 0.152643
O O13 0.669036 0.263903 0.075335
O O14 0.641456 0.000000 0.051561
O O15 0.588092 0.212386 0.005368
O O16 0.250000 0.675185 0.877044
O O17 0.316171 0.500000 0.830773
O O18 0.308010 0.739266 0.743927
O O19 0.455928 0.000000 0.076368
O O20 0.500000 0.212882 0.000000
O O21 0.250000 0.185680 0.613310
O O22 0.308671 0.000000 0.683701
#
# Coordination Sequence:
#
# PCOD8206813 Si02
#       8
#     8   8   8   8   8   8   8   8
#     4  10  21  35  47  65  96 130 162 197 239 283
#     4  10  19  30  48  73  94 124 166 200 235 279
#     4  10  18  30  47  69  98 127 163 201 236 279
#     4  11  22  34  48  68  96 130 166 201 240 282
#     4  10  19  33  51  70  95 131 166 197 238 285
#     4  10  20  31  45  70 102 131 160 197 239 283
#     4  10  20  35  52  70  96 128 161 200 241 283
#     4   9  17  31  49  69  97 129 160 196 238 287
#
# _framework density 16.057365999999998
#
# number of rings (size 3 to 8) (size 9 to 14) (size 15 to 20)
#    0.000    2.000    3.750    0.750    0.000    3.750 
#    0.000    0.000    0.000    0.000    0.000    0.875 
#    0.000    3.000    0.000    0.000    0.000    0.000 
#
# Total GULP energy -793564.992123 kJ/mol
# GULP energy per Si atom -12399.453002 kJ/mol
# Density = 1.602082 g / cm^3
# Si number density = 16.057366 Si / 1000 Ang^3
#
#
#
# Elastic Constant Matrix: (Units=GPa)
#
#
# Indices 1 2 3 4 5 6 
#
# 1 106.8341 53.2003 40.3159 0.0000 0.0000 0.0000
# 2 53.2003 73.2419 45.5555 0.0000 0.0000 0.0000
# 3 40.3159 45.5555 75.5175 0.0000 0.0000 0.0000
# 4 0.0000 0.0000 0.0000 25.1642 0.0000 0.0000
# 5 0.0000 0.0000 0.0000 0.0000 22.3785 0.0000
# 6 0.0000 0.0000 0.0000 0.0000 0.0000 22.8771
#
#
#
# Elastic Compliance Matrix: (Units=1/GPa)
#
#
# Indices 1 2 3 4 5 6 
#
# 1 0.014907 -0.009408 -0.002283 0.000000 0.000000 0.000000
# 2 -0.009408 0.027790 -0.011742 0.000000 0.000000 0.000000
# 3 -0.002283 -0.011742 0.021544 0.000000 0.000000 0.000000
# 4 0.000000 0.000000 0.000000 0.039739 0.000000 0.000000
# 5 0.000000 0.000000 0.000000 0.000000 0.044686 0.000000
# 6 0.000000 0.000000 0.000000 0.000000 0.000000 0.043712
#
#
# Mechanical properties :
#
#
# Convention : Reuss Voigt Hill
#
# Bulk Modulus (GPa) = 57.55146 59.30407 58.42777
# Shear Modulus (GPa) = 20.40535 21.85207 21.12871
#
# Velocity S-wave (km/s) = 3.56867 3.69301 3.63137
# Velocity P-wave (km/s) = 7.27320 7.42948 7.35176
#
# Compressibility (1/GPa) = 0.01737575
#
# Stress axis : x y z
#
# Youngs Moduli (GPa) = 67.08459 35.98417 46.41688
#
# Poissons Ratio (x) = 0.33853 0.10597
# Poissons Ratio (y) = 0.63111 0.54502
# Poissons Ratio (z) = 0.15315 0.42252
#
# Static dielectric constant tensor:
#      x y z
#    x 3.091920 0.000000 0.000000 
#    y 0.000000 3.086230 0.000000 
#    z 0.000000 0.000000 2.861440 
# 
# 
# High freq. dielectric constant tensor:
#      x y z
#    x 1.609400 0.000000 0.000000 
#    y 0.000000 1.620370 0.000000 
#    z 0.000000 0.000000 1.589500 
# 
# From -- ./inp_files/26681.got.cif
#   From: 2010.03.12/outbox.cif.g09.slc.cpg/sg51_14_cif.got.tgz:26681.got - 2010.04.16 13:43:02.
