data_PCOD8206710
_publ_section_title
;
Structure prediction by ZEFSAII (Michael W. Deem and Ramdas Pophale) SiO2 
 PCOD8206710
Probable space group: P M M A
;
_chemical_formula_sum "Si O2"
_cell_formula_units_Z 64
_cell_length_a 18.038744
_cell_length_b 9.103271
_cell_length_c 21.652298
_cell_angle_alpha 90.000000
_cell_angle_beta 90.000000
_cell_angle_gamma 90.000000
_cell_volume 3555.557960
_symmetry_space_group_name_H-M "P M M A"
_symmetry_group_IT_number 51
_symmetry_cell_setting 'orthorhombic'
loop_
_space_group_symop_operation_xyz
x,y,z
1/2-x,-y,z
1/2+x,-y,-z
-x,y,-z
-x,-y,-z
1/2+x,y,-z
1/2-x,y,z
x,-y,z
loop_
_atom_site_type_symbol
_atom_site_label
_atom_site_fract_x
_atom_site_fract_y
_atom_site_fract_z
Si Si1 0.919148 0.674405 0.628540
Si Si2 0.949502 0.828582 0.179972
Si Si3 0.836287 0.328401 0.261900
Si Si4 0.166568 0.674927 0.492524
Si Si5 0.979936 0.328274 0.931625
Si Si6 0.167138 0.331181 0.135490
Si Si7 0.399575 0.828603 0.247218
Si Si8 0.913423 0.325616 0.386086
O O1 0.916019 0.500000 0.636792
O O2 0.872923 0.729177 0.569676
O O3 0.883169 0.748040 0.688567
O O4 0.002821 0.731703 0.619489
O O5 0.875036 0.757966 0.206500
O O6 0.965957 0.757949 0.113894
O O7 0.016347 0.794266 0.226952
O O8 0.937259 0.000000 0.170324
O O9 0.750000 0.293744 0.258458
O O10 0.853675 0.500000 0.254069
O O11 0.866478 0.270202 0.327510
O O12 0.250000 0.736423 0.493547
O O13 0.166380 0.500000 0.495077
O O14 0.123033 0.739502 0.551695
O O15 0.996214 0.500000 0.923842
O O16 0.893583 0.291014 0.916898
O O17 0.000000 0.273821 0.000000
O O18 0.250000 0.302755 0.108927
O O19 0.157075 0.500000 0.155718
O O20 0.156458 0.232389 0.195959
O O21 0.384678 0.000000 0.255183
O O22 0.912344 0.500000 0.389665
#
# Coordination Sequence:
#
# PCOD8206710 Si02
#       8
#     8   8   8   8   8   8   8   8
#     4  10  18  29  49  73  96 128 168 211 259 313
#     4  10  20  34  52  74 104 138 172 209 252 306
#     4  10  19  31  51  77 101 130 170 217 267 312
#     4   9  17  28  43  68  99 126 160 211 265 313
#     4   9  18  34  57  82 108 140 176 213 253 298
#     4   9  18  33  54  79 106 136 172 213 254 296
#     4  10  20  33  50  73 101 135 171 208 255 306
#     4   9  16  28  47  70  97 127 164 211 261 311
#
# _framework density 17.999987999999998
#
# number of rings (size 3 to 8) (size 9 to 14) (size 15 to 20)
#    0.000    2.500    1.250    1.500    0.000    5.250 
#    0.000    1.875    0.000    4.500    0.000    0.000 
#    0.000    0.000    0.000    0.000    0.000    0.000 
#
# Total GULP energy -793688.019658 kJ/mol
# GULP energy per Si atom -12401.375307 kJ/mol
# Density = 1.795902 g / cm^3
# Si number density = 17.999988 Si / 1000 Ang^3
#
#
#
# Elastic Constant Matrix: (Units=GPa)
#
#
# Indices 1 2 3 4 5 6 
#
# 1 109.0423 29.7762 68.7861 0.0000 0.0000 0.0000
# 2 29.7762 42.6270 43.6380 0.0000 0.0000 0.0000
# 3 68.7861 43.6380 156.4871 0.0000 0.0000 0.0000
# 4 0.0000 0.0000 0.0000 6.9651 0.0000 0.0000
# 5 0.0000 0.0000 0.0000 0.0000 25.1153 0.0000
# 6 0.0000 0.0000 0.0000 0.0000 0.0000 12.1579
#
#
#
# Elastic Compliance Matrix: (Units=1/GPa)
#
#
# Indices 1 2 3 4 5 6 
#
# 1 0.013312 -0.004630 -0.004560 0.000000 0.000000 0.000000
# 2 -0.004630 0.034443 -0.007569 0.000000 0.000000 0.000000
# 3 -0.004560 -0.007569 0.010506 0.000000 0.000000 0.000000
# 4 0.000000 0.000000 0.000000 0.143574 0.000000 0.000000
# 5 0.000000 0.000000 0.000000 0.000000 0.039816 0.000000
# 6 0.000000 0.000000 0.000000 0.000000 0.000000 0.082251
#
#
# Mechanical properties :
#
#
# Convention : Reuss Voigt Hill
#
# Bulk Modulus (GPa) = 40.41988 65.83966 53.12977
# Shear Modulus (GPa) = 13.67362 19.91140 16.79251
#
# Velocity S-wave (km/s) = 2.75916 3.32955 3.05768
# Velocity P-wave (km/s) = 5.71444 7.17205 6.48433
#
# Compressibility (1/GPa) = 0.02474030
#
# Stress axis : x y z
#
# Youngs Moduli (GPa) = 75.12131 29.03375 95.18755
#
# Poissons Ratio (x) = 0.13444 0.43407
# Poissons Ratio (y) = 0.34784 0.72051
# Poissons Ratio (z) = 0.34257 0.21977
#
# Static dielectric constant tensor:
#      x y z
#    x 3.385540 0.000000 0.000000 
#    y 0.000000 2.990920 0.000000 
#    z 0.000000 0.000000 3.325230 
# 
# 
# High freq. dielectric constant tensor:
#      x y z
#    x 1.698630 0.000000 0.000000 
#    y 0.000000 1.664610 0.000000 
#    z 0.000000 0.000000 1.695900 
# 
# From -- ./inp_files/33874.got.cif
#   From: 2010.03.12/outbox.cif.g09.slc.cpg/sg51_17_cif.got.tgz:33874.got - 2010.04.16 13:43:02.
