data_PCOD8206942
_publ_section_title
;
Structure prediction by ZEFSAII (Michael W. Deem and Ramdas Pophale) SiO2 
 PCOD8206942
Probable space group: P M M A
;
_chemical_formula_sum "Si O2"
_cell_formula_units_Z 52
_cell_length_a 8.792949
_cell_length_b 21.379908
_cell_length_c 14.686895
_cell_angle_alpha 90.000000
_cell_angle_beta 90.000000
_cell_angle_gamma 90.000000
_cell_volume 2761.025237
_symmetry_space_group_name_H-M "P M M A"
_symmetry_group_IT_number 51
_symmetry_cell_setting 'orthorhombic'
loop_
_space_group_symop_operation_xyz
x,y,z
1/2-x,-y,z
1/2+x,-y,-z
-x,y,-z
-x,-y,-z
1/2+x,y,-z
1/2-x,y,z
x,-y,z
loop_
_atom_site_type_symbol
_atom_site_label
_atom_site_fract_x
_atom_site_fract_y
_atom_site_fract_z
Si Si1 0.081663 0.325751 0.919681
Si Si2 0.932471 0.872797 0.101166
Si Si3 0.567513 0.000000 0.899996
Si Si4 0.070564 0.699119 0.407320
Si Si5 0.072513 0.429701 0.646884
Si Si6 0.418879 0.430857 0.164933
Si Si7 0.920323 0.766030 0.240614
O O1 0.250000 0.342134 0.951724
O O2 0.082594 0.294331 0.822284
O O3 0.978427 0.387448 0.915353
O O4 0.000000 0.284750 0.000000
O O5 0.750000 0.874788 0.091832
O O6 0.984182 0.821896 0.176698
O O7 0.000024 0.936928 0.144524
O O8 0.000000 0.859079 0.000000
O O9 0.750000 0.000000 0.898568
O O10 0.500000 0.000000 0.000000
O O11 0.250000 0.700155 0.412988
O O12 0.000000 0.726861 0.500000
O O13 0.018216 0.626660 0.400353
O O14 0.022054 0.746821 0.326706
O O15 0.250000 0.417504 0.630815
O O16 0.026555 0.500000 0.610448
O O17 0.037961 0.426643 0.753183
O O18 0.250000 0.410223 0.198606
O O19 0.413063 0.500000 0.124144
O O20 0.750000 0.782258 0.274739
#
# Coordination Sequence:
#
# PCOD8206942 Si02
#       7
#     8   8   4   8   8   8   8
#     4  11  22  35  53  75 104 139 178 223 268 322
#     4  10  19  33  55  84 120 159 195 232 271 317
#     4  10  18  30  50  80 119 158 197 236 270 314
#     4  12  25  40  61  83 109 142 180 229 281 339
#     4  10  20  36  58  81 106 135 171 221 282 344
#     4  10  20  34  52  74  99 131 174 220 270 327
#     4  10  22  39  57  80 111 146 184 227 274 327
#
# _framework density 18.833584999999999
#
# number of rings (size 3 to 8) (size 9 to 14) (size 15 to 20)
#    0.000    1.538    1.538    5.308    0.000    4.308 
#    0.000    0.000    0.000    0.000    0.000    0.538 
#    0.000    0.000    0.000    0.000    0.000    0.000 
#
# Total GULP energy -644301.956077 kJ/mol
# GULP energy per Si atom -12390.422232 kJ/mol
# Density = 1.879072 g / cm^3
# Si number density = 18.833585 Si / 1000 Ang^3
#
#
#
# Elastic Constant Matrix: (Units=GPa)
#
#
# Indices 1 2 3 4 5 6 
#
# 1 133.7521 54.9651 52.4462 0.0000 0.0000 0.0000
# 2 54.9651 112.8783 45.7688 0.0000 0.0000 0.0000
# 3 52.4462 45.7688 95.7611 0.0000 0.0000 0.0000
# 4 0.0000 0.0000 0.0000 17.7068 0.0000 0.0000
# 5 0.0000 0.0000 0.0000 0.0000 30.1844 0.0000
# 6 0.0000 0.0000 0.0000 0.0000 0.0000 25.0865
#
#
#
# Elastic Compliance Matrix: (Units=1/GPa)
#
#
# Indices 1 2 3 4 5 6 
#
# 1 0.010504 -0.003451 -0.004103 0.000000 0.000000 0.000000
# 2 -0.003451 0.012122 -0.003904 0.000000 0.000000 0.000000
# 3 -0.004103 -0.003904 0.014556 0.000000 0.000000 0.000000
# 4 0.000000 0.000000 0.000000 0.056476 0.000000 0.000000
# 5 0.000000 0.000000 0.000000 0.000000 0.033130 0.000000
# 6 0.000000 0.000000 0.000000 0.000000 0.000000 0.039862
#
#
# Mechanical properties :
#
#
# Convention : Reuss Voigt Hill
#
# Bulk Modulus (GPa) = 70.09821 72.08354 71.09088
# Shear Modulus (GPa) = 25.73071 27.20963 26.47017
#
# Velocity S-wave (km/s) = 3.70024 3.80510 3.75304
# Velocity P-wave (km/s) = 7.45361 7.59355 7.52391
#
# Compressibility (1/GPa) = 0.01426570
#
# Stress axis : x y z
#
# Youngs Moduli (GPa) = 95.20549 82.49190 68.70127
#
# Poissons Ratio (x) = 0.28467 0.28190
# Poissons Ratio (y) = 0.32854 0.26820
# Poissons Ratio (z) = 0.39065 0.32204
#
# Static dielectric constant tensor:
#      x y z
#    x 3.604980 0.000000 0.000000 
#    y 0.000000 3.848710 0.000000 
#    z 0.000000 0.000000 3.289150 
# 
# 
# High freq. dielectric constant tensor:
#      x y z
#    x 1.746860 0.000000 0.000000 
#    y 0.000000 1.716300 0.000000 
#    z 0.000000 0.000000 1.710530 
# 
# From -- ./inp_files/21600.got.cif
#   From: 2010.03.12/outbox.cif.g09.slc.cpg/sg51_11_cif.got.tgz:21600.got - 2010.04.16 13:43:02.
