data_PCOD8206979
_publ_section_title
;
Structure prediction by ZEFSAII (Michael W. Deem and Ramdas Pophale) SiO2 
 PCOD8206979
Probable space group: P M M A
;
_chemical_formula_sum "Si O2"
_cell_formula_units_Z 48
_cell_length_a 16.759492
_cell_length_b 16.678128
_cell_length_c 9.196643
_cell_angle_alpha 90.000000
_cell_angle_beta 90.000000
_cell_angle_gamma 90.000000
_cell_volume 2570.617627
_symmetry_space_group_name_H-M "P M M A"
_symmetry_group_IT_number 51
_symmetry_cell_setting 'orthorhombic'
loop_
_space_group_symop_operation_xyz
x,y,z
1/2-x,-y,z
1/2+x,-y,-z
-x,y,-z
-x,-y,-z
1/2+x,y,-z
1/2-x,y,z
x,-y,z
loop_
_atom_site_type_symbol
_atom_site_label
_atom_site_fract_x
_atom_site_fract_y
_atom_site_fract_z
Si Si1 0.343074 0.189856 0.694545
Si Si2 0.842547 0.409788 0.211689
Si Si3 0.090984 0.335044 0.521851
Si Si4 0.657236 0.912712 0.566243
Si Si5 0.591998 0.737705 0.038012
Si Si6 0.342168 0.757647 0.274785
O O1 0.250000 0.216483 0.696159
O O2 0.397621 0.253491 0.610829
O O3 0.353612 0.106929 0.606676
O O4 0.377899 0.189042 0.858435
O O5 0.750000 0.388789 0.191532
O O6 0.861138 0.500000 0.159054
O O7 0.865298 0.403696 0.383279
O O8 0.893649 0.348258 0.114220
O O9 0.125864 0.320507 0.360644
O O10 0.000000 0.359611 0.500000
O O11 0.750000 0.919430 0.603491
O O12 0.619119 0.841989 0.666746
O O13 0.616839 0.000000 0.596298
O O14 0.643510 0.744280 0.893542
O O15 0.500000 0.748571 0.000000
O O16 0.250000 0.763044 0.311036
#
# Coordination Sequence:
#
# PCOD8206979 Si02
#       6
#     8   8   8   8   8   8
#     4   9  17  32  53  73  99 137 176 205 238 299
#     4  10  21  38  56  72  97 134 170 203 246 304
#     4  10  18  31  51  75 101 128 163 203 246 295
#     4   8  15  29  51  78 102 127 166 213 252 288
#     4  11  21  34  52  74 102 133 168 209 251 299
#     4  10  18  30  52  77 101 129 165 210 252 293
#
# _framework density 18.672556
#
# number of rings (size 3 to 8) (size 9 to 14) (size 15 to 20)
#    0.000    2.333    0.000    7.000    0.000    0.667 
#    0.000    1.667    0.000   26.000    0.000    0.000 
#    0.000    0.000    0.000    0.000    0.000    0.000 
#
# Total GULP energy -594706.088413 kJ/mol
# GULP energy per Si atom -12389.710175 kJ/mol
# Density = 1.863006 g / cm^3
# Si number density = 18.672556 Si / 1000 Ang^3
#
#
#
# Elastic Constant Matrix: (Units=GPa)
#
#
# Indices 1 2 3 4 5 6 
#
# 1 56.6287 10.5490 5.8634 0.0000 0.0000 0.0000
# 2 10.5490 76.2901 20.3073 0.0000 0.0000 0.0000
# 3 5.8634 20.3073 101.4777 0.0000 0.0000 0.0000
# 4 0.0000 0.0000 0.0000 18.3946 0.0000 0.0000
# 5 0.0000 0.0000 0.0000 0.0000 29.3826 0.0000
# 6 0.0000 0.0000 0.0000 0.0000 0.0000 5.7716
#
#
#
# Elastic Compliance Matrix: (Units=1/GPa)
#
#
# Indices 1 2 3 4 5 6 
#
# 1 0.018158 -0.002357 -0.000577 0.000000 0.000000 0.000000
# 2 -0.002357 0.014151 -0.002696 0.000000 0.000000 0.000000
# 3 -0.000577 -0.002696 0.010427 0.000000 0.000000 0.000000
# 4 0.000000 0.000000 0.000000 0.054364 0.000000 0.000000
# 5 0.000000 0.000000 0.000000 0.000000 0.034034 0.000000
# 6 0.000000 0.000000 0.000000 0.000000 0.000000 0.173262
#
#
# Mechanical properties :
#
#
# Convention : Reuss Voigt Hill
#
# Bulk Modulus (GPa) = 31.77039 34.20397 32.98718
# Shear Modulus (GPa) = 15.33044 23.88822 19.60933
#
# Velocity S-wave (km/s) = 2.86844 3.58064 3.24415
# Velocity P-wave (km/s) = 5.29359 5.95418 5.63357
#
# Compressibility (1/GPa) = 0.03147584
#
# Stress axis : x y z
#
# Youngs Moduli (GPa) = 55.07284 70.66468 95.90298
#
# Poissons Ratio (x) = 0.16656 0.05538
# Poissons Ratio (y) = 0.12981 0.25853
# Poissons Ratio (z) = 0.03180 0.19049
#
# Static dielectric constant tensor:
#      x y z
#    x 3.294340 0.000000 0.000000 
#    y 0.000000 3.458330 0.000000 
#    z 0.000000 0.000000 3.720680 
# 
# 
# High freq. dielectric constant tensor:
#      x y z
#    x 1.715620 0.000000 0.000000 
#    y 0.000000 1.699810 0.000000 
#    z 0.000000 0.000000 1.726440 
# 
# From -- ./inp_files/8235.got.cif
#   From: 2010.03.12/outbox.cif.g09.slc.cpg/sg51_5_cif.got.tgz:8235.got - 2010.04.16 13:43:02.
