data_PCOD8206987
_publ_section_title
;
Structure prediction by ZEFSAII (Michael W. Deem and Ramdas Pophale) SiO2 
 PCOD8206987
Probable space group: P M M A
;
_chemical_formula_sum "Si O2"
_cell_formula_units_Z 64
_cell_length_a 19.462118
_cell_length_b 9.304165
_cell_length_c 18.684886
_cell_angle_alpha 90.000000
_cell_angle_beta 90.000000
_cell_angle_gamma 90.000000
_cell_volume 3383.435934
_symmetry_space_group_name_H-M "P M M A"
_symmetry_group_IT_number 51
_symmetry_cell_setting 'orthorhombic'
loop_
_space_group_symop_operation_xyz
x,y,z
1/2-x,-y,z
1/2+x,-y,-z
-x,y,-z
-x,-y,-z
1/2+x,y,-z
1/2-x,y,z
x,-y,z
loop_
_atom_site_type_symbol
_atom_site_label
_atom_site_fract_x
_atom_site_fract_y
_atom_site_fract_z
Si Si1 0.562695 0.829893 0.366712
Si Si2 0.177935 0.336689 0.315225
Si Si3 0.617652 0.338956 0.828353
Si Si4 0.510102 0.164442 0.211371
Si Si5 0.567722 0.331396 0.581655
Si Si6 0.560856 0.833726 0.053731
Si Si7 0.330467 0.667228 0.549754
Si Si8 0.827598 0.670764 0.977180
O O1 0.553332 0.794522 0.282171
O O2 0.503718 0.756817 0.417312
O O3 0.637092 0.762862 0.386301
O O4 0.562120 0.000000 0.381345
O O5 0.250000 0.262443 0.339661
O O6 0.178723 0.500000 0.344515
O O7 0.178733 0.335720 0.229176
O O8 0.109576 0.269515 0.349574
O O9 0.591910 0.500000 0.843884
O O10 0.558098 0.255048 0.789337
O O11 0.644070 0.268385 0.901611
O O12 0.548590 0.197216 0.137077
O O13 0.487822 0.000000 0.214643
O O14 0.547474 0.500000 0.584483
O O15 0.620269 0.298266 0.517401
O O16 0.575793 0.000000 0.038482
O O17 0.500000 0.781335 0.000000
O O18 0.628399 0.741076 0.039565
O O19 0.250000 0.710070 0.536212
O O20 0.334610 0.500000 0.570565
O O21 0.750000 0.722828 0.987122
O O22 0.832834 0.500000 0.980162
#
# Coordination Sequence:
#
# PCOD8206987 Si02
#       8
#     8   8   8   8   8   8   8   8
#     4  11  23  38  58  83 114 149 184 228 280 329
#     4   9  16  27  47  77 111 145 180 216 258 314
#     4  10  18  30  52  79 109 145 182 218 265 327
#     4  10  21  37  55  79 110 142 184 233 273 318
#     4  10  19  34  58  86 113 144 183 227 271 323
#     4  10  20  36  58  79 103 142 188 228 267 319
#     4  10  22  40  61  85 112 144 186 234 279 325
#     4  10  21  35  52  81 117 145 175 222 277 330
#
# _framework density 18.915680999999999
#
# number of rings (size 3 to 8) (size 9 to 14) (size 15 to 20)
#    0.000    2.000    2.500    1.500    0.000    6.750 
#    0.000    0.625    0.000    6.750    0.000    0.000 
#    0.000    0.000    0.000    0.000    0.000    0.000 
#
# Total GULP energy -793059.137454 kJ/mol
# GULP energy per Si atom -12391.549023 kJ/mol
# Density = 1.887263 g / cm^3
# Si number density = 18.915681 Si / 1000 Ang^3
#
#
#
# Elastic Constant Matrix: (Units=GPa)
#
#
# Indices 1 2 3 4 5 6 
#
# 1 124.5763 47.7051 56.4904 0.0000 0.0000 0.0000
# 2 47.7051 50.4469 42.1111 0.0000 0.0000 0.0000
# 3 56.4904 42.1111 92.2153 0.0000 0.0000 0.0000
# 4 0.0000 0.0000 0.0000 25.4959 0.0000 0.0000
# 5 0.0000 0.0000 0.0000 0.0000 20.1830 0.0000
# 6 0.0000 0.0000 0.0000 0.0000 0.0000 54.0832
#
#
#
# Elastic Compliance Matrix: (Units=1/GPa)
#
#
# Indices 1 2 3 4 5 6 
#
# 1 0.013406 -0.009408 -0.003916 0.000000 0.000000 0.000000
# 2 -0.009408 0.038637 -0.011881 0.000000 0.000000 0.000000
# 3 -0.003916 -0.011881 0.018668 0.000000 0.000000 0.000000
# 4 0.000000 0.000000 0.000000 0.039222 0.000000 0.000000
# 5 0.000000 0.000000 0.000000 0.000000 0.049547 0.000000
# 6 0.000000 0.000000 0.000000 0.000000 0.000000 0.018490
#
#
# Mechanical properties :
#
#
# Convention : Reuss Voigt Hill
#
# Bulk Modulus (GPa) = 49.25671 62.20576 55.73123
# Shear Modulus (GPa) = 21.26330 28.01454 24.63892
#
# Velocity S-wave (km/s) = 3.35641 3.85258 3.61302
# Velocity P-wave (km/s) = 6.41228 7.26272 6.85071
#
# Compressibility (1/GPa) = 0.02030180
#
# Stress axis : x y z
#
# Youngs Moduli (GPa) = 74.59516 25.88175 53.56643
#
# Poissons Ratio (x) = 0.24350 0.20976
# Poissons Ratio (y) = 0.70181 0.63640
# Poissons Ratio (z) = 0.29210 0.30749
#
# Static dielectric constant tensor:
#      x y z
#    x 3.503000 0.000000 0.000000 
#    y 0.000000 3.254970 0.000000 
#    z 0.000000 0.000000 3.624110 
# 
# 
# High freq. dielectric constant tensor:
#      x y z
#    x 1.733360 0.000000 0.000000 
#    y 0.000000 1.709900 0.000000 
#    z 0.000000 0.000000 1.741720 
# 
# From -- ./inp_files/33974.got.cif
#   From: 2010.03.12/outbox.cif.g09.slc.cpg/sg51_17_cif.got.tgz:33974.got - 2010.04.16 13:43:02.
