data_PCOD8206416
_publ_section_title
;
Structure prediction by ZEFSAII (Michael W. Deem and Ramdas Pophale) SiO2 
 PCOD8206416
Probable space group: P M M A
;
_chemical_formula_sum "Si O2"
_cell_formula_units_Z 64
_cell_length_a 15.986202
_cell_length_b 13.756124
_cell_length_c 18.029940
_cell_angle_alpha 90.000000
_cell_angle_beta 90.000000
_cell_angle_gamma 90.000000
_cell_volume 3964.931237
_symmetry_space_group_name_H-M "P M M A"
_symmetry_group_IT_number 51
_symmetry_cell_setting 'orthorhombic'
loop_
_space_group_symop_operation_xyz
x,y,z
1/2-x,-y,z
1/2+x,-y,-z
-x,y,-z
-x,-y,-z
1/2+x,y,-z
1/2-x,y,z
x,-y,z
loop_
_atom_site_type_symbol
_atom_site_label
_atom_site_fract_x
_atom_site_fract_y
_atom_site_fract_z
Si Si1 0.844232 0.386827 0.939301
Si Si2 0.344374 0.113462 0.656586
Si Si3 0.077002 0.263994 0.554128
Si Si4 0.487433 0.613314 0.330291
Si Si5 0.343245 0.391250 0.438148
Si Si6 0.507351 0.613324 0.833849
Si Si7 0.345815 0.299595 0.902186
Si Si8 0.651472 0.893278 0.179006
O O1 0.750000 0.376473 0.905395
O O2 0.860209 0.500000 0.961411
O O3 0.915936 0.346378 0.884063
O O4 0.851412 0.317387 0.010481
O O5 0.250000 0.153254 0.653038
O O6 0.395242 0.163321 0.590334
O O7 0.382793 0.135388 0.738776
O O8 0.348151 0.000000 0.640116
O O9 0.148203 0.315815 0.505488
O O10 0.000000 0.242935 0.500000
O O11 0.058816 0.336854 0.621388
O O12 0.508646 0.500000 0.327210
O O13 0.398726 0.636761 0.367559
O O14 0.485623 0.659320 0.247997
O O15 0.250000 0.387573 0.407692
O O16 0.367562 0.500000 0.466266
O O17 0.522625 0.500000 0.828440
O O18 0.414231 0.631517 0.864364
O O19 0.250000 0.322212 0.874624
O O20 0.371407 0.188304 0.882060
O O21 0.750000 0.903334 0.187569
O O22 0.615712 0.000000 0.154721
#
# Coordination Sequence:
#
# PCOD8206416 Si02
#       8
#     8   8   8   8   8   8   8   8
#     4   9  18  31  46  65  88 116 151 186 218 253
#     4   9  17  29  44  61  82 108 138 172 208 251
#     4  10  18  28  43  62  86 111 135 171 217 260
#     4   9  18  30  43  62  87 115 148 181 212 249
#     4   9  17  29  45  63  84 114 149 181 213 250
#     4  10  19  30  45  64  89 121 151 181 217 256
#     4  10  18  28  45  67  91 117 143 175 218 268
#     4   8  15  28  45  64  85 111 142 174 212 257
#
# _framework density 16.141514999999998
#
# number of rings (size 3 to 8) (size 9 to 14) (size 15 to 20)
#    0.000    2.750    0.000    3.000    0.000    4.000 
#    0.000    3.125    0.000    3.000    0.000    0.000 
#    0.000    0.000    0.000   14.500    0.000    0.500 
#
# Total GULP energy -793097.040639 kJ/mol
# GULP energy per Si atom -12392.141260 kJ/mol
# Density = 1.610478 g / cm^3
# Si number density = 16.141515 Si / 1000 Ang^3
#
#
#
# Elastic Constant Matrix: (Units=GPa)
#
#
# Indices 1 2 3 4 5 6 
#
# 1 75.2513 16.3483 41.8495 0.0000 0.0000 0.0000
# 2 16.3483 41.7394 31.2716 0.0000 0.0000 0.0000
# 3 41.8495 31.2716 101.0167 0.0000 0.0000 0.0000
# 4 0.0000 0.0000 0.0000 24.5361 0.0000 0.0000
# 5 0.0000 0.0000 0.0000 0.0000 14.8080 0.0000
# 6 0.0000 0.0000 0.0000 0.0000 0.0000 16.8345
#
#
#
# Elastic Compliance Matrix: (Units=1/GPa)
#
#
# Indices 1 2 3 4 5 6 
#
# 1 0.017375 -0.001839 -0.006629 0.000000 0.000000 0.000000
# 2 -0.001839 0.031387 -0.008955 0.000000 0.000000 0.000000
# 3 -0.006629 -0.008955 0.015418 0.000000 0.000000 0.000000
# 4 0.000000 0.000000 0.000000 0.040756 0.000000 0.000000
# 5 0.000000 0.000000 0.000000 0.000000 0.067531 0.000000
# 6 0.000000 0.000000 0.000000 0.000000 0.000000 0.059402
#
#
# Mechanical properties :
#
#
# Convention : Reuss Voigt Hill
#
# Bulk Modulus (GPa) = 34.08902 44.10513 39.09707
# Shear Modulus (GPa) = 18.08366 19.80489 18.94428
#
# Velocity S-wave (km/s) = 3.35075 3.50659 3.42955
# Velocity P-wave (km/s) = 6.01122 6.61651 6.32111
#
# Compressibility (1/GPa) = 0.02933496
#
# Stress axis : x y z
#
# Youngs Moduli (GPa) = 57.55469 31.85990 64.86067
#
# Poissons Ratio (x) = 0.05859 0.42995
# Poissons Ratio (y) = 0.10584 0.58081
# Poissons Ratio (z) = 0.38152 0.28530
#
# Static dielectric constant tensor:
#      x y z
#    x 3.012630 0.000000 0.000000 
#    y 0.000000 2.981200 0.000000 
#    z 0.000000 0.000000 3.144400 
# 
# 
# High freq. dielectric constant tensor:
#      x y z
#    x 1.610840 0.000000 0.000000 
#    y 0.000000 1.599830 0.000000 
#    z 0.000000 0.000000 1.619280 
# 
# From -- ./inp_files/29949.got.cif
#   From: 2010.03.12/outbox.cif.g09.slc.cpg/sg51_15_cif.got.tgz:29949.got - 2010.04.16 13:43:02.
