data_PCOD8206551
_publ_section_title
;
Structure prediction by ZEFSAII (Michael W. Deem and Ramdas Pophale) SiO2 
 PCOD8206551
Probable space group: P M M A
;
_chemical_formula_sum "Si O2"
_cell_formula_units_Z 48
_cell_length_a 18.055274
_cell_length_b 15.042437
_cell_length_c 8.192012
_cell_angle_alpha 90.000000
_cell_angle_beta 90.000000
_cell_angle_gamma 90.000000
_cell_volume 2224.912134
_symmetry_space_group_name_H-M "P M M A"
_symmetry_group_IT_number 51
_symmetry_cell_setting 'orthorhombic'
loop_
_space_group_symop_operation_xyz
x,y,z
1/2-x,-y,z
1/2+x,-y,-z
-x,y,-z
-x,-y,-z
1/2+x,y,-z
1/2-x,y,z
x,-y,z
loop_
_atom_site_type_symbol
_atom_site_label
_atom_site_fract_x
_atom_site_fract_y
_atom_site_fract_z
Si Si1 0.454765 0.000000 0.829052
Si Si2 0.163532 0.848801 0.304149
Si Si3 0.432465 0.161615 0.601513
Si Si4 0.581839 0.500000 0.917905
Si Si5 0.165312 0.691370 0.762183
Si Si6 0.834239 0.336313 0.855144
Si Si7 0.336500 0.500000 0.756686
Si Si8 0.836305 0.000000 0.934469
O O1 0.468069 0.913078 0.718850
O O2 0.500000 0.000000 0.000000
O O3 0.369053 0.000000 0.883619
O O4 0.250000 0.863982 0.327089
O O5 0.126133 0.878265 0.473336
O O6 0.144495 0.747291 0.257856
O O7 0.134549 0.913350 0.161618
O O8 0.500000 0.204620 0.500000
O O9 0.392367 0.236372 0.705624
O O10 0.602539 0.588807 0.814560
O O11 0.500000 0.500000 0.000000
O O12 0.644463 0.500000 0.054098
O O13 0.250000 0.711667 0.704641
O O14 0.137082 0.595469 0.685018
O O15 0.161822 0.692255 0.956851
O O16 0.750000 0.368141 0.813724
O O17 0.250000 0.500000 0.747100
O O18 0.750000 0.000000 0.960500
#
# Coordination Sequence:
#
# PCOD8206551 Si02
#       8
#     4   8   8   4   8   8   4   4
#     4  12  26  45  64  83 114 159 204 241 290 364
#     4  10  21  38  59  87 123 154 186 239 303 359
#     4  12  25  39  58  85 120 159 195 239 300 364
#     4  10  18  28  51  86 119 156 203 253 292 331
#     4   9  18  36  62  88 113 152 205 250 290 344
#     4   9  18  35  58  83 116 158 201 243 293 354
#     4   8  16  34  58  82 114 154 198 249 297 341
#     4  10  21  39  65  91 110 139 191 249 291 334
#
# _framework density 21.573884
#
# number of rings (size 3 to 8) (size 9 to 14) (size 15 to 20)
#    0.000    2.000    0.000    5.000    0.000    5.333 
#    0.000    2.917    0.000    2.000    0.000    0.000 
#    0.000    0.000    0.000    0.000    0.000    0.000 
#
# Total GULP energy -594726.716471 kJ/mol
# GULP energy per Si atom -12390.139926 kJ/mol
# Density = 2.152478 g / cm^3
# Si number density = 21.573884 Si / 1000 Ang^3
#
#
#
# Elastic Constant Matrix: (Units=GPa)
#
#
# Indices 1 2 3 4 5 6 
#
# 1 49.1272 47.9217 33.9486 0.0000 0.0000 0.0000
# 2 47.9217 121.3600 25.2052 0.0000 0.0000 0.0000
# 3 33.9486 25.2052 64.0826 0.0000 0.0000 0.0000
# 4 0.0000 0.0000 0.0000 4.1245 0.0000 0.0000
# 5 0.0000 0.0000 0.0000 0.0000 37.4795 0.0000
# 6 0.0000 0.0000 0.0000 0.0000 0.0000 20.6857
#
#
#
# Elastic Compliance Matrix: (Units=1/GPa)
#
#
# Indices 1 2 3 4 5 6 
#
# 1 0.048972 -0.015190 -0.019969 0.000000 0.000000 0.000000
# 2 -0.015190 0.013685 0.002665 0.000000 0.000000 0.000000
# 3 -0.019969 0.002665 0.025136 0.000000 0.000000 0.000000
# 4 0.000000 0.000000 0.000000 0.242456 0.000000 0.000000
# 5 0.000000 0.000000 0.000000 0.000000 0.026681 0.000000
# 6 0.000000 0.000000 0.000000 0.000000 0.000000 0.048343
#
#
# Mechanical properties :
#
#
# Convention : Reuss Voigt Hill
#
# Bulk Modulus (GPa) = 43.85315 49.85787 46.85551
# Shear Modulus (GPa) = 10.46326 20.95754 15.71040
#
# Velocity S-wave (km/s) = 2.20465 3.12016 2.70147
# Velocity P-wave (km/s) = 5.18187 6.01174 5.61216
#
# Compressibility (1/GPa) = 0.02280338
#
# Stress axis : x y z
#
# Youngs Moduli (GPa) = 20.41975 73.07388 39.78428
#
# Poissons Ratio (x) = 1.11002 0.79445
# Poissons Ratio (y) = 0.31018 -0.10602
# Poissons Ratio (z) = 0.40776 -0.19473
#
# Static dielectric constant tensor:
#      x y z
#    x 3.905980 0.000000 0.000000 
#    y 0.000000 4.532320 0.000000 
#    z 0.000000 0.000000 3.730630 
# 
# 
# High freq. dielectric constant tensor:
#      x y z
#    x 1.845620 0.000000 0.000000 
#    y 0.000000 1.856760 0.000000 
#    z 0.000000 0.000000 1.822940 
# 
# From -- ./inp_files/9758.got.cif
#   From: 2010.03.12/outbox.cif.g09.slc.cpg/sg51_5_cif.got.tgz:9758.got - 2010.04.16 13:43:02.
