data_PCOD8206881
_publ_section_title
;
Structure prediction by ZEFSAII (Michael W. Deem and Ramdas Pophale) SiO2 
 PCOD8206881
Probable space group: P M M A
;
_chemical_formula_sum "Si O2"
_cell_formula_units_Z 64
_cell_length_a 9.146237
_cell_length_b 20.377469
_cell_length_c 19.611865
_cell_angle_alpha 90.000000
_cell_angle_beta 90.000000
_cell_angle_gamma 90.000000
_cell_volume 3655.203719
_symmetry_space_group_name_H-M "P M M A"
_symmetry_group_IT_number 51
_symmetry_cell_setting 'orthorhombic'
loop_
_space_group_symop_operation_xyz
x,y,z
1/2-x,-y,z
1/2+x,-y,-z
-x,y,-z
-x,-y,-z
1/2+x,y,-z
1/2-x,y,z
x,-y,z
loop_
_atom_site_type_symbol
_atom_site_label
_atom_site_fract_x
_atom_site_fract_y
_atom_site_fract_z
Si Si1 0.580256 0.426596 0.432257
Si Si2 0.082745 0.733147 0.803724
Si Si3 0.422702 0.808213 0.427613
Si Si4 0.415960 0.886683 0.066077
Si Si5 0.919791 0.695930 0.345193
Si Si6 0.085752 0.730232 0.065276
Si Si7 0.920402 0.885675 0.200304
Si Si8 0.916272 0.926502 0.668269
O O1 0.500000 0.401947 0.500000
O O2 0.750000 0.425781 0.449665
O O3 0.528726 0.500000 0.411190
O O4 0.542805 0.376887 0.371450
O O5 0.250000 0.724034 0.825789
O O6 0.044179 0.694205 0.734983
O O7 0.048036 0.809004 0.789736
O O8 0.986273 0.704003 0.864999
O O9 0.500000 0.807529 0.500000
O O10 0.250000 0.801121 0.438193
O O11 0.478640 0.747889 0.382800
O O12 0.465599 0.875937 0.390151
O O13 0.250000 0.912869 0.065561
O O14 0.419796 0.808425 0.064728
O O15 0.497030 0.912883 0.133516
O O16 0.500000 0.914692 0.000000
O O17 0.750000 0.714923 0.357593
O O18 0.250000 0.703558 0.061723
O O19 0.000000 0.701934 0.000000
O O20 0.750000 0.901151 0.191774
O O21 0.980238 0.922335 0.266330
O O22 0.750000 0.910886 0.691063
O O23 0.929533 0.000000 0.638029
#
# Coordination Sequence:
#
# PCOD8206881 Si02
#       8
#     8   8   8   8   8   8   8   8
#     4   9  18  32  50  72 100 135 172 206 242 287
#     4   9  17  28  44  67  96 127 158 198 243 287
#     4  11  23  37  55  76  99 125 159 201 248 299
#     4   9  16  26  42  66  95 126 160 197 239 287
#     4  10  19  33  52  75 104 134 166 204 246 290
#     4   9  16  25  39  61  92 128 163 198 237 285
#     4  10  18  30  49  71  95 123 158 199 244 295
#     4  10  22  39  55  71  93 123 159 201 249 300
#
# _framework density 17.509284000000001
#
# number of rings (size 3 to 8) (size 9 to 14) (size 15 to 20)
#    0.000    2.375    1.250    1.875    0.000    6.500 
#    0.000    0.000    0.000    0.375    0.000    0.000 
#    0.000    0.500    0.000    0.875    0.000    1.250 
#
# Total GULP energy -793662.148029 kJ/mol
# GULP energy per Si atom -12400.971063 kJ/mol
# Density = 1.746943 g / cm^3
# Si number density = 17.509284 Si / 1000 Ang^3
#
#
#
# Elastic Constant Matrix: (Units=GPa)
#
#
# Indices 1 2 3 4 5 6 
#
# 1 95.7206 32.7249 60.0946 0.0000 0.0000 0.0000
# 2 32.7249 64.2278 44.9525 0.0000 0.0000 0.0000
# 3 60.0946 44.9525 127.9569 0.0000 0.0000 0.0000
# 4 0.0000 0.0000 0.0000 10.3751 0.0000 0.0000
# 5 0.0000 0.0000 0.0000 0.0000 32.7025 0.0000
# 6 0.0000 0.0000 0.0000 0.0000 0.0000 14.6473
#
#
#
# Elastic Compliance Matrix: (Units=1/GPa)
#
#
# Indices 1 2 3 4 5 6 
#
# 1 0.015453 -0.003705 -0.005956 0.000000 0.000000 0.000000
# 2 -0.003705 0.021534 -0.005825 0.000000 0.000000 0.000000
# 3 -0.005956 -0.005825 0.012659 0.000000 0.000000 0.000000
# 4 0.000000 0.000000 0.000000 0.096385 0.000000 0.000000
# 5 0.000000 0.000000 0.000000 0.000000 0.030579 0.000000
# 6 0.000000 0.000000 0.000000 0.000000 0.000000 0.068272
#
#
# Mechanical properties :
#
#
# Convention : Reuss Voigt Hill
#
# Bulk Modulus (GPa) = 53.55060 62.60546 58.07803
# Shear Modulus (GPa) = 17.72559 21.55386 19.63972
#
# Velocity S-wave (km/s) = 3.18520 3.51236 3.35277
# Velocity P-wave (km/s) = 6.64664 7.23064 6.94478
#
# Compressibility (1/GPa) = 0.01867393
#
# Stress axis : x y z
#
# Youngs Moduli (GPa) = 64.71293 46.43746 78.99718
#
# Poissons Ratio (x) = 0.17205 0.47049
# Poissons Ratio (y) = 0.23976 0.46017
# Poissons Ratio (z) = 0.38542 0.27051
#
# Static dielectric constant tensor:
#      x y z
#    x 3.362320 0.000000 0.000000 
#    y 0.000000 2.993650 0.000000 
#    z 0.000000 0.000000 3.353010 
# 
# 
# High freq. dielectric constant tensor:
#      x y z
#    x 1.685710 0.000000 0.000000 
#    y 0.000000 1.631080 0.000000 
#    z 0.000000 0.000000 1.682960 
# 
# From -- ./inp_files/28648.got.cif
#   From: 2010.03.12/outbox.cif.g09.slc.cpg/sg51_15_cif.got.tgz:28648.got - 2010.04.16 13:43:02.
