data_PCOD8206570
_publ_section_title
;
Structure prediction by ZEFSAII (Michael W. Deem and Ramdas Pophale) SiO2 
 PCOD8206570
Probable space group: P M M A
;
_chemical_formula_sum "Si O2"
_cell_formula_units_Z 56
_cell_length_a 8.664625
_cell_length_b 18.777885
_cell_length_c 19.141598
_cell_angle_alpha 90.000000
_cell_angle_beta 90.000000
_cell_angle_gamma 90.000000
_cell_volume 3114.401771
_symmetry_space_group_name_H-M "P M M A"
_symmetry_group_IT_number 51
_symmetry_cell_setting 'orthorhombic'
loop_
_space_group_symop_operation_xyz
x,y,z
1/2-x,-y,z
1/2+x,-y,-z
-x,y,-z
-x,-y,-z
1/2+x,y,-z
1/2-x,y,z
x,-y,z
loop_
_atom_site_type_symbol
_atom_site_label
_atom_site_fract_x
_atom_site_fract_y
_atom_site_fract_z
Si Si1 0.067181 0.705095 0.925411
Si Si2 0.432452 0.211147 0.793775
Si Si3 0.928220 0.418702 0.839405
Si Si4 0.432790 0.154675 0.571687
Si Si5 0.432427 0.689504 0.427787
Si Si6 0.432388 0.651141 0.710754
Si Si7 0.433415 0.921308 0.711807
O O1 0.250000 0.699129 0.929262
O O2 0.014111 0.767728 0.871930
O O3 0.003796 0.629313 0.899646
O O4 0.000000 0.725961 0.000000
O O5 0.250000 0.207217 0.790855
O O6 0.486641 0.272214 0.740355
O O7 0.500883 0.134857 0.768938
O O8 0.750000 0.397706 0.831448
O O9 0.949256 0.500000 0.863162
O O10 0.011379 0.408694 0.764838
O O11 0.500000 0.121882 0.500000
O O12 0.250000 0.163100 0.566195
O O13 0.503196 0.231830 0.585761
O O14 0.482427 0.102590 0.634217
O O15 0.500000 0.658124 0.500000
O O16 0.250000 0.691361 0.432659
O O17 0.487247 0.639214 0.364162
O O18 0.250000 0.645824 0.702007
O O19 0.250000 0.923290 0.716838
O O20 0.502043 0.000000 0.726907
#
# Coordination Sequence:
#
# PCOD8206570 Si02
#       7
#     8   8   8   8   8   8   8
#     4  10  20  34  55  79 105 136 170 209 252 301
#     4   8  15  29  48  71  97 126 164 208 251 299
#     4  10  21  36  54  80 112 141 169 201 240 295
#     4  10  18  29  44  65  95 130 169 213 263 313
#     4  11  20  30  47  71  98 131 172 219 269 310
#     4  10  18  32  53  75 101 134 173 215 254 300
#     4   9  16  27  46  70  96 129 170 215 261 308
#
# _framework density 17.980982000000001
#
# number of rings (size 3 to 8) (size 9 to 14) (size 15 to 20)
#    0.000    2.286    1.429    4.714    0.000    1.714 
#    0.000    0.000    0.000    2.143    0.000    0.000 
#    0.000    0.000    0.000    0.000    0.000    0.571 
#
# Total GULP energy -694243.751498 kJ/mol
# GULP energy per Si atom -12397.209848 kJ/mol
# Density = 1.794006 g / cm^3
# Si number density = 17.980982 Si / 1000 Ang^3
#
#
#
# Elastic Constant Matrix: (Units=GPa)
#
#
# Indices 1 2 3 4 5 6 
#
# 1 85.5008 20.9001 41.6579 0.0000 0.0000 0.0000
# 2 20.9001 72.0585 46.8922 0.0000 0.0000 0.0000
# 3 41.6579 46.8922 145.7474 0.0000 0.0000 0.0000
# 4 0.0000 0.0000 0.0000 22.6662 0.0000 0.0000
# 5 0.0000 0.0000 0.0000 0.0000 30.2967 0.0000
# 6 0.0000 0.0000 0.0000 0.0000 0.0000 15.6345
#
#
#
# Elastic Compliance Matrix: (Units=1/GPa)
#
#
# Indices 1 2 3 4 5 6 
#
# 1 0.013773 -0.001812 -0.003353 0.000000 0.000000 0.000000
# 2 -0.001812 0.017791 -0.005206 0.000000 0.000000 0.000000
# 3 -0.003353 -0.005206 0.009495 0.000000 0.000000 0.000000
# 4 0.000000 0.000000 0.000000 0.044119 0.000000 0.000000
# 5 0.000000 0.000000 0.000000 0.000000 0.033007 0.000000
# 6 0.000000 0.000000 0.000000 0.000000 0.000000 0.063961
#
#
# Mechanical properties :
#
#
# Convention : Reuss Voigt Hill
#
# Bulk Modulus (GPa) = 49.22541 58.02301 53.62421
# Shear Modulus (GPa) = 23.84812 26.64326 25.24569
#
# Velocity S-wave (km/s) = 3.64579 3.85352 3.75109
# Velocity P-wave (km/s) = 6.71998 7.22071 6.97484
#
# Compressibility (1/GPa) = 0.02031471
#
# Stress axis : x y z
#
# Youngs Moduli (GPa) = 72.60743 56.20788 105.32268
#
# Poissons Ratio (x) = 0.10187 0.35319
# Poissons Ratio (y) = 0.13160 0.54831
# Poissons Ratio (z) = 0.24348 0.29262
#
# Static dielectric constant tensor:
#      x y z
#    x 3.198950 0.000000 0.000000 
#    y 0.000000 3.329290 0.000000 
#    z 0.000000 0.000000 3.394860 
# 
# 
# High freq. dielectric constant tensor:
#      x y z
#    x 1.686440 0.000000 0.000000 
#    y 0.000000 1.667760 0.000000 
#    z 0.000000 0.000000 1.699580 
# 
# From -- ./inp_files/32260.got.cif
#   From: 2010.03.12/outbox.cif.g09.slc.cpg/sg51_17_cif.got.tgz:32260.got - 2010.04.16 13:43:02.
