data_PCOD8206300
_publ_section_title
;
Structure prediction by ZEFSAII (Michael W. Deem and Ramdas Pophale) SiO2 
 PCOD8206300
Probable space group: P M M A
;
_chemical_formula_sum "Si O2"
_cell_formula_units_Z 56
_cell_length_a 28.109267
_cell_length_b 9.601968
_cell_length_c 13.689789
_cell_angle_alpha 90.000000
_cell_angle_beta 90.000000
_cell_angle_gamma 90.000000
_cell_volume 3694.932674
_symmetry_space_group_name_H-M "P M M A"
_symmetry_group_IT_number 51
_symmetry_cell_setting 'orthorhombic'
loop_
_space_group_symop_operation_xyz
x,y,z
1/2-x,-y,z
1/2+x,-y,-z
-x,y,-z
-x,-y,-z
1/2+x,y,-z
1/2-x,y,z
x,-y,z
loop_
_atom_site_type_symbol
_atom_site_label
_atom_site_fract_x
_atom_site_fract_y
_atom_site_fract_z
Si Si1 0.536232 0.840290 0.223814
Si Si2 0.100506 0.337854 0.281522
Si Si3 0.199217 0.664274 0.230233
Si Si4 0.886836 0.839753 0.074253
Si Si5 0.558722 0.157377 0.881740
Si Si6 0.304444 0.661991 0.009250
Si Si7 0.508662 0.663943 0.609644
O O1 0.587613 0.803603 0.177432
O O2 0.497004 0.816161 0.138899
O O3 0.526842 0.742499 0.317151
O O4 0.534930 0.000000 0.259930
O O5 0.096157 0.500000 0.258876
O O6 0.155816 0.296734 0.304222
O O7 0.089208 0.261760 0.181918
O O8 0.063829 0.296536 0.367070
O O9 0.250000 0.725997 0.268591
O O10 0.204397 0.500000 0.222406
O O11 0.189124 0.717971 0.120145
O O12 0.840101 0.746108 0.061101
O O13 0.870361 0.000000 0.072320
O O14 0.927552 0.812440 0.993199
O O15 0.572342 0.000000 0.852103
O O16 0.250000 0.687477 0.975063
O O17 0.317728 0.500000 0.000825
O O18 0.500000 0.715849 0.500000
O O19 0.498898 0.500000 0.620579
#
# Coordination Sequence:
#
# PCOD8206300 Si02
#       7
#     8   8   8   8   8   8   8
#     4   9  18  30  43  61  84 111 143 171 203 253
#     4   9  15  25  42  60  80 109 140 169 205 252
#     4   8  13  22  37  57  80 106 137 169 198 236
#     4  10  18  27  41  61  86 114 143 175 207 239
#     4   9  16  26  39  57  85 115 139 167 203 239
#     4   9  17  28  41  58  83 115 147 176 206 242
#     4   9  18  31  45  63  85 106 135 178 224 262
#
# _framework density 15.155891
#
# number of rings (size 3 to 8) (size 9 to 14) (size 15 to 20)
#    0.000    3.000    1.429    1.286    0.000    2.857 
#    0.000    0.000    0.000    4.714    0.000    1.000 
#    0.000    3.429    0.000    0.000    0.000    0.000 
#
# Total GULP energy -693796.767553 kJ/mol
# GULP energy per Si atom -12389.227992 kJ/mol
# Density = 1.512140 g / cm^3
# Si number density = 15.155891 Si / 1000 Ang^3
#
#
#
# Elastic Constant Matrix: (Units=GPa)
#
#
# Indices 1 2 3 4 5 6 
#
# 1 109.7243 37.2035 51.5749 0.0000 0.0000 0.0000
# 2 37.2035 40.8421 33.3100 0.0000 0.0000 0.0000
# 3 51.5749 33.3100 76.8274 0.0000 0.0000 0.0000
# 4 0.0000 0.0000 0.0000 17.3531 0.0000 0.0000
# 5 0.0000 0.0000 0.0000 0.0000 14.3459 0.0000
# 6 0.0000 0.0000 0.0000 0.0000 0.0000 17.4409
#
#
#
# Elastic Compliance Matrix: (Units=1/GPa)
#
#
# Indices 1 2 3 4 5 6 
#
# 1 0.014980 -0.008422 -0.006405 0.000000 0.000000 0.000000
# 2 -0.008422 0.042614 -0.012822 0.000000 0.000000 0.000000
# 3 -0.006405 -0.012822 0.022875 0.000000 0.000000 0.000000
# 4 0.000000 0.000000 0.000000 0.057627 0.000000 0.000000
# 5 0.000000 0.000000 0.000000 0.000000 0.069706 0.000000
# 6 0.000000 0.000000 0.000000 0.000000 0.000000 0.057336
#
#
# Mechanical properties :
#
#
# Convention : Reuss Voigt Hill
#
# Bulk Modulus (GPa) = 39.72829 52.39674 46.06252
# Shear Modulus (GPa) = 15.20563 16.84833 16.02698
#
# Velocity S-wave (km/s) = 3.17090 3.33779 3.25541
# Velocity P-wave (km/s) = 6.29890 7.03572 6.67748
#
# Compressibility (1/GPa) = 0.02517098
#
# Stress axis : x y z
#
# Youngs Moduli (GPa) = 66.75709 23.46668 43.71574
#
# Poissons Ratio (x) = 0.19763 0.27998
# Poissons Ratio (y) = 0.56221 0.56054
# Poissons Ratio (z) = 0.42755 0.30090
#
# Static dielectric constant tensor:
#      x y z
#    x 3.345980 0.000000 0.000000 
#    y 0.000000 2.802540 0.000000 
#    z 0.000000 0.000000 2.608310 
# 
# 
# High freq. dielectric constant tensor:
#      x y z
#    x 1.586400 0.000000 0.000000 
#    y 0.000000 1.569740 0.000000 
#    z 0.000000 0.000000 1.534780 
# 
# From -- ./inp_files/26488.got.cif
#   From: 2010.03.12/outbox.cif.g09.slc.cpg/sg51_14_cif.got.tgz:26488.got - 2010.04.16 13:43:02.
