data_PCOD8206187
_publ_section_title
;
Structure prediction by ZEFSAII (Michael W. Deem and Ramdas Pophale) SiO2 
 PCOD8206187
Probable space group: P M M A
;
_chemical_formula_sum "Si O2"
_cell_formula_units_Z 40
_cell_length_a 17.572321
_cell_length_b 14.337087
_cell_length_c 8.888392
_cell_angle_alpha 90.000000
_cell_angle_beta 90.000000
_cell_angle_gamma 90.000000
_cell_volume 2239.304993
_symmetry_space_group_name_H-M "P M M A"
_symmetry_group_IT_number 51
_symmetry_cell_setting 'orthorhombic'
loop_
_space_group_symop_operation_xyz
x,y,z
1/2-x,-y,z
1/2+x,-y,-z
-x,y,-z
-x,-y,-z
1/2+x,y,-z
1/2-x,y,z
x,-y,z
loop_
_atom_site_type_symbol
_atom_site_label
_atom_site_fract_x
_atom_site_fract_y
_atom_site_fract_z
Si Si1 0.666138 0.104040 0.521742
Si Si2 0.978429 0.895984 0.672553
Si Si3 0.016385 0.284762 0.827641
Si Si4 0.838063 0.288154 0.354167
Si Si5 0.075300 0.604065 0.402541
O O1 0.750000 0.120135 0.585905
O O2 0.613132 0.113786 0.668933
O O3 0.648967 0.178469 0.389642
O O4 0.655515 0.000000 0.450466
O O5 0.000000 0.870631 0.500000
O O6 0.012465 0.825323 0.793076
O O7 0.005435 0.000000 0.716528
O O8 0.101824 0.317810 0.777165
O O9 0.947461 0.337431 0.744223
O O10 0.000000 0.305470 0.000000
O O11 0.750000 0.308068 0.306086
O O12 0.856797 0.346186 0.505710
O O13 0.102229 0.500000 0.357295
O O14 0.000000 0.599263 0.500000
#
# Coordination Sequence:
#
# PCOD8206187 Si02
#       5
#     8   8   8   8   8
#     4   9  16  27  49  77 100 127 169 222 268 300
#     4  10  17  30  51  73 101 138 185 228 256 297
#     4  11  21  34  50  77 115 147 176 209 264 332
#     4  10  19  34  55  78 102 133 179 228 267 306
#     4   9  18  35  57  77  97 128 174 221 261 306
#
# _framework density 17.862684000000002
#
# number of rings (size 3 to 8) (size 9 to 14) (size 15 to 20)
#    0.000    2.200    4.000    0.600    0.000    1.200 
#    0.000    2.000    0.000    0.000    0.000    0.000 
#    0.000    0.000    0.000    0.000    0.000    0.000 
#
# Total GULP energy -495591.483246 kJ/mol
# GULP energy per Si atom -12389.787081 kJ/mol
# Density = 1.782203 g / cm^3
# Si number density = 17.862684 Si / 1000 Ang^3
#
#
#
# Elastic Constant Matrix: (Units=GPa)
#
#
# Indices 1 2 3 4 5 6 
#
# 1 103.1093 22.2841 37.8275 0.0000 0.0000 0.0000
# 2 22.2841 98.8273 34.2790 0.0000 0.0000 0.0000
# 3 37.8275 34.2790 96.0486 0.0000 0.0000 0.0000
# 4 0.0000 0.0000 0.0000 10.5989 0.0000 0.0000
# 5 0.0000 0.0000 0.0000 0.0000 17.4371 0.0000
# 6 0.0000 0.0000 0.0000 0.0000 0.0000 17.1118
#
#
#
# Elastic Compliance Matrix: (Units=1/GPa)
#
#
# Indices 1 2 3 4 5 6 
#
# 1 0.011452 -0.001162 -0.004096 0.000000 0.000000 0.000000
# 2 -0.001162 0.011666 -0.003706 0.000000 0.000000 0.000000
# 3 -0.004096 -0.003706 0.013347 0.000000 0.000000 0.000000
# 4 0.000000 0.000000 0.000000 0.094349 0.000000 0.000000
# 5 0.000000 0.000000 0.000000 0.000000 0.057349 0.000000
# 6 0.000000 0.000000 0.000000 0.000000 0.000000 0.058439
#
#
# Mechanical properties :
#
#
# Convention : Reuss Voigt Hill
#
# Bulk Modulus (GPa) = 53.94175 54.08515 54.01345
# Shear Modulus (GPa) = 18.47001 22.60253 20.53627
#
# Velocity S-wave (km/s) = 3.21907 3.56103 3.39436
# Velocity P-wave (km/s) = 6.63929 6.87401 6.75767
#
# Compressibility (1/GPa) = 0.01853851
#
# Stress axis : x y z
#
# Youngs Moduli (GPa) = 87.32045 85.71875 74.92285
#
# Poissons Ratio (x) = 0.09958 0.30686
# Poissons Ratio (y) = 0.10144 0.27767
# Poissons Ratio (z) = 0.35763 0.31768
#
# Static dielectric constant tensor:
#      x y z
#    x 3.661970 0.000000 0.000000 
#    y 0.000000 3.580160 0.000000 
#    z 0.000000 0.000000 2.800980 
# 
# 
# High freq. dielectric constant tensor:
#      x y z
#    x 1.700460 0.000000 0.000000 
#    y 0.000000 1.701150 0.000000 
#    z 0.000000 0.000000 1.625190 
# 
# From -- ./inp_files/9414.got.cif
#   From: 2010.03.12/outbox.cif.g09.slc.cpg/sg51_5_cif.got.tgz:9414.got - 2010.04.16 13:43:02.
