data_PCOD8206529
_publ_section_title
;
Structure prediction by ZEFSAII (Michael W. Deem and Ramdas Pophale) SiO2 
 PCOD8206529
Probable space group: P M M A
;
_chemical_formula_sum "Si O2"
_cell_formula_units_Z 48
_cell_length_a 19.114161
_cell_length_b 9.145245
_cell_length_c 15.747148
_cell_angle_alpha 90.000000
_cell_angle_beta 90.000000
_cell_angle_gamma 90.000000
_cell_volume 2752.659504
_symmetry_space_group_name_H-M "P M M A"
_symmetry_group_IT_number 51
_symmetry_cell_setting 'orthorhombic'
loop_
_space_group_symop_operation_xyz
x,y,z
1/2-x,-y,z
1/2+x,-y,-z
-x,y,-z
-x,-y,-z
1/2+x,y,-z
1/2-x,y,z
x,-y,z
loop_
_atom_site_type_symbol
_atom_site_label
_atom_site_fract_x
_atom_site_fract_y
_atom_site_fract_z
Si Si1 0.480032 0.168401 0.635146
Si Si2 0.750000 0.326505 0.770307
Si Si3 0.029447 0.669959 0.807155
Si Si4 0.377964 0.330034 0.118796
Si Si5 0.922571 0.834671 0.037268
Si Si6 0.387414 0.168424 0.472498
Si Si7 0.250000 0.326068 0.421133
O O1 0.458554 0.269162 0.713425
O O2 0.421168 0.192464 0.564410
O O3 0.556032 0.214702 0.598971
O O4 0.482186 0.000000 0.664311
O O5 0.750000 0.500000 0.766541
O O6 0.681837 0.268835 0.819279
O O7 0.750000 0.264504 0.675024
O O8 0.048208 0.500000 0.808816
O O9 0.080933 0.751206 0.872909
O O10 0.949987 0.700462 0.833307
O O11 0.368138 0.500000 0.097615
O O12 0.371936 0.244394 0.029950
O O13 0.896952 0.000000 0.051078
O O14 0.000000 0.828290 0.000000
O O15 0.319190 0.268634 0.467563
O O16 0.365916 0.000000 0.460050
O O17 0.250000 0.500000 0.424948
#
# Coordination Sequence:
#
# PCOD8206529 Si02
#       7
#     8   4   8   8   8   8   4
#     4   9  18  33  52  73  98 130 168 207 248 295
#     4   9  18  31  47  68  97 130 157 185 228 281
#     4  10  18  28  47  73  98 124 157 197 241 288
#     4   9  17  30  46  66  95 128 158 189 231 282
#     4   9  17  29  45  66  92 121 154 192 231 271
#     4   9  19  35  52  71  99 134 167 203 251 299
#     4  11  21  33  51  76 103 132 167 203 242 295
#
# _framework density 17.437681000000001
#
# number of rings (size 3 to 8) (size 9 to 14) (size 15 to 20)
#    0.000    2.667    0.000    3.250    0.000    5.333 
#    0.000    3.750    0.000    1.000    0.000    4.667 
#    0.000    0.000    0.000    0.000    0.000    0.000 
#
# Total GULP energy -595235.783333 kJ/mol
# GULP energy per Si atom -12400.745486 kJ/mol
# Density = 1.739799 g / cm^3
# Si number density = 17.437681 Si / 1000 Ang^3
#
#
#
# Elastic Constant Matrix: (Units=GPa)
#
#
# Indices 1 2 3 4 5 6 
#
# 1 75.5571 37.1047 31.2725 0.0000 0.0000 0.0000
# 2 37.1047 89.4844 58.9074 0.0000 0.0000 0.0000
# 3 31.2725 58.9074 115.0431 0.0000 0.0000 0.0000
# 4 0.0000 0.0000 0.0000 36.2228 0.0000 0.0000
# 5 0.0000 0.0000 0.0000 0.0000 18.5802 0.0000
# 6 0.0000 0.0000 0.0000 0.0000 0.0000 20.5956
#
#
#
# Elastic Compliance Matrix: (Units=1/GPa)
#
#
# Indices 1 2 3 4 5 6 
#
# 1 0.016791 -0.005970 -0.001507 0.000000 0.000000 0.000000
# 2 -0.005970 0.018980 -0.008096 0.000000 0.000000 0.000000
# 3 -0.001507 -0.008096 0.013248 0.000000 0.000000 0.000000
# 4 0.000000 0.000000 0.000000 0.027607 0.000000 0.000000
# 5 0.000000 0.000000 0.000000 0.000000 0.053821 0.000000
# 6 0.000000 0.000000 0.000000 0.000000 0.000000 0.048554
#
#
# Mechanical properties :
#
#
# Convention : Reuss Voigt Hill
#
# Bulk Modulus (GPa) = 55.95348 59.40599 57.67973
# Shear Modulus (GPa) = 23.13703 25.26638 24.20171
#
# Velocity S-wave (km/s) = 3.64653 3.81064 3.72949
# Velocity P-wave (km/s) = 7.06307 7.31457 7.18992
#
# Compressibility (1/GPa) = 0.01787199
#
# Stress axis : x y z
#
# Youngs Moduli (GPa) = 59.55694 52.68687 75.48545
#
# Poissons Ratio (x) = 0.31454 0.11378
# Poissons Ratio (y) = 0.35555 0.61112
# Poissons Ratio (z) = 0.08977 0.42654
#
# Static dielectric constant tensor:
#      x y z
#    x 3.013270 0.000000 0.000000 
#    y 0.000000 3.181150 0.000000 
#    z 0.000000 0.000000 3.290670 
# 
# 
# High freq. dielectric constant tensor:
#      x y z
#    x 1.643810 0.000000 0.000000 
#    y 0.000000 1.671630 0.000000 
#    z 0.000000 0.000000 1.679050 
# 
# From -- ./inp_files/25000.got.cif
#   From: 2010.03.12/outbox.cif.g09.slc.cpg/sg51_13_cif.got.tgz:25000.got - 2010.04.16 13:43:02.
