data_PCOD8206339
_publ_section_title
;
Structure prediction by ZEFSAII (Michael W. Deem and Ramdas Pophale) SiO2 
 PCOD8206339
Probable space group: P M M A
;
_chemical_formula_sum "Si O2"
_cell_formula_units_Z 48
_cell_length_a 14.406601
_cell_length_b 13.776493
_cell_length_c 15.275867
_cell_angle_alpha 90.000000
_cell_angle_beta 90.000000
_cell_angle_gamma 90.000000
_cell_volume 3031.838563
_symmetry_space_group_name_H-M "P M M A"
_symmetry_group_IT_number 51
_symmetry_cell_setting 'orthorhombic'
loop_
_space_group_symop_operation_xyz
x,y,z
1/2-x,-y,z
1/2+x,-y,-z
-x,y,-z
-x,-y,-z
1/2+x,y,-z
1/2-x,y,z
x,-y,z
loop_
_atom_site_type_symbol
_atom_site_label
_atom_site_fract_x
_atom_site_fract_y
_atom_site_fract_z
Si Si1 0.016240 0.263975 0.313631
Si Si2 0.852594 0.386117 0.994357
Si Si3 0.505394 0.384906 0.142486
Si Si4 0.851499 0.777196 0.442810
Si Si5 0.358535 0.112164 0.384066
Si Si6 0.403175 0.395106 0.452841
O O1 0.986072 0.310301 0.222324
O O2 0.082857 0.169270 0.309411
O O3 0.077181 0.347004 0.359522
O O4 0.924049 0.228834 0.364269
O O5 0.750000 0.336872 0.992340
O O6 0.841147 0.500000 0.997132
O O7 0.908237 0.355420 0.081118
O O8 0.909761 0.359199 0.907212
O O9 0.509262 0.500000 0.168723
O O10 0.750000 0.809097 0.406749
O O11 0.887098 0.850801 0.518470
O O12 0.838041 0.671979 0.487792
O O13 0.250000 0.131046 0.367676
O O14 0.384582 0.000000 0.376682
O O15 0.500000 0.408280 0.500000
O O16 0.355103 0.500000 0.439030
#
# Coordination Sequence:
#
# PCOD8206339 Si02
#       6
#     8   8   8   8   8   8
#     4  10  18  27  43  66  89 111 141 184 225 259
#     4   8  15  29  46  62  85 119 153 181 212 255
#     4   9  17  28  43  66  93 118 146 179 216 260
#     4   9  18  29  40  59  86 117 152 182 212 256
#     4   9  18  33  50  65  84 113 149 187 224 260
#     4   8  14  25  38  52  78 116 148 172 203 245
#
# _framework density 15.831977
#
# number of rings (size 3 to 8) (size 9 to 14) (size 15 to 20)
#    0.000    3.167    0.000    3.000    0.000    3.667 
#    0.000    0.000    0.000    3.000    0.000    2.333 
#    0.000    1.333    0.000    0.000    0.000    0.000 
#
# Total GULP energy -594677.519981 kJ/mol
# GULP energy per Si atom -12389.115000 kJ/mol
# Density = 1.579594 g / cm^3
# Si number density = 15.831977 Si / 1000 Ang^3
#
#
#
# Elastic Constant Matrix: (Units=GPa)
#
#
# Indices 1 2 3 4 5 6 
#
# 1 85.7435 18.1547 25.6924 0.0000 0.0000 0.0000
# 2 18.1547 81.1337 18.5582 0.0000 0.0000 0.0000
# 3 25.6924 18.5582 58.5372 0.0000 0.0000 0.0000
# 4 0.0000 0.0000 0.0000 21.1033 0.0000 0.0000
# 5 0.0000 0.0000 0.0000 0.0000 13.3650 0.0000
# 6 0.0000 0.0000 0.0000 0.0000 0.0000 17.0361
#
#
#
# Elastic Compliance Matrix: (Units=1/GPa)
#
#
# Indices 1 2 3 4 5 6 
#
# 1 0.013673 -0.001819 -0.005425 0.000000 0.000000 0.000000
# 2 -0.001819 0.013531 -0.003491 0.000000 0.000000 0.000000
# 3 -0.005425 -0.003491 0.020571 0.000000 0.000000 0.000000
# 4 0.000000 0.000000 0.000000 0.047386 0.000000 0.000000
# 5 0.000000 0.000000 0.000000 0.000000 0.074822 0.000000
# 6 0.000000 0.000000 0.000000 0.000000 0.000000 0.058699
#
#
# Mechanical properties :
#
#
# Convention : Reuss Voigt Hill
#
# Bulk Modulus (GPa) = 38.01508 38.91389 38.46449
# Shear Modulus (GPa) = 19.31091 21.16813 20.23952
#
# Velocity S-wave (km/s) = 3.49627 3.66054 3.57934
# Velocity P-wave (km/s) = 6.35313 6.51910 6.43665
#
# Compressibility (1/GPa) = 0.02630535
#
# Stress axis : x y z
#
# Youngs Moduli (GPa) = 73.13549 73.90477 48.61213
#
# Poissons Ratio (x) = 0.13441 0.26371
# Poissons Ratio (y) = 0.13302 0.16973
# Poissons Ratio (z) = 0.39674 0.25804
#
# Static dielectric constant tensor:
#      x y z
#    x 3.338630 0.000000 0.000000 
#    y 0.000000 3.059760 0.000000 
#    z 0.000000 0.000000 2.788510 
# 
# 
# High freq. dielectric constant tensor:
#      x y z
#    x 1.618330 0.000000 0.000000 
#    y 0.000000 1.583020 0.000000 
#    z 0.000000 0.000000 1.574910 
# 
# From -- ./inp_files/16436.got.cif
#   From: 2010.03.12/outbox.cif.g09.slc.cpg/sg51_9_cif.got.tgz:16436.got - 2010.04.16 13:43:02.
