data_PCOD8206177
_publ_section_title
;
Structure prediction by ZEFSAII (Michael W. Deem and Ramdas Pophale) SiO2 
 PCOD8206177
Probable space group: P M M A
;
_chemical_formula_sum "Si O2"
_cell_formula_units_Z 32
_cell_length_a 9.513655
_cell_length_b 16.118606
_cell_length_c 11.332559
_cell_angle_alpha 90.000000
_cell_angle_beta 90.000000
_cell_angle_gamma 90.000000
_cell_volume 1737.812299
_symmetry_space_group_name_H-M "P M M A"
_symmetry_group_IT_number 51
_symmetry_cell_setting 'orthorhombic'
loop_
_space_group_symop_operation_xyz
x,y,z
1/2-x,-y,z
1/2+x,-y,-z
-x,y,-z
-x,-y,-z
1/2+x,y,-z
1/2-x,y,z
x,-y,z
loop_
_atom_site_type_symbol
_atom_site_label
_atom_site_fract_x
_atom_site_fract_y
_atom_site_fract_z
Si Si1 0.500000 0.286084 0.000000
Si Si2 0.908227 0.823023 0.211438
Si Si3 0.419287 0.284639 0.377949
Si Si4 0.410490 0.000000 0.884032
Si Si5 0.407833 0.410106 0.187628
O O1 0.412278 0.227630 0.912051
O O2 0.595175 0.348651 0.924029
O O3 0.750000 0.812643 0.261990
O O4 0.024110 0.794805 0.306190
O O5 0.945124 0.919022 0.192345
O O6 0.500000 0.290561 0.500000
O O7 0.250000 0.278297 0.392918
O O8 0.471226 0.364551 0.302669
O O9 0.250000 0.000000 0.925461
O O10 0.500000 0.000000 0.000000
O O11 0.250000 0.430275 0.219583
O O12 0.484515 0.500000 0.165260
#
# Coordination Sequence:
#
# PCOD8206177 Si02
#       5
#     4   8   8   4   8
#     4  10  17  29  52  76 110 142 180 211 261 310
#     4  10  20  34  54  80 111 143 178 217 261 313
#     4  10  21  37  57  77 102 138 180 225 270 318
#     4  10  20  34  53  82 115 146 175 213 257 309
#     4   9  18  31  48  74 106 139 175 217 264 314
#
# _framework density 18.413955999999999
#
# number of rings (size 3 to 8) (size 9 to 14) (size 15 to 20)
#    0.000    2.250    1.250    1.875    0.000    2.500 
#    0.000    0.625    0.000   14.250    0.000    0.000 
#    0.000    0.000    0.000    0.000    0.000    0.000 
#
# Total GULP energy -396460.975320 kJ/mol
# GULP energy per Si atom -12389.405479 kJ/mol
# Density = 1.837205 g / cm^3
# Si number density = 18.413956 Si / 1000 Ang^3
#
#
#
# Elastic Constant Matrix: (Units=GPa)
#
#
# Indices 1 2 3 4 5 6 
#
# 1 70.5140 36.0494 36.1058 0.0000 0.0000 0.0000
# 2 36.0494 160.4033 59.4844 0.0000 0.0000 0.0000
# 3 36.1058 59.4844 119.5792 0.0000 0.0000 0.0000
# 4 0.0000 0.0000 0.0000 11.5336 0.0000 0.0000
# 5 0.0000 0.0000 0.0000 0.0000 32.2375 0.0000
# 6 0.0000 0.0000 0.0000 0.0000 0.0000 22.3755
#
#
#
# Elastic Compliance Matrix: (Units=1/GPa)
#
#
# Indices 1 2 3 4 5 6 
#
# 1 0.017510 -0.002421 -0.004082 0.000000 0.000000 0.000000
# 2 -0.002421 0.007979 -0.003238 0.000000 0.000000 0.000000
# 3 -0.004082 -0.003238 0.011206 0.000000 0.000000 0.000000
# 4 0.000000 0.000000 0.000000 0.086703 0.000000 0.000000
# 5 0.000000 0.000000 0.000000 0.000000 0.031020 0.000000
# 6 0.000000 0.000000 0.000000 0.000000 0.000000 0.044692
#
#
# Mechanical properties :
#
#
# Convention : Reuss Voigt Hill
#
# Bulk Modulus (GPa) = 58.10101 68.19731 63.14916
# Shear Modulus (GPa) = 22.28852 27.81978 25.05415
#
# Velocity S-wave (km/s) = 3.48288 3.89112 3.69264
# Velocity P-wave (km/s) = 6.91340 7.56993 7.24910
#
# Compressibility (1/GPa) = 0.01721140
#
# Stress axis : x y z
#
# Youngs Moduli (GPa) = 57.11096 125.32408 89.23660
#
# Poissons Ratio (x) = 0.30344 0.36431
# Poissons Ratio (y) = 0.13828 0.28897
# Poissons Ratio (z) = 0.23315 0.40583
#
# Static dielectric constant tensor:
#      x y z
#    x 3.321020 0.000000 0.000000 
#    y 0.000000 3.997690 0.000000 
#    z 0.000000 0.000000 3.276230 
# 
# 
# High freq. dielectric constant tensor:
#      x y z
#    x 1.700260 0.000000 0.000000 
#    y 0.000000 1.729430 0.000000 
#    z 0.000000 0.000000 1.703300 
# 
# From -- ./inp_files/13937.got.cif
#   From: 2010.03.12/outbox.cif.g09.slc.cpg/sg51_7_cif.got.tgz:13937.got - 2010.04.16 13:43:02.
