data_PCOD8206675
_publ_section_title
;
Structure prediction by ZEFSAII (Michael W. Deem and Ramdas Pophale) SiO2 
 PCOD8206675
Probable space group: P M M A
;
_chemical_formula_sum "Si O2"
_cell_formula_units_Z 64
_cell_length_a 9.116689
_cell_length_b 14.855738
_cell_length_c 24.825934
_cell_angle_alpha 90.000000
_cell_angle_beta 90.000000
_cell_angle_gamma 90.000000
_cell_volume 3362.303927
_symmetry_space_group_name_H-M "P M M A"
_symmetry_group_IT_number 51
_symmetry_cell_setting 'orthorhombic'
loop_
_space_group_symop_operation_xyz
x,y,z
1/2-x,-y,z
1/2+x,-y,-z
-x,y,-z
-x,-y,-z
1/2+x,y,-z
1/2-x,y,z
x,-y,z
loop_
_atom_site_type_symbol
_atom_site_label
_atom_site_fract_x
_atom_site_fract_y
_atom_site_fract_z
Si Si1 0.918178 0.100269 0.733004
Si Si2 0.421203 0.787057 0.647678
Si Si3 0.417444 0.599858 0.693614
Si Si4 0.084923 0.833192 0.156054
Si Si5 0.077370 0.785640 0.946651
Si Si6 0.417550 0.403419 0.905403
Si Si7 0.583047 0.364318 0.802208
Si Si8 0.422142 0.103260 0.444262
O O1 0.750000 0.132947 0.723577
O O2 0.951012 0.094575 0.797378
O O3 0.029353 0.167433 0.703627
O O4 0.939460 0.000000 0.709428
O O5 0.250000 0.806795 0.637892
O O6 0.453774 0.679517 0.650944
O O7 0.515582 0.829014 0.599907
O O8 0.250000 0.611680 0.712727
O O9 0.441575 0.500000 0.667464
O O10 0.517883 0.607744 0.745474
O O11 0.250000 0.843662 0.133293
O O12 0.064749 0.741048 0.188391
O O13 0.975255 0.841980 0.105498
O O14 0.250000 0.796855 0.953259
O O15 0.024866 0.681085 0.940362
O O16 0.000000 0.824274 0.000000
O O17 0.250000 0.382589 0.890577
O O18 0.433103 0.500000 0.936546
O O19 0.503272 0.416073 0.850080
O O20 0.750000 0.395649 0.802557
O O21 0.500000 0.126726 0.500000
O O22 0.250000 0.120204 0.450751
O O23 0.454521 0.000000 0.427284
#
# Coordination Sequence:
#
# PCOD8206675 Si02
#       8
#     8   8   8   8   8   8   8   8
#     4  10  20  35  56  82 113 147 177 212 268 332
#     4  11  22  35  55  83 117 153 190 232 274 318
#     4  10  21  35  50  71 105 150 193 230 271 318
#     4   9  18  33  51  72 101 133 167 210 259 317
#     4  10  20  33  50  69  90 123 166 211 262 319
#     4   9  18  31  45  63  91 126 162 204 259 322
#     4  10  18  29  47  71  98 131 173 220 265 312
#     4  10  21  38  61  88 119 154 190 229 275 328
#
# _framework density 19.034568
#
# number of rings (size 3 to 8) (size 9 to 14) (size 15 to 20)
#    0.000    2.125    1.250    2.250    0.000    6.750 
#    0.000    0.000    0.000    0.750    0.000    0.000 
#    0.000    0.000    0.000    0.000    0.000    0.000 
#
# Total GULP energy -793344.494026 kJ/mol
# GULP energy per Si atom -12396.007719 kJ/mol
# Density = 1.899124 g / cm^3
# Si number density = 19.034568 Si / 1000 Ang^3
#
#
#
# Elastic Constant Matrix: (Units=GPa)
#
#
# Indices 1 2 3 4 5 6 
#
# 1 88.0856 30.7659 50.2786 0.0000 0.0000 0.0000
# 2 30.7659 75.8418 36.1766 0.0000 0.0000 0.0000
# 3 50.2786 36.1766 102.2124 0.0000 0.0000 0.0000
# 4 0.0000 0.0000 0.0000 13.2937 0.0000 0.0000
# 5 0.0000 0.0000 0.0000 0.0000 35.0461 0.0000
# 6 0.0000 0.0000 0.0000 0.0000 0.0000 17.7192
#
#
#
# Elastic Compliance Matrix: (Units=1/GPa)
#
#
# Indices 1 2 3 4 5 6 
#
# 1 0.016479 -0.003391 -0.006906 0.000000 0.000000 0.000000
# 2 -0.003391 0.016561 -0.004194 0.000000 0.000000 0.000000
# 3 -0.006906 -0.004194 0.014665 0.000000 0.000000 0.000000
# 4 0.000000 0.000000 0.000000 0.075223 0.000000 0.000000
# 5 0.000000 0.000000 0.000000 0.000000 0.028534 0.000000
# 6 0.000000 0.000000 0.000000 0.000000 0.000000 0.056436
#
#
# Mechanical properties :
#
#
# Convention : Reuss Voigt Hill
#
# Bulk Modulus (GPa) = 53.40648 55.62021 54.51334
# Shear Modulus (GPa) = 20.56601 23.13973 21.85287
#
# Velocity S-wave (km/s) = 3.29059 3.49043 3.39198
# Velocity P-wave (km/s) = 6.52349 6.74746 6.63642
#
# Compressibility (1/GPa) = 0.01872432
#
# Stress axis : x y z
#
# Youngs Moduli (GPa) = 60.68459 60.38210 68.19015
#
# Poissons Ratio (x) = 0.20473 0.47091
# Poissons Ratio (y) = 0.20576 0.28597
# Poissons Ratio (z) = 0.41908 0.25323
#
# Static dielectric constant tensor:
#      x y z
#    x 3.519710 0.000000 0.000000 
#    y 0.000000 3.655570 0.000000 
#    z 0.000000 0.000000 3.267420 
# 
# 
# High freq. dielectric constant tensor:
#      x y z
#    x 1.744220 0.000000 0.000000 
#    y 0.000000 1.733940 0.000000 
#    z 0.000000 0.000000 1.715510 
# 
# From -- ./inp_files/34847.got.cif
#   From: 2010.03.12/outbox.cif.g09.slc.cpg/sg51_18_cif.got.tgz:34847.got - 2010.04.16 13:43:02.
