data_PCOD8206537
_publ_section_title
;
Structure prediction by ZEFSAII (Michael W. Deem and Ramdas Pophale) SiO2 
 PCOD8206537
Probable space group: P M M A
;
_chemical_formula_sum "Si O2"
_cell_formula_units_Z 56
_cell_length_a 9.078577
_cell_length_b 14.580081
_cell_length_c 23.295843
_cell_angle_alpha 90.000000
_cell_angle_beta 90.000000
_cell_angle_gamma 90.000000
_cell_volume 3083.586594
_symmetry_space_group_name_H-M "P M M A"
_symmetry_group_IT_number 51
_symmetry_cell_setting 'orthorhombic'
loop_
_space_group_symop_operation_xyz
x,y,z
1/2-x,-y,z
1/2+x,-y,-z
-x,y,-z
-x,-y,-z
1/2+x,y,-z
1/2-x,y,z
x,-y,z
loop_
_atom_site_type_symbol
_atom_site_label
_atom_site_fract_x
_atom_site_fract_y
_atom_site_fract_z
Si Si1 0.575340 0.899052 0.235467
Si Si2 0.575107 0.398279 0.840468
Si Si3 0.420848 0.893948 0.893827
Si Si4 0.922672 0.605314 0.711714
Si Si5 0.423076 0.895463 0.558566
Si Si6 0.575173 0.771613 0.335943
Si Si7 0.575220 0.270838 0.942925
O O1 0.750000 0.903721 0.239984
O O2 0.529365 0.871151 0.171217
O O3 0.512325 0.826473 0.280790
O O4 0.511578 0.000000 0.250144
O O5 0.750000 0.398829 0.840506
O O6 0.516480 0.500000 0.855741
O O7 0.521394 0.371157 0.776435
O O8 0.515316 0.328508 0.888417
O O9 0.250000 0.868897 0.903449
O O10 0.522188 0.833884 0.935578
O O11 0.449496 0.000000 0.908164
O O12 0.750000 0.623151 0.706071
O O13 0.960603 0.500000 0.696762
O O14 0.006195 0.670069 0.666165
O O15 0.500000 0.864828 0.500000
O O16 0.250000 0.887228 0.549550
O O17 0.478174 0.826209 0.607795
O O18 0.466204 0.000000 0.575371
O O19 0.750000 0.763404 0.334746
O O20 0.750000 0.275350 0.949239
O O21 0.500000 0.312127 0.000000
#
# Coordination Sequence:
#
# PCOD8206537 Si02
#       7
#     8   8   8   8   8   8   8
#     4   8  14  26  46  72  99 124 150 185 235 291
#     4   8  16  33  54  73  95 124 155 188 234 291
#     4   9  18  33  51  69  92 123 156 191 233 282
#     4   9  18  33  52  73  98 128 159 192 236 291
#     4   9  18  32  49  71 102 139 174 204 236 277
#     4  10  18  28  48  76 102 128 160 200 241 281
#     4  11  22  34  50  70  92 120 155 196 237 279
#
# _framework density 18.160672000000002
#
# number of rings (size 3 to 8) (size 9 to 14) (size 15 to 20)
#    0.000    2.857    0.000    3.429    0.000    3.429 
#    0.000    0.714    0.000    5.571    0.000    0.000 
#    0.000    0.000    0.000    0.000    0.000    0.000 
#
# Total GULP energy -694241.421120 kJ/mol
# GULP energy per Si atom -12397.168234 kJ/mol
# Density = 1.811934 g / cm^3
# Si number density = 18.160672 Si / 1000 Ang^3
#
#
#
# Elastic Constant Matrix: (Units=GPa)
#
#
# Indices 1 2 3 4 5 6 
#
# 1 34.6404 32.7396 30.1918 0.0000 0.0000 0.0000
# 2 32.7396 107.9685 65.0841 0.0000 0.0000 0.0000
# 3 30.1918 65.0841 98.6032 0.0000 0.0000 0.0000
# 4 0.0000 0.0000 0.0000 27.5139 0.0000 0.0000
# 5 0.0000 0.0000 0.0000 0.0000 25.0121 0.0000
# 6 0.0000 0.0000 0.0000 0.0000 0.0000 25.6489
#
#
#
# Elastic Compliance Matrix: (Units=1/GPa)
#
#
# Indices 1 2 3 4 5 6 
#
# 1 0.043723 -0.008616 -0.007701 0.000000 0.000000 0.000000
# 2 -0.008616 0.017080 -0.008636 0.000000 0.000000 0.000000
# 3 -0.007701 -0.008636 0.018200 0.000000 0.000000 0.000000
# 4 0.000000 0.000000 0.000000 0.036345 0.000000 0.000000
# 5 0.000000 0.000000 0.000000 0.000000 0.039981 0.000000
# 6 0.000000 0.000000 0.000000 0.000000 0.000000 0.038988
#
#
# Mechanical properties :
#
#
# Convention : Reuss Voigt Hill
#
# Bulk Modulus (GPa) = 34.36674 55.24925 44.80799
# Shear Modulus (GPa) = 19.69106 23.18141 21.43624
#
# Velocity S-wave (km/s) = 3.29640 3.57664 3.43937
# Velocity P-wave (km/s) = 5.78387 6.89529 6.36389
#
# Compressibility (1/GPa) = 0.02909790
#
# Stress axis : x y z
#
# Youngs Moduli (GPa) = 22.87112 58.54633 54.94592
#
# Poissons Ratio (x) = 0.50446 0.42311
# Poissons Ratio (y) = 0.19707 0.47451
# Poissons Ratio (z) = 0.17612 0.50560
#
# Static dielectric constant tensor:
#      x y z
#    x 2.937110 0.000000 0.000000 
#    y 0.000000 3.453040 0.000000 
#    z 0.000000 0.000000 3.405690 
# 
# 
# High freq. dielectric constant tensor:
#      x y z
#    x 1.670570 0.000000 0.000000 
#    y 0.000000 1.704870 0.000000 
#    z 0.000000 0.000000 1.694940 
# 
# From -- ./inp_files/32033.got.cif
#   From: 2010.03.12/outbox.cif.g09.slc.cpg/sg51_17_cif.got.tgz:32033.got - 2010.04.16 13:43:02.
