data_PCOD8206117
_publ_section_title
;
Structure prediction by ZEFSAII (Michael W. Deem and Ramdas Pophale) SiO2 
 PCOD8206117
Probable space group: P M M A
;
_chemical_formula_sum "Si O2"
_cell_formula_units_Z 32
_cell_length_a 17.838549
_cell_length_b 8.568372
_cell_length_c 11.643568
_cell_angle_alpha 90.000000
_cell_angle_beta 90.000000
_cell_angle_gamma 90.000000
_cell_volume 1779.688208
_symmetry_space_group_name_H-M "P M M A"
_symmetry_group_IT_number 51
_symmetry_cell_setting 'orthorhombic'
loop_
_space_group_symop_operation_xyz
x,y,z
1/2-x,-y,z
1/2+x,-y,-z
-x,y,-z
-x,-y,-z
1/2+x,y,-z
1/2-x,y,z
x,-y,z
loop_
_atom_site_type_symbol
_atom_site_label
_atom_site_fract_x
_atom_site_fract_y
_atom_site_fract_z
Si Si1 0.898386 0.816738 0.948411
Si Si2 0.546855 0.317700 0.160698
Si Si3 0.022246 0.815876 0.373024
Si Si4 0.833127 0.319418 0.740652
O O1 0.830465 0.767541 0.865265
O O2 0.967722 0.720902 0.896747
O O3 0.913840 0.000000 0.942277
O O4 0.888269 0.763534 0.081729
O O5 0.562827 0.500000 0.165886
O O6 0.543149 0.249842 0.289580
O O7 0.105060 0.751853 0.344515
O O8 0.000000 0.761670 0.500000
O O9 0.024832 0.000000 0.359972
O O10 0.750000 0.298021 0.686606
O O11 0.852478 0.500000 0.760168
#
# Coordination Sequence:
#
# PCOD8206117 Si02
#       4
#     8   8   8   8
#     4  10  17  27  45  68  95 123 153 190 236 288
#     4  10  17  27  45  68  95 123 154 194 238 283
#     4  10  20  33  50  73 100 131 170 212 250 294
#     4  10  20  33  50  73 100 129 163 204 251 303
#
# _framework density 17.980678999999999
#
# number of rings (size 3 to 8) (size 9 to 14) (size 15 to 20)
#    0.000    2.000    0.000   10.500    0.000    4.000 
#    0.000    0.000    0.000    1.500    0.000    7.000 
#    0.000    0.000    0.000    0.000    0.000    0.000 
#
# Total GULP energy -396531.786392 kJ/mol
# GULP energy per Si atom -12391.618325 kJ/mol
# Density = 1.793975 g / cm^3
# Si number density = 17.980679 Si / 1000 Ang^3
#
#
#
# Elastic Constant Matrix: (Units=GPa)
#
#
# Indices 1 2 3 4 5 6 
#
# 1 57.1131 32.3318 43.6879 0.0000 0.0000 0.0000
# 2 32.3318 99.5025 57.9782 0.0000 0.0000 0.0000
# 3 43.6879 57.9782 154.8662 0.0000 0.0000 0.0000
# 4 0.0000 0.0000 0.0000 22.3777 0.0000 0.0000
# 5 0.0000 0.0000 0.0000 0.0000 18.5873 0.0000
# 6 0.0000 0.0000 0.0000 0.0000 0.0000 12.9081
#
#
#
# Elastic Compliance Matrix: (Units=1/GPa)
#
#
# Indices 1 2 3 4 5 6 
#
# 1 0.024092 -0.004947 -0.004944 0.000000 0.000000 0.000000
# 2 -0.004947 0.013870 -0.003797 0.000000 0.000000 0.000000
# 3 -0.004944 -0.003797 0.009273 0.000000 0.000000 0.000000
# 4 0.000000 0.000000 0.000000 0.044687 0.000000 0.000000
# 5 0.000000 0.000000 0.000000 0.000000 0.053800 0.000000
# 6 0.000000 0.000000 0.000000 0.000000 0.000000 0.077471
#
#
# Mechanical properties :
#
#
# Convention : Reuss Voigt Hill
#
# Bulk Modulus (GPa) = 50.35686 64.38640 57.37163
# Shear Modulus (GPa) = 19.44090 22.60688 21.02389
#
# Velocity S-wave (km/s) = 3.29174 3.54967 3.42314
# Velocity P-wave (km/s) = 6.52030 7.25856 6.89931
#
# Compressibility (1/GPa) = 0.01985827
#
# Stress axis : x y z
#
# Youngs Moduli (GPa) = 41.50790 72.09822 107.83524
#
# Poissons Ratio (x) = 0.35670 0.53315
# Poissons Ratio (y) = 0.20536 0.40944
# Poissons Ratio (z) = 0.20522 0.27375
#
# Static dielectric constant tensor:
#      x y z
#    x 3.214600 0.000000 0.000000 
#    y 0.000000 3.403520 0.000000 
#    z 0.000000 0.000000 3.964940 
# 
# 
# High freq. dielectric constant tensor:
#      x y z
#    x 1.647230 0.000000 0.000000 
#    y 0.000000 1.718600 0.000000 
#    z 0.000000 0.000000 1.693310 
# 
# From -- ./inp_files/16975.got.cif
#   From: 2010.03.12/outbox.cif.g09.slc.cpg/sg51_9_cif.got.tgz:16975.got - 2010.04.16 13:43:02.
