data_PCOD8206626
_publ_section_title
;
Structure prediction by ZEFSAII (Michael W. Deem and Ramdas Pophale) SiO2 
 PCOD8206626
Probable space group: P M M A
;
_chemical_formula_sum "Si O2"
_cell_formula_units_Z 64
_cell_length_a 28.432793
_cell_length_b 9.099468
_cell_length_c 15.479006
_cell_angle_alpha 90.000000
_cell_angle_beta 90.000000
_cell_angle_gamma 90.000000
_cell_volume 4004.779359
_symmetry_space_group_name_H-M "P M M A"
_symmetry_group_IT_number 51
_symmetry_cell_setting 'orthorhombic'
loop_
_space_group_symop_operation_xyz
x,y,z
1/2-x,-y,z
1/2+x,-y,-z
-x,y,-z
-x,-y,-z
1/2+x,y,-z
1/2-x,y,z
x,-y,z
loop_
_atom_site_type_symbol
_atom_site_label
_atom_site_fract_x
_atom_site_fract_y
_atom_site_fract_z
Si Si1 0.394145 0.670293 0.327630
Si Si2 0.197363 0.332371 0.422197
Si Si3 0.052516 0.674232 0.499611
Si Si4 0.196587 0.172359 0.598464
Si Si5 0.944474 0.838435 0.009336
Si Si6 0.110527 0.672672 0.663528
Si Si7 0.947051 0.826124 0.820077
Si Si8 0.546038 0.672290 0.175870
O O1 0.404916 0.500000 0.307288
O O2 0.338765 0.698256 0.344305
O O3 0.422400 0.723902 0.411846
O O4 0.408795 0.769049 0.247254
O O5 0.250000 0.303744 0.386905
O O6 0.191070 0.500000 0.454953
O O7 0.185472 0.228898 0.502397
O O8 0.050347 0.500000 0.506407
O O9 0.080902 0.734676 0.582179
O O10 0.000000 0.740954 0.500000
O O11 0.250000 0.213160 0.624929
O O12 0.161229 0.248442 0.666029
O O13 0.188197 0.000000 0.599999
O O14 0.926324 0.785366 0.915200
O O15 0.924084 0.000000 0.032700
O O16 0.931283 0.724921 0.085026
O O17 0.000000 0.849784 0.000000
O O18 0.119002 0.500000 0.655627
O O19 0.083098 0.713486 0.750430
O O20 0.997165 0.751119 0.802213
O O21 0.954126 0.000000 0.811511
O O22 0.536063 0.500000 0.171363
#
# Coordination Sequence:
#
# PCOD8206626 Si02
#       8
#     8   8   8   8   8   8   8   8
#     4  10  18  29  46  67  90 122 159 194 231 271
#     4   9  17  31  50  68  88 118 156 196 239 282
#     4   9  16  27  42  61  90 124 154 183 219 265
#     4  10  20  32  47  68  93 121 155 196 236 272
#     4   8  16  31  47  64  91 125 155 188 233 276
#     4  10  19  32  48  68  93 124 157 190 234 280
#     4  10  20  32  46  66  96 130 158 188 230 277
#     4  10  19  30  49  73  94 120 157 197 232 270
#
# _framework density 15.980905999999999
#
# number of rings (size 3 to 8) (size 9 to 14) (size 15 to 20)
#    0.000    2.500    1.250    2.625    0.000    7.000 
#    0.000    0.000    0.000    1.500    0.000    0.875 
#    0.000    3.000    0.000    0.000    0.000    0.000 
#
# Total GULP energy -793476.060018 kJ/mol
# GULP energy per Si atom -12398.063438 kJ/mol
# Density = 1.594453 g / cm^3
# Si number density = 15.980906 Si / 1000 Ang^3
#
#
#
# Elastic Constant Matrix: (Units=GPa)
#
#
# Indices 1 2 3 4 5 6 
#
# 1 100.4958 41.8156 56.1993 0.0000 0.0000 0.0000
# 2 41.8156 62.3255 48.2137 0.0000 0.0000 0.0000
# 3 56.1993 48.2137 118.3475 0.0000 0.0000 0.0000
# 4 0.0000 0.0000 0.0000 21.5636 0.0000 0.0000
# 5 0.0000 0.0000 0.0000 0.0000 13.5882 0.0000
# 6 0.0000 0.0000 0.0000 0.0000 0.0000 18.6547
#
#
#
# Elastic Compliance Matrix: (Units=1/GPa)
#
#
# Indices 1 2 3 4 5 6 
#
# 1 0.015285 -0.006776 -0.004498 0.000000 0.000000 0.000000
# 2 -0.006776 0.026432 -0.007550 0.000000 0.000000 0.000000
# 3 -0.004498 -0.007550 0.013662 0.000000 0.000000 0.000000
# 4 0.000000 0.000000 0.000000 0.046374 0.000000 0.000000
# 5 0.000000 0.000000 0.000000 0.000000 0.073594 0.000000
# 6 0.000000 0.000000 0.000000 0.000000 0.000000 0.053606
#
#
# Mechanical properties :
#
#
# Convention : Reuss Voigt Hill
#
# Bulk Modulus (GPa) = 56.40108 63.73622 60.06865
# Shear Modulus (GPa) = 18.34786 19.75730 19.05258
#
# Velocity S-wave (km/s) = 3.39206 3.51993 3.45658
# Velocity P-wave (km/s) = 7.12115 7.51593 7.32120
#
# Compressibility (1/GPa) = 0.01773016
#
# Stress axis : x y z
#
# Youngs Moduli (GPa) = 65.42167 37.83349 73.19707
#
# Poissons Ratio (x) = 0.25635 0.32926
# Poissons Ratio (y) = 0.44327 0.55267
# Poissons Ratio (z) = 0.29428 0.28566
#
# Static dielectric constant tensor:
#      x y z
#    x 3.050740 0.000000 0.000000 
#    y 0.000000 2.968760 0.000000 
#    z 0.000000 0.000000 3.183380 
# 
# 
# High freq. dielectric constant tensor:
#      x y z
#    x 1.597270 0.000000 0.000000 
#    y 0.000000 1.607640 0.000000 
#    z 0.000000 0.000000 1.602450 
# 
# From -- ./inp_files/26656.got.cif
#   From: 2010.03.12/outbox.cif.g09.slc.cpg/sg51_14_cif.got.tgz:26656.got - 2010.04.16 13:43:02.
