data_PCOD8206547
_publ_section_title
;
Structure prediction by ZEFSAII (Michael W. Deem and Ramdas Pophale) SiO2 
 PCOD8206547
Probable space group: P M M A
;
_chemical_formula_sum "Si O2"
_cell_formula_units_Z 48
_cell_length_a 30.875488
_cell_length_b 9.013498
_cell_length_c 9.048882
_cell_angle_alpha 90.000000
_cell_angle_beta 90.000000
_cell_angle_gamma 90.000000
_cell_volume 2518.269016
_symmetry_space_group_name_H-M "P M M A"
_symmetry_group_IT_number 51
_symmetry_cell_setting 'orthorhombic'
loop_
_space_group_symop_operation_xyz
x,y,z
1/2-x,-y,z
1/2+x,-y,-z
-x,y,-z
-x,-y,-z
1/2+x,y,-z
1/2-x,y,z
x,-y,z
loop_
_atom_site_type_symbol
_atom_site_label
_atom_site_fract_x
_atom_site_fract_y
_atom_site_fract_z
Si Si1 0.418478 0.325372 0.835979
Si Si2 0.343869 0.831681 0.672395
Si Si3 0.750000 0.326236 0.662699
Si Si4 0.336419 0.826291 0.328792
Si Si5 0.580113 0.173923 0.851434
Si Si6 0.750000 0.167205 0.363119
Si Si7 0.005131 0.829040 0.671599
O O1 0.419590 0.500000 0.848888
O O2 0.372563 0.277451 0.768906
O O3 0.456536 0.272664 0.729626
O O4 0.425330 0.258594 0.996576
O O5 0.345844 0.787504 0.499878
O O6 0.294095 0.815149 0.731451
O O7 0.360631 0.000000 0.694294
O O8 0.750000 0.500000 0.691647
O O9 0.793712 0.256854 0.732459
O O10 0.750000 0.290501 0.489307
O O11 0.376951 0.771031 0.232627
O O12 0.328633 0.000000 0.309862
O O13 0.539363 0.214548 0.750426
O O14 0.582365 0.000000 0.884563
O O15 0.750000 0.000000 0.435299
O O16 0.000000 0.796239 0.500000
O O17 0.017329 0.000000 0.701174
#
# Coordination Sequence:
#
# PCOD8206547 Si02
#       7
#     8   8   4   8   8   4   8
#     4  12  25  37  52  80 118 152 178 213 269 332
#     4   9  17  34  59  83 107 139 185 233 272 316
#     4  10  18  28  49  82 117 148 176 216 274 332
#     4   9  18  35  59  83 106 139 187 236 274 314
#     4  10  21  38  60  82 106 142 185 226 269 318
#     4   8  16  32  55  80 105 138 184 234 274 312
#     4  10  21  40  65  87 105 133 180 231 272 316
#
# _framework density 19.060711000000001
#
# number of rings (size 3 to 8) (size 9 to 14) (size 15 to 20)
#    0.000    2.167    0.000    4.750    0.000    9.000 
#    0.000    2.500    0.000    2.000    0.000    0.000 
#    0.000    0.000    0.000    0.000    0.000    0.000 
#
# Total GULP energy -595201.119936 kJ/mol
# GULP energy per Si atom -12400.023332 kJ/mol
# Density = 1.901733 g / cm^3
# Si number density = 19.060711 Si / 1000 Ang^3
#
#
#
# Elastic Constant Matrix: (Units=GPa)
#
#
# Indices 1 2 3 4 5 6 
#
# 1 146.9925 44.0082 46.9258 0.0000 0.0000 0.0000
# 2 44.0082 54.5760 24.8227 0.0000 0.0000 0.0000
# 3 46.9258 24.8227 78.4091 0.0000 0.0000 0.0000
# 4 0.0000 0.0000 0.0000 11.0945 0.0000 0.0000
# 5 0.0000 0.0000 0.0000 0.0000 0.4502 0.0000
# 6 0.0000 0.0000 0.0000 0.0000 0.0000 18.6782
#
#
#
# Elastic Compliance Matrix: (Units=1/GPa)
#
#
# Indices 1 2 3 4 5 6 
#
# 1 0.009929 -0.006196 -0.003981 0.000000 0.000000 0.000000
# 2 -0.006196 0.025271 -0.004292 0.000000 0.000000 0.000000
# 3 -0.003981 -0.004292 0.016495 0.000000 0.000000 0.000000
# 4 0.000000 0.000000 0.000000 0.090134 0.000000 0.000000
# 5 0.000000 0.000000 0.000000 0.000000 2.221326 0.000000
# 6 0.000000 0.000000 0.000000 0.000000 0.000000 0.053538
#
#
# Mechanical properties :
#
#
# Convention : Reuss Voigt Hill
#
# Bulk Modulus (GPa) = 43.94176 56.83232 50.38704
# Shear Modulus (GPa) = 2.03814 16.99265 9.51540
#
# Velocity S-wave (km/s) = 1.03519 2.98904 2.23674
# Velocity P-wave (km/s) = 4.95302 6.46480 5.75874
#
# Compressibility (1/GPa) = 0.02275740
#
# Stress axis : x y z
#
# Youngs Moduli (GPa) = 100.71708 39.57046 60.62494
#
# Poissons Ratio (x) = 0.24517 0.24133
# Poissons Ratio (y) = 0.62401 0.26023
# Poissons Ratio (z) = 0.40092 0.16985
#
# Static dielectric constant tensor:
#      x y z
#    x 3.902220 0.000000 0.000000 
#    y 0.000000 3.318020 0.000000 
#    z 0.000000 0.000000 3.326260 
# 
# 
# High freq. dielectric constant tensor:
#      x y z
#    x 1.765600 0.000000 0.000000 
#    y 0.000000 1.724400 0.000000 
#    z 0.000000 0.000000 1.719370 
# 
# From -- ./inp_files/12860.got.cif
#   From: 2010.03.12/outbox.cif.g09.slc.cpg/sg51_7_cif.got.tgz:12860.got - 2010.04.16 13:43:02.
