data_PCOD8206310
_publ_section_title
;
Structure prediction by ZEFSAII (Michael W. Deem and Ramdas Pophale) SiO2 
 PCOD8206310
Probable space group: P M M A
;
_chemical_formula_sum "Si O2"
_cell_formula_units_Z 52
_cell_length_a 8.784278
_cell_length_b 26.682961
_cell_length_c 13.587809
_cell_angle_alpha 90.000000
_cell_angle_beta 90.000000
_cell_angle_gamma 90.000000
_cell_volume 3184.853988
_symmetry_space_group_name_H-M "P M M A"
_symmetry_group_IT_number 51
_symmetry_cell_setting 'orthorhombic'
loop_
_space_group_symop_operation_xyz
x,y,z
1/2-x,-y,z
1/2+x,-y,-z
-x,y,-z
-x,-y,-z
1/2+x,y,-z
1/2-x,y,z
x,-y,z
loop_
_atom_site_type_symbol
_atom_site_label
_atom_site_fract_x
_atom_site_fract_y
_atom_site_fract_z
Si Si1 0.426961 0.406018 0.212978
Si Si2 0.429628 0.838565 0.392499
Si Si3 0.928446 0.746855 0.285463
Si Si4 0.570180 0.645824 0.393891
Si Si5 0.429973 0.500000 0.892019
Si Si6 0.426388 0.303147 0.105102
Si Si7 0.928197 0.947135 0.605965
O O1 0.250000 0.419837 0.223901
O O2 0.494720 0.393839 0.319965
O O3 0.518512 0.451761 0.168003
O O4 0.452356 0.359813 0.139796
O O5 0.500000 0.831283 0.500000
O O6 0.250000 0.831267 0.402036
O O7 0.494751 0.797844 0.319123
O O8 0.473980 0.893595 0.345604
O O9 0.750000 0.754811 0.279435
O O10 0.971281 0.702178 0.360488
O O11 0.990978 0.735061 0.177815
O O12 0.500000 0.635935 0.500000
O O13 0.750000 0.637040 0.395788
O O14 0.250000 0.500000 0.903228
O O15 0.500000 0.500000 0.000000
O O16 0.250000 0.289244 0.101061
O O17 0.500000 0.295787 0.000000
O O18 0.750000 0.946589 0.590176
O O19 0.000000 0.948529 0.500000
O O20 0.974959 0.000000 0.662018
#
# Coordination Sequence:
#
# PCOD8206310 Si02
#       7
#     8   8   8   8   4   8   8
#     4  10  21  37  56  78 102 128 159 194 232 277
#     4  10  18  27  41  62  90 123 159 197 236 277
#     4  10  20  32  47  68  95 125 159 196 233 277
#     4  10  20  34  52  73  98 130 164 197 234 277
#     4  12  24  38  57  80 105 130 158 194 236 280
#     4  10  20  34  53  74  97 124 154 189 232 280
#     4   8  14  24  37  54  79 114 154 193 232 274
#
# _framework density 16.327279000000001
#
# number of rings (size 3 to 8) (size 9 to 14) (size 15 to 20)
#    0.000    2.154    0.000    3.923    0.000    6.769 
#    0.000    0.385    0.000    0.000    0.000    0.000 
#    0.000    0.615    0.000    1.692    0.000    2.769 
#
# Total GULP energy -644517.576498 kJ/mol
# GULP energy per Si atom -12394.568779 kJ/mol
# Density = 1.629012 g / cm^3
# Si number density = 16.327279 Si / 1000 Ang^3
#
#
#
# Elastic Constant Matrix: (Units=GPa)
#
#
# Indices 1 2 3 4 5 6 
#
# 1 90.1208 60.2920 49.5096 0.0000 0.0000 0.0000
# 2 60.2920 132.9967 60.7856 0.0000 0.0000 0.0000
# 3 49.5096 60.7856 111.7386 0.0000 0.0000 0.0000
# 4 0.0000 0.0000 0.0000 17.7403 0.0000 0.0000
# 5 0.0000 0.0000 0.0000 0.0000 29.7620 0.0000
# 6 0.0000 0.0000 0.0000 0.0000 0.0000 21.1433
#
#
#
# Elastic Compliance Matrix: (Units=1/GPa)
#
#
# Indices 1 2 3 4 5 6 
#
# 1 0.017529 -0.005852 -0.004584 0.000000 0.000000 0.000000
# 2 -0.005852 0.011960 -0.003914 0.000000 0.000000 0.000000
# 3 -0.004584 -0.003914 0.013109 0.000000 0.000000 0.000000
# 4 0.000000 0.000000 0.000000 0.056369 0.000000 0.000000
# 5 0.000000 0.000000 0.000000 0.000000 0.033600 0.000000
# 6 0.000000 0.000000 0.000000 0.000000 0.000000 0.047296
#
#
# Mechanical properties :
#
#
# Convention : Reuss Voigt Hill
#
# Bulk Modulus (GPa) = 71.93654 75.11449 73.52552
# Shear Modulus (GPa) = 23.45264 24.68039 24.06652
#
# Velocity S-wave (km/s) = 3.79411 3.89215 3.84344
# Velocity P-wave (km/s) = 7.95917 8.14272 8.05147
#
# Compressibility (1/GPa) = 0.01390114
#
# Stress axis : x y z
#
# Youngs Moduli (GPa) = 57.04788 83.60877 76.28102
#
# Poissons Ratio (x) = 0.48925 0.34964
# Poissons Ratio (y) = 0.33382 0.29854
# Poissons Ratio (z) = 0.26148 0.32722
#
# Static dielectric constant tensor:
#      x y z
#    x 3.267750 0.000000 0.000000 
#    y 0.000000 3.544700 0.000000 
#    z 0.000000 0.000000 2.877160 
# 
# 
# High freq. dielectric constant tensor:
#      x y z
#    x 1.648240 0.000000 0.000000 
#    y 0.000000 1.634090 0.000000 
#    z 0.000000 0.000000 1.598690 
# 
# From -- ./inp_files/14590.got.cif
#   From: 2010.03.12/outbox.cif.g09.slc.cpg/sg51_8_cif.got.tgz:14590.got - 2010.04.16 13:43:02.
