data_PCOD8206816
_publ_section_title
;
Structure prediction by ZEFSAII (Michael W. Deem and Ramdas Pophale) SiO2 
 PCOD8206816
Probable space group: P M M A
;
_chemical_formula_sum "Si O2"
_cell_formula_units_Z 64
_cell_length_a 27.712477
_cell_length_b 9.239918
_cell_length_c 14.356895
_cell_angle_alpha 90.000000
_cell_angle_beta 90.000000
_cell_angle_gamma 90.000000
_cell_volume 3676.241107
_symmetry_space_group_name_H-M "P M M A"
_symmetry_group_IT_number 51
_symmetry_cell_setting 'orthorhombic'
loop_
_space_group_symop_operation_xyz
x,y,z
1/2-x,-y,z
1/2+x,-y,-z
-x,y,-z
-x,-y,-z
1/2+x,y,-z
1/2-x,y,z
x,-y,z
loop_
_atom_site_type_symbol
_atom_site_label
_atom_site_fract_x
_atom_site_fract_y
_atom_site_fract_z
Si Si1 0.615941 0.162732 0.851302
Si Si2 0.805484 0.328712 0.733178
Si Si3 0.306227 0.664204 0.477106
Si Si4 0.554336 0.827239 0.020531
Si Si5 0.066121 0.170271 0.774028
Si Si6 0.965152 0.162727 0.700413
Si Si7 0.377163 0.829908 0.600032
Si Si8 0.445583 0.659813 0.471869
O O1 0.659382 0.256471 0.808610
O O2 0.568424 0.159251 0.789419
O O3 0.636274 0.000000 0.864155
O O4 0.595471 0.228969 0.948442
O O5 0.750000 0.281008 0.752336
O O6 0.809898 0.500000 0.742736
O O7 0.820492 0.282255 0.627336
O O8 0.250000 0.678283 0.490609
O O9 0.323477 0.500000 0.490603
O O10 0.328826 0.759887 0.559369
O O11 0.571898 0.768048 0.121562
O O12 0.553228 0.000000 0.014699
O O13 0.500000 0.768381 0.000000
O O14 0.112789 0.207510 0.709394
O O15 0.017006 0.230524 0.727734
O O16 0.058777 0.000000 0.781991
O O17 0.939358 0.269312 0.628613
O O18 0.970748 0.000000 0.658713
O O19 0.422096 0.766204 0.545283
O O20 0.374259 0.000000 0.584097
O O21 0.500000 0.644250 0.500000
O O22 0.421142 0.500000 0.470469
#
# Coordination Sequence:
#
# PCOD8206816 Si02
#       8
#     8   8   8   8   8   8   8   8
#     4  10  19  29  51  81 101 125 165 211 252 292
#     4   9  19  36  55  73  98 133 165 198 252 312
#     4   9  19  37  58  77 100 133 170 207 251 305
#     4   9  15  28  49  73 101 133 168 204 245 296
#     4   9  17  29  46  69 100 135 166 201 246 296
#     4  10  18  30  47  70  99 130 166 204 247 295
#     4  11  21  32  50  74 101 134 169 208 252 296
#     4  11  22  32  43  64  97 137 172 201 239 292
#
# _framework density 17.409087
#
# number of rings (size 3 to 8) (size 9 to 14) (size 15 to 20)
#    0.000    2.250    2.500    2.250    0.000    4.000 
#    0.000    1.250    0.000    3.375    0.000    5.250 
#    0.000    0.000    0.000    0.000    0.000    0.000 
#
# Total GULP energy -793119.162889 kJ/mol
# GULP energy per Si atom -12392.486920 kJ/mol
# Density = 1.736946 g / cm^3
# Si number density = 17.409087 Si / 1000 Ang^3
#
#
#
# Elastic Constant Matrix: (Units=GPa)
#
#
# Indices 1 2 3 4 5 6 
#
# 1 80.9634 30.9562 46.0745 0.0000 0.0000 0.0000
# 2 30.9562 52.3340 40.7543 0.0000 0.0000 0.0000
# 3 46.0745 40.7543 131.7531 0.0000 0.0000 0.0000
# 4 0.0000 0.0000 0.0000 32.9237 0.0000 0.0000
# 5 0.0000 0.0000 0.0000 0.0000 29.0048 0.0000
# 6 0.0000 0.0000 0.0000 0.0000 0.0000 25.4643
#
#
#
# Elastic Compliance Matrix: (Units=1/GPa)
#
#
# Indices 1 2 3 4 5 6 
#
# 1 0.017293 -0.007271 -0.003798 0.000000 0.000000 0.000000
# 2 -0.007271 0.028229 -0.006189 0.000000 0.000000 0.000000
# 3 -0.003798 -0.006189 0.010833 0.000000 0.000000 0.000000
# 4 0.000000 0.000000 0.000000 0.030373 0.000000 0.000000
# 5 0.000000 0.000000 0.000000 0.000000 0.034477 0.000000
# 6 0.000000 0.000000 0.000000 0.000000 0.000000 0.039271
#
#
# Mechanical properties :
#
#
# Convention : Reuss Voigt Hill
#
# Bulk Modulus (GPa) = 45.79320 55.62448 50.70884
# Shear Modulus (GPa) = 24.71935 27.29628 26.00781
#
# Velocity S-wave (km/s) = 3.77226 3.96401 3.86932
# Velocity P-wave (km/s) = 6.73309 7.27818 7.01094
#
# Compressibility (1/GPa) = 0.02183731
#
# Stress axis : x y z
#
# Youngs Moduli (GPa) = 57.82738 35.42514 92.31376
#
# Poissons Ratio (x) = 0.25758 0.35063
# Poissons Ratio (y) = 0.42047 0.57133
# Poissons Ratio (z) = 0.21964 0.21925
#
# Static dielectric constant tensor:
#      x y z
#    x 3.034030 0.000000 0.000000 
#    y 0.000000 3.105360 0.000000 
#    z 0.000000 0.000000 3.537670 
# 
# 
# High freq. dielectric constant tensor:
#      x y z
#    x 1.663410 0.000000 0.000000 
#    y 0.000000 1.646840 0.000000 
#    z 0.000000 0.000000 1.669940 
# 
# From -- ./inp_files/26642.got.cif
#   From: 2010.03.12/outbox.cif.g09.slc.cpg/sg51_14_cif.got.tgz:26642.got - 2010.04.16 13:43:02.
