data_PCOD8206313
_publ_section_title
;
Structure prediction by ZEFSAII (Michael W. Deem and Ramdas Pophale) SiO2 
 PCOD8206313
Probable space group: P M M A
;
_chemical_formula_sum "Si O2"
_cell_formula_units_Z 48
_cell_length_a 21.553316
_cell_length_b 8.985537
_cell_length_c 15.146885
_cell_angle_alpha 90.000000
_cell_angle_beta 90.000000
_cell_angle_gamma 90.000000
_cell_volume 2933.468717
_symmetry_space_group_name_H-M "P M M A"
_symmetry_group_IT_number 51
_symmetry_cell_setting 'orthorhombic'
loop_
_space_group_symop_operation_xyz
x,y,z
1/2-x,-y,z
1/2+x,-y,-z
-x,y,-z
-x,-y,-z
1/2+x,y,-z
1/2-x,y,z
x,-y,z
loop_
_atom_site_type_symbol
_atom_site_label
_atom_site_fract_x
_atom_site_fract_y
_atom_site_fract_z
Si Si1 0.597875 0.675041 0.149461
Si Si2 0.957439 0.674705 0.805560
Si Si3 0.821494 0.824803 0.295820
Si Si4 0.071908 0.832012 0.023153
Si Si5 0.585670 0.175371 0.441609
Si Si6 0.045810 0.176252 0.372687
O O1 0.606126 0.500000 0.140295
O O2 0.529997 0.717253 0.186317
O O3 0.649973 0.738979 0.213552
O O4 0.609253 0.747078 0.053506
O O5 0.946782 0.500000 0.809920
O O6 0.917851 0.748406 0.884227
O O7 0.930708 0.739040 0.714146
O O8 0.750000 0.781371 0.304745
O O9 0.854588 0.770737 0.386507
O O10 0.831327 0.000000 0.280853
O O11 0.097074 0.000000 0.030734
O O12 0.000000 0.829270 0.000000
O O13 0.589470 0.224881 0.544418
O O14 0.523431 0.234904 0.394732
O O15 0.579824 0.000000 0.441444
O O16 0.047874 0.000000 0.355057
#
# Coordination Sequence:
#
# PCOD8206313 Si02
#       6
#     8   8   8   8   8   8
#     4  10  19  30  43  62  92 123 148 183 227 273
#     4  10  18  27  41  66  95 120 146 181 227 276
#     4  10  19  31  48  67  88 118 157 195 225 263
#     4   9  17  28  44  64  87 118 151 181 217 266
#     4   8  15  27  43  64  87 115 152 190 229 269
#     4   9  15  26  45  63  86 120 152 185 227 278
#
# _framework density 16.362881000000002
#
# number of rings (size 3 to 8) (size 9 to 14) (size 15 to 20)
#    0.000    2.667    1.667    2.500    0.000    3.667 
#    0.000    2.500    0.000    0.000    0.000    1.167 
#    0.000    6.667    0.000    0.000    0.000    0.000 
#
# Total GULP energy -595052.667742 kJ/mol
# GULP energy per Si atom -12396.930578 kJ/mol
# Density = 1.632564 g / cm^3
# Si number density = 16.362881 Si / 1000 Ang^3
#
#
#
# Elastic Constant Matrix: (Units=GPa)
#
#
# Indices 1 2 3 4 5 6 
#
# 1 60.4044 29.6332 50.0967 0.0000 0.0000 0.0000
# 2 29.6332 69.9608 60.6664 0.0000 0.0000 0.0000
# 3 50.0967 60.6664 176.2697 0.0000 0.0000 0.0000
# 4 0.0000 0.0000 0.0000 11.3593 0.0000 0.0000
# 5 0.0000 0.0000 0.0000 0.0000 19.2293 0.0000
# 6 0.0000 0.0000 0.0000 0.0000 0.0000 13.6324
#
#
#
# Elastic Compliance Matrix: (Units=1/GPa)
#
#
# Indices 1 2 3 4 5 6 
#
# 1 0.023235 -0.005866 -0.004585 0.000000 0.000000 0.000000
# 2 -0.005866 0.021855 -0.005855 0.000000 0.000000 0.000000
# 3 -0.004585 -0.005855 0.008991 0.000000 0.000000 0.000000
# 4 0.000000 0.000000 0.000000 0.088034 0.000000 0.000000
# 5 0.000000 0.000000 0.000000 0.000000 0.052004 0.000000
# 6 0.000000 0.000000 0.000000 0.000000 0.000000 0.073355
#
#
# Mechanical properties :
#
#
# Convention : Reuss Voigt Hill
#
# Bulk Modulus (GPa) = 46.57521 65.26973 55.92247
# Shear Modulus (GPa) = 16.27382 19.92677 18.10030
#
# Velocity S-wave (km/s) = 3.15708 3.49349 3.32954
# Velocity P-wave (km/s) = 6.46647 7.49987 7.00226
#
# Compressibility (1/GPa) = 0.02147065
#
# Stress axis : x y z
#
# Youngs Moduli (GPa) = 43.03817 45.75538 111.22111
#
# Poissons Ratio (x) = 0.26841 0.50991
# Poissons Ratio (y) = 0.25247 0.65117
# Poissons Ratio (z) = 0.19731 0.26788
#
# Static dielectric constant tensor:
#      x y z
#    x 2.736140 0.000000 0.000000 
#    y 0.000000 2.951550 0.000000 
#    z 0.000000 0.000000 3.402210 
# 
# 
# High freq. dielectric constant tensor:
#      x y z
#    x 1.567280 0.000000 0.000000 
#    y 0.000000 1.621920 0.000000 
#    z 0.000000 0.000000 1.647130 
# 
# From -- ./inp_files/25458.got.cif
#   From: 2010.03.12/outbox.cif.g09.slc.cpg/sg51_13_cif.got.tgz:25458.got - 2010.04.16 13:43:02.
