data_PCOD8206758
_publ_section_title
;
Structure prediction by ZEFSAII (Michael W. Deem and Ramdas Pophale) SiO2 
 PCOD8206758
Probable space group: P M M A
;
_chemical_formula_sum "Si O2"
_cell_formula_units_Z 52
_cell_length_a 9.012597
_cell_length_b 22.499878
_cell_length_c 15.442146
_cell_angle_alpha 90.000000
_cell_angle_beta 90.000000
_cell_angle_gamma 90.000000
_cell_volume 3131.394392
_symmetry_space_group_name_H-M "P M M A"
_symmetry_group_IT_number 51
_symmetry_cell_setting 'orthorhombic'
loop_
_space_group_symop_operation_xyz
x,y,z
1/2-x,-y,z
1/2+x,-y,-z
-x,y,-z
-x,-y,-z
1/2+x,y,-z
1/2-x,y,z
x,-y,z
loop_
_atom_site_type_symbol
_atom_site_label
_atom_site_fract_x
_atom_site_fract_y
_atom_site_fract_z
Si Si1 0.927819 0.117841 0.906609
Si Si2 0.087659 0.649909 0.419510
Si Si3 0.422852 0.569004 0.912267
Si Si4 0.426788 0.649837 0.228014
Si Si5 0.070691 0.000000 0.905083
Si Si6 0.413392 0.790840 0.418373
Si Si7 0.425525 0.783241 0.230234
O O1 0.750000 0.109908 0.915075
O O2 0.973653 0.172402 0.845507
O O3 0.003777 0.059716 0.861909
O O4 0.000000 0.130435 0.000000
O O5 0.250000 0.621748 0.425183
O O6 0.019783 0.633975 0.325620
O O7 0.096090 0.720431 0.428966
O O8 0.000000 0.621411 0.500000
O O9 0.250000 0.582533 0.920495
O O10 0.455991 0.500000 0.895699
O O11 0.490260 0.604633 0.833210
O O12 0.500000 0.591090 0.000000
O O13 0.250000 0.643376 0.218270
O O14 0.479281 0.717023 0.205266
O O15 0.250000 0.000000 0.905656
O O16 0.000000 0.000000 0.000000
O O17 0.500000 0.819118 0.500000
O O18 0.250000 0.819309 0.421868
O O19 0.489684 0.804321 0.324352
O O20 0.250000 0.781216 0.242583
#
# Coordination Sequence:
#
# PCOD8206758 Si02
#       7
#     8   8   8   8   4   8   8
#     4  10  18  30  46  64  88 120 152 182 217 260
#     4   8  14  24  41  64  91 120 148 178 215 261
#     4  10  21  36  52  69  88 114 151 192 229 268
#     4   9  17  31  49  70  95 122 150 184 227 270
#     4  10  18  30  46  64  85 112 149 190 223 256
#     4   8  13  24  40  60  86 117 148 178 213 255
#     4   8  16  29  45  66  95 124 148 177 220 271
#
# _framework density 16.606020999999998
#
# number of rings (size 3 to 8) (size 9 to 14) (size 15 to 20)
#    0.000    3.077    0.000    4.385    0.000    2.154 
#    0.000    6.923    0.000    0.462    0.000    0.538 
#    0.000    0.000    0.000    0.000    0.000    0.000 
#
# Total GULP energy -644280.489866 kJ/mol
# GULP energy per Si atom -12390.009421 kJ/mol
# Density = 1.656823 g / cm^3
# Si number density = 16.606021 Si / 1000 Ang^3
#
#
#
# Elastic Constant Matrix: (Units=GPa)
#
#
# Indices 1 2 3 4 5 6 
#
# 1 77.1552 37.8155 55.9480 0.0000 0.0000 0.0000
# 2 37.8155 64.6686 62.5557 0.0000 0.0000 0.0000
# 3 55.9480 62.5557 139.0890 0.0000 0.0000 0.0000
# 4 0.0000 0.0000 0.0000 -0.6934 0.0000 0.0000
# 5 0.0000 0.0000 0.0000 0.0000 28.7601 0.0000
# 6 0.0000 0.0000 0.0000 0.0000 0.0000 18.2527
#
#
#
# Elastic Compliance Matrix: (Units=1/GPa)
#
#
# Indices 1 2 3 4 5 6 
#
# 1 0.019893 -0.006890 -0.004903 0.000000 0.000000 0.000000
# 2 -0.006890 0.029758 -0.010612 0.000000 0.000000 0.000000
# 3 -0.004903 -0.010612 0.013935 0.000000 0.000000 0.000000
# 4 0.000000 0.000000 0.000000 -1.442238 0.000000 0.000000
# 5 0.000000 0.000000 0.000000 0.000000 0.034770 0.000000
# 6 0.000000 0.000000 0.000000 0.000000 0.000000 0.054786
#
#
# Mechanical properties :
#
#
# Convention : Reuss Voigt Hill
#
# Bulk Modulus (GPa) = 53.26126 65.95015 59.60571
# Shear Modulus (GPa) = -4.03869 17.57013 6.76572
#
# Velocity S-wave (km/s) = -1.56120 3.25631 2.02067
# Velocity P-wave (km/s) = 5.37525 7.34431 6.43553
#
# Compressibility (1/GPa) = 0.01877537
#
# Stress axis : x y z
#
# Youngs Moduli (GPa) = 50.26841 33.60462 71.76205
#
# Poissons Ratio (x) = 0.23152 0.35187
# Poissons Ratio (y) = 0.34633 0.76157
# Poissons Ratio (z) = 0.24648 0.35662
#
# Static dielectric constant tensor:
#      x y z
#    x 2.986160 0.000000 0.000000 
#    y 0.000000 3.115150 0.000000 
#    z 0.000000 0.000000 3.322090 
# 
# 
# High freq. dielectric constant tensor:
#      x y z
#    x 1.630580 0.000000 0.000000 
#    y 0.000000 1.603760 0.000000 
#    z 0.000000 0.000000 1.643110 
# 
# From -- ./inp_files/22049.got.cif
#   From: 2010.03.12/outbox.cif.g09.slc.cpg/sg51_12_cif.got.tgz:22049.got - 2010.04.16 13:43:02.
