data_PCOD8206810
_publ_section_title
;
Structure prediction by ZEFSAII (Michael W. Deem and Ramdas Pophale) SiO2 
 PCOD8206810
Probable space group: P M M A
;
_chemical_formula_sum "Si O2"
_cell_formula_units_Z 64
_cell_length_a 8.999292
_cell_length_b 18.811755
_cell_length_c 23.493500
_cell_angle_alpha 90.000000
_cell_angle_beta 90.000000
_cell_angle_gamma 90.000000
_cell_volume 3977.272791
_symmetry_space_group_name_H-M "P M M A"
_symmetry_group_IT_number 51
_symmetry_cell_setting 'orthorhombic'
loop_
_space_group_symop_operation_xyz
x,y,z
1/2-x,-y,z
1/2+x,-y,-z
-x,y,-z
-x,-y,-z
1/2+x,y,-z
1/2-x,y,z
x,-y,z
loop_
_atom_site_type_symbol
_atom_site_label
_atom_site_fract_x
_atom_site_fract_y
_atom_site_fract_z
Si Si1 0.078964 0.080753 0.111282
Si Si2 0.425818 0.338426 0.338177
Si Si3 0.924848 0.579949 0.775225
Si Si4 0.422858 0.298478 0.834096
Si Si5 0.075853 0.418148 0.559357
Si Si6 0.422562 0.919684 0.242493
Si Si7 0.074473 0.209703 0.942052
Si Si8 0.923670 0.214512 0.279242
O O1 0.250000 0.103460 0.103702
O O2 0.030392 0.088348 0.176807
O O3 0.976995 0.129979 0.072169
O O4 0.054947 0.000000 0.090911
O O5 0.250000 0.335310 0.347004
O O6 0.472002 0.389335 0.286005
O O7 0.502589 0.368199 0.394018
O O8 0.488433 0.259565 0.326635
O O9 0.750000 0.581966 0.782637
O O10 0.986821 0.500000 0.780013
O O11 0.994446 0.626701 0.825716
O O12 0.250000 0.315158 0.836156
O O13 0.478620 0.262999 0.892409
O O14 0.462121 0.245091 0.782984
O O15 0.250000 0.402269 0.555036
O O16 0.044726 0.500000 0.575515
O O17 0.000000 0.398670 0.500000
O O18 0.250000 0.900836 0.249951
O O19 0.519739 0.866640 0.281046
O O20 0.454645 0.000000 0.263216
O O21 0.250000 0.209626 0.948999
O O22 0.000000 0.236799 0.000000
O O23 0.750000 0.217408 0.293154
#
# Coordination Sequence:
#
# PCOD8206810 Si02
#       8
#     8   8   8   8   8   8   8   8
#     4   9  18  32  49  68  90 118 152 188 227 274
#     4  10  19  31  48  71 100 132 165 201 238 279
#     4   9  18  31  49  73  96 119 149 186 230 279
#     4   9  19  33  47  66  91 116 146 184 230 282
#     4  10  20  33  49  70  99 137 176 210 243 280
#     4   9  17  29  46  68  94 124 157 191 232 284
#     4  11  22  35  49  67  88 115 151 190 231 279
#     4  10  18  30  47  69  96 124 157 197 240 285
#
# _framework density 16.091428000000001
#
# number of rings (size 3 to 8) (size 9 to 14) (size 15 to 20)
#    0.000    2.375    1.250    2.625    0.000    4.250 
#    0.000    1.250    0.000    0.375    0.000    0.000 
#    0.000    0.500    0.000    1.875    0.000    2.875 
#
# Total GULP energy -793729.922392 kJ/mol
# GULP energy per Si atom -12402.030037 kJ/mol
# Density = 1.605480 g / cm^3
# Si number density = 16.091428 Si / 1000 Ang^3
#
#
#
# Elastic Constant Matrix: (Units=GPa)
#
#
# Indices 1 2 3 4 5 6 
#
# 1 68.6164 43.3969 46.1390 0.0000 0.0000 0.0000
# 2 43.3969 103.8982 52.4663 0.0000 0.0000 0.0000
# 3 46.1390 52.4663 93.6154 0.0000 0.0000 0.0000
# 4 0.0000 0.0000 0.0000 25.0368 0.0000 0.0000
# 5 0.0000 0.0000 0.0000 0.0000 26.8804 0.0000
# 6 0.0000 0.0000 0.0000 0.0000 0.0000 30.5508
#
#
#
# Elastic Compliance Matrix: (Units=1/GPa)
#
#
# Indices 1 2 3 4 5 6 
#
# 1 0.023954 -0.005640 -0.008645 0.000000 0.000000 0.000000
# 2 -0.005640 0.014752 -0.005488 0.000000 0.000000 0.000000
# 3 -0.008645 -0.005488 0.018019 0.000000 0.000000 0.000000
# 4 0.000000 0.000000 0.000000 0.039941 0.000000 0.000000
# 5 0.000000 0.000000 0.000000 0.000000 0.037202 0.000000
# 6 0.000000 0.000000 0.000000 0.000000 0.000000 0.032732
#
#
# Mechanical properties :
#
#
# Convention : Reuss Voigt Hill
#
# Bulk Modulus (GPa) = 58.21202 61.12606 59.66904
# Shear Modulus (GPa) = 23.59929 24.76877 24.18403
#
# Velocity S-wave (km/s) = 3.83374 3.92759 3.88095
# Velocity P-wave (km/s) = 7.47336 7.65749 7.56598
#
# Compressibility (1/GPa) = 0.01717858
#
# Stress axis : x y z
#
# Youngs Moduli (GPa) = 41.74732 67.78875 55.49848
#
# Poissons Ratio (x) = 0.38230 0.47979
# Poissons Ratio (y) = 0.23544 0.30458
# Poissons Ratio (z) = 0.36091 0.37203
#
# Static dielectric constant tensor:
#      x y z
#    x 3.037090 0.000000 0.000000 
#    y 0.000000 3.086220 0.000000 
#    z 0.000000 0.000000 2.863570 
# 
# 
# High freq. dielectric constant tensor:
#      x y z
#    x 1.626640 0.000000 0.000000 
#    y 0.000000 1.613980 0.000000 
#    z 0.000000 0.000000 1.588200 
# 
# From -- ./inp_files/32407.got.cif
#   From: 2010.03.12/outbox.cif.g09.slc.cpg/sg51_17_cif.got.tgz:32407.got - 2010.04.16 13:43:02.
