data_PCOD8206437
_publ_section_title
;
Structure prediction by ZEFSAII (Michael W. Deem and Ramdas Pophale) SiO2 
 PCOD8206437
Probable space group: P M M A
;
_chemical_formula_sum "Si O2"
_cell_formula_units_Z 64
_cell_length_a 18.760265
_cell_length_b 14.354617
_cell_length_c 15.233240
_cell_angle_alpha 90.000000
_cell_angle_beta 90.000000
_cell_angle_gamma 90.000000
_cell_volume 4102.256980
_symmetry_space_group_name_H-M "P M M A"
_symmetry_group_IT_number 51
_symmetry_cell_setting 'orthorhombic'
loop_
_space_group_symop_operation_xyz
x,y,z
1/2-x,-y,z
1/2+x,-y,-z
-x,y,-z
-x,-y,-z
1/2+x,y,-z
1/2-x,y,z
x,-y,z
loop_
_atom_site_type_symbol
_atom_site_label
_atom_site_fract_x
_atom_site_fract_y
_atom_site_fract_z
Si Si1 0.834595 0.101569 0.820199
Si Si2 0.439471 0.389496 0.767246
Si Si3 0.902288 0.389373 0.728114
Si Si4 0.168059 0.609011 0.619135
Si Si5 0.334481 0.100972 0.377034
Si Si6 0.334067 0.292776 0.107671
Si Si7 0.834159 0.296432 0.561043
Si Si8 0.421184 0.606929 0.962958
O O1 0.750000 0.104447 0.816827
O O2 0.863990 0.116577 0.721485
O O3 0.862061 0.186207 0.880611
O O4 0.860262 0.000000 0.856184
O O5 0.441335 0.500000 0.770039
O O6 0.517006 0.352182 0.739313
O O7 0.380078 0.353731 0.699002
O O8 0.419323 0.353039 0.864071
O O9 0.899052 0.500000 0.729905
O O10 0.854485 0.352917 0.807687
O O11 0.873293 0.354536 0.635657
O O12 0.250000 0.630577 0.642591
O O13 0.156072 0.500000 0.601787
O O14 0.143052 0.663337 0.532638
O O15 0.250000 0.098532 0.373942
O O16 0.359193 0.188010 0.436623
O O17 0.362175 0.000000 0.413320
O O18 0.250000 0.296940 0.096431
O O19 0.367871 0.331472 0.019298
O O20 0.750000 0.306986 0.576803
O O21 0.395492 0.500000 0.967138
O O22 0.500000 0.616269 0.000000
#
# Coordination Sequence:
#
# PCOD8206437 Si02
#       8
#     8   8   8   8   8   8   8   8
#     4   8  14  26  43  65  95 123 147 183 229 277
#     4   9  19  34  49  63  85 125 167 193 221 266
#     4  11  20  29  43  66  98 128 151 181 228 283
#     4   9  18  32  48  66  90 120 156 195 226 260
#     4   8  13  23  40  62  89 120 153 187 223 271
#     4  11  20  29  46  74  97 119 153 190 234 283
#     4  10  18  28  43  68  98 124 150 187 235 273
#     4  10  19  33  48  64  92 128 159 190 232 276
#
# _framework density 15.601167999999999
#
# number of rings (size 3 to 8) (size 9 to 14) (size 15 to 20)
#    0.000    2.500    2.500    1.875    0.000    3.250 
#    0.000    3.125    0.000    0.375    0.000    3.500 
#    0.000    4.000    0.000    0.000    0.000    0.000 
#
# Total GULP energy -793288.651367 kJ/mol
# GULP energy per Si atom -12395.135178 kJ/mol
# Density = 1.556566 g / cm^3
# Si number density = 15.601168 Si / 1000 Ang^3
#
#
#
# Elastic Constant Matrix: (Units=GPa)
#
#
# Indices 1 2 3 4 5 6 
#
# 1 50.9505 33.8882 46.7646 0.0000 0.0000 0.0000
# 2 33.8882 99.7069 57.2626 0.0000 0.0000 0.0000
# 3 46.7646 57.2626 129.8000 0.0000 0.0000 0.0000
# 4 0.0000 0.0000 0.0000 14.0923 0.0000 0.0000
# 5 0.0000 0.0000 0.0000 0.0000 26.3277 0.0000
# 6 0.0000 0.0000 0.0000 0.0000 0.0000 7.6366
#
#
#
# Elastic Compliance Matrix: (Units=1/GPa)
#
#
# Indices 1 2 3 4 5 6 
#
# 1 0.031505 -0.005611 -0.008875 0.000000 0.000000 0.000000
# 2 -0.005611 0.014432 -0.004345 0.000000 0.000000 0.000000
# 3 -0.008875 -0.004345 0.012819 0.000000 0.000000 0.000000
# 4 0.000000 0.000000 0.000000 0.070961 0.000000 0.000000
# 5 0.000000 0.000000 0.000000 0.000000 0.037983 0.000000
# 6 0.000000 0.000000 0.000000 0.000000 0.000000 0.130949
#
#
# Mechanical properties :
#
#
# Convention : Reuss Voigt Hill
#
# Bulk Modulus (GPa) = 47.40959 61.80979 54.60969
# Shear Modulus (GPa) = 14.56275 19.11410 16.83842
#
# Velocity S-wave (km/s) = 3.05854 3.50404 3.28884
# Velocity P-wave (km/s) = 6.55190 7.48838 7.03573
#
# Compressibility (1/GPa) = 0.02109278
#
# Stress axis : x y z
#
# Youngs Moduli (GPa) = 31.74106 69.29092 78.01007
#
# Poissons Ratio (x) = 0.38876 0.69238
# Poissons Ratio (y) = 0.17809 0.33898
# Poissons Ratio (z) = 0.28172 0.30110
#
# Static dielectric constant tensor:
#      x y z
#    x 2.836220 0.000000 0.000000 
#    y 0.000000 3.256720 0.000000 
#    z 0.000000 0.000000 3.027810 
# 
# 
# High freq. dielectric constant tensor:
#      x y z
#    x 1.574220 0.000000 0.000000 
#    y 0.000000 1.589660 0.000000 
#    z 0.000000 0.000000 1.590910 
# 
# From -- ./inp_files/25328.got.cif
#   From: 2010.03.12/outbox.cif.g09.slc.cpg/sg51_13_cif.got.tgz:25328.got - 2010.04.16 13:43:02.
