data_PCOD8206485
_publ_section_title
;
Structure prediction by ZEFSAII (Michael W. Deem and Ramdas Pophale) SiO2 
 PCOD8206485
Probable space group: P M M A
;
_chemical_formula_sum "Si O2"
_cell_formula_units_Z 64
_cell_length_a 29.371169
_cell_length_b 9.213551
_cell_length_c 15.018852
_cell_angle_alpha 90.000000
_cell_angle_beta 90.000000
_cell_angle_gamma 90.000000
_cell_volume 4064.293044
_symmetry_space_group_name_H-M "P M M A"
_symmetry_group_IT_number 51
_symmetry_cell_setting 'orthorhombic'
loop_
_space_group_symop_operation_xyz
x,y,z
1/2-x,-y,z
1/2+x,-y,-z
-x,y,-z
-x,-y,-z
1/2+x,y,-z
1/2-x,y,z
x,-y,z
loop_
_atom_site_type_symbol
_atom_site_label
_atom_site_fract_x
_atom_site_fract_y
_atom_site_fract_z
Si Si1 0.441345 0.672063 0.142665
Si Si2 0.300622 0.667771 0.031884
Si Si3 0.122122 0.671703 0.304067
Si Si4 0.604586 0.329457 0.036108
Si Si5 0.065660 0.167763 0.439059
Si Si6 0.541583 0.672394 0.191913
Si Si7 0.697972 0.165117 0.786145
Si Si8 0.033157 0.832814 0.630447
O O1 0.440442 0.500000 0.138794
O O2 0.411771 0.725735 0.226251
O O3 0.492975 0.727639 0.154359
O O4 0.419552 0.737074 0.052068
O O5 0.250000 0.696582 0.990539
O O6 0.305258 0.500000 0.061632
O O7 0.341068 0.706588 0.962286
O O8 0.308741 0.765228 0.117421
O O9 0.127153 0.500000 0.307933
O O10 0.104358 0.729867 0.398463
O O11 0.170931 0.743316 0.287065
O O12 0.596241 0.500000 0.034322
O O13 0.580568 0.267984 0.124836
O O14 0.065009 0.195081 0.544895
O O15 0.017906 0.213174 0.394876
O O16 0.076301 0.000000 0.418584
O O17 0.542262 0.500000 0.200921
O O18 0.551778 0.737210 0.288671
O O19 0.750000 0.171539 0.755890
O O20 0.680262 0.000000 0.790241
O O21 0.034755 0.000000 0.658976
#
# Coordination Sequence:
#
# PCOD8206485 Si02
#       8
#     8   8   8   8   8   8   8   8
#     4   9  16  26  40  63  91 120 152 184 220 264
#     4   9  16  28  46  66  88 116 154 196 231 266
#     4  11  19  29  48  71  93 120 155 191 229 271
#     4   9  16  27  43  64  90 122 155 188 230 276
#     4   9  18  32  48  65  89 122 152 184 232 282
#     4  10  18  28  45  65  89 122 159 195 227 267
#     4  10  20  32  46  66  93 124 155 187 227 275
#     4   9  18  32  47  64  90 121 152 188 232 277
#
# _framework density 15.746896
#
# number of rings (size 3 to 8) (size 9 to 14) (size 15 to 20)
#    0.000    2.500    2.500    1.875    0.000    2.750 
#    0.000    1.875    0.000    0.750    0.000    0.875 
#    0.000    3.000    0.000    0.000    0.000    0.000 
#
# Total GULP energy -793415.251848 kJ/mol
# GULP energy per Si atom -12397.113310 kJ/mol
# Density = 1.571106 g / cm^3
# Si number density = 15.746896 Si / 1000 Ang^3
#
#
#
# Elastic Constant Matrix: (Units=GPa)
#
#
# Indices 1 2 3 4 5 6 
#
# 1 100.3952 38.0901 51.3593 0.0000 0.0000 0.0000
# 2 38.0901 55.2081 33.9813 0.0000 0.0000 0.0000
# 3 51.3593 33.9813 95.5198 0.0000 0.0000 0.0000
# 4 0.0000 0.0000 0.0000 19.2768 0.0000 0.0000
# 5 0.0000 0.0000 0.0000 0.0000 24.3219 0.0000
# 6 0.0000 0.0000 0.0000 0.0000 0.0000 18.5466
#
#
#
# Elastic Compliance Matrix: (Units=1/GPa)
#
#
# Indices 1 2 3 4 5 6 
#
# 1 0.015706 -0.007219 -0.005877 0.000000 0.000000 0.000000
# 2 -0.007219 0.026510 -0.005549 0.000000 0.000000 0.000000
# 3 -0.005877 -0.005549 0.015603 0.000000 0.000000 0.000000
# 4 0.000000 0.000000 0.000000 0.051876 0.000000 0.000000
# 5 0.000000 0.000000 0.000000 0.000000 0.041115 0.000000
# 6 0.000000 0.000000 0.000000 0.000000 0.000000 0.053918
#
#
# Mechanical properties :
#
#
# Convention : Reuss Voigt Hill
#
# Bulk Modulus (GPa) = 48.71242 55.33164 52.02203
# Shear Modulus (GPa) = 20.09160 20.94188 20.51674
#
# Velocity S-wave (km/s) = 3.57586 3.65074 3.61350
# Velocity P-wave (km/s) = 6.93187 7.27908 7.10759
#
# Compressibility (1/GPa) = 0.02052864
#
# Stress axis : x y z
#
# Youngs Moduli (GPa) = 63.67080 37.72223 64.09040
#
# Poissons Ratio (x) = 0.27231 0.37663
# Poissons Ratio (y) = 0.45963 0.35566
# Poissons Ratio (z) = 0.37417 0.20933
#
# Static dielectric constant tensor:
#      x y z
#    x 3.107040 0.000000 0.000000 
#    y 0.000000 2.814080 0.000000 
#    z 0.000000 0.000000 2.917900 
# 
# 
# High freq. dielectric constant tensor:
#      x y z
#    x 1.596030 0.000000 0.000000 
#    y 0.000000 1.587370 0.000000 
#    z 0.000000 0.000000 1.584570 
# 
# From -- ./inp_files/26608.got.cif
#   From: 2010.03.12/outbox.cif.g09.slc.cpg/sg51_14_cif.got.tgz:26608.got - 2010.04.16 13:43:02.
