data_PCOD8206054
_publ_section_title
;
Structure prediction by ZEFSAII (Michael W. Deem and Ramdas Pophale) SiO2 
 PCOD8206054
Probable space group: P M M A
;
_chemical_formula_sum "Si O2"
_cell_formula_units_Z 40
_cell_length_a 8.709066
_cell_length_b 20.543457
_cell_length_c 15.159146
_cell_angle_alpha 90.000000
_cell_angle_beta 90.000000
_cell_angle_gamma 90.000000
_cell_volume 2712.188342
_symmetry_space_group_name_H-M "P M M A"
_symmetry_group_IT_number 51
_symmetry_cell_setting 'orthorhombic'
loop_
_space_group_symop_operation_xyz
x,y,z
1/2-x,-y,z
1/2+x,-y,-z
-x,y,-z
-x,-y,-z
1/2+x,y,-z
1/2-x,y,z
x,-y,z
loop_
_atom_site_type_symbol
_atom_site_label
_atom_site_fract_x
_atom_site_fract_y
_atom_site_fract_z
Si Si1 0.930765 0.171169 0.403738
Si Si2 0.429070 0.429421 0.596332
Si Si3 0.568238 0.302276 0.597938
Si Si4 0.573184 0.076565 0.731320
Si Si5 0.577434 0.077403 0.088368
O O1 0.750000 0.179069 0.412874
O O2 0.000000 0.158548 0.500000
O O3 0.001336 0.236508 0.358327
O O4 0.970695 0.110151 0.342935
O O5 0.500000 0.434486 0.500000
O O6 0.250000 0.413864 0.588122
O O7 0.455931 0.500000 0.643965
O O8 0.510741 0.368708 0.647280
O O9 0.500000 0.304422 0.500000
O O10 0.750000 0.299261 0.597624
O O11 0.750000 0.095719 0.718424
O O12 0.519667 0.100936 0.827473
O O13 0.546409 0.000000 0.721279
O O14 0.750000 0.104792 0.096063
O O15 0.579218 0.000000 0.083391
O O16 0.500000 0.106158 0.000000
#
# Coordination Sequence:
#
# PCOD8206054 Si02
#       5
#     8   8   8   8   8
#     4  11  21  33  46  58  76 103 137 173 208 245
#     4   9  15  22  33  50  71  93 119 153 192 231
#     4  10  17  26  39  53  71  95 126 161 197 236
#     4  10  20  33  47  63  82 103 131 168 207 246
#     4   9  16  27  44  65  86 106 127 154 193 240
#
# _framework density 14.748238000000001
#
# number of rings (size 3 to 8) (size 9 to 14) (size 15 to 20)
#    0.000    2.200    0.000    7.800    0.000    5.200 
#    0.000    0.000    0.000    0.000    0.000    0.000 
#    0.000    0.000    0.000    0.000    0.000    1.000 
#
# Total GULP energy -495723.143616 kJ/mol
# GULP energy per Si atom -12393.078590 kJ/mol
# Density = 1.471467 g / cm^3
# Si number density = 14.748238 Si / 1000 Ang^3
#
#
#
# Elastic Constant Matrix: (Units=GPa)
#
#
# Indices 1 2 3 4 5 6 
#
# 1 131.1132 42.7857 28.4740 0.0000 0.0000 0.0000
# 2 42.7857 67.6325 32.6209 0.0000 0.0000 0.0000
# 3 28.4740 32.6209 55.3649 0.0000 0.0000 0.0000
# 4 0.0000 0.0000 0.0000 0.3494 0.0000 0.0000
# 5 0.0000 0.0000 0.0000 0.0000 19.9801 0.0000
# 6 0.0000 0.0000 0.0000 0.0000 0.0000 23.2669
#
#
#
# Elastic Compliance Matrix: (Units=1/GPa)
#
#
# Indices 1 2 3 4 5 6 
#
# 1 0.009756 -0.005242 -0.001929 0.000000 0.000000 0.000000
# 2 -0.005242 0.023472 -0.011134 0.000000 0.000000 0.000000
# 3 -0.001929 -0.011134 0.025614 0.000000 0.000000 0.000000
# 4 0.000000 0.000000 0.000000 2.862232 0.000000 0.000000
# 5 0.000000 0.000000 0.000000 0.000000 0.050050 0.000000
# 6 0.000000 0.000000 0.000000 0.000000 0.000000 0.042979
#
#
# Mechanical properties :
#
#
# Convention : Reuss Voigt Hill
#
# Bulk Modulus (GPa) = 44.97818 51.31909 48.14864
# Shear Modulus (GPa) = 1.63499 18.73461 10.18480
#
# Velocity S-wave (km/s) = 1.05404 3.56799 2.63074
# Velocity P-wave (km/s) = 5.66082 7.20044 6.47654
#
# Compressibility (1/GPa) = 0.02223300
#
# Stress axis : x y z
#
# Youngs Moduli (GPa) = 102.49630 42.60427 39.04060
#
# Poissons Ratio (x) = 0.22331 0.07533
# Poissons Ratio (y) = 0.53724 0.43467
# Poissons Ratio (z) = 0.19776 0.47435
#
# Static dielectric constant tensor:
#      x y z
#    x 2.983600 0.000000 0.000000 
#    y 0.000000 3.587690 0.000000 
#    z 0.000000 0.000000 2.431810 
# 
# 
# High freq. dielectric constant tensor:
#      x y z
#    x 1.590810 0.000000 0.000000 
#    y 0.000000 1.557640 0.000000 
#    z 0.000000 0.000000 1.500950 
# 
# From -- ./inp_files/21305.got.cif
#   From: 2010.03.12/outbox.cif.g09.slc.cpg/sg51_11_cif.got.tgz:21305.got - 2010.04.16 13:43:02.
