data_PCOD8206342
_publ_section_title
;
Structure prediction by ZEFSAII (Michael W. Deem and Ramdas Pophale) SiO2 
 PCOD8206342
Probable space group: P M M A
;
_chemical_formula_sum "Si O2"
_cell_formula_units_Z 48
_cell_length_a 8.887269
_cell_length_b 24.183219
_cell_length_c 13.516260
_cell_angle_alpha 90.000000
_cell_angle_beta 90.000000
_cell_angle_gamma 90.000000
_cell_volume 2904.952074
_symmetry_space_group_name_H-M "P M M A"
_symmetry_group_IT_number 51
_symmetry_cell_setting 'orthorhombic'
loop_
_space_group_symop_operation_xyz
x,y,z
1/2-x,-y,z
1/2+x,-y,-z
-x,y,-z
-x,-y,-z
1/2+x,y,-z
1/2-x,y,z
x,-y,z
loop_
_atom_site_type_symbol
_atom_site_label
_atom_site_fract_x
_atom_site_fract_y
_atom_site_fract_z
Si Si1 0.072098 0.165340 0.602288
Si Si2 0.072366 0.332429 0.107479
Si Si3 0.423666 0.114727 0.101200
Si Si4 0.425868 0.221675 0.216607
Si Si5 0.426223 0.559966 0.893083
Si Si6 0.573583 0.062773 0.696913
O O1 0.250000 0.165964 0.593602
O O2 0.000000 0.185433 0.500000
O O3 0.020326 0.208627 0.685579
O O4 0.017994 0.103002 0.625168
O O5 0.250000 0.337190 0.094844
O O6 0.027298 0.281772 0.177775
O O7 0.006861 0.388129 0.160832
O O8 0.000000 0.323593 0.000000
O O9 0.250000 0.108744 0.080156
O O10 0.466396 0.177425 0.131354
O O11 0.474050 0.073809 0.189446
O O12 0.500000 0.096589 0.000000
O O13 0.250000 0.217656 0.243399
O O14 0.250000 0.572293 0.903261
O O15 0.452767 0.500000 0.839774
O O16 0.500000 0.556859 0.000000
O O17 0.750000 0.075741 0.683602
O O18 0.533847 0.000000 0.668549
#
# Coordination Sequence:
#
# PCOD8206342 Si02
#       6
#     8   8   8   8   8   8
#     4  11  22  36  55  74  92 115 143 181 229 278
#     4  10  18  27  43  66  94 127 160 196 232 268
#     4   9  17  29  45  65  91 122 152 183 220 261
#     4   9  19  34  48  66  93 121 152 189 228 271
#     4   9  16  25  37  55  84 123 164 201 232 265
#     4   9  19  36  53  69  93 122 151 185 223 265
#
# _framework density 16.523510000000002
#
# number of rings (size 3 to 8) (size 9 to 14) (size 15 to 20)
#    0.000    2.500    0.000    5.000    0.000    6.000 
#    0.000    0.000    0.000    0.000    0.000    0.000 
#    0.000    0.667    0.000    2.167    0.000    3.500 
#
# Total GULP energy -594984.966634 kJ/mol
# GULP energy per Si atom -12395.520138 kJ/mol
# Density = 1.648590 g / cm^3
# Si number density = 16.523510 Si / 1000 Ang^3
#
#
#
# Elastic Constant Matrix: (Units=GPa)
#
#
# Indices 1 2 3 4 5 6 
#
# 1 86.8000 44.0433 35.0518 0.0000 0.0000 0.0000
# 2 44.0433 122.3798 24.2337 0.0000 0.0000 0.0000
# 3 35.0518 24.2337 66.0677 0.0000 0.0000 0.0000
# 4 0.0000 0.0000 0.0000 54.2031 0.0000 0.0000
# 5 0.0000 0.0000 0.0000 0.0000 26.2517 0.0000
# 6 0.0000 0.0000 0.0000 0.0000 0.0000 25.7255
#
#
#
# Elastic Compliance Matrix: (Units=1/GPa)
#
#
# Indices 1 2 3 4 5 6 
#
# 1 0.016769 -0.004608 -0.007206 0.000000 0.000000 0.000000
# 2 -0.004608 0.010078 -0.001252 0.000000 0.000000 0.000000
# 3 -0.007206 -0.001252 0.019418 0.000000 0.000000 0.000000
# 4 0.000000 0.000000 0.000000 0.018449 0.000000 0.000000
# 5 0.000000 0.000000 0.000000 0.000000 0.038093 0.000000
# 6 0.000000 0.000000 0.000000 0.000000 0.000000 0.038872
#
#
# Mechanical properties :
#
#
# Convention : Reuss Voigt Hill
#
# Bulk Modulus (GPa) = 49.67051 53.54499 51.60775
# Shear Modulus (GPa) = 28.64967 32.69730 30.67348
#
# Velocity S-wave (km/s) = 4.16850 4.45324 4.31322
# Velocity P-wave (km/s) = 7.30029 7.67577 7.49038
#
# Compressibility (1/GPa) = 0.02013267
#
# Stress axis : x y z
#
# Youngs Moduli (GPa) = 59.63379 99.23078 51.49738
#
# Poissons Ratio (x) = 0.45725 0.37111
# Poissons Ratio (y) = 0.27479 0.06446
# Poissons Ratio (z) = 0.42975 0.12421
#
# Static dielectric constant tensor:
#      x y z
#    x 3.105650 0.000000 0.000000 
#    y 0.000000 3.646850 0.000000 
#    z 0.000000 0.000000 2.862490 
# 
# 
# High freq. dielectric constant tensor:
#      x y z
#    x 1.643240 0.000000 0.000000 
#    y 0.000000 1.640720 0.000000 
#    z 0.000000 0.000000 1.597340 
# 
# From -- ./inp_files/14545.got.cif
#   From: 2010.03.12/outbox.cif.g09.slc.cpg/sg51_8_cif.got.tgz:14545.got - 2010.04.16 13:43:02.
