data_PCOD8206737
_publ_section_title
;
Structure prediction by ZEFSAII (Michael W. Deem and Ramdas Pophale) SiO2 
 PCOD8206737
Probable space group: P M M A
;
_chemical_formula_sum "Si O2"
_cell_formula_units_Z 48
_cell_length_a 16.166020
_cell_length_b 11.883546
_cell_length_c 12.756202
_cell_angle_alpha 90.000000
_cell_angle_beta 90.000000
_cell_angle_gamma 90.000000
_cell_volume 2450.589403
_symmetry_space_group_name_H-M "P M M A"
_symmetry_group_IT_number 51
_symmetry_cell_setting 'orthorhombic'
loop_
_space_group_symop_operation_xyz
x,y,z
1/2-x,-y,z
1/2+x,-y,-z
-x,y,-z
-x,-y,-z
1/2+x,y,-z
1/2-x,y,z
x,-y,z
loop_
_atom_site_type_symbol
_atom_site_label
_atom_site_fract_x
_atom_site_fract_y
_atom_site_fract_z
Si Si1 0.342119 0.726801 0.124814
Si Si2 0.651412 0.127939 0.063521
Si Si3 0.112028 0.128633 0.312528
Si Si4 0.901780 0.740241 0.485285
Si Si5 0.581960 0.871202 0.284788
Si Si6 0.593867 0.500000 0.537839
Si Si7 0.650067 0.500000 0.774184
O O1 0.250000 0.697263 0.088456
O O2 0.336955 0.812269 0.221431
O O3 0.382859 0.608827 0.161129
O O4 0.385995 0.789250 0.026276
O O5 0.750000 0.131629 0.065728
O O6 0.615912 0.171462 0.173694
O O7 0.621188 0.000000 0.040981
O O8 0.136932 0.184989 0.422386
O O9 0.015920 0.142595 0.286154
O O10 0.139390 0.000000 0.318534
O O11 0.876637 0.794516 0.374526
O O12 0.864376 0.613666 0.492142
O O13 0.000000 0.738372 0.500000
O O14 0.608172 0.000000 0.305625
O O15 0.500000 0.500000 0.500000
O O16 0.602580 0.500000 0.663611
O O17 0.750000 0.500000 0.756791
#
# Coordination Sequence:
#
# PCOD8206737 Si02
#       7
#     8   8   8   8   8   4   4
#     4  10  20  34  52  73  99 131 168 209 257 307
#     4   9  18  34  54  74 100 136 174 210 252 304
#     4  10  18  29  50  76 103 131 166 212 256 304
#     4   9  17  30  49  75 101 133 167 206 252 303
#     4   9  18  32  50  74 105 137 169 206 253 307
#     4  10  18  32  55  76 100 137 174 208 252 307
#     4  10  20  36  55  77 104 134 168 213 264 309
#
# _framework density 19.587125
#
# number of rings (size 3 to 8) (size 9 to 14) (size 15 to 20)
#    0.000    2.500    1.667    1.000    0.000    3.667 
#    0.000    5.000    0.000    3.000    0.000    0.000 
#    0.000    0.000    0.000    0.000    0.000    0.000 
#
# Total GULP energy -594995.995754 kJ/mol
# GULP energy per Si atom -12395.749912 kJ/mol
# Density = 1.954254 g / cm^3
# Si number density = 19.587125 Si / 1000 Ang^3
#
#
#
# Elastic Constant Matrix: (Units=GPa)
#
#
# Indices 1 2 3 4 5 6 
#
# 1 13.7745 11.4688 17.2628 0.0000 0.0000 0.0000
# 2 11.4688 169.4421 96.1694 0.0000 0.0000 0.0000
# 3 17.2628 96.1694 181.4601 0.0000 0.0000 0.0000
# 4 0.0000 0.0000 0.0000 35.1775 0.0000 0.0000
# 5 0.0000 0.0000 0.0000 0.0000 13.7476 0.0000
# 6 0.0000 0.0000 0.0000 0.0000 0.0000 10.9788
#
#
#
# Elastic Compliance Matrix: (Units=1/GPa)
#
#
# Indices 1 2 3 4 5 6 
#
# 1 0.082735 -0.001620 -0.007012 0.000000 0.000000 0.000000
# 2 -0.001620 0.008472 -0.004336 0.000000 0.000000 0.000000
# 3 -0.007012 -0.004336 0.008476 0.000000 0.000000 0.000000
# 4 0.000000 0.000000 0.000000 0.028427 0.000000 0.000000
# 5 0.000000 0.000000 0.000000 0.000000 0.072740 0.000000
# 6 0.000000 0.000000 0.000000 0.000000 0.000000 0.091084
#
#
# Mechanical properties :
#
#
# Convention : Reuss Voigt Hill
#
# Bulk Modulus (GPa) = 13.55995 68.27538 40.91766
# Shear Modulus (GPa) = 14.60051 27.96582 21.28316
#
# Velocity S-wave (km/s) = 2.73319 3.78268 3.29992
# Velocity P-wave (km/s) = 4.11076 7.34923 5.95439
#
# Compressibility (1/GPa) = 0.07374660
#
# Stress axis : x y z
#
# Youngs Moduli (GPa) = 12.08680 118.03101 117.98125
#
# Poissons Ratio (x) = 0.19122 0.82731
# Poissons Ratio (y) = 0.01958 0.51157
# Poissons Ratio (z) = 0.08475 0.51178
#
# Static dielectric constant tensor:
#      x y z
#    x 3.123780 0.000000 0.000000 
#    y 0.000000 3.973190 0.000000 
#    z 0.000000 0.000000 3.690360 
# 
# 
# High freq. dielectric constant tensor:
#      x y z
#    x 1.721110 0.000000 0.000000 
#    y 0.000000 1.770790 0.000000 
#    z 0.000000 0.000000 1.766820 
# 
# From -- ./inp_files/18170.got.cif
#   From: 2010.03.12/outbox.cif.g09.slc.cpg/sg51_10_cif.got.tgz:18170.got - 2010.04.16 13:43:02.
