data_PCOD8206587
_publ_section_title
;
Structure prediction by ZEFSAII (Michael W. Deem and Ramdas Pophale) SiO2 
 PCOD8206587
Probable space group: P M M A
;
_chemical_formula_sum "Si O2"
_cell_formula_units_Z 64
_cell_length_a 9.299795
_cell_length_b 21.681719
_cell_length_c 18.444808
_cell_angle_alpha 90.000000
_cell_angle_beta 90.000000
_cell_angle_gamma 90.000000
_cell_volume 3719.128857
_symmetry_space_group_name_H-M "P M M A"
_symmetry_group_IT_number 51
_symmetry_cell_setting 'orthorhombic'
loop_
_space_group_symop_operation_xyz
x,y,z
1/2-x,-y,z
1/2+x,-y,-z
-x,y,-z
-x,-y,-z
1/2+x,y,-z
1/2-x,y,z
x,-y,z
loop_
_atom_site_type_symbol
_atom_site_label
_atom_site_fract_x
_atom_site_fract_y
_atom_site_fract_z
Si Si1 0.413544 0.431376 0.843708
Si Si2 0.582355 0.069563 0.572130
Si Si3 0.412169 0.741606 0.200883
Si Si4 0.913900 0.179624 0.672223
Si Si5 0.906588 0.755514 0.436528
Si Si6 0.411105 0.388222 0.567384
Si Si7 0.418064 0.689614 0.926724
Si Si8 0.583058 0.381921 0.714119
O O1 0.250000 0.419700 0.816737
O O2 0.430235 0.500000 0.877237
O O3 0.452222 0.381197 0.905170
O O4 0.520942 0.426049 0.776430
O O5 0.500000 0.092035 0.500000
O O6 0.750000 0.073249 0.554423
O O7 0.542418 0.111886 0.642331
O O8 0.535825 0.000000 0.592800
O O9 0.250000 0.735430 0.169875
O O10 0.432264 0.808484 0.241030
O O11 0.524410 0.735756 0.135490
O O12 0.439389 0.688639 0.261065
O O13 0.750000 0.194190 0.649815
O O14 0.015916 0.231267 0.638527
O O15 0.750000 0.786835 0.437535
O O16 0.892367 0.683443 0.448896
O O17 0.000000 0.786916 0.500000
O O18 0.500000 0.418050 0.500000
O O19 0.250000 0.417566 0.572732
O O20 0.497589 0.398373 0.641336
O O21 0.250000 0.701841 0.937549
O O22 0.500000 0.705593 0.000000
O O23 0.750000 0.397139 0.701196
#
# Coordination Sequence:
#
# PCOD8206587 Si02
#       8
#     8   8   8   8   8   8   8   8
#     4   9  19  35  53  73  97 126 159 191 224 267
#     4   9  18  31  45  62  89 129 174 214 250 286
#     4   9  18  31  47  68  94 123 154 190 234 283
#     4  10  18  29  45  64  90 122 159 203 244 283
#     4  10  19  27  38  58  86 117 151 190 234 281
#     4  10  19  29  42  61  87 118 151 189 234 284
#     4  10  20  34  53  75 101 130 156 184 223 273
#     4  10  18  30  48  68  93 121 152 194 239 284
#
# _framework density 17.208331000000001
#
# number of rings (size 3 to 8) (size 9 to 14) (size 15 to 20)
#    0.000    2.375    1.250    1.875    0.000    4.500 
#    0.000    0.000    0.000    0.375    0.000    0.000 
#    0.000    0.500    0.000    0.875    0.000    1.250 
#
# Total GULP energy -793217.061639 kJ/mol
# GULP energy per Si atom -12394.016588 kJ/mol
# Density = 1.716916 g / cm^3
# Si number density = 17.208331 Si / 1000 Ang^3
#
#
#
# Elastic Constant Matrix: (Units=GPa)
#
#
# Indices 1 2 3 4 5 6 
#
# 1 106.9673 20.1679 57.3974 0.0000 0.0000 0.0000
# 2 20.1679 58.2946 28.7742 0.0000 0.0000 0.0000
# 3 57.3974 28.7742 100.6385 0.0000 0.0000 0.0000
# 4 0.0000 0.0000 0.0000 17.1507 0.0000 0.0000
# 5 0.0000 0.0000 0.0000 0.0000 31.1988 0.0000
# 6 0.0000 0.0000 0.0000 0.0000 0.0000 13.5103
#
#
#
# Elastic Compliance Matrix: (Units=1/GPa)
#
#
# Indices 1 2 3 4 5 6 
#
# 1 0.013523 -0.001015 -0.007422 0.000000 0.000000 0.000000
# 2 -0.001015 0.020049 -0.005154 0.000000 0.000000 0.000000
# 3 -0.007422 -0.005154 0.015643 0.000000 0.000000 0.000000
# 4 0.000000 0.000000 0.000000 0.058307 0.000000 0.000000
# 5 0.000000 0.000000 0.000000 0.000000 0.032053 0.000000
# 6 0.000000 0.000000 0.000000 0.000000 0.000000 0.074018
#
#
# Mechanical properties :
#
#
# Convention : Reuss Voigt Hill
#
# Bulk Modulus (GPa) = 45.38496 53.17547 49.28021
# Shear Modulus (GPa) = 20.15172 23.00936 21.58054
#
# Velocity S-wave (km/s) = 3.42577 3.66061 3.54513
# Velocity P-wave (km/s) = 6.48683 6.98819 6.74217
#
# Compressibility (1/GPa) = 0.02203373
#
# Stress axis : x y z
#
# Youngs Moduli (GPa) = 73.94978 49.87746 63.92536
#
# Poissons Ratio (x) = 0.05061 0.47447
# Poissons Ratio (y) = 0.07504 0.32945
# Poissons Ratio (z) = 0.54888 0.25705
#
# Static dielectric constant tensor:
#      x y z
#    x 3.439920 0.000000 0.000000 
#    y 0.000000 3.042720 0.000000 
#    z 0.000000 0.000000 3.025530 
# 
# 
# High freq. dielectric constant tensor:
#      x y z
#    x 1.679140 0.000000 0.000000 
#    y 0.000000 1.626780 0.000000 
#    z 0.000000 0.000000 1.642250 
# 
# From -- ./inp_files/28633.got.cif
#   From: 2010.03.12/outbox.cif.g09.slc.cpg/sg51_15_cif.got.tgz:28633.got - 2010.04.16 13:43:02.
