data_PCOD8206154
_publ_section_title
;
Structure prediction by ZEFSAII (Michael W. Deem and Ramdas Pophale) SiO2 
 PCOD8206154
Probable space group: P M M A
;
_chemical_formula_sum "Si O2"
_cell_formula_units_Z 48
_cell_length_a 23.923459
_cell_length_b 11.800873
_cell_length_c 10.211364
_cell_angle_alpha 90.000000
_cell_angle_beta 90.000000
_cell_angle_gamma 90.000000
_cell_volume 2882.848812
_symmetry_space_group_name_H-M "P M M A"
_symmetry_group_IT_number 51
_symmetry_cell_setting 'orthorhombic'
loop_
_space_group_symop_operation_xyz
x,y,z
1/2-x,-y,z
1/2+x,-y,-z
-x,y,-z
-x,-y,-z
1/2+x,y,-z
1/2-x,y,z
x,-y,z
loop_
_atom_site_type_symbol
_atom_site_label
_atom_site_fract_x
_atom_site_fract_y
_atom_site_fract_z
Si Si1 0.040696 0.627960 0.878512
Si Si2 0.357577 0.238829 0.979573
Si Si3 0.358833 0.240140 0.290213
Si Si4 0.466854 0.631225 0.367732
Si Si5 0.250000 0.374146 0.981136
Si Si6 0.186956 0.000000 0.291228
Si Si7 0.812585 0.000000 0.018008
Si Si8 0.750000 0.626180 0.708125
O O1 0.064511 0.500000 0.865598
O O2 0.007779 0.665032 0.749616
O O3 0.090361 0.716185 0.897849
O O4 0.000000 0.635954 0.000000
O O5 0.367803 0.252755 0.134549
O O6 0.304400 0.309479 0.931151
O O7 0.347644 0.109175 0.937692
O O8 0.412587 0.289029 0.364508
O O9 0.305188 0.309674 0.340204
O O10 0.348482 0.110223 0.333523
O O11 0.500000 0.654803 0.500000
O O12 0.447950 0.500000 0.355246
O O13 0.250000 0.500000 0.921693
O O14 0.250000 0.376998 0.136526
O O15 0.194754 0.000000 0.136697
O O16 0.250000 0.000000 0.352363
O O17 0.750000 0.000000 0.079657
O O18 0.750000 0.500000 0.648738
#
# Coordination Sequence:
#
# PCOD8206154 Si02
#       8
#     8   8   8   8   4   4   4   4
#     4  10  19  32  51  74 102 133 166 207 250 295
#     4  10  17  28  47  73 102 134 170 205 255 302
#     4  10  17  29  48  73 103 132 169 208 251 303
#     4  10  21  36  53  73 102 140 173 206 255 306
#     4   9  16  23  39  70 102 126 158 208 259 304
#     4   9  16  28  46  73 105 136 163 204 263 301
#     4   9  16  28  44  70 107 141 161 202 259 309
#     4   9  16  23  41  72 100 124 158 212 259 294
#
# _framework density 16.650196999999999
#
# number of rings (size 3 to 8) (size 9 to 14) (size 15 to 20)
#    0.000    2.333    3.333    1.000    0.000    1.333 
#    0.000    1.667    0.000    1.000    0.000    5.833 
#    0.000    0.000    0.000    0.000    0.000    0.000 
#
# Total GULP energy -595141.303254 kJ/mol
# GULP energy per Si atom -12398.777151 kJ/mol
# Density = 1.661230 g / cm^3
# Si number density = 16.650197 Si / 1000 Ang^3
#
#
#
# Elastic Constant Matrix: (Units=GPa)
#
#
# Indices 1 2 3 4 5 6 
#
# 1 135.6929 85.1778 35.2447 0.0000 0.0000 0.0000
# 2 85.1778 151.5207 24.0044 0.0000 0.0000 0.0000
# 3 35.2447 24.0044 53.4807 0.0000 0.0000 0.0000
# 4 0.0000 0.0000 0.0000 13.6014 0.0000 0.0000
# 5 0.0000 0.0000 0.0000 0.0000 14.1051 0.0000
# 6 0.0000 0.0000 0.0000 0.0000 0.0000 5.7417
#
#
#
# Elastic Compliance Matrix: (Units=1/GPa)
#
#
# Indices 1 2 3 4 5 6 
#
# 1 0.012774 -0.006295 -0.005593 0.000000 0.000000 0.000000
# 2 -0.006295 0.010207 -0.000433 0.000000 0.000000 0.000000
# 3 -0.005593 -0.000433 0.022578 0.000000 0.000000 0.000000
# 4 0.000000 0.000000 0.000000 0.073522 0.000000 0.000000
# 5 0.000000 0.000000 0.000000 0.000000 0.070897 0.000000
# 6 0.000000 0.000000 0.000000 0.000000 0.000000 0.174164
#
#
# Mechanical properties :
#
#
# Convention : Reuss Voigt Hill
#
# Bulk Modulus (GPa) = 47.80543 69.94980 58.87761
# Shear Modulus (GPa) = 12.63409 19.77413 16.20411
#
# Velocity S-wave (km/s) = 2.75761 3.44993 3.12301
# Velocity P-wave (km/s) = 6.23804 7.61393 6.96007
#
# Compressibility (1/GPa) = 0.02091813
#
# Stress axis : x y z
#
# Youngs Moduli (GPa) = 78.28684 97.97267 44.29021
#
# Poissons Ratio (x) = 0.61671 0.24770
# Poissons Ratio (y) = 0.49279 0.01918
# Poissons Ratio (z) = 0.43783 0.04242
#
# Static dielectric constant tensor:
#      x y z
#    x 3.108420 0.000000 0.000000 
#    y 0.000000 3.395040 0.000000 
#    z 0.000000 0.000000 2.607970 
# 
# 
# High freq. dielectric constant tensor:
#      x y z
#    x 1.648730 0.000000 0.000000 
#    y 0.000000 1.649650 0.000000 
#    z 0.000000 0.000000 1.582180 
# 
# From -- ./inp_files/18196.got.cif
#   From: 2010.03.12/outbox.cif.g09.slc.cpg/sg51_10_cif.got.tgz:18196.got - 2010.04.16 13:43:02.
