data_PCOD8206335
_publ_section_title
;
Structure prediction by ZEFSAII (Michael W. Deem and Ramdas Pophale) SiO2 
 PCOD8206335
Probable space group: P M M A
;
_chemical_formula_sum "Si O2"
_cell_formula_units_Z 64
_cell_length_a 25.934805
_cell_length_b 8.883794
_cell_length_c 16.968816
_cell_angle_alpha 90.000000
_cell_angle_beta 90.000000
_cell_angle_gamma 90.000000
_cell_volume 3909.606129
_symmetry_space_group_name_H-M "P M M A"
_symmetry_group_IT_number 51
_symmetry_cell_setting 'orthorhombic'
loop_
_space_group_symop_operation_xyz
x,y,z
1/2-x,-y,z
1/2+x,-y,-z
-x,y,-z
-x,-y,-z
1/2+x,y,-z
1/2-x,y,z
x,-y,z
loop_
_atom_site_type_symbol
_atom_site_label
_atom_site_fract_x
_atom_site_fract_y
_atom_site_fract_z
Si Si1 0.451255 0.172033 0.658668
Si Si2 0.403357 0.821135 0.181744
Si Si3 0.002125 0.323967 0.091770
Si Si4 0.307007 0.821317 0.084162
Si Si5 0.193574 0.821360 0.907619
Si Si6 0.439979 0.321920 0.334337
Si Si7 0.407633 0.174186 0.824293
Si Si8 0.438757 0.666575 0.506910
O O1 0.501315 0.270113 0.677726
O O2 0.411487 0.193077 0.730221
O O3 0.422516 0.223853 0.578239
O O4 0.468856 0.000000 0.649115
O O5 0.451628 0.766458 0.131285
O O6 0.350850 0.758430 0.142394
O O7 0.403951 0.756852 0.270139
O O8 0.405184 0.000000 0.185454
O O9 0.011129 0.500000 0.106190
O O10 0.948897 0.275132 0.130993
O O11 0.000000 0.283228 0.000000
O O12 0.250000 0.767122 0.111963
O O13 0.309210 0.000000 0.084089
O O14 0.318093 0.761374 0.995855
O O15 0.250000 0.761420 0.879675
O O16 0.148899 0.765245 0.848888
O O17 0.194845 0.000000 0.909093
O O18 0.438933 0.500000 0.322797
O O19 0.418414 0.277032 0.421421
O O20 0.415914 0.000000 0.848905
O O21 0.500000 0.661251 0.500000
O O22 0.417253 0.500000 0.525607
#
# Coordination Sequence:
#
# PCOD8206335 Si02
#       8
#     8   8   8   8   8   8   8   8
#     4  10  18  27  42  67  95 121 152 191 230 270
#     4  11  20  30  48  71  93 120 153 192 235 275
#     4  11  23  34  44  62  92 129 160 185 223 276
#     4   8  15  28  46  68  91 116 151 194 236 275
#     4   8  14  27  47  68  90 118 153 193 233 271
#     4  10  19  31  45  63  92 125 156 187 224 277
#     4  10  19  30  46  70  95 120 153 191 230 273
#     4   8  16  29  44  61  85 122 157 184 223 272
#
# _framework density 16.369935999999999
#
# number of rings (size 3 to 8) (size 9 to 14) (size 15 to 20)
#    0.000    2.500    1.250    3.750    0.000    5.250 
#    0.000    0.000    0.000    1.875    0.000    6.125 
#    0.000    5.000    0.000    0.000    0.000    0.000 
#
# Total GULP energy -793307.026520 kJ/mol
# GULP energy per Si atom -12395.422289 kJ/mol
# Density = 1.633268 g / cm^3
# Si number density = 16.369936 Si / 1000 Ang^3
#
#
#
# Elastic Constant Matrix: (Units=GPa)
#
#
# Indices 1 2 3 4 5 6 
#
# 1 103.0314 24.7606 62.7257 0.0000 0.0000 0.0000
# 2 24.7606 53.6962 41.4745 0.0000 0.0000 0.0000
# 3 62.7257 41.4745 133.3675 0.0000 0.0000 0.0000
# 4 0.0000 0.0000 0.0000 26.2243 0.0000 0.0000
# 5 0.0000 0.0000 0.0000 0.0000 17.6405 0.0000
# 6 0.0000 0.0000 0.0000 0.0000 0.0000 0.6593
#
#
#
# Elastic Compliance Matrix: (Units=1/GPa)
#
#
# Indices 1 2 3 4 5 6 
#
# 1 0.013726 -0.001768 -0.005906 0.000000 0.000000 0.000000
# 2 -0.001768 0.024738 -0.006862 0.000000 0.000000 0.000000
# 3 -0.005906 -0.006862 0.012410 0.000000 0.000000 0.000000
# 4 0.000000 0.000000 0.000000 0.038133 0.000000 0.000000
# 5 0.000000 0.000000 0.000000 0.000000 0.056688 0.000000
# 6 0.000000 0.000000 0.000000 0.000000 0.000000 1.516858
#
#
# Mechanical properties :
#
#
# Convention : Reuss Voigt Hill
#
# Bulk Modulus (GPa) = 45.86458 60.89075 53.37766
# Shear Modulus (GPa) = 2.94310 19.64709 11.29510
#
# Velocity S-wave (km/s) = 1.34230 3.46814 2.62962
# Velocity P-wave (km/s) = 5.52094 7.30170 6.47285
#
# Compressibility (1/GPa) = 0.02180332
#
# Stress axis : x y z
#
# Youngs Moduli (GPa) = 72.85336 40.42305 80.58237
#
# Poissons Ratio (x) = 0.07146 0.47592
# Poissons Ratio (y) = 0.12878 0.55293
# Poissons Ratio (z) = 0.43027 0.27737
#
# Static dielectric constant tensor:
#      x y z
#    x 3.103490 0.000000 0.000000 
#    y 0.000000 2.967650 0.000000 
#    z 0.000000 0.000000 3.492840 
# 
# 
# High freq. dielectric constant tensor:
#      x y z
#    x 1.594750 0.000000 0.000000 
#    y 0.000000 1.617100 0.000000 
#    z 0.000000 0.000000 1.638580 
# 
# From -- ./inp_files/30913.got.cif
#   From: 2010.03.12/outbox.cif.g09.slc.cpg/sg51_16_cif.got.tgz:30913.got - 2010.04.16 13:43:02.
