data_PCOD8206820
_publ_section_title
;
Structure prediction by ZEFSAII (Michael W. Deem and Ramdas Pophale) SiO2 
 PCOD8206820
Probable space group: P M M A
;
_chemical_formula_sum "Si O2"
_cell_formula_units_Z 52
_cell_length_a 9.166226
_cell_length_b 15.671323
_cell_length_c 25.070608
_cell_angle_alpha 90.000000
_cell_angle_beta 90.000000
_cell_angle_gamma 90.000000
_cell_volume 3601.314828
_symmetry_space_group_name_H-M "P M M A"
_symmetry_group_IT_number 51
_symmetry_cell_setting 'orthorhombic'
loop_
_space_group_symop_operation_xyz
x,y,z
1/2-x,-y,z
1/2+x,-y,-z
-x,y,-z
-x,-y,-z
1/2+x,y,-z
1/2-x,y,z
x,-y,z
loop_
_atom_site_type_symbol
_atom_site_label
_atom_site_fract_x
_atom_site_fract_y
_atom_site_fract_z
Si Si1 0.593876 0.097110 0.545940
Si Si2 0.572775 0.500000 0.557911
Si Si3 0.914925 0.101767 0.051779
Si Si4 0.423620 0.667058 0.556965
Si Si5 0.081833 0.901754 0.741368
Si Si6 0.083826 0.171552 0.630333
Si Si7 0.085837 0.101458 0.154312
O O1 0.500000 0.144362 0.500000
O O2 0.750000 0.144381 0.548506
O O3 0.514838 0.100306 0.602485
O O4 0.618485 0.000000 0.529418
O O5 0.750000 0.500000 0.557832
O O6 0.500000 0.500000 0.500000
O O7 0.505563 0.585637 0.584080
O O8 0.750000 0.136870 0.050555
O O9 0.995070 0.137997 0.104326
O O10 0.914841 0.000000 0.052191
O O11 0.000000 0.136266 0.000000
O O12 0.500000 0.689540 0.500000
O O13 0.250000 0.651161 0.548093
O O14 0.451296 0.738538 0.602219
O O15 0.250000 0.896695 0.758533
O O16 0.047903 0.835731 0.693112
O O17 0.986903 0.868037 0.790695
O O18 0.042560 0.000000 0.725832
O O19 0.250000 0.145131 0.620575
O O20 0.250000 0.137403 0.151453
O O21 0.085469 0.000000 0.151862
#
# Coordination Sequence:
#
# PCOD8206820 Si02
#       7
#     8   4   8   8   8   8   8
#     4  10  20  31  42  55  72  95 122 153 189 226
#     4  10  18  30  48  66  82 100 118 138 173 222
#     4   9  15  22  33  49  68  89 114 148 191 234
#     4  10  19  31  46  64  83 100 119 146 183 227
#     4   9  17  29  42  54  71  98 130 161 192 225
#     4  10  20  31  44  60  77  98 124 155 189 225
#     4   9  16  25  36  50  68  91 121 156 192 228
#
# _framework density 14.439171999999999
#
# number of rings (size 3 to 8) (size 9 to 14) (size 15 to 20)
#    0.000    2.462    0.000    4.385    0.000    8.308 
#    0.000    1.538    0.000    0.000    0.000    0.000 
#    0.000    0.000    0.000    0.000    0.000    0.000 
#
# Total GULP energy -644328.289046 kJ/mol
# GULP energy per Si atom -12390.928636 kJ/mol
# Density = 1.440631 g / cm^3
# Si number density = 14.439172 Si / 1000 Ang^3
#
#
#
# Elastic Constant Matrix: (Units=GPa)
#
#
# Indices 1 2 3 4 5 6 
#
# 1 127.0789 25.8325 72.5612 0.0000 0.0000 0.0000
# 2 25.8325 38.2271 27.5416 0.0000 0.0000 0.0000
# 3 72.5612 27.5416 117.4011 0.0000 0.0000 0.0000
# 4 0.0000 0.0000 0.0000 7.7468 0.0000 0.0000
# 5 0.0000 0.0000 0.0000 0.0000 26.7008 0.0000
# 6 0.0000 0.0000 0.0000 0.0000 0.0000 11.5495
#
#
#
# Elastic Compliance Matrix: (Units=1/GPa)
#
#
# Indices 1 2 3 4 5 6 
#
# 1 0.012533 -0.003476 -0.006931 0.000000 0.000000 0.000000
# 2 -0.003476 0.032444 -0.005463 0.000000 0.000000 0.000000
# 3 -0.006931 -0.005463 0.014083 0.000000 0.000000 0.000000
# 4 0.000000 0.000000 0.000000 0.129086 0.000000 0.000000
# 5 0.000000 0.000000 0.000000 0.000000 0.037452 0.000000
# 6 0.000000 0.000000 0.000000 0.000000 0.000000 0.086584
#
#
# Mechanical properties :
#
#
# Convention : Reuss Voigt Hill
#
# Bulk Modulus (GPa) = 36.60176 59.39752 47.99964
# Shear Modulus (GPa) = 14.16315 19.65086 16.90701
#
# Velocity S-wave (km/s) = 3.13530 3.69310 3.42557
# Velocity P-wave (km/s) = 6.20571 7.70785 6.99721
#
# Compressibility (1/GPa) = 0.02732109
#
# Stress axis : x y z
#
# Youngs Moduli (GPa) = 79.78810 30.82216 71.00732
#
# Poissons Ratio (x) = 0.10714 0.49214
# Poissons Ratio (y) = 0.27734 0.38790
# Poissons Ratio (z) = 0.55300 0.16838
#
# Static dielectric constant tensor:
#      x y z
#    x 3.181110 0.000000 0.000000 
#    y 0.000000 2.675860 0.000000 
#    z 0.000000 0.000000 2.795240 
# 
# 
# High freq. dielectric constant tensor:
#      x y z
#    x 1.574630 0.000000 0.000000 
#    y 0.000000 1.491080 0.000000 
#    z 0.000000 0.000000 1.537340 
# 
# From -- ./inp_files/35069.got.cif
#   From: 2010.03.12/outbox.cif.g09.slc.cpg/sg51_18_cif.got.tgz:35069.got - 2010.04.16 13:43:02.
