data_PCOD8206062
_publ_section_title
;
Structure prediction by ZEFSAII (Michael W. Deem and Ramdas Pophale) SiO2 
 PCOD8206062
Probable space group: P M M A
;
_chemical_formula_sum "Si O2"
_cell_formula_units_Z 56
_cell_length_a 28.449649
_cell_length_b 9.388517
_cell_length_c 13.402467
_cell_angle_alpha 90.000000
_cell_angle_beta 90.000000
_cell_angle_gamma 90.000000
_cell_volume 3579.799114
_symmetry_space_group_name_H-M "P M M A"
_symmetry_group_IT_number 51
_symmetry_cell_setting 'orthorhombic'
loop_
_space_group_symop_operation_xyz
x,y,z
1/2-x,-y,z
1/2+x,-y,-z
-x,y,-z
-x,-y,-z
1/2+x,y,-z
1/2-x,y,z
x,-y,z
loop_
_atom_site_type_symbol
_atom_site_label
_atom_site_fract_x
_atom_site_fract_y
_atom_site_fract_z
Si Si1 0.103501 0.837811 0.191680
Si Si2 0.801608 0.830714 0.726199
Si Si3 0.031142 0.667053 0.698205
Si Si4 0.476984 0.666181 0.102313
Si Si5 0.951843 0.840396 0.606995
Si Si6 0.895268 0.834638 0.406833
Si Si7 0.698222 0.831202 0.502668
O O1 0.157253 0.778261 0.198414
O O2 0.072873 0.744182 0.116029
O O3 0.084508 0.824732 0.303417
O O4 0.101745 0.000000 0.153039
O O5 0.750000 0.784336 0.767036
O O6 0.808649 0.768269 0.614344
O O7 0.805128 0.000000 0.719256
O O8 0.036026 0.500000 0.680165
O O9 0.081720 0.742141 0.682170
O O10 0.013225 0.703351 0.809277
O O11 0.994623 0.730662 0.618033
O O12 0.465677 0.500000 0.098536
O O13 0.500000 0.720482 0.000000
O O14 0.924499 0.806271 0.506703
O O15 0.973319 0.000000 0.605017
O O16 0.842245 0.776936 0.427084
O O17 0.895489 0.000000 0.375603
O O18 0.750000 0.787419 0.461769
O O19 0.693506 0.000000 0.510321
#
# Coordination Sequence:
#
# PCOD8206062 Si02
#       7
#     8   8   8   8   8   8   8
#     4   9  15  25  43  67  89 110 139 173 206 242
#     4   8  12  20  37  62  90 116 141 168 197 235
#     4  10  20  30  41  59  80 105 138 173 209 250
#     4   9  19  35  49  59  77 107 141 177 220 266
#     4   9  16  26  39  58  86 116 141 164 194 233
#     4  10  17  26  41  61  86 115 142 168 198 232
#     4   8  13  22  38  60  85 115 149 174 192 227
#
# _framework density 15.643335
#
# number of rings (size 3 to 8) (size 9 to 14) (size 15 to 20)
#    0.000    3.000    1.429    1.714    0.000    3.143 
#    0.000    0.000    0.000    0.857    0.000    3.000 
#    0.000    8.000    0.000    0.000    0.000    0.000 
#
# Total GULP energy -694009.946589 kJ/mol
# GULP energy per Si atom -12393.034761 kJ/mol
# Density = 1.560773 g / cm^3
# Si number density = 15.643335 Si / 1000 Ang^3
#
#
#
# Elastic Constant Matrix: (Units=GPa)
#
#
# Indices 1 2 3 4 5 6 
#
# 1 151.1720 46.2500 51.7104 0.0000 0.0000 0.0000
# 2 46.2500 45.6031 25.6819 0.0000 0.0000 0.0000
# 3 51.7104 25.6819 47.8038 0.0000 0.0000 0.0000
# 4 0.0000 0.0000 0.0000 17.3839 0.0000 0.0000
# 5 0.0000 0.0000 0.0000 0.0000 20.2032 0.0000
# 6 0.0000 0.0000 0.0000 0.0000 0.0000 3.3455
#
#
#
# Elastic Compliance Matrix: (Units=1/GPa)
#
#
# Indices 1 2 3 4 5 6 
#
# 1 0.011833 -0.006871 -0.009108 0.000000 0.000000 0.000000
# 2 -0.006871 0.035431 -0.011602 0.000000 0.000000 0.000000
# 3 -0.009108 -0.011602 0.037005 0.000000 0.000000 0.000000
# 4 0.000000 0.000000 0.000000 0.057524 0.000000 0.000000
# 5 0.000000 0.000000 0.000000 0.000000 0.049497 0.000000
# 6 0.000000 0.000000 0.000000 0.000000 0.000000 0.298910
#
#
# Mechanical properties :
#
#
# Convention : Reuss Voigt Hill
#
# Bulk Modulus (GPa) = 34.35824 54.65149 44.50487
# Shear Modulus (GPa) = 9.00796 16.24895 12.62846
#
# Velocity S-wave (km/s) = 2.40226 3.22640 2.84434
# Velocity P-wave (km/s) = 5.45029 6.99224 6.26885
#
# Compressibility (1/GPa) = 0.02910510
#
# Stress axis : x y z
#
# Youngs Moduli (GPa) = 84.51083 28.22399 27.02372
#
# Poissons Ratio (x) = 0.19393 0.24614
# Poissons Ratio (y) = 0.58069 0.31353
# Poissons Ratio (z) = 0.76975 0.32746
#
# Static dielectric constant tensor:
#      x y z
#    x 3.383500 0.000000 0.000000 
#    y 0.000000 2.736180 0.000000 
#    z 0.000000 0.000000 2.737050 
# 
# 
# High freq. dielectric constant tensor:
#      x y z
#    x 1.609090 0.000000 0.000000 
#    y 0.000000 1.570020 0.000000 
#    z 0.000000 0.000000 1.558230 
# 
# From -- ./inp_files/26480.got.cif
#   From: 2010.03.12/outbox.cif.g09.slc.cpg/sg51_14_cif.got.tgz:26480.got - 2010.04.16 13:43:02.
