data_PCOD8206877
_publ_section_title
;
Structure prediction by ZEFSAII (Michael W. Deem and Ramdas Pophale) SiO2 
 PCOD8206877
Probable space group: P M M A
;
_chemical_formula_sum "Si O2"
_cell_formula_units_Z 64
_cell_length_a 8.948308
_cell_length_b 23.236439
_cell_length_c 18.889438
_cell_angle_alpha 90.000000
_cell_angle_beta 90.000000
_cell_angle_gamma 90.000000
_cell_volume 3927.620643
_symmetry_space_group_name_H-M "P M M A"
_symmetry_group_IT_number 51
_symmetry_cell_setting 'orthorhombic'
loop_
_space_group_symop_operation_xyz
x,y,z
1/2-x,-y,z
1/2+x,-y,-z
-x,y,-z
-x,-y,-z
1/2+x,y,-z
1/2-x,y,z
x,-y,z
loop_
_atom_site_type_symbol
_atom_site_label
_atom_site_fract_x
_atom_site_fract_y
_atom_site_fract_z
Si Si1 0.575290 0.778845 0.211958
Si Si2 0.077043 0.067140 0.573236
Si Si3 0.922709 0.332328 0.303164
Si Si4 0.921646 0.434791 0.206196
Si Si5 0.926235 0.840626 0.664194
Si Si6 0.924624 0.271047 0.575317
Si Si7 0.073845 0.745452 0.072531
Si Si8 0.424526 0.387599 0.071633
O O1 0.750000 0.791662 0.204284
O O2 0.543568 0.716456 0.245208
O O3 0.500515 0.827706 0.260300
O O4 0.497717 0.782171 0.135695
O O5 0.250000 0.084988 0.568787
O O6 0.000000 0.085022 0.500000
O O7 0.996053 0.100160 0.636627
O O8 0.056750 0.000000 0.588822
O O9 0.750000 0.332260 0.325348
O O10 0.973725 0.393041 0.269710
O O11 0.018524 0.321924 0.373629
O O12 0.750000 0.421008 0.186774
O O13 0.942773 0.500000 0.232808
O O14 0.019028 0.425440 0.136599
O O15 0.750000 0.847153 0.674034
O O16 0.967740 0.790363 0.608868
O O17 0.750000 0.278009 0.565325
O O18 0.000000 0.277116 0.500000
O O19 0.250000 0.755932 0.069694
O O20 0.032990 0.678754 0.084795
O O21 0.000000 0.767545 0.000000
O O22 0.250000 0.396544 0.063220
O O23 0.500000 0.410573 0.000000
#
# Coordination Sequence:
#
# PCOD8206877 Si02
#       8
#     8   8   8   8   8   8   8   8
#     4  10  18  30  49  70  95 126 158 196 241 288
#     4  10  20  33  49  70  99 137 177 211 243 281
#     4   9  18  32  49  68  91 118 148 184 232 286
#     4  10  20  34  51  69  90 117 151 191 234 284
#     4  10  20  32  48  72 101 131 164 202 240 282
#     4  10  20  32  49  72  96 121 150 189 234 280
#     4  10  19  30  46  68  94 125 159 195 236 286
#     4  10  20  32  48  67  91 121 155 193 231 277
#
# _framework density 16.294851999999999
#
# number of rings (size 3 to 8) (size 9 to 14) (size 15 to 20)
#    0.000    2.125    1.250    2.625    0.000    5.750 
#    0.000    0.000    0.000    0.375    0.000    0.000 
#    0.000    0.500    0.000    1.875    0.000    2.875 
#
# Total GULP energy -793875.755113 kJ/mol
# GULP energy per Si atom -12404.308674 kJ/mol
# Density = 1.625776 g / cm^3
# Si number density = 16.294852 Si / 1000 Ang^3
#
#
#
# Elastic Constant Matrix: (Units=GPa)
#
#
# Indices 1 2 3 4 5 6 
#
# 1 86.7864 35.5324 58.8815 0.0000 0.0000 0.0000
# 2 35.5324 62.2831 44.6718 0.0000 0.0000 0.0000
# 3 58.8815 44.6718 123.6183 0.0000 0.0000 0.0000
# 4 0.0000 0.0000 0.0000 26.0552 0.0000 0.0000
# 5 0.0000 0.0000 0.0000 0.0000 34.3634 0.0000
# 6 0.0000 0.0000 0.0000 0.0000 0.0000 21.1777
#
#
#
# Elastic Compliance Matrix: (Units=1/GPa)
#
#
# Indices 1 2 3 4 5 6 
#
# 1 0.018404 -0.005686 -0.006711 0.000000 0.000000 0.000000
# 2 -0.005686 0.023430 -0.005759 0.000000 0.000000 0.000000
# 3 -0.006711 -0.005759 0.013367 0.000000 0.000000 0.000000
# 4 0.000000 0.000000 0.000000 0.038380 0.000000 0.000000
# 5 0.000000 0.000000 0.000000 0.000000 0.029101 0.000000
# 6 0.000000 0.000000 0.000000 0.000000 0.000000 0.047219
#
#
# Mechanical properties :
#
#
# Convention : Reuss Voigt Hill
#
# Bulk Modulus (GPa) = 52.93999 61.20659 57.07329
# Shear Modulus (GPa) = 23.52844 25.22607 24.37725
#
# Velocity S-wave (km/s) = 3.80402 3.93886 3.87202
# Velocity P-wave (km/s) = 7.20093 7.63738 7.42236
#
# Compressibility (1/GPa) = 0.01888931
#
# Stress axis : x y z
#
# Youngs Moduli (GPa) = 54.33636 42.68092 74.81015
#
# Poissons Ratio (x) = 0.24267 0.50209
# Poissons Ratio (y) = 0.30894 0.43080
# Poissons Ratio (z) = 0.36468 0.24578
#
# Static dielectric constant tensor:
#      x y z
#    x 3.168880 0.000000 0.000000 
#    y 0.000000 2.879890 0.000000 
#    z 0.000000 0.000000 3.042390 
# 
# 
# High freq. dielectric constant tensor:
#      x y z
#    x 1.642390 0.000000 0.000000 
#    y 0.000000 1.593380 0.000000 
#    z 0.000000 0.000000 1.622880 
# 
# From -- ./inp_files/28342.got.cif
#   From: 2010.03.12/outbox.cif.g09.slc.cpg/sg51_15_cif.got.tgz:28342.got - 2010.04.16 13:43:02.
