data_PCOD8206886
_publ_section_title
;
Structure prediction by ZEFSAII (Michael W. Deem and Ramdas Pophale) SiO2 
 PCOD8206886
Probable space group: P M M A
;
_chemical_formula_sum "Si O2"
_cell_formula_units_Z 64
_cell_length_a 9.006627
_cell_length_b 14.166582
_cell_length_c 31.075652
_cell_angle_alpha 90.000000
_cell_angle_beta 90.000000
_cell_angle_gamma 90.000000
_cell_volume 3965.039393
_symmetry_space_group_name_H-M "P M M A"
_symmetry_group_IT_number 51
_symmetry_cell_setting 'orthorhombic'
loop_
_space_group_symop_operation_xyz
x,y,z
1/2-x,-y,z
1/2+x,-y,-z
-x,y,-z
-x,-y,-z
1/2+x,y,-z
1/2-x,y,z
x,-y,z
loop_
_atom_site_type_symbol
_atom_site_label
_atom_site_fract_x
_atom_site_fract_y
_atom_site_fract_z
Si Si1 0.924691 0.108172 0.043401
Si Si2 0.926493 0.894090 0.209467
Si Si3 0.075411 0.109571 0.371121
Si Si4 0.077555 0.392444 0.259109
Si Si5 0.582751 0.887891 0.458075
Si Si6 0.925892 0.782739 0.293532
Si Si7 0.577154 0.606528 0.839688
Si Si8 0.926114 0.782061 0.126890
O O1 0.750000 0.118438 0.037987
O O2 0.984184 0.170071 0.083146
O O3 0.970427 0.000000 0.052235
O O4 0.000000 0.146457 0.000000
O O5 0.750000 0.896623 0.208035
O O6 0.981898 0.839682 0.251717
O O7 0.988899 0.841754 0.167230
O O8 0.991317 0.000000 0.210486
O O9 0.250000 0.127638 0.372163
O O10 0.007610 0.144388 0.416171
O O11 0.001186 0.171424 0.334540
O O12 0.037813 0.000000 0.362619
O O13 0.250000 0.366638 0.264664
O O14 0.048209 0.500000 0.273556
O O15 0.028014 0.378783 0.209679
O O16 0.978494 0.325349 0.289127
O O17 0.500000 0.846208 0.500000
O O18 0.750000 0.847262 0.456044
O O19 0.587109 0.000000 0.460994
O O20 0.750000 0.786834 0.299004
O O21 0.750000 0.628079 0.844752
O O22 0.540695 0.500000 0.854263
O O23 0.486268 0.675750 0.870670
O O24 0.750000 0.779883 0.127858
#
# Coordination Sequence:
#
# PCOD8206886 Si02
#       8
#     8   8   8   8   8   8   8   8
#     4   9  18  32  50  71  96 124 153 186 227 274
#     4   9  17  28  42  63  92 123 153 185 223 268
#     4  10  20  32  45  63  92 131 169 202 238 283
#     4   9  18  33  50  66  89 122 157 194 237 283
#     4   9  16  27  44  65  89 119 159 205 248 288
#     4  11  20  30  46  68  94 125 159 196 236 281
#     4   9  18  32  49  69  94 122 150 186 234 281
#     4  10  18  30  49  72  93 118 154 193 229 270
#
# _framework density 16.141076000000002
#
# number of rings (size 3 to 8) (size 9 to 14) (size 15 to 20)
#    0.000    2.500    1.250    2.625    0.000    5.250 
#    0.000    1.250    0.000    2.250    0.000    0.000 
#    0.000    0.500    0.000    1.875    0.000    2.875 
#
# Total GULP energy -793645.390070 kJ/mol
# GULP energy per Si atom -12400.709220 kJ/mol
# Density = 1.610434 g / cm^3
# Si number density = 16.141076 Si / 1000 Ang^3
#
#
#
# Elastic Constant Matrix: (Units=GPa)
#
#
# Indices 1 2 3 4 5 6 
#
# 1 60.3686 36.6826 48.9771 0.0000 0.0000 0.0000
# 2 36.6826 91.7991 60.5866 0.0000 0.0000 0.0000
# 3 48.9771 60.5866 137.9562 0.0000 0.0000 0.0000
# 4 0.0000 0.0000 0.0000 12.2018 0.0000 0.0000
# 5 0.0000 0.0000 0.0000 0.0000 27.7268 0.0000
# 6 0.0000 0.0000 0.0000 0.0000 0.0000 24.4119
#
#
#
# Elastic Compliance Matrix: (Units=1/GPa)
#
#
# Indices 1 2 3 4 5 6 
#
# 1 0.025349 -0.005900 -0.006408 0.000000 0.000000 0.000000
# 2 -0.005900 0.016713 -0.005245 0.000000 0.000000 0.000000
# 3 -0.006408 -0.005245 0.011827 0.000000 0.000000 0.000000
# 4 0.000000 0.000000 0.000000 0.081955 0.000000 0.000000
# 5 0.000000 0.000000 0.000000 0.000000 0.036066 0.000000
# 6 0.000000 0.000000 0.000000 0.000000 0.000000 0.040964
#
#
# Mechanical properties :
#
#
# Convention : Reuss Voigt Hill
#
# Bulk Modulus (GPa) = 53.24198 64.73519 58.98859
# Shear Modulus (GPa) = 19.66632 22.45992 21.06312
#
# Velocity S-wave (km/s) = 3.49435 3.73430 3.61631
# Velocity P-wave (km/s) = 7.02408 7.66722 7.35268
#
# Compressibility (1/GPa) = 0.01878217
#
# Stress axis : x y z
#
# Youngs Moduli (GPa) = 39.44921 59.83462 84.55025
#
# Poissons Ratio (x) = 0.35302 0.54182
# Poissons Ratio (y) = 0.23275 0.44348
# Poissons Ratio (z) = 0.25280 0.31384
#
# Static dielectric constant tensor:
#      x y z
#    x 2.950840 0.000000 0.000000 
#    y 0.000000 2.940240 0.000000 
#    z 0.000000 0.000000 3.076750 
# 
# 
# High freq. dielectric constant tensor:
#      x y z
#    x 1.615750 0.000000 0.000000 
#    y 0.000000 1.599910 0.000000 
#    z 0.000000 0.000000 1.612350 
# 
# From -- ./inp_files/37656.got.cif
#   From: 2010.03.12/outbox.cif.g09.slc.cpg/sg51_19_cif.got.tgz:37656.got - 2010.04.16 13:43:02.
