data_PCOD8206859
_publ_section_title
;
Structure prediction by ZEFSAII (Michael W. Deem and Ramdas Pophale) SiO2 
 PCOD8206859
Probable space group: P M M A
;
_chemical_formula_sum "Si O2"
_cell_formula_units_Z 56
_cell_length_a 8.762507
_cell_length_b 18.748979
_cell_length_c 19.108885
_cell_angle_alpha 90.000000
_cell_angle_beta 90.000000
_cell_angle_gamma 90.000000
_cell_volume 3139.361640
_symmetry_space_group_name_H-M "P M M A"
_symmetry_group_IT_number 51
_symmetry_cell_setting 'orthorhombic'
loop_
_space_group_symop_operation_xyz
x,y,z
1/2-x,-y,z
1/2+x,-y,-z
-x,y,-z
-x,-y,-z
1/2+x,y,-z
1/2-x,y,z
x,-y,z
loop_
_atom_site_type_symbol
_atom_site_label
_atom_site_fract_x
_atom_site_fract_y
_atom_site_fract_z
Si Si1 0.931052 0.707020 0.074805
Si Si2 0.074356 0.206801 0.796769
Si Si3 0.071490 0.919289 0.705531
Si Si4 0.070473 0.299658 0.570645
Si Si5 0.424120 0.349558 0.717634
Si Si6 0.426761 0.581699 0.156845
Si Si7 0.569179 0.854585 0.572283
O O1 0.750000 0.708365 0.070308
O O2 0.996250 0.766836 0.129097
O O3 0.978333 0.629062 0.102353
O O4 0.000000 0.724496 0.000000
O O5 0.250000 0.192863 0.811478
O O6 0.004022 0.133387 0.766027
O O7 0.048290 0.267796 0.739292
O O8 0.250000 0.902989 0.692416
O O9 0.982072 0.907226 0.633715
O O10 0.044731 0.000000 0.731044
O O11 0.250000 0.286418 0.561333
O O12 0.038012 0.354011 0.634896
O O13 0.000000 0.333819 0.500000
O O14 0.991638 0.224605 0.586829
O O15 0.250000 0.371852 0.732935
O O16 0.530591 0.401875 0.762370
O O17 0.250000 0.598518 0.145861
O O18 0.465438 0.500000 0.140287
O O19 0.500000 0.884602 0.500000
O O20 0.750000 0.853063 0.566989
#
# Coordination Sequence:
#
# PCOD8206859 Si02
#       7
#     8   8   8   8   8   8   8
#     4  10  20  35  56  80 106 136 168 204 244 294
#     4   8  15  31  51  73  99 126 163 206 247 295
#     4  10  19  33  53  73  97 132 171 214 261 308
#     4  10  18  30  48  72 100 129 169 216 261 304
#     4   9  17  31  52  72  99 134 170 212 251 299
#     4  10  21  35  52  78 110 138 167 203 243 295
#     4  11  21  32  47  68  98 134 171 214 262 310
#
# _framework density 17.838021000000001
#
# number of rings (size 3 to 8) (size 9 to 14) (size 15 to 20)
#    0.000    2.286    1.429    4.286    0.000    3.143 
#    0.000    0.714    0.000    0.857    0.000    0.000 
#    0.000    0.000    0.000    0.000    0.000    0.571 
#
# Total GULP energy -694202.383829 kJ/mol
# GULP energy per Si atom -12396.471140 kJ/mol
# Density = 1.779742 g / cm^3
# Si number density = 17.838021 Si / 1000 Ang^3
#
#
#
# Elastic Constant Matrix: (Units=GPa)
#
#
# Indices 1 2 3 4 5 6 
#
# 1 80.8389 30.6464 40.2514 0.0000 0.0000 0.0000
# 2 30.6464 69.5968 50.1403 0.0000 0.0000 0.0000
# 3 40.2514 50.1403 139.4589 0.0000 0.0000 0.0000
# 4 0.0000 0.0000 0.0000 14.3602 0.0000 0.0000
# 5 0.0000 0.0000 0.0000 0.0000 29.9077 0.0000
# 6 0.0000 0.0000 0.0000 0.0000 0.0000 18.4830
#
#
#
# Elastic Compliance Matrix: (Units=1/GPa)
#
#
# Indices 1 2 3 4 5 6 
#
# 1 0.015589 -0.004889 -0.002741 0.000000 0.000000 0.000000
# 2 -0.004889 0.020925 -0.006112 0.000000 0.000000 0.000000
# 3 -0.002741 -0.006112 0.010159 0.000000 0.000000 0.000000
# 4 0.000000 0.000000 0.000000 0.069637 0.000000 0.000000
# 5 0.000000 0.000000 0.000000 0.000000 0.033436 0.000000
# 6 0.000000 0.000000 0.000000 0.000000 0.000000 0.054104
#
#
# Mechanical properties :
#
#
# Convention : Reuss Voigt Hill
#
# Bulk Modulus (GPa) = 52.11772 59.10787 55.61279
# Shear Modulus (GPa) = 21.03212 23.80726 22.41969
#
# Velocity S-wave (km/s) = 3.43747 3.65723 3.54905
# Velocity P-wave (km/s) = 6.71086 7.14434 6.93099
#
# Compressibility (1/GPa) = 0.01918733
#
# Stress axis : x y z
#
# Youngs Moduli (GPa) = 64.14811 47.79014 98.43208
#
# Poissons Ratio (x) = 0.23367 0.26985
# Poissons Ratio (y) = 0.31365 0.60161
# Poissons Ratio (z) = 0.17586 0.29209
#
# Static dielectric constant tensor:
#      x y z
#    x 3.228590 0.000000 0.000000 
#    y 0.000000 3.141100 0.000000 
#    z 0.000000 0.000000 4.091390 
# 
# 
# High freq. dielectric constant tensor:
#      x y z
#    x 1.683720 0.000000 0.000000 
#    y 0.000000 1.660870 0.000000 
#    z 0.000000 0.000000 1.692580 
# 
# From -- ./inp_files/32266.got.cif
#   From: 2010.03.12/outbox.cif.g09.slc.cpg/sg51_17_cif.got.tgz:32266.got - 2010.04.16 13:43:02.
