data_PCOD8206569
_publ_section_title
;
Structure prediction by ZEFSAII (Michael W. Deem and Ramdas Pophale) SiO2 
 PCOD8206569
Probable space group: P M M A
;
_chemical_formula_sum "Si O2"
_cell_formula_units_Z 64
_cell_length_a 8.972710
_cell_length_b 23.563188
_cell_length_c 18.984895
_cell_angle_alpha 90.000000
_cell_angle_beta 90.000000
_cell_angle_gamma 90.000000
_cell_volume 4013.893815
_symmetry_space_group_name_H-M "P M M A"
_symmetry_group_IT_number 51
_symmetry_cell_setting 'orthorhombic'
loop_
_space_group_symop_operation_xyz
x,y,z
1/2-x,-y,z
1/2+x,-y,-z
-x,y,-z
-x,-y,-z
1/2+x,y,-z
1/2-x,y,z
x,-y,z
loop_
_atom_site_type_symbol
_atom_site_label
_atom_site_fract_x
_atom_site_fract_y
_atom_site_fract_z
Si Si1 0.426491 0.221570 0.924466
Si Si2 0.574453 0.115356 0.430432
Si Si3 0.575236 0.668284 0.161779
Si Si4 0.578506 0.065293 0.282176
Si Si5 0.925731 0.763346 0.569088
Si Si6 0.574770 0.436305 0.073305
Si Si7 0.578296 0.272630 0.719638
Si Si8 0.924967 0.160932 0.802217
O O1 0.250000 0.215894 0.931210
O O2 0.475231 0.281945 0.891328
O O3 0.489042 0.171227 0.875441
O O4 0.500000 0.215704 0.000000
O O5 0.500000 0.087332 0.500000
O O6 0.750000 0.122576 0.442674
O O7 0.538033 0.075975 0.363816
O O8 0.501251 0.176328 0.417283
O O9 0.750000 0.668047 0.170807
O O10 0.517508 0.607975 0.132014
O O11 0.508509 0.677941 0.239360
O O12 0.750000 0.081919 0.268564
O O13 0.475658 0.101504 0.230426
O O14 0.547399 0.000000 0.264758
O O15 0.750000 0.772003 0.557961
O O16 0.958195 0.723601 0.636570
O O17 0.000000 0.734496 0.500000
O O18 0.750000 0.430300 0.061940
O O19 0.530620 0.500000 0.097305
O O20 0.500000 0.420121 0.000000
O O21 0.750000 0.283194 0.734979
O O22 0.530994 0.210541 0.747491
O O23 0.750000 0.158945 0.817377
#
# Coordination Sequence:
#
# PCOD8206569 Si02
#       8
#     8   8   8   8   8   8   8   8
#     4  10  19  31  48  71  95 119 148 183 225 269
#     4  10  19  30  46  65  88 118 150 184 221 262
#     4   9  18  29  44  67  94 124 158 191 224 264
#     4  10  21  35  49  66  89 117 149 185 224 268
#     4  10  18  29  44  65  90 118 150 183 223 271
#     4   9  17  29  44  64  93 129 165 197 225 258
#     4   9  18  30  45  65  91 118 148 188 229 268
#     4  10  19  33  50  68  90 115 146 183 225 272
#
# _framework density 15.944616999999999
#
# number of rings (size 3 to 8) (size 9 to 14) (size 15 to 20)
#    0.000    2.375    1.250    2.625    0.000    3.500 
#    0.000    0.000    0.000    0.375    0.000    0.000 
#    0.000    0.500    0.000    1.125    0.000    1.750 
#
# Total GULP energy -793561.690577 kJ/mol
# GULP energy per Si atom -12399.401415 kJ/mol
# Density = 1.590833 g / cm^3
# Si number density = 15.944617 Si / 1000 Ang^3
#
#
#
# Elastic Constant Matrix: (Units=GPa)
#
#
# Indices 1 2 3 4 5 6 
#
# 1 64.4622 31.6669 48.1362 0.0000 0.0000 0.0000
# 2 31.6669 78.3883 52.0818 0.0000 0.0000 0.0000
# 3 48.1362 52.0818 118.2247 0.0000 0.0000 0.0000
# 4 0.0000 0.0000 0.0000 26.6750 0.0000 0.0000
# 5 0.0000 0.0000 0.0000 0.0000 31.5999 0.0000
# 6 0.0000 0.0000 0.0000 0.0000 0.0000 18.0525
#
#
#
# Elastic Compliance Matrix: (Units=1/GPa)
#
#
# Indices 1 2 3 4 5 6 
#
# 1 0.023316 -0.004399 -0.007555 0.000000 0.000000 0.000000
# 2 -0.004399 0.018866 -0.006520 0.000000 0.000000 0.000000
# 3 -0.007555 -0.006520 0.014407 0.000000 0.000000 0.000000
# 4 0.000000 0.000000 0.000000 0.037488 0.000000 0.000000
# 5 0.000000 0.000000 0.000000 0.000000 0.031646 0.000000
# 6 0.000000 0.000000 0.000000 0.000000 0.000000 0.055394
#
#
# Mechanical properties :
#
#
# Convention : Reuss Voigt Hill
#
# Bulk Modulus (GPa) = 50.91652 58.31611 54.61632
# Shear Modulus (GPa) = 22.26057 23.87816 23.06936
#
# Velocity S-wave (km/s) = 3.74052 3.87404 3.80787
# Velocity P-wave (km/s) = 7.11744 7.52758 7.32538
#
# Compressibility (1/GPa) = 0.01963999
#
# Stress axis : x y z
#
# Youngs Moduli (GPa) = 42.88930 53.00511 69.41119
#
# Poissons Ratio (x) = 0.23318 0.52442
# Poissons Ratio (y) = 0.18868 0.45256
# Poissons Ratio (z) = 0.32404 0.34559
#
# Static dielectric constant tensor:
#      x y z
#    x 3.070590 0.000000 0.000000 
#    y 0.000000 2.869580 0.000000 
#    z 0.000000 0.000000 3.164100 
# 
# 
# High freq. dielectric constant tensor:
#      x y z
#    x 1.622290 0.000000 0.000000 
#    y 0.000000 1.576770 0.000000 
#    z 0.000000 0.000000 1.612030 
# 
# From -- ./inp_files/28624.got.cif
#   From: 2010.03.12/outbox.cif.g09.slc.cpg/sg51_15_cif.got.tgz:28624.got - 2010.04.16 13:43:02.
