data_PCOD8206541
_publ_section_title
;
Structure prediction by ZEFSAII (Michael W. Deem and Ramdas Pophale) SiO2 
 PCOD8206541
Probable space group: P M M A
;
_chemical_formula_sum "Si O2"
_cell_formula_units_Z 48
_cell_length_a 14.667509
_cell_length_b 8.692280
_cell_length_c 19.961702
_cell_angle_alpha 90.000000
_cell_angle_beta 90.000000
_cell_angle_gamma 90.000000
_cell_volume 2544.999134
_symmetry_space_group_name_H-M "P M M A"
_symmetry_group_IT_number 51
_symmetry_cell_setting 'orthorhombic'
loop_
_space_group_symop_operation_xyz
x,y,z
1/2-x,-y,z
1/2+x,-y,-z
-x,y,-z
-x,-y,-z
1/2+x,y,-z
1/2-x,y,z
x,-y,z
loop_
_atom_site_type_symbol
_atom_site_label
_atom_site_fract_x
_atom_site_fract_y
_atom_site_fract_z
Si Si1 0.750000 0.675702 0.070739
Si Si2 0.947765 0.181544 0.207837
Si Si3 0.438558 0.818456 0.561992
Si Si4 0.250000 0.682473 0.522585
Si Si5 0.750000 0.178173 0.210555
Si Si6 0.250000 0.318074 0.371112
Si Si7 0.944412 0.681251 0.678750
Si Si8 0.425431 0.178094 0.946205
O O1 0.750000 0.500000 0.095012
O O2 0.750000 0.795790 0.131560
O O3 0.840843 0.716295 0.029798
O O4 0.848030 0.241980 0.236634
O O5 0.957898 0.220071 0.129149
O O6 0.026787 0.274461 0.245911
O O7 0.958892 0.000000 0.220590
O O8 0.500000 0.759710 0.500000
O O9 0.339354 0.741947 0.560446
O O10 0.487650 0.769679 0.629779
O O11 0.425693 0.000000 0.560030
O O12 0.250000 0.500000 0.523787
O O13 0.250000 0.747687 0.446670
O O14 0.750000 0.000000 0.225698
O O15 0.250000 0.500000 0.374009
O O16 0.340758 0.260197 0.332968
O O17 0.952302 0.500000 0.666367
O O18 0.398361 0.000000 0.950543
O O19 0.500000 0.223116 0.000000
#
# Coordination Sequence:
#
# PCOD8206541 Si02
#       8
#     4   8   8   4   4   4   8   8
#     4  10  18  28  48  80 112 139 174 223 278 329
#     4   9  18  34  55  82 110 140 181 232 280 322
#     4  11  23  38  57  84 113 140 177 228 280 323
#     4  11  21  38  62  84 110 145 188 229 270 326
#     4   8  16  33  55  73 103 145 180 214 265 332
#     4   9  20  37  57  77 103 145 190 226 263 323
#     4  11  22  38  58  80 109 149 190 226 274 333
#     4   9  18  35  58  79 106 148 192 228 270 330
#
# _framework density 18.860517000000002
#
# number of rings (size 3 to 8) (size 9 to 14) (size 15 to 20)
#    0.000    2.167    1.667    3.000    0.000    4.333 
#    0.000    5.000    0.000    3.000    0.000    0.000 
#    0.000    0.000    0.000    0.000    0.000    0.000 
#
# Total GULP energy -594951.182848 kJ/mol
# GULP energy per Si atom -12394.816309 kJ/mol
# Density = 1.881759 g / cm^3
# Si number density = 18.860517 Si / 1000 Ang^3
#
#
#
# Elastic Constant Matrix: (Units=GPa)
#
#
# Indices 1 2 3 4 5 6 
#
# 1 166.3276 38.1231 64.0237 0.0000 0.0000 0.0000
# 2 38.1231 36.2260 22.8692 0.0000 0.0000 0.0000
# 3 64.0237 22.8692 83.5740 0.0000 0.0000 0.0000
# 4 0.0000 0.0000 0.0000 22.2595 0.0000 0.0000
# 5 0.0000 0.0000 0.0000 0.0000 31.1056 0.0000
# 6 0.0000 0.0000 0.0000 0.0000 0.0000 27.6109
#
#
#
# Elastic Compliance Matrix: (Units=1/GPa)
#
#
# Indices 1 2 3 4 5 6 
#
# 1 0.009698 -0.006667 -0.005605 0.000000 0.000000 0.000000
# 2 -0.006667 0.037953 -0.005278 0.000000 0.000000 0.000000
# 3 -0.005605 -0.005278 0.017703 0.000000 0.000000 0.000000
# 4 0.000000 0.000000 0.000000 0.044925 0.000000 0.000000
# 5 0.000000 0.000000 0.000000 0.000000 0.032149 0.000000
# 6 0.000000 0.000000 0.000000 0.000000 0.000000 0.036218
#
#
# Mechanical properties :
#
#
# Convention : Reuss Voigt Hill
#
# Bulk Modulus (GPa) = 33.05326 59.57329 46.31327
# Shear Modulus (GPa) = 22.33844 26.93596 24.63720
#
# Velocity S-wave (km/s) = 3.44525 3.78321 3.61818
# Velocity P-wave (km/s) = 5.77836 7.12309 6.48567
#
# Compressibility (1/GPa) = 0.03025420
#
# Stress axis : x y z
#
# Youngs Moduli (GPa) = 103.11539 26.34847 56.48664
#
# Poissons Ratio (x) = 0.17568 0.31660
# Poissons Ratio (y) = 0.68752 0.29812
# Poissons Ratio (z) = 0.57794 0.13906
#
# Static dielectric constant tensor:
#      x y z
#    x 3.966180 0.000000 0.000000 
#    y 0.000000 3.268760 0.000000 
#    z 0.000000 0.000000 3.292170 
# 
# 
# High freq. dielectric constant tensor:
#      x y z
#    x 1.746560 0.000000 0.000000 
#    y 0.000000 1.721490 0.000000 
#    z 0.000000 0.000000 1.710520 
# 
# From -- ./inp_files/29709.got.cif
#   From: 2010.03.12/outbox.cif.g09.slc.cpg/sg51_15_cif.got.tgz:29709.got - 2010.04.16 13:43:02.
