data_PCOD8206966
_publ_section_title
;
Structure prediction by ZEFSAII (Michael W. Deem and Ramdas Pophale) SiO2 
 PCOD8206966
Probable space group: P M M A
;
_chemical_formula_sum "Si O2"
_cell_formula_units_Z 44
_cell_length_a 8.770006
_cell_length_b 28.084952
_cell_length_c 9.177733
_cell_angle_alpha 90.000000
_cell_angle_beta 90.000000
_cell_angle_gamma 90.000000
_cell_volume 2260.523340
_symmetry_space_group_name_H-M "P M M A"
_symmetry_group_IT_number 51
_symmetry_cell_setting 'orthorhombic'
loop_
_space_group_symop_operation_xyz
x,y,z
1/2-x,-y,z
1/2+x,-y,-z
-x,y,-z
-x,-y,-z
1/2+x,y,-z
1/2-x,y,z
x,-y,z
loop_
_atom_site_type_symbol
_atom_site_label
_atom_site_fract_x
_atom_site_fract_y
_atom_site_fract_z
Si Si1 0.429539 0.187202 0.341830
Si Si2 0.930039 0.367238 0.655818
Si Si3 0.930727 0.095462 0.841049
Si Si4 0.431866 0.000000 0.838881
Si Si5 0.927960 0.444734 0.151975
Si Si6 0.570205 0.723438 0.841726
O O1 0.500000 0.187710 0.500000
O O2 0.250000 0.190814 0.358397
O O3 0.478669 0.139223 0.260047
O O4 0.493011 0.232043 0.250892
O O5 0.750000 0.371448 0.640949
O O6 0.980446 0.325006 0.763097
O O7 0.000000 0.355810 0.500000
O O8 0.995797 0.416701 0.715623
O O9 0.750000 0.089430 0.855278
O O10 0.003430 0.048206 0.765079
O O11 0.000000 0.104603 0.000000
O O12 0.250000 0.000000 0.838389
O O13 0.500000 0.000000 0.000000
O O14 0.750000 0.433537 0.146154
O O15 0.962340 0.500000 0.179837
O O16 0.000000 0.427590 0.000000
O O17 0.750000 0.726728 0.857567
O O18 0.500000 0.724870 0.000000
#
# Coordination Sequence:
#
# PCOD8206966 Si02
#       6
#     8   8   8   4   8   8
#     4  10  22  38  56  80 111 144 180 222 270 323
#     4  11  23  38  58  84 116 151 188 230 279 334
#     4  10  19  33  54  80 108 140 180 224 268 318
#     4  10  18  30  51  78 107 140 178 222 270 318
#     4  10  21  38  60  85 114 149 190 235 281 330
#     4  10  22  39  59  85 112 143 183 226 273 326
#
# _framework density 19.464518999999999
#
# number of rings (size 3 to 8) (size 9 to 14) (size 15 to 20)
#    0.000    1.818    0.000    5.182    0.000    6.545 
#    0.000    0.455    0.000    0.000    0.000    0.000 
#    0.000    0.000    0.000    0.000    0.000    0.000 
#
# Total GULP energy -545739.445516 kJ/mol
# GULP energy per Si atom -12403.169216 kJ/mol
# Density = 1.942022 g / cm^3
# Si number density = 19.464519 Si / 1000 Ang^3
#
#
#
# Elastic Constant Matrix: (Units=GPa)
#
#
# Indices 1 2 3 4 5 6 
#
# 1 80.5974 58.7224 49.8630 0.0000 0.0000 0.0000
# 2 58.7224 141.7787 78.2526 0.0000 0.0000 0.0000
# 3 49.8630 78.2526 146.9260 0.0000 0.0000 0.0000
# 4 0.0000 0.0000 0.0000 26.9671 0.0000 0.0000
# 5 0.0000 0.0000 0.0000 0.0000 37.7640 0.0000
# 6 0.0000 0.0000 0.0000 0.0000 0.0000 24.7179
#
#
#
# Elastic Compliance Matrix: (Units=1/GPa)
#
#
# Indices 1 2 3 4 5 6 
#
# 1 0.018748 -0.006024 -0.003154 0.000000 0.000000 0.000000
# 2 -0.006024 0.011926 -0.004307 0.000000 0.000000 0.000000
# 3 -0.003154 -0.004307 0.010171 0.000000 0.000000 0.000000
# 4 0.000000 0.000000 0.000000 0.037082 0.000000 0.000000
# 5 0.000000 0.000000 0.000000 0.000000 0.026480 0.000000
# 6 0.000000 0.000000 0.000000 0.000000 0.000000 0.040456
#
#
# Mechanical properties :
#
#
# Convention : Reuss Voigt Hill
#
# Bulk Modulus (GPa) = 72.08129 82.55310 77.31720
# Shear Modulus (GPa) = 28.33535 30.05408 29.19471
#
# Velocity S-wave (km/s) = 3.81956 3.93370 3.87705
# Velocity P-wave (km/s) = 7.52094 7.94582 7.73630
#
# Compressibility (1/GPa) = 0.01387323
#
# Stress axis : x y z
#
# Youngs Moduli (GPa) = 53.33946 83.85314 98.32342
#
# Poissons Ratio (x) = 0.50515 0.31012
# Poissons Ratio (y) = 0.32133 0.42349
# Poissons Ratio (z) = 0.16824 0.36116
#
# Static dielectric constant tensor:
#      x y z
#    x 3.550510 0.000000 0.000000 
#    y 0.000000 4.074760 0.000000 
#    z 0.000000 0.000000 3.392280 
# 
# 
# High freq. dielectric constant tensor:
#      x y z
#    x 1.763510 0.000000 0.000000 
#    y 0.000000 1.779440 0.000000 
#    z 0.000000 0.000000 1.748120 
# 
# From -- ./inp_files/5720.got.cif
#   From: 2010.03.12/outbox.cif.g09.slc.cpg/sg51_3_cif.got.tgz:5720.got - 2010.04.16 13:43:02.
