data_PCOD8206383
_publ_section_title
;
Structure prediction by ZEFSAII (Michael W. Deem and Ramdas Pophale) SiO2 
 PCOD8206383
Probable space group: P M M A
;
_chemical_formula_sum "Si O2"
_cell_formula_units_Z 64
_cell_length_a 8.903124
_cell_length_b 18.440625
_cell_length_c 26.697460
_cell_angle_alpha 90.000000
_cell_angle_beta 90.000000
_cell_angle_gamma 90.000000
_cell_volume 4383.166851
_symmetry_space_group_name_H-M "P M M A"
_symmetry_group_IT_number 51
_symmetry_cell_setting 'orthorhombic'
loop_
_space_group_symop_operation_xyz
x,y,z
1/2-x,-y,z
1/2+x,-y,-z
-x,y,-z
-x,-y,-z
1/2+x,y,-z
1/2-x,y,z
x,-y,z
loop_
_atom_site_type_symbol
_atom_site_label
_atom_site_fract_x
_atom_site_fract_y
_atom_site_fract_z
Si Si1 0.929242 0.082175 0.740072
Si Si2 0.573292 0.417074 0.949832
Si Si3 0.923831 0.583613 0.247782
Si Si4 0.572222 0.164169 0.350053
Si Si5 0.416967 0.294841 0.303635
Si Si6 0.573487 0.082129 0.449109
Si Si7 0.414121 0.790163 0.200220
Si Si8 0.430452 0.651047 0.152993
O O1 0.750000 0.092757 0.734257
O O2 0.991187 0.132272 0.786758
O O3 0.007224 0.106235 0.689097
O O4 0.973354 0.000000 0.752446
O O5 0.750000 0.410467 0.955218
O O6 0.521903 0.500000 0.942714
O O7 0.514756 0.372935 0.901772
O O8 0.500000 0.383934 0.000000
O O9 0.750000 0.604690 0.242415
O O10 0.946045 0.500000 0.262240
O O11 0.995104 0.630403 0.292962
O O12 0.003088 0.597368 0.194446
O O13 0.750000 0.167733 0.343057
O O14 0.504951 0.244851 0.343555
O O15 0.523970 0.135154 0.404417
O O16 0.250000 0.312489 0.324267
O O17 0.403323 0.251310 0.252516
O O18 0.500000 0.111745 0.500000
O O19 0.750000 0.083495 0.456314
O O20 0.518222 0.000000 0.437568
O O21 0.250000 0.806711 0.178037
O O22 0.493600 0.733864 0.161794
O O23 0.250000 0.648615 0.158241
#
# Coordination Sequence:
#
# PCOD8206383 Si02
#       8
#     8   8   8   8   8   8   8   8
#     4   9  16  25  38  57  80 106 135 163 194 239
#     4   9  17  27  38  53  73  98 129 165 203 240
#     4  10  19  28  40  61  86 109 134 165 200 236
#     4  10  18  28  42  59  81 107 136 171 209 243
#     4   9  17  29  43  58  78 106 138 167 197 237
#     4   9  18  30  42  58  81 109 140 173 207 241
#     4   7  12  23  37  53  72  95 125 160 192 224
#     4   9  16  27  42  56  74 104 138 166 196 240
#
# _framework density 14.601315
#
# number of rings (size 3 to 8) (size 9 to 14) (size 15 to 20)
#    0.000    3.000    0.000    3.375    0.000    3.750 
#    0.000    2.500    0.000    0.000    0.000    0.000 
#    0.000    1.000    0.000    2.000    0.000    2.750 
#
# Total GULP energy -793011.995941 kJ/mol
# GULP energy per Si atom -12390.812437 kJ/mol
# Density = 1.456808 g / cm^3
# Si number density = 14.601315 Si / 1000 Ang^3
#
#
#
# Elastic Constant Matrix: (Units=GPa)
#
#
# Indices 1 2 3 4 5 6 
#
# 1 48.2383 34.6711 29.5021 0.0000 0.0000 0.0000
# 2 34.6711 107.7988 61.2203 0.0000 0.0000 0.0000
# 3 29.5021 61.2203 93.4887 0.0000 0.0000 0.0000
# 4 0.0000 0.0000 0.0000 24.3080 0.0000 0.0000
# 5 0.0000 0.0000 0.0000 0.0000 20.1570 0.0000
# 6 0.0000 0.0000 0.0000 0.0000 0.0000 19.1077
#
#
#
# Elastic Compliance Matrix: (Units=1/GPa)
#
#
# Indices 1 2 3 4 5 6 
#
# 1 0.028211 -0.006396 -0.004714 0.000000 0.000000 0.000000
# 2 -0.006396 0.016219 -0.008603 0.000000 0.000000 0.000000
# 3 -0.004714 -0.008603 0.017817 0.000000 0.000000 0.000000
# 4 0.000000 0.000000 0.000000 0.041139 0.000000 0.000000
# 5 0.000000 0.000000 0.000000 0.000000 0.049611 0.000000
# 6 0.000000 0.000000 0.000000 0.000000 0.000000 0.052335
#
#
# Mechanical properties :
#
#
# Convention : Reuss Voigt Hill
#
# Bulk Modulus (GPa) = 43.81764 55.59031 49.70397
# Shear Modulus (GPa) = 19.81263 20.99003 20.40133
#
# Velocity S-wave (km/s) = 3.68762 3.79561 3.74200
# Velocity P-wave (km/s) = 6.94305 7.57388 7.26531
#
# Compressibility (1/GPa) = 0.02282186
#
# Stress axis : x y z
#
# Youngs Moduli (GPa) = 35.44760 61.65501 56.12501
#
# Poissons Ratio (x) = 0.39436 0.26456
# Poissons Ratio (y) = 0.22673 0.48282
# Poissons Ratio (z) = 0.16709 0.53039
#
# Static dielectric constant tensor:
#      x y z
#    x 2.820700 0.000000 0.000000 
#    y 0.000000 3.080750 0.000000 
#    z 0.000000 0.000000 2.746750 
# 
# 
# High freq. dielectric constant tensor:
#      x y z
#    x 1.554560 0.000000 0.000000 
#    y 0.000000 1.551740 0.000000 
#    z 0.000000 0.000000 1.525360 
# 
# From -- ./inp_files/36472.got.cif
#   From: 2010.03.12/outbox.cif.g09.slc.cpg/sg51_19_cif.got.tgz:36472.got - 2010.04.16 13:43:02.
