data_PCOD8206413
_publ_section_title
;
Structure prediction by ZEFSAII (Michael W. Deem and Ramdas Pophale) SiO2 
 PCOD8206413
Probable space group: P M M A
;
_chemical_formula_sum "Si O2"
_cell_formula_units_Z 64
_cell_length_a 8.930074
_cell_length_b 25.938301
_cell_length_c 18.393625
_cell_angle_alpha 90.000000
_cell_angle_beta 90.000000
_cell_angle_gamma 90.000000
_cell_volume 4260.532784
_symmetry_space_group_name_H-M "P M M A"
_symmetry_group_IT_number 51
_symmetry_cell_setting 'orthorhombic'
loop_
_space_group_symop_operation_xyz
x,y,z
1/2-x,-y,z
1/2+x,-y,-z
-x,y,-z
-x,-y,-z
1/2+x,y,-z
1/2-x,y,z
x,-y,z
loop_
_atom_site_type_symbol
_atom_site_label
_atom_site_fract_x
_atom_site_fract_y
_atom_site_fract_z
Si Si1 0.076273 0.060263 0.924988
Si Si2 0.918989 0.642339 0.659611
Si Si3 0.579527 0.288865 0.783938
Si Si4 0.572130 0.141960 0.829324
Si Si5 0.573912 0.800843 0.294255
Si Si6 0.419763 0.238864 0.074591
Si Si7 0.425554 0.748744 0.421985
Si Si8 0.925099 0.441653 0.425762
O O1 0.250000 0.075512 0.928693
O O2 0.995792 0.088863 0.858658
O O3 0.052968 0.000000 0.911258
O O4 0.000000 0.077863 0.000000
O O5 0.750000 0.624570 0.643443
O O6 0.940905 0.655260 0.745944
O O7 0.959002 0.693197 0.613666
O O8 0.027024 0.595264 0.640004
O O9 0.750000 0.268562 0.765501
O O10 0.456900 0.251018 0.750692
O O11 0.559473 0.288468 0.871404
O O12 0.750000 0.137958 0.822488
O O13 0.502137 0.151861 0.749492
O O14 0.521773 0.187739 0.884227
O O15 0.750000 0.810594 0.302317
O O16 0.499528 0.794177 0.373697
O O17 0.250000 0.230007 0.052931
O O18 0.500000 0.250957 0.000000
O O19 0.500000 0.749945 0.500000
O O20 0.250000 0.759260 0.428691
O O21 0.750000 0.437981 0.436933
O O22 0.976126 0.500000 0.407725
O O23 0.000000 0.421867 0.500000
#
# Coordination Sequence:
#
# PCOD8206413 Si02
#       8
#     8   8   8   8   8   8   8   8
#     4  10  20  32  45  63  87 114 146 183 219 255
#     4   9  17  29  45  60  78 108 142 173 205 244
#     4   8  16  30  42  56  81 110 138 170 207 245
#     4  10  19  31  45  60  83 115 147 179 214 251
#     4  10  18  28  43  62  83 109 141 175 211 251
#     4   9  17  27  40  59  83 109 137 169 203 242
#     4  10  19  30  43  62  87 113 142 174 209 248
#     4  10  20  31  42  58  81 107 136 171 207 243
#
# _framework density 15.021596000000001
#
# number of rings (size 3 to 8) (size 9 to 14) (size 15 to 20)
#    0.000    2.500    0.000    4.875    0.000    8.500 
#    0.000    0.000    0.000    0.000    0.000    0.000 
#    0.000    1.000    0.000    3.000    0.000    4.875 
#
# Total GULP energy -793317.410241 kJ/mol
# GULP energy per Si atom -12395.584535 kJ/mol
# Density = 1.498741 g / cm^3
# Si number density = 15.021596 Si / 1000 Ang^3
#
#
#
# Elastic Constant Matrix: (Units=GPa)
#
#
# Indices 1 2 3 4 5 6 
#
# 1 86.3109 34.1142 42.5306 0.0000 0.0000 0.0000
# 2 34.1142 54.9047 36.1261 0.0000 0.0000 0.0000
# 3 42.5306 36.1261 92.8583 0.0000 0.0000 0.0000
# 4 0.0000 0.0000 0.0000 25.5035 0.0000 0.0000
# 5 0.0000 0.0000 0.0000 0.0000 27.8205 0.0000
# 6 0.0000 0.0000 0.0000 0.0000 0.0000 22.4610
#
#
#
# Elastic Compliance Matrix: (Units=1/GPa)
#
#
# Indices 1 2 3 4 5 6 
#
# 1 0.016870 -0.007255 -0.004904 0.000000 0.000000 0.000000
# 2 -0.007255 0.027600 -0.007415 0.000000 0.000000 0.000000
# 3 -0.004904 -0.007415 0.015900 0.000000 0.000000 0.000000
# 4 0.000000 0.000000 0.000000 0.039210 0.000000 0.000000
# 5 0.000000 0.000000 0.000000 0.000000 0.035945 0.000000
# 6 0.000000 0.000000 0.000000 0.000000 0.000000 0.044522
#
#
# Mechanical properties :
#
#
# Convention : Reuss Voigt Hill
#
# Bulk Modulus (GPa) = 47.12090 51.06840 49.09465
# Shear Modulus (GPa) = 22.09760 23.24387 22.67073
#
# Velocity S-wave (km/s) = 3.83959 3.93792 3.88907
# Velocity P-wave (km/s) = 7.14797 7.39911 7.27462
#
# Compressibility (1/GPa) = 0.02122200
#
# Stress axis : x y z
#
# Youngs Moduli (GPa) = 59.27602 36.23192 62.89334
#
# Poissons Ratio (x) = 0.26287 0.30844
# Poissons Ratio (y) = 0.43006 0.46633
# Poissons Ratio (z) = 0.29070 0.26865
#
# Static dielectric constant tensor:
#      x y z
#    x 2.939610 0.000000 0.000000 
#    y 0.000000 2.713900 0.000000 
#    z 0.000000 0.000000 2.995160 
# 
# 
# High freq. dielectric constant tensor:
#      x y z
#    x 1.588330 0.000000 0.000000 
#    y 0.000000 1.536260 0.000000 
#    z 0.000000 0.000000 1.566600 
# 
# From -- ./inp_files/28608.got.cif
#   From: 2010.03.12/outbox.cif.g09.slc.cpg/sg51_15_cif.got.tgz:28608.got - 2010.04.16 13:43:02.
