data_PCOD8206257
_publ_section_title
;
Structure prediction by ZEFSAII (Michael W. Deem and Ramdas Pophale) SiO2 
 PCOD8206257
Probable space group: P M M A
;
_chemical_formula_sum "Si O2"
_cell_formula_units_Z 56
_cell_length_a 9.276882
_cell_length_b 28.976797
_cell_length_c 13.617505
_cell_angle_alpha 90.000000
_cell_angle_beta 90.000000
_cell_angle_gamma 90.000000
_cell_volume 3660.580435
_symmetry_space_group_name_H-M "P M M A"
_symmetry_group_IT_number 51
_symmetry_cell_setting 'orthorhombic'
loop_
_space_group_symop_operation_xyz
x,y,z
1/2-x,-y,z
1/2+x,-y,-z
-x,y,-z
-x,-y,-z
1/2+x,y,-z
1/2-x,y,z
x,-y,z
loop_
_atom_site_type_symbol
_atom_site_label
_atom_site_fract_x
_atom_site_fract_y
_atom_site_fract_z
Si Si1 0.917243 0.719534 0.902042
Si Si2 0.417818 0.372405 0.208297
Si Si3 0.079854 0.149096 0.604115
Si Si4 0.084467 0.048711 0.599706
Si Si5 0.582873 0.553261 0.099209
Si Si6 0.583272 0.319978 0.597184
Si Si7 0.918225 0.228084 0.707174
O O1 0.750000 0.719569 0.926978
O O2 0.963394 0.668938 0.864548
O O3 0.952064 0.757249 0.818704
O O4 0.000000 0.733455 0.000000
O O5 0.250000 0.384659 0.194762
O O6 0.515393 0.416834 0.186751
O O7 0.450446 0.357715 0.319695
O O8 0.250000 0.158267 0.589209
O O9 0.049058 0.097818 0.651345
O O10 0.000000 0.155325 0.500000
O O11 0.015912 0.184251 0.682986
O O12 0.250000 0.049704 0.569549
O O13 0.000000 0.046931 0.500000
O O14 0.051236 0.000000 0.659095
O O15 0.750000 0.565537 0.084728
O O16 0.560849 0.500000 0.127334
O O17 0.500000 0.566125 0.000000
O O18 0.500000 0.334366 0.500000
O O19 0.750000 0.319651 0.571138
O O20 0.536704 0.269431 0.634383
O O21 0.750000 0.216068 0.694533
#
# Coordination Sequence:
#
# PCOD8206257 Si02
#       7
#     8   8   8   8   8   8   8
#     4   9  18  31  46  64  87 113 140 172 208 248
#     4   9  18  32  48  67  90 115 143 174 209 248
#     4  10  18  26  39  59  82 111 145 177 209 247
#     4   8  14  24  36  51  74 104 137 172 208 245
#     4  10  20  32  47  69  94 117 141 171 209 253
#     4   9  18  31  46  64  87 115 146 178 210 245
#     4   9  18  31  43  59  86 115 141 172 210 249
#
# _framework density 15.298121
#
# number of rings (size 3 to 8) (size 9 to 14) (size 15 to 20)
#    0.000    2.857    0.000    3.429    0.000    6.000 
#    0.000    2.857    0.000    0.429    0.000    0.000 
#    0.000    0.571    0.000    1.286    0.000    2.286 
#
# Total GULP energy -693968.026886 kJ/mol
# GULP energy per Si atom -12392.286194 kJ/mol
# Density = 1.526330 g / cm^3
# Si number density = 15.298121 Si / 1000 Ang^3
#
#
#
# Elastic Constant Matrix: (Units=GPa)
#
#
# Indices 1 2 3 4 5 6 
#
# 1 70.6973 56.1423 45.0944 0.0000 0.0000 0.0000
# 2 56.1423 110.3627 46.8913 0.0000 0.0000 0.0000
# 3 45.0944 46.8913 85.5577 0.0000 0.0000 0.0000
# 4 0.0000 0.0000 0.0000 13.3011 0.0000 0.0000
# 5 0.0000 0.0000 0.0000 0.0000 28.4433 0.0000
# 6 0.0000 0.0000 0.0000 0.0000 0.0000 22.5600
#
#
#
# Elastic Compliance Matrix: (Units=1/GPa)
#
#
# Indices 1 2 3 4 5 6 
#
# 1 0.028358 -0.010527 -0.009177 0.000000 0.000000 0.000000
# 2 -0.010527 0.015719 -0.003067 0.000000 0.000000 0.000000
# 3 -0.009177 -0.003067 0.018206 0.000000 0.000000 0.000000
# 4 0.000000 0.000000 0.000000 0.075182 0.000000 0.000000
# 5 0.000000 0.000000 0.000000 0.000000 0.035158 0.000000
# 6 0.000000 0.000000 0.000000 0.000000 0.000000 0.044326
#
#
# Mechanical properties :
#
#
# Convention : Reuss Voigt Hill
#
# Bulk Modulus (GPa) = 59.73192 62.54153 61.13673
# Shear Modulus (GPa) = 18.65181 20.76018 19.70600
#
# Velocity S-wave (km/s) = 3.49552 3.68780 3.59295
# Velocity P-wave (km/s) = 7.44457 7.68790 7.56721
#
# Compressibility (1/GPa) = 0.01674147
#
# Stress axis : x y z
#
# Youngs Moduli (GPa) = 35.26354 63.61690 54.92757
#
# Poissons Ratio (x) = 0.66967 0.50408
# Poissons Ratio (y) = 0.37121 0.16846
# Poissons Ratio (z) = 0.32362 0.19511
#
# Static dielectric constant tensor:
#      x y z
#    x 2.924320 0.000000 0.000000 
#    y 0.000000 3.220190 0.000000 
#    z 0.000000 0.000000 2.636110 
# 
# 
# High freq. dielectric constant tensor:
#      x y z
#    x 1.593880 0.000000 0.000000 
#    y 0.000000 1.589370 0.000000 
#    z 0.000000 0.000000 1.551060 
# 
# From -- ./inp_files/22548.got.cif
#   From: 2010.03.12/outbox.cif.g09.slc.cpg/sg51_12_cif.got.tgz:22548.got - 2010.04.16 13:43:02.
