data_PCOD8206231
_publ_section_title
;
Structure prediction by ZEFSAII (Michael W. Deem and Ramdas Pophale) SiO2 
 PCOD8206231
Probable space group: P M M A
;
_chemical_formula_sum "Si O2"
_cell_formula_units_Z 64
_cell_length_a 26.450698
_cell_length_b 9.381747
_cell_length_c 17.075395
_cell_angle_alpha 90.000000
_cell_angle_beta 90.000000
_cell_angle_gamma 90.000000
_cell_volume 4237.323415
_symmetry_space_group_name_H-M "P M M A"
_symmetry_group_IT_number 51
_symmetry_cell_setting 'orthorhombic'
loop_
_space_group_symop_operation_xyz
x,y,z
1/2-x,-y,z
1/2+x,-y,-z
-x,y,-z
-x,-y,-z
1/2+x,y,-z
1/2-x,y,z
x,-y,z
loop_
_atom_site_type_symbol
_atom_site_label
_atom_site_fract_x
_atom_site_fract_y
_atom_site_fract_z
Si Si1 0.459894 0.660881 0.901470
Si Si2 0.306687 0.832680 0.907788
Si Si3 0.967653 0.834858 0.663018
Si Si4 0.365323 0.340360 0.788545
Si Si5 0.441685 0.342707 0.476434
Si Si6 0.049934 0.839113 0.164453
Si Si7 0.397068 0.163346 0.014191
Si Si8 0.429315 0.332110 0.646105
O O1 0.472599 0.500000 0.926470
O O2 0.415525 0.666673 0.839243
O O3 0.508128 0.728302 0.861288
O O4 0.443467 0.746318 0.978981
O O5 0.250000 0.783411 0.929321
O O6 0.323137 0.761877 0.825636
O O7 0.309279 0.000000 0.894103
O O8 0.343013 0.783932 0.979870
O O9 0.932898 0.767913 0.594184
O O10 0.936756 0.814178 0.744272
O O11 0.021601 0.757892 0.670588
O O12 0.977012 0.000000 0.643452
O O13 0.342939 0.500000 0.786924
O O14 0.381741 0.290852 0.701200
O O15 0.500000 0.344624 0.500000
O O16 0.424554 0.500000 0.448277
O O17 0.412417 0.298223 0.556329
O O18 0.099689 0.818899 0.108855
O O19 0.028735 0.000000 0.153805
O O20 0.405202 0.000000 0.988822
O O21 0.442964 0.500000 0.655562
#
# Coordination Sequence:
#
# PCOD8206231 Si02
#       8
#     8   8   8   8   8   8   8   8
#     4  10  18  27  40  58  80 105 136 171 201 231
#     4   9  18  32  48  63  79 101 131 168 208 248
#     4  10  18  25  36  55  79 107 141 173 200 230
#     4   9  17  28  43  62  82 106 135 166 202 242
#     4   8  15  26  39  52  73 107 140 166 196 231
#     4  10  19  28  38  54  79 112 140 164 200 241
#     4   9  18  31  43  55  77 106 134 164 203 248
#     4   9  16  28  41  55  78 108 139 166 196 237
#
# _framework density 15.103873999999999
#
# number of rings (size 3 to 8) (size 9 to 14) (size 15 to 20)
#    0.000    2.750    1.250    1.875    0.000    6.000 
#    0.000    0.000    0.000    0.000    0.000    0.000 
#    0.000    1.000    0.000    4.250    0.000    1.500 
#
# Total GULP energy -793126.958485 kJ/mol
# GULP energy per Si atom -12392.608726 kJ/mol
# Density = 1.506950 g / cm^3
# Si number density = 15.103874 Si / 1000 Ang^3
#
#
#
# Elastic Constant Matrix: (Units=GPa)
#
#
# Indices 1 2 3 4 5 6 
#
# 1 40.1509 25.9745 35.5322 0.0000 0.0000 0.0000
# 2 25.9745 66.1534 46.2413 0.0000 0.0000 0.0000
# 3 35.5322 46.2413 121.4410 0.0000 0.0000 0.0000
# 4 0.0000 0.0000 0.0000 21.2088 0.0000 0.0000
# 5 0.0000 0.0000 0.0000 0.0000 12.0115 0.0000
# 6 0.0000 0.0000 0.0000 0.0000 0.0000 12.4796
#
#
#
# Elastic Compliance Matrix: (Units=1/GPa)
#
#
# Indices 1 2 3 4 5 6 
#
# 1 0.037644 -0.009650 -0.007340 0.000000 0.000000 0.000000
# 2 -0.009650 0.023073 -0.005962 0.000000 0.000000 0.000000
# 3 -0.007340 -0.005962 0.012652 0.000000 0.000000 0.000000
# 4 0.000000 0.000000 0.000000 0.047150 0.000000 0.000000
# 5 0.000000 0.000000 0.000000 0.000000 0.083253 0.000000
# 6 0.000000 0.000000 0.000000 0.000000 0.000000 0.080131
#
#
# Mechanical properties :
#
#
# Convention : Reuss Voigt Hill
#
# Bulk Modulus (GPa) = 36.40925 49.24901 42.82913
# Shear Modulus (GPa) = 14.75087 17.13980 15.94534
#
# Velocity S-wave (km/s) = 3.12850 3.37233 3.25270
# Velocity P-wave (km/s) = 6.09985 6.91673 6.52109
#
# Compressibility (1/GPa) = 0.02746555
#
# Stress axis : x y z
#
# Youngs Moduli (GPa) = 26.56432 43.34102 79.03810
#
# Poissons Ratio (x) = 0.41825 0.58012
# Poissons Ratio (y) = 0.25635 0.47122
# Poissons Ratio (z) = 0.19498 0.25840
#
# Static dielectric constant tensor:
#      x y z
#    x 2.588050 0.000000 0.000000 
#    y 0.000000 3.054970 0.000000 
#    z 0.000000 0.000000 3.354240 
# 
# 
# High freq. dielectric constant tensor:
#      x y z
#    x 1.515250 0.000000 0.000000 
#    y 0.000000 1.586020 0.000000 
#    z 0.000000 0.000000 1.586720 
# 
# From -- ./inp_files/30972.got.cif
#   From: 2010.03.12/outbox.cif.g09.slc.cpg/sg51_16_cif.got.tgz:30972.got - 2010.04.16 13:43:02.
