data_PCOD8206681
_publ_section_title
;
Structure prediction by ZEFSAII (Michael W. Deem and Ramdas Pophale) SiO2 
 PCOD8206681
Probable space group: P M M A
;
_chemical_formula_sum "Si O2"
_cell_formula_units_Z 64
_cell_length_a 18.062900
_cell_length_b 14.807934
_cell_length_c 13.402074
_cell_angle_alpha 90.000000
_cell_angle_beta 90.000000
_cell_angle_gamma 90.000000
_cell_volume 3584.709438
_symmetry_space_group_name_H-M "P M M A"
_symmetry_group_IT_number 51
_symmetry_cell_setting 'orthorhombic'
loop_
_space_group_symop_operation_xyz
x,y,z
1/2-x,-y,z
1/2+x,-y,-z
-x,y,-z
-x,-y,-z
1/2+x,y,-z
1/2-x,y,z
x,-y,z
loop_
_atom_site_type_symbol
_atom_site_label
_atom_site_fract_x
_atom_site_fract_y
_atom_site_fract_z
Si Si1 0.452940 0.895828 0.404149
Si Si2 0.880931 0.101225 0.882833
Si Si3 0.668516 0.394229 0.021127
Si Si4 0.114386 0.397855 0.191850
Si Si5 0.663987 0.223391 0.700808
Si Si6 0.669807 0.103877 0.092383
Si Si7 0.974034 0.673392 0.110414
Si Si8 0.528247 0.141599 0.203601
O O1 0.500000 0.865758 0.500000
O O2 0.384088 0.826859 0.385891
O O3 0.511454 0.889253 0.314772
O O4 0.424417 0.000000 0.413254
O O5 0.844330 0.164067 0.799980
O O6 0.969897 0.094670 0.871547
O O7 0.848307 0.000000 0.872041
O O8 0.861714 0.146952 0.989748
O O9 0.750000 0.364951 0.056995
O O10 0.656284 0.500000 0.023136
O O11 0.611540 0.354260 0.101796
O O12 0.658425 0.363789 0.906268
O O13 0.136616 0.500000 0.225911
O O14 0.133887 0.325639 0.279103
O O15 0.027748 0.402150 0.158279
O O16 0.750000 0.227399 0.667920
O O17 0.750000 0.147101 0.119491
O O18 0.612717 0.115887 0.181970
O O19 0.680530 0.000000 0.069904
O O20 0.981910 0.752187 0.190825
O O21 0.000000 0.702199 0.000000
#
# Coordination Sequence:
#
# PCOD8206681 Si02
#       8
#     8   8   8   8   8   8   8   8
#     4  10  22  41  62  81 103 135 175 224 280 334
#     4  10  19  32  49  72 105 143 176 211 255 310
#     4   9  18  30  44  68 106 152 196 231 261 299
#     4  10  19  33  51  76 111 149 184 223 269 317
#     4  11  21  34  56  86 111 137 174 223 272 320
#     4  10  20  30  42  68 106 144 178 211 251 310
#     4  10  18  29  47  74 106 146 188 219 257 316
#     4  11  19  32  52  74  98 137 181 219 261 319
#
# _framework density 17.85361
#
# number of rings (size 3 to 8) (size 9 to 14) (size 15 to 20)
#    0.000    1.875    2.500    4.500    1.750    5.250 
#    0.000    0.625    0.000    1.125    0.000    0.000 
#    0.000    0.000    0.000    0.000    0.000    0.000 
#
# Total GULP energy -793081.016070 kJ/mol
# GULP energy per Si atom -12391.890876 kJ/mol
# Density = 1.781297 g / cm^3
# Si number density = 17.853610 Si / 1000 Ang^3
#
#
#
# Elastic Constant Matrix: (Units=GPa)
#
#
# Indices 1 2 3 4 5 6 
#
# 1 142.4634 26.7640 46.9542 0.0000 0.0000 0.0000
# 2 26.7640 84.6132 19.5025 0.0000 0.0000 0.0000
# 3 46.9542 19.5025 56.5029 0.0000 0.0000 0.0000
# 4 0.0000 0.0000 0.0000 16.6001 0.0000 0.0000
# 5 0.0000 0.0000 0.0000 0.0000 20.6153 0.0000
# 6 0.0000 0.0000 0.0000 0.0000 0.0000 19.1562
#
#
#
# Elastic Compliance Matrix: (Units=1/GPa)
#
#
# Indices 1 2 3 4 5 6 
#
# 1 0.009803 -0.001329 -0.007687 0.000000 0.000000 0.000000
# 2 -0.001329 0.013020 -0.003390 0.000000 0.000000 0.000000
# 3 -0.007687 -0.003390 0.025256 0.000000 0.000000 0.000000
# 4 0.000000 0.000000 0.000000 0.060241 0.000000 0.000000
# 5 0.000000 0.000000 0.000000 0.000000 0.048508 0.000000
# 6 0.000000 0.000000 0.000000 0.000000 0.000000 0.052202
#
#
# Mechanical properties :
#
#
# Convention : Reuss Voigt Hill
#
# Bulk Modulus (GPa) = 42.97880 52.22454 47.60167
# Shear Modulus (GPa) = 20.69555 23.96490 22.33022
#
# Velocity S-wave (km/s) = 3.40837 3.66772 3.54042
# Velocity P-wave (km/s) = 6.29400 6.87395 6.59036
#
# Compressibility (1/GPa) = 0.02326728
#
# Stress axis : x y z
#
# Youngs Moduli (GPa) = 102.01319 76.80429 39.59380
#
# Poissons Ratio (x) = 0.10206 0.30437
# Poissons Ratio (y) = 0.13556 0.13421
# Poissons Ratio (z) = 0.78422 0.26035
#
# Static dielectric constant tensor:
#      x y z
#    x 3.737080 0.000000 0.000000 
#    y 0.000000 3.380360 0.000000 
#    z 0.000000 0.000000 2.858210 
# 
# 
# High freq. dielectric constant tensor:
#      x y z
#    x 1.700980 0.000000 0.000000 
#    y 0.000000 1.697140 0.000000 
#    z 0.000000 0.000000 1.626090 
# 
# From -- ./inp_files/25329.got.cif
#   From: 2010.03.12/outbox.cif.g09.slc.cpg/sg51_13_cif.got.tgz:25329.got - 2010.04.16 13:43:02.
