data_PCOD8206519
_publ_section_title
;
Structure prediction by ZEFSAII (Michael W. Deem and Ramdas Pophale) SiO2 
 PCOD8206519
Probable space group: P M M A
;
_chemical_formula_sum "Si O2"
_cell_formula_units_Z 64
_cell_length_a 21.476564
_cell_length_b 9.193285
_cell_length_c 18.955300
_cell_angle_alpha 90.000000
_cell_angle_beta 90.000000
_cell_angle_gamma 90.000000
_cell_volume 3742.537724
_symmetry_space_group_name_H-M "P M M A"
_symmetry_group_IT_number 51
_symmetry_cell_setting 'orthorhombic'
loop_
_space_group_symop_operation_xyz
x,y,z
1/2-x,-y,z
1/2+x,-y,-z
-x,y,-z
-x,-y,-z
1/2+x,y,-z
1/2-x,y,z
x,-y,z
loop_
_atom_site_type_symbol
_atom_site_label
_atom_site_fract_x
_atom_site_fract_y
_atom_site_fract_z
Si Si1 0.436701 0.661816 0.455463
Si Si2 0.320517 0.668406 0.975408
Si Si3 0.436829 0.833780 0.037878
Si Si4 0.119443 0.332440 0.829054
Si Si5 0.179679 0.835821 0.704065
Si Si6 0.112559 0.671776 0.598010
Si Si7 0.000381 0.835143 0.178161
Si Si8 0.006398 0.830158 0.338963
O O1 0.500000 0.664020 0.500000
O O2 0.424274 0.500000 0.425693
O O3 0.385255 0.706889 0.514070
O O4 0.437688 0.771749 0.389302
O O5 0.250000 0.724795 0.992097
O O6 0.326136 0.500000 0.995640
O O7 0.332230 0.690689 0.892305
O O8 0.373533 0.750679 0.018949
O O9 0.442992 0.820209 0.122818
O O10 0.427922 0.000000 0.013474
O O11 0.500000 0.772683 0.000000
O O12 0.116452 0.500000 0.805926
O O13 0.137638 0.235260 0.763218
O O14 0.051511 0.275882 0.850932
O O15 0.250000 0.832371 0.730179
O O16 0.174037 0.742948 0.631869
O O17 0.156269 0.000000 0.691103
O O18 0.109049 0.500000 0.610994
O O19 0.055534 0.744879 0.639963
O O20 0.023354 0.797174 0.257383
O O21 0.973789 0.000000 0.176493
O O22 0.997371 0.000000 0.353440
#
# Coordination Sequence:
#
# PCOD8206519 Si02
#       8
#     8   8   8   8   8   8   8   8
#     4   8  16  29  44  65  94 123 155 195 236 283
#     4  10  22  38  54  76 105 135 174 222 265 310
#     4  10  20  35  55  77 104 138 175 215 262 314
#     4  11  21  33  52  73  99 136 174 210 252 304
#     4  11  23  35  47  67  97 133 172 212 251 297
#     4  10  19  31  47  67  93 127 164 204 246 291
#     4  10  20  33  49  74 107 136 168 211 257 305
#     4  10  18  28  46  70  98 129 160 198 246 297
#
# _framework density 17.100697
#
# number of rings (size 3 to 8) (size 9 to 14) (size 15 to 20)
#    0.000    2.000    2.500    2.625    0.000    6.250 
#    0.000    0.000    0.000    0.000    0.000    0.875 
#    0.000    1.000    0.000    0.000    0.000    0.000 
#
# Total GULP energy -793267.836572 kJ/mol
# GULP energy per Si atom -12394.809946 kJ/mol
# Density = 1.706177 g / cm^3
# Si number density = 17.100697 Si / 1000 Ang^3
#
#
#
# Elastic Constant Matrix: (Units=GPa)
#
#
# Indices 1 2 3 4 5 6 
#
# 1 79.8817 43.3946 41.1731 0.0000 0.0000 0.0000
# 2 43.3946 96.2120 51.5662 0.0000 0.0000 0.0000
# 3 41.1731 51.5662 98.9711 0.0000 0.0000 0.0000
# 4 0.0000 0.0000 0.0000 28.7981 0.0000 0.0000
# 5 0.0000 0.0000 0.0000 0.0000 20.4823 0.0000
# 6 0.0000 0.0000 0.0000 0.0000 0.0000 22.8853
#
#
#
# Elastic Compliance Matrix: (Units=1/GPa)
#
#
# Indices 1 2 3 4 5 6 
#
# 1 0.017918 -0.005670 -0.004500 0.000000 0.000000 0.000000
# 2 -0.005670 0.016215 -0.006090 0.000000 0.000000 0.000000
# 3 -0.004500 -0.006090 0.015149 0.000000 0.000000 0.000000
# 4 0.000000 0.000000 0.000000 0.034725 0.000000 0.000000
# 5 0.000000 0.000000 0.000000 0.000000 0.048823 0.000000
# 6 0.000000 0.000000 0.000000 0.000000 0.000000 0.043696
#
#
# Mechanical properties :
#
#
# Convention : Reuss Voigt Hill
#
# Bulk Modulus (GPa) = 59.65561 60.81474 60.23518
# Shear Modulus (GPa) = 23.29581 23.69521 23.49551
#
# Velocity S-wave (km/s) = 3.69490 3.72644 3.71070
# Velocity P-wave (km/s) = 7.29134 7.35901 7.32526
#
# Compressibility (1/GPa) = 0.01676288
#
# Stress axis : x y z
#
# Youngs Moduli (GPa) = 55.81012 61.67234 66.01169
#
# Poissons Ratio (x) = 0.34966 0.29705
# Poissons Ratio (y) = 0.31643 0.40198
# Poissons Ratio (z) = 0.25115 0.37556
#
# Static dielectric constant tensor:
#      x y z
#    x 3.097840 0.000000 0.000000 
#    y 0.000000 3.328550 0.000000 
#    z 0.000000 0.000000 3.474930 
# 
# 
# High freq. dielectric constant tensor:
#      x y z
#    x 1.618180 0.000000 0.000000 
#    y 0.000000 1.668790 0.000000 
#    z 0.000000 0.000000 1.660990 
# 
# From -- ./inp_files/34103.got.cif
#   From: 2010.03.12/outbox.cif.g09.slc.cpg/sg51_18_cif.got.tgz:34103.got - 2010.04.16 13:43:02.
