data_PCOD8206833
_publ_section_title
;
Structure prediction by ZEFSAII (Michael W. Deem and Ramdas Pophale) SiO2 
 PCOD8206833
Probable space group: P M M A
;
_chemical_formula_sum "Si O2"
_cell_formula_units_Z 52
_cell_length_a 8.906339
_cell_length_b 22.131708
_cell_length_c 15.372313
_cell_angle_alpha 90.000000
_cell_angle_beta 90.000000
_cell_angle_gamma 90.000000
_cell_volume 3030.074955
_symmetry_space_group_name_H-M "P M M A"
_symmetry_group_IT_number 51
_symmetry_cell_setting 'orthorhombic'
loop_
_space_group_symop_operation_xyz
x,y,z
1/2-x,-y,z
1/2+x,-y,-z
-x,y,-z
-x,-y,-z
1/2+x,y,-z
1/2-x,y,z
x,-y,z
loop_
_atom_site_type_symbol
_atom_site_label
_atom_site_fract_x
_atom_site_fract_y
_atom_site_fract_z
Si Si1 0.072352 0.879895 0.093570
Si Si2 0.572945 0.352238 0.761381
Si Si3 0.919777 0.647567 0.414412
Si Si4 0.430018 0.000000 0.904413
Si Si5 0.917914 0.791434 0.414773
Si Si6 0.925278 0.430060 0.089598
Si Si7 0.075804 0.213999 0.241293
O O1 0.250000 0.890475 0.082500
O O2 0.034959 0.823932 0.155858
O O3 0.995332 0.938848 0.138742
O O4 0.000000 0.865553 0.000000
O O5 0.750000 0.361569 0.764308
O O6 0.511684 0.375421 0.668896
O O7 0.496365 0.391577 0.834463
O O8 0.526043 0.282687 0.777026
O O9 0.750000 0.622941 0.409659
O O10 0.921832 0.719498 0.418108
O O11 0.000000 0.620839 0.500000
O O12 0.250000 0.000000 0.904396
O O13 0.500000 0.000000 0.000000
O O14 0.750000 0.816783 0.415969
O O15 0.000000 0.818149 0.500000
O O16 0.994112 0.813842 0.325601
O O17 0.750000 0.416587 0.083620
O O18 0.959493 0.500000 0.108339
O O19 0.000000 0.409064 0.000000
O O20 0.250000 0.211074 0.263699
#
# Coordination Sequence:
#
# PCOD8206833 Si02
#       7
#     8   8   8   4   8   8   8
#     4  10  19  32  48  67  94 127 160 195 234 277
#     4  10  19  32  50  73 100 128 158 195 239 285
#     4   9  16  27  44  68  96 127 160 193 232 279
#     4  10  18  30  48  68  89 118 159 200 234 274
#     4   9  16  26  43  65  92 125 159 195 233 275
#     4  10  21  37  55  73  93 121 160 202 240 282
#     4   9  19  32  46  69 100 129 158 193 235 282
#
# _framework density 17.161292
#
# number of rings (size 3 to 8) (size 9 to 14) (size 15 to 20)
#    0.000    2.462    0.000    3.923    0.000    7.077 
#    0.000    1.538    0.000    0.462    0.000    0.538 
#    0.000    0.000    0.000    0.000    0.000    0.000 
#
# Total GULP energy -644738.113270 kJ/mol
# GULP energy per Si atom -12398.809871 kJ/mol
# Density = 1.712223 g / cm^3
# Si number density = 17.161292 Si / 1000 Ang^3
#
#
#
# Elastic Constant Matrix: (Units=GPa)
#
#
# Indices 1 2 3 4 5 6 
#
# 1 113.2311 44.7872 71.7316 0.0000 0.0000 0.0000
# 2 44.7872 56.1583 60.3690 0.0000 0.0000 0.0000
# 3 71.7316 60.3690 149.1244 0.0000 0.0000 0.0000
# 4 0.0000 0.0000 0.0000 -3.8200 0.0000 0.0000
# 5 0.0000 0.0000 0.0000 0.0000 37.7681 0.0000
# 6 0.0000 0.0000 0.0000 0.0000 0.0000 20.9189
#
#
#
# Elastic Compliance Matrix: (Units=1/GPa)
#
#
# Indices 1 2 3 4 5 6 
#
# 1 0.014103 -0.007002 -0.003949 0.000000 0.000000 0.000000
# 2 -0.007002 0.035003 -0.010802 0.000000 0.000000 0.000000
# 3 -0.003949 -0.010802 0.012978 0.000000 0.000000 0.000000
# 4 0.000000 0.000000 0.000000 -0.261781 0.000000 0.000000
# 5 0.000000 0.000000 0.000000 0.000000 0.026477 0.000000
# 6 0.000000 0.000000 0.000000 0.000000 0.000000 0.047804
#
#
# Mechanical properties :
#
#
# Convention : Reuss Voigt Hill
#
# Bulk Modulus (GPa) = 53.82748 74.69882 64.26315
# Shear Modulus (GPa) = -66.03516 20.41514 -22.81001
#
# Velocity S-wave (km/s) = -6.20988 3.45281 -3.64971
# Velocity P-wave (km/s) = 4.47025 7.71478 4.44605
#
# Compressibility (1/GPa) = 0.01857787
#
# Stress axis : x y z
#
# Youngs Moduli (GPa) = 70.90768 28.56922 77.05198
#
# Poissons Ratio (x) = 0.20004 0.30429
# Poissons Ratio (y) = 0.49649 0.83230
# Poissons Ratio (z) = 0.28003 0.30860
#
# Static dielectric constant tensor:
#      x y z
#    x 4.525410 0.000000 0.000000 
#    y 0.000000 3.160420 0.000000 
#    z 0.000000 0.000000 3.269990 
# 
# 
# High freq. dielectric constant tensor:
#      x y z
#    x 1.681440 0.000000 0.000000 
#    y 0.000000 1.622010 0.000000 
#    z 0.000000 0.000000 1.663510 
# 
# From -- ./inp_files/21503.got.cif
#   From: 2010.03.12/outbox.cif.g09.slc.cpg/sg51_11_cif.got.tgz:21503.got - 2010.04.16 13:43:02.
