data_PCOD8206094
_publ_section_title
;
Structure prediction by ZEFSAII (Michael W. Deem and Ramdas Pophale) SiO2 
 PCOD8206094
Probable space group: P M M A
;
_chemical_formula_sum "Si O2"
_cell_formula_units_Z 64
_cell_length_a 27.109954
_cell_length_b 9.124777
_cell_length_c 16.936029
_cell_angle_alpha 90.000000
_cell_angle_beta 90.000000
_cell_angle_gamma 90.000000
_cell_volume 4189.504188
_symmetry_space_group_name_H-M "P M M A"
_symmetry_group_IT_number 51
_symmetry_cell_setting 'orthorhombic'
loop_
_space_group_symop_operation_xyz
x,y,z
1/2-x,-y,z
1/2+x,-y,-z
-x,y,-z
-x,-y,-z
1/2+x,y,-z
1/2-x,y,z
x,-y,z
loop_
_atom_site_type_symbol
_atom_site_label
_atom_site_fract_x
_atom_site_fract_y
_atom_site_fract_z
Si Si1 0.619510 0.671978 0.274281
Si Si2 0.805814 0.672502 0.407234
Si Si3 0.422279 0.828890 0.866600
Si Si4 0.376798 0.833003 0.480086
Si Si5 0.558880 0.827525 0.656502
Si Si6 0.548224 0.833774 0.382982
Si Si7 0.464500 0.828282 0.170668
Si Si8 0.057345 0.334802 0.019189
O O1 0.618172 0.500000 0.256825
O O2 0.667663 0.717985 0.325316
O O3 0.618525 0.758572 0.191614
O O4 0.571752 0.717982 0.323427
O O5 0.750000 0.730851 0.403237
O O6 0.808122 0.500000 0.418635
O O7 0.832232 0.740464 0.483749
O O8 0.477025 0.796445 0.833358
O O9 0.411960 0.000000 0.875235
O O10 0.414128 0.755230 0.951866
O O11 0.394177 0.768607 0.394450
O O12 0.426004 0.823939 0.532680
O O13 0.358258 0.000000 0.473562
O O14 0.508789 0.788873 0.609424
O O15 0.556493 0.766919 0.745993
O O16 0.564700 0.000000 0.661263
O O17 0.553330 0.000000 0.348017
O O18 0.434404 0.742843 0.103325
O O19 0.454653 0.000000 0.159209
O O20 0.078103 0.500000 0.022626
O O21 0.000000 0.334024 0.000000
#
# Coordination Sequence:
#
# PCOD8206094 Si02
#       8
#     8   8   8   8   8   8   8   8
#     4  10  18  27  42  63  83 107 142 181 216 250
#     4   9  19  35  49  60  82 114 142 173 219 268
#     4  10  17  27  42  59  81 111 145 175 207 251
#     4   9  17  27  44  65  83 105 141 182 213 248
#     4   9  15  25  40  60  85 114 144 174 209 249
#     4   9  15  26  40  57  82 114 144 170 206 251
#     4   9  16  26  39  55  80 116 150 173 202 247
#     4   9  17  27  38  55  80 110 145 181 210 234
#
# _framework density 15.276270999999999
#
# number of rings (size 3 to 8) (size 9 to 14) (size 15 to 20)
#    0.000    2.750    1.250    1.500    0.000    4.250 
#    0.000    1.250    0.000    3.000    0.000    0.000 
#    0.000    1.000    0.000    7.250    0.000    3.750 
#
# Total GULP energy -793243.248289 kJ/mol
# GULP energy per Si atom -12394.425755 kJ/mol
# Density = 1.524150 g / cm^3
# Si number density = 15.276271 Si / 1000 Ang^3
#
#
#
# Elastic Constant Matrix: (Units=GPa)
#
#
# Indices 1 2 3 4 5 6 
#
# 1 69.2279 29.2640 50.7406 0.0000 0.0000 0.0000
# 2 29.2640 59.2736 44.0796 0.0000 0.0000 0.0000
# 3 50.7406 44.0796 116.3198 0.0000 0.0000 0.0000
# 4 0.0000 0.0000 0.0000 22.6779 0.0000 0.0000
# 5 0.0000 0.0000 0.0000 0.0000 13.7514 0.0000
# 6 0.0000 0.0000 0.0000 0.0000 0.0000 14.6981
#
#
#
# Elastic Compliance Matrix: (Units=1/GPa)
#
#
# Indices 1 2 3 4 5 6 
#
# 1 0.022357 -0.005271 -0.007755 0.000000 0.000000 0.000000
# 2 -0.005271 0.024734 -0.007074 0.000000 0.000000 0.000000
# 3 -0.007755 -0.007074 0.014661 0.000000 0.000000 0.000000
# 4 0.000000 0.000000 0.000000 0.044096 0.000000 0.000000
# 5 0.000000 0.000000 0.000000 0.000000 0.072720 0.000000
# 6 0.000000 0.000000 0.000000 0.000000 0.000000 0.068036
#
#
# Mechanical properties :
#
#
# Convention : Reuss Voigt Hill
#
# Bulk Modulus (GPa) = 46.39922 54.77665 50.58793
# Shear Modulus (GPa) = 17.00760 18.27463 17.64112
#
# Velocity S-wave (km/s) = 3.34029 3.46247 3.40193
# Velocity P-wave (km/s) = 6.73172 7.20556 6.97267
#
# Compressibility (1/GPa) = 0.02155209
#
# Stress axis : x y z
#
# Youngs Moduli (GPa) = 44.72815 40.43089 68.21040
#
# Poissons Ratio (x) = 0.21310 0.52899
# Poissons Ratio (y) = 0.23575 0.48250
# Poissons Ratio (z) = 0.34688 0.28599
#
# Static dielectric constant tensor:
#      x y z
#    x 2.628310 0.000000 0.000000 
#    y 0.000000 2.891320 0.000000 
#    z 0.000000 0.000000 3.176180 
# 
# 
# High freq. dielectric constant tensor:
#      x y z
#    x 1.528880 0.000000 0.000000 
#    y 0.000000 1.579970 0.000000 
#    z 0.000000 0.000000 1.590570 
# 
# From -- ./inp_files/30806.got.cif
#   From: 2010.03.12/outbox.cif.g09.slc.cpg/sg51_16_cif.got.tgz:30806.got - 2010.04.16 13:43:02.
