data_PCOD8206852
_publ_section_title
;
Structure prediction by ZEFSAII (Michael W. Deem and Ramdas Pophale) SiO2 
 PCOD8206852
Probable space group: P M M A
;
_chemical_formula_sum "Si O2"
_cell_formula_units_Z 36
_cell_length_a 8.893419
_cell_length_b 15.127528
_cell_length_c 14.463693
_cell_angle_alpha 90.000000
_cell_angle_beta 90.000000
_cell_angle_gamma 90.000000
_cell_volume 1945.879373
_symmetry_space_group_name_H-M "P M M A"
_symmetry_group_IT_number 51
_symmetry_cell_setting 'orthorhombic'
loop_
_space_group_symop_operation_xyz
x,y,z
1/2-x,-y,z
1/2+x,-y,-z
-x,y,-z
-x,-y,-z
1/2+x,y,-z
1/2-x,y,z
x,-y,z
loop_
_atom_site_type_symbol
_atom_site_label
_atom_site_fract_x
_atom_site_fract_y
_atom_site_fract_z
Si Si1 0.075238 0.674815 0.902947
Si Si2 0.573762 0.899072 0.594373
Si Si3 0.570462 0.500000 0.898657
Si Si4 0.926927 0.401326 0.403985
Si Si5 0.422722 0.238764 0.718183
O O1 0.250000 0.652662 0.920606
O O2 0.056419 0.754055 0.829176
O O3 0.994841 0.589892 0.854588
O O4 0.000000 0.702909 0.000000
O O5 0.500000 0.862722 0.500000
O O6 0.750000 0.889816 0.583027
O O7 0.520728 0.842482 0.681947
O O8 0.524095 0.000000 0.612200
O O9 0.750000 0.500000 0.897509
O O10 0.500000 0.500000 0.000000
O O11 0.750000 0.401071 0.417855
O O12 0.982204 0.500000 0.374496
O O13 0.977403 0.330809 0.327218
O O14 0.000000 0.372028 0.500000
O O15 0.250000 0.220198 0.692572
#
# Coordination Sequence:
#
# PCOD8206852 Si02
#       5
#     8   8   4   8   8
#     4  10  20  34  52  74 104 140 180 225 273 318
#     4  10  21  37  58  83 111 140 171 215 267 318
#     4  10  18  30  48  70  97 134 179 224 268 310
#     4   9  18  32  48  68  99 136 171 206 249 302
#     4  10  21  34  54  79 103 139 179 219 267 317
#
# _framework density 18.500633000000001
#
# number of rings (size 3 to 8) (size 9 to 14) (size 15 to 20)
#    0.000    2.222    0.000    4.333    1.556    5.778 
#    0.000    0.000    0.000    0.667    0.000    0.000 
#    0.000    0.000    0.000    0.000    0.000    0.000 
#
# Total GULP energy -446319.889384 kJ/mol
# GULP energy per Si atom -12397.774705 kJ/mol
# Density = 1.845853 g / cm^3
# Si number density = 18.500633 Si / 1000 Ang^3
#
#
#
# Elastic Constant Matrix: (Units=GPa)
#
#
# Indices 1 2 3 4 5 6 
#
# 1 91.3887 42.5203 41.2625 0.0000 0.0000 0.0000
# 2 42.5203 81.2328 51.0971 0.0000 0.0000 0.0000
# 3 41.2625 51.0971 96.8804 0.0000 0.0000 0.0000
# 4 0.0000 0.0000 0.0000 20.6577 0.0000 0.0000
# 5 0.0000 0.0000 0.0000 0.0000 27.9460 0.0000
# 6 0.0000 0.0000 0.0000 0.0000 0.0000 29.6940
#
#
#
# Elastic Compliance Matrix: (Units=1/GPa)
#
#
# Indices 1 2 3 4 5 6 
#
# 1 0.015180 -0.005805 -0.003404 0.000000 0.000000 0.000000
# 2 -0.005805 0.020642 -0.008415 0.000000 0.000000 0.000000
# 3 -0.003404 -0.008415 0.016210 0.000000 0.000000 0.000000
# 4 0.000000 0.000000 0.000000 0.048408 0.000000 0.000000
# 5 0.000000 0.000000 0.000000 0.000000 0.035783 0.000000
# 6 0.000000 0.000000 0.000000 0.000000 0.000000 0.033677
#
#
# Mechanical properties :
#
#
# Convention : Reuss Voigt Hill
#
# Bulk Modulus (GPa) = 59.57642 59.91798 59.74720
# Shear Modulus (GPa) = 23.72585 24.63434 24.18009
#
# Velocity S-wave (km/s) = 3.58499 3.65299 3.61915
# Velocity P-wave (km/s) = 7.02912 7.08870 7.05897
#
# Compressibility (1/GPa) = 0.01678516
#
# Stress axis : x y z
#
# Youngs Moduli (GPa) = 65.87700 48.44569 61.69110
#
# Poissons Ratio (x) = 0.28121 0.20998
# Poissons Ratio (y) = 0.38239 0.51911
# Poissons Ratio (z) = 0.22423 0.40765
#
# Static dielectric constant tensor:
#      x y z
#    x 3.397710 0.000000 0.000000 
#    y 0.000000 3.570100 0.000000 
#    z 0.000000 0.000000 3.096010 
# 
# 
# High freq. dielectric constant tensor:
#      x y z
#    x 1.722120 0.000000 0.000000 
#    y 0.000000 1.699410 0.000000 
#    z 0.000000 0.000000 1.708740 
# 
# From -- ./inp_files/20313.got.cif
#   From: 2010.03.12/outbox.cif.g09.slc.cpg/sg51_11_cif.got.tgz:20313.got - 2010.04.16 13:43:02.
