data_PCOD8206610
_publ_section_title
;
Structure prediction by ZEFSAII (Michael W. Deem and Ramdas Pophale) SiO2 
 PCOD8206610
Probable space group: P M M A
;
_chemical_formula_sum "Si O2"
_cell_formula_units_Z 56
_cell_length_a 8.755207
_cell_length_b 18.814400
_cell_length_c 19.143534
_cell_angle_alpha 90.000000
_cell_angle_beta 90.000000
_cell_angle_gamma 90.000000
_cell_volume 3153.398855
_symmetry_space_group_name_H-M "P M M A"
_symmetry_group_IT_number 51
_symmetry_cell_setting 'orthorhombic'
loop_
_space_group_symop_operation_xyz
x,y,z
1/2-x,-y,z
1/2+x,-y,-z
-x,y,-z
-x,-y,-z
1/2+x,y,-z
1/2-x,y,z
x,-y,z
loop_
_atom_site_type_symbol
_atom_site_label
_atom_site_fract_x
_atom_site_fract_y
_atom_site_fract_z
Si Si1 0.570769 0.332798 0.212336
Si Si2 0.929342 0.851018 0.929035
Si Si3 0.431220 0.286881 0.574842
Si Si4 0.569785 0.210127 0.700428
Si Si5 0.070886 0.422102 0.656662
Si Si6 0.429652 0.686345 0.071538
Si Si7 0.568769 0.078975 0.788645
O O1 0.750000 0.315234 0.210499
O O2 0.480449 0.263855 0.238923
O O3 0.535777 0.398293 0.264175
O O4 0.508245 0.354516 0.136279
O O5 0.750000 0.860421 0.934047
O O6 0.974568 0.768760 0.920890
O O7 0.997479 0.893279 0.862675
O O8 0.000000 0.882887 0.000000
O O9 0.500000 0.270020 0.500000
O O10 0.250000 0.286215 0.571151
O O11 0.484460 0.225558 0.627845
O O12 0.494008 0.363344 0.602494
O O13 0.750000 0.217026 0.689002
O O14 0.521228 0.131204 0.725471
O O15 0.250000 0.427442 0.644834
O O16 0.995909 0.500000 0.643294
O O17 0.250000 0.672891 0.072365
O O18 0.500000 0.655329 0.000000
O O19 0.750000 0.078284 0.794855
O O20 0.504587 0.000000 0.773055
#
# Coordination Sequence:
#
# PCOD8206610 Si02
#       7
#     8   8   8   8   8   8   8
#     4  10  18  29  49  73  97 129 166 205 246 290
#     4   9  17  29  43  64  92 126 162 201 246 292
#     4  10  20  34  54  80 105 132 161 194 236 283
#     4  10  18  32  52  73  98 129 165 205 244 287
#     4   8  16  31  50  74 104 134 162 192 232 283
#     4  10  18  29  45  68  95 126 165 212 259 297
#     4   9  17  30  48  69  95 129 167 205 249 296
#
# _framework density 17.758617000000001
#
# number of rings (size 3 to 8) (size 9 to 14) (size 15 to 20)
#    0.000    2.571    1.429    2.571    0.000    1.143 
#    0.000    0.000    0.000   19.286    0.000    0.000 
#    0.000    0.000    0.000    0.000    0.000    0.000 
#
# Total GULP energy -694242.122660 kJ/mol
# GULP energy per Si atom -12397.180762 kJ/mol
# Density = 1.771820 g / cm^3
# Si number density = 17.758617 Si / 1000 Ang^3
#
#
#
# Elastic Constant Matrix: (Units=GPa)
#
#
# Indices 1 2 3 4 5 6 
#
# 1 48.8421 17.8760 32.0617 0.0000 0.0000 0.0000
# 2 17.8760 75.2528 44.3870 0.0000 0.0000 0.0000
# 3 32.0617 44.3870 150.7392 0.0000 0.0000 0.0000
# 4 0.0000 0.0000 0.0000 16.3251 0.0000 0.0000
# 5 0.0000 0.0000 0.0000 0.0000 31.5795 0.0000
# 6 0.0000 0.0000 0.0000 0.0000 0.0000 14.6750
#
#
#
# Elastic Compliance Matrix: (Units=1/GPa)
#
#
# Indices 1 2 3 4 5 6 
#
# 1 0.024463 -0.003318 -0.004226 0.000000 0.000000 0.000000
# 2 -0.003318 0.016532 -0.004162 0.000000 0.000000 0.000000
# 3 -0.004226 -0.004162 0.008758 0.000000 0.000000 0.000000
# 4 0.000000 0.000000 0.000000 0.061255 0.000000 0.000000
# 5 0.000000 0.000000 0.000000 0.000000 0.031666 0.000000
# 6 0.000000 0.000000 0.000000 0.000000 0.000000 0.068143
#
#
# Mechanical properties :
#
#
# Convention : Reuss Voigt Hill
#
# Bulk Modulus (GPa) = 37.96523 51.49817 44.73170
# Shear Modulus (GPa) = 20.57523 24.54988 22.56255
#
# Velocity S-wave (km/s) = 3.40752 3.72213 3.56829
# Velocity P-wave (km/s) = 6.07507 6.89451 6.49772
#
# Compressibility (1/GPa) = 0.02633989
#
# Stress axis : x y z
#
# Youngs Moduli (GPa) = 40.87845 60.48937 114.17559
#
# Poissons Ratio (x) = 0.20073 0.48251
# Poissons Ratio (y) = 0.13565 0.47522
# Poissons Ratio (z) = 0.17275 0.25177
#
# Static dielectric constant tensor:
#      x y z
#    x 3.083580 0.000000 0.000000 
#    y 0.000000 3.361520 0.000000 
#    z 0.000000 0.000000 3.431510 
# 
# 
# High freq. dielectric constant tensor:
#      x y z
#    x 1.671190 0.000000 0.000000 
#    y 0.000000 1.658800 0.000000 
#    z 0.000000 0.000000 1.690530 
# 
# From -- ./inp_files/28211.got.cif
#   From: 2010.03.12/outbox.cif.g09.slc.cpg/sg51_15_cif.got.tgz:28211.got - 2010.04.16 13:43:02.
