data_PCOD8206654
_publ_section_title
;
Structure prediction by ZEFSAII (Michael W. Deem and Ramdas Pophale) SiO2 
 PCOD8206654
Probable space group: P M M A
;
_chemical_formula_sum "Si O2"
_cell_formula_units_Z 64
_cell_length_a 9.205956
_cell_length_b 18.416761
_cell_length_c 22.090059
_cell_angle_alpha 90.000000
_cell_angle_beta 90.000000
_cell_angle_gamma 90.000000
_cell_volume 3745.234565
_symmetry_space_group_name_H-M "P M M A"
_symmetry_group_IT_number 51
_symmetry_cell_setting 'orthorhombic'
loop_
_space_group_symop_operation_xyz
x,y,z
1/2-x,-y,z
1/2+x,-y,-z
-x,y,-z
-x,-y,-z
1/2+x,y,-z
1/2-x,y,z
x,-y,z
loop_
_atom_site_type_symbol
_atom_site_label
_atom_site_fract_x
_atom_site_fract_y
_atom_site_fract_z
Si Si1 0.908633 0.725986 0.946107
Si Si2 0.089479 0.420279 0.233169
Si Si3 0.581727 0.917183 0.180986
Si Si4 0.908857 0.320116 0.163430
Si Si5 0.578742 0.417604 0.436344
Si Si6 0.415331 0.313763 0.344957
Si Si7 0.411460 0.207122 0.729959
Si Si8 0.911188 0.106149 0.943768
O O1 0.750000 0.688911 0.942886
O O2 0.891166 0.810237 0.959460
O O3 0.989280 0.720082 0.883161
O O4 0.000000 0.688224 0.000000
O O5 0.250000 0.420107 0.204130
O O6 0.045882 0.500000 0.256566
O O7 0.086074 0.366228 0.288415
O O8 0.976776 0.397511 0.181170
O O9 0.750000 0.897779 0.167099
O O10 0.525393 0.864561 0.235493
O O11 0.492798 0.906121 0.119508
O O12 0.564443 0.000000 0.203438
O O13 0.750000 0.332955 0.135027
O O14 0.898853 0.271174 0.222218
O O15 0.500000 0.410221 0.500000
O O16 0.750000 0.402873 0.443575
O O17 0.552675 0.500000 0.410922
O O18 0.511651 0.354526 0.394826
O O19 0.250000 0.300016 0.368047
O O20 0.485492 0.235792 0.324921
O O21 0.250000 0.190292 0.703810
O O22 0.750000 0.070739 0.939536
O O23 0.000000 0.070217 0.000000
#
# Coordination Sequence:
#
# PCOD8206654 Si02
#       8
#     8   8   8   8   8   8   8   8
#     4  10  19  30  46  66  86 110 143 184 230 281
#     4   9  18  31  46  66  93 123 154 190 231 276
#     4  10  20  34  51  69  94 127 160 199 248 299
#     4  10  18  29  47  67  88 114 145 188 234 279
#     4  10  20  33  50  74 107 145 180 211 243 281
#     4  10  19  31  50  73  99 132 169 206 242 277
#     4   9  18  32  48  68  94 123 160 200 241 287
#     4  10  20  32  48  67  90 119 154 195 239 293
#
# _framework density 17.088381999999999
#
# number of rings (size 3 to 8) (size 9 to 14) (size 15 to 20)
#    0.000    2.250    1.250    2.250    0.000    4.500 
#    0.000    0.000    0.000    0.375    0.000    0.000 
#    0.000    0.500    0.000    1.375    0.000    2.000 
#
# Total GULP energy -793082.477687 kJ/mol
# GULP energy per Si atom -12391.913714 kJ/mol
# Density = 1.704949 g / cm^3
# Si number density = 17.088382 Si / 1000 Ang^3
#
#
#
# Elastic Constant Matrix: (Units=GPa)
#
#
# Indices 1 2 3 4 5 6 
#
# 1 133.3735 36.7666 47.7724 0.0000 0.0000 0.0000
# 2 36.7666 72.9856 30.8753 0.0000 0.0000 0.0000
# 3 47.7724 30.8753 58.3239 0.0000 0.0000 0.0000
# 4 0.0000 0.0000 0.0000 0.1645 0.0000 0.0000
# 5 0.0000 0.0000 0.0000 0.0000 28.5918 0.0000
# 6 0.0000 0.0000 0.0000 0.0000 0.0000 14.0313
#
#
#
# Elastic Compliance Matrix: (Units=1/GPa)
#
#
# Indices 1 2 3 4 5 6 
#
# 1 0.010879 -0.002204 -0.007744 0.000000 0.000000 0.000000
# 2 -0.002204 0.018102 -0.007777 0.000000 0.000000 0.000000
# 3 -0.007744 -0.007777 0.027606 0.000000 0.000000 0.000000
# 4 0.000000 0.000000 0.000000 6.080217 0.000000 0.000000
# 5 0.000000 0.000000 0.000000 0.000000 0.034975 0.000000
# 6 0.000000 0.000000 0.000000 0.000000 0.000000 0.071269
#
#
# Mechanical properties :
#
#
# Convention : Reuss Voigt Hill
#
# Bulk Modulus (GPa) = 47.31351 55.05684 51.18517
# Shear Modulus (GPa) = 0.79548 18.50875 9.65212
#
# Velocity S-wave (km/s) = 0.68302 3.29465 2.37920
# Velocity P-wave (km/s) = 5.32632 6.83826 6.12909
#
# Compressibility (1/GPa) = 0.02113561
#
# Stress axis : x y z
#
# Youngs Moduli (GPa) = 91.91812 55.24328 36.22441
#
# Poissons Ratio (x) = 0.12178 0.28052
# Poissons Ratio (y) = 0.20263 0.28172
# Poissons Ratio (z) = 0.71182 0.42963
#
# Static dielectric constant tensor:
#      x y z
#    x 3.734170 0.000000 0.000000 
#    y 0.000000 3.175510 0.000000 
#    z 0.000000 0.000000 2.959360 
# 
# 
# High freq. dielectric constant tensor:
#      x y z
#    x 1.677900 0.000000 0.000000 
#    y 0.000000 1.636570 0.000000 
#    z 0.000000 0.000000 1.624260 
# 
# From -- ./inp_files/32586.got.cif
#   From: 2010.03.12/outbox.cif.g09.slc.cpg/sg51_17_cif.got.tgz:32586.got - 2010.04.16 13:43:02.
