data_PCOD8206762
_publ_section_title
;
Structure prediction by ZEFSAII (Michael W. Deem and Ramdas Pophale) SiO2 
 PCOD8206762
Probable space group: P M M A
;
_chemical_formula_sum "Si O2"
_cell_formula_units_Z 64
_cell_length_a 30.317779
_cell_length_b 8.546777
_cell_length_c 14.793421
_cell_angle_alpha 90.000000
_cell_angle_beta 90.000000
_cell_angle_gamma 90.000000
_cell_volume 3833.260839
_symmetry_space_group_name_H-M "P M M A"
_symmetry_group_IT_number 51
_symmetry_cell_setting 'orthorhombic'
loop_
_space_group_symop_operation_xyz
x,y,z
1/2-x,-y,z
1/2+x,-y,-z
-x,y,-z
-x,-y,-z
1/2+x,y,-z
1/2-x,y,z
x,-y,z
loop_
_atom_site_type_symbol
_atom_site_label
_atom_site_fract_x
_atom_site_fract_y
_atom_site_fract_z
Si Si1 0.298846 0.319510 0.839397
Si Si2 0.959002 0.683831 0.941018
Si Si3 0.888780 0.680682 0.082630
Si Si4 0.116245 0.682174 0.588100
Si Si5 0.974536 0.318885 0.745050
Si Si6 0.543415 0.685514 0.551113
Si Si7 0.933226 0.178530 0.250307
Si Si8 0.799691 0.182439 0.354010
O O1 0.250000 0.276781 0.877828
O O2 0.300595 0.500000 0.809541
O O3 0.335883 0.286453 0.916808
O O4 0.309963 0.219539 0.750814
O O5 0.967464 0.500000 0.931119
O O6 0.958213 0.759331 0.839787
O O7 0.911444 0.719981 0.986329
O O8 0.000000 0.753522 0.000000
O O9 0.898373 0.500000 0.108253
O O10 0.911437 0.793571 0.153893
O O11 0.109071 0.500000 0.608245
O O12 0.088087 0.734171 0.500658
O O13 0.102120 0.785765 0.672962
O O14 0.168065 0.722961 0.577575
O O15 0.962697 0.500000 0.747986
O O16 0.952929 0.245750 0.653638
O O17 0.026655 0.296731 0.735658
O O18 0.500000 0.754129 0.500000
O O19 0.538077 0.500000 0.556538
O O20 0.949391 0.000000 0.256494
O O21 0.750000 0.234902 0.377747
O O22 0.806548 0.000000 0.370065
#
# Coordination Sequence:
#
# PCOD8206762 Si02
#       8
#     8   8   8   8   8   8   8   8
#     4   9  17  28  44  65  89 120 155 185 217 264
#     4   9  16  26  46  71  88 114 157 192 223 267
#     4  10  18  30  46  65  90 123 156 187 222 269
#     4  11  20  32  49  68  91 125 164 195 225 273
#     4  10  18  33  50  64  90 123 159 196 228 272
#     4   9  17  29  48  70  89 118 159 197 231 268
#     4  12  22  29  42  67  96 124 155 190 233 273
#     4  10  20  32  46  68  98 124 149 187 235 281
#
# _framework density 16.695968000000001
#
# number of rings (size 3 to 8) (size 9 to 14) (size 15 to 20)
#    0.000    2.000    3.750    1.875    0.000    0.750 
#    0.000    3.125    0.000    0.000    0.000    0.875 
#    0.000    5.000    0.000    3.375    0.000    3.125 
#
# Total GULP energy -793168.140905 kJ/mol
# GULP energy per Si atom -12393.252202 kJ/mol
# Density = 1.665797 g / cm^3
# Si number density = 16.695968 Si / 1000 Ang^3
#
#
#
# Elastic Constant Matrix: (Units=GPa)
#
#
# Indices 1 2 3 4 5 6 
#
# 1 127.5957 12.8288 63.3053 0.0000 0.0000 0.0000
# 2 12.8288 23.4578 20.0514 0.0000 0.0000 0.0000
# 3 63.3053 20.0514 123.5727 0.0000 0.0000 0.0000
# 4 0.0000 0.0000 0.0000 2.4488 0.0000 0.0000
# 5 0.0000 0.0000 0.0000 0.0000 23.6892 0.0000
# 6 0.0000 0.0000 0.0000 0.0000 0.0000 14.1362
#
#
#
# Elastic Compliance Matrix: (Units=1/GPa)
#
#
# Indices 1 2 3 4 5 6 
#
# 1 0.010544 -0.001334 -0.005185 0.000000 0.000000 0.000000
# 2 -0.001334 0.049663 -0.007375 0.000000 0.000000 0.000000
# 3 -0.005185 -0.007375 0.011945 0.000000 0.000000 0.000000
# 4 0.000000 0.000000 0.000000 0.408366 0.000000 0.000000
# 5 0.000000 0.000000 0.000000 0.000000 0.042213 0.000000
# 6 0.000000 0.000000 0.000000 0.000000 0.000000 0.070741
#
#
# Mechanical properties :
#
#
# Convention : Reuss Voigt Hill
#
# Bulk Modulus (GPa) = 22.54078 51.88860 37.21469
# Shear Modulus (GPa) = 7.86103 19.95089 13.90596
#
# Velocity S-wave (km/s) = 2.17222 3.46056 2.88912
# Velocity P-wave (km/s) = 4.45213 6.86391 5.78510
#
# Compressibility (1/GPa) = 0.04436403
#
# Stress axis : x y z
#
# Youngs Moduli (GPa) = 94.84141 20.13551 83.71433
#
# Poissons Ratio (x) = 0.02687 0.43406
# Poissons Ratio (y) = 0.12654 0.61740
# Poissons Ratio (z) = 0.49176 0.14850
#
# Static dielectric constant tensor:
#      x y z
#    x 3.295750 0.000000 0.000000 
#    y 0.000000 2.857200 0.000000 
#    z 0.000000 0.000000 3.244170 
# 
# 
# High freq. dielectric constant tensor:
#      x y z
#    x 1.637600 0.000000 0.000000 
#    y 0.000000 1.619370 0.000000 
#    z 0.000000 0.000000 1.615930 
# 
# From -- ./inp_files/26597.got.cif
#   From: 2010.03.12/outbox.cif.g09.slc.cpg/sg51_14_cif.got.tgz:26597.got - 2010.04.16 13:43:02.
