data_PCOD8206273
_publ_section_title
;
Structure prediction by ZEFSAII (Michael W. Deem and Ramdas Pophale) SiO2 
 PCOD8206273
Probable space group: P M M A
;
_chemical_formula_sum "Si O2"
_cell_formula_units_Z 56
_cell_length_a 8.998586
_cell_length_b 29.819419
_cell_length_c 13.460235
_cell_angle_alpha 90.000000
_cell_angle_beta 90.000000
_cell_angle_gamma 90.000000
_cell_volume 3611.819940
_symmetry_space_group_name_H-M "P M M A"
_symmetry_group_IT_number 51
_symmetry_cell_setting 'orthorhombic'
loop_
_space_group_symop_operation_xyz
x,y,z
1/2-x,-y,z
1/2+x,-y,-z
-x,y,-z
-x,-y,-z
1/2+x,y,-z
1/2-x,y,z
x,-y,z
loop_
_atom_site_type_symbol
_atom_site_label
_atom_site_fract_x
_atom_site_fract_y
_atom_site_fract_z
Si Si1 0.075723 0.229691 0.606288
Si Si2 0.423130 0.597454 0.401107
Si Si3 0.423076 0.551219 0.198622
Si Si4 0.925967 0.143403 0.607890
Si Si5 0.421618 0.676765 0.698369
Si Si6 0.423142 0.047477 0.394747
Si Si7 0.576322 0.631290 0.099388
O O1 0.250000 0.221990 0.589925
O O2 0.043524 0.271297 0.678726
O O3 0.000000 0.238608 0.500000
O O4 0.003530 0.185951 0.661530
O O5 0.500000 0.578447 0.500000
O O6 0.250000 0.600916 0.421311
O O7 0.462205 0.563526 0.312176
O O8 0.481996 0.647123 0.376652
O O9 0.250000 0.559786 0.177875
O O10 0.468438 0.500000 0.179661
O O11 0.516628 0.581617 0.123628
O O12 0.750000 0.151620 0.601036
O O13 0.962898 0.094802 0.660874
O O14 0.000000 0.142329 0.500000
O O15 0.250000 0.665155 0.678131
O O16 0.464383 0.665590 0.812062
O O17 0.500000 0.046711 0.500000
O O18 0.250000 0.048605 0.417416
O O19 0.463718 0.000000 0.337677
O O20 0.750000 0.627939 0.080797
O O21 0.500000 0.650013 0.000000
#
# Coordination Sequence:
#
# PCOD8206273 Si02
#       7
#     8   8   8   8   8   8   8
#     4  10  18  27  39  56  79 106 134 165 200 235
#     4  10  19  30  46  66  88 114 141 169 199 232
#     4   9  19  35  51  68  90 114 140 167 195 231
#     4   9  15  22  32  47  68  95 128 165 202 237
#     4   9  19  33  47  63  83 107 136 168 200 239
#     4   8  13  20  29  41  59  86 122 163 202 235
#     4  10  20  35  53  71  88 106 131 163 201 242
#
# _framework density 15.504649000000001
#
# number of rings (size 3 to 8) (size 9 to 14) (size 15 to 20)
#    0.000    2.714    0.000    3.000    0.000    4.857 
#    0.000    0.000    0.000    0.000    0.000    0.000 
#    0.000    0.000    0.000    0.000    0.000    0.714 
#
# Total GULP energy -693825.384874 kJ/mol
# GULP energy per Si atom -12389.739016 kJ/mol
# Density = 1.546936 g / cm^3
# Si number density = 15.504649 Si / 1000 Ang^3
#
#
#
# Elastic Constant Matrix: (Units=GPa)
#
#
# Indices 1 2 3 4 5 6 
#
# 1 63.0089 36.8402 25.0691 0.0000 0.0000 0.0000
# 2 36.8402 128.8045 26.1942 0.0000 0.0000 0.0000
# 3 25.0691 26.1942 56.6557 0.0000 0.0000 0.0000
# 4 0.0000 0.0000 0.0000 4.7237 0.0000 0.0000
# 5 0.0000 0.0000 0.0000 0.0000 20.4729 0.0000
# 6 0.0000 0.0000 0.0000 0.0000 0.0000 20.2161
#
#
#
# Elastic Compliance Matrix: (Units=1/GPa)
#
#
# Indices 1 2 3 4 5 6 
#
# 1 0.021527 -0.004658 -0.007372 0.000000 0.000000 0.000000
# 2 -0.004658 0.009577 -0.002367 0.000000 0.000000 0.000000
# 3 -0.007372 -0.002367 0.022007 0.000000 0.000000 0.000000
# 4 0.000000 0.000000 0.000000 0.211698 0.000000 0.000000
# 5 0.000000 0.000000 0.000000 0.000000 0.048845 0.000000
# 6 0.000000 0.000000 0.000000 0.000000 0.000000 0.049465
#
#
# Mechanical properties :
#
#
# Convention : Reuss Voigt Hill
#
# Bulk Modulus (GPa) = 41.12215 47.18624 44.15420
# Shear Modulus (GPa) = 12.49939 19.77358 16.13648
#
# Velocity S-wave (km/s) = 2.84239 3.57505 3.22957
# Velocity P-wave (km/s) = 6.11165 6.89500 6.51511
#
# Compressibility (1/GPa) = 0.02431779
#
# Stress axis : x y z
#
# Youngs Moduli (GPa) = 46.45288 104.41356 45.44071
#
# Poissons Ratio (x) = 0.48635 0.33498
# Poissons Ratio (y) = 0.21638 0.10755
# Poissons Ratio (z) = 0.34244 0.24714
#
# Static dielectric constant tensor:
#      x y z
#    x 2.992720 0.000000 0.000000 
#    y 0.000000 3.651580 0.000000 
#    z 0.000000 0.000000 2.621680 
# 
# 
# High freq. dielectric constant tensor:
#      x y z
#    x 1.608710 0.000000 0.000000 
#    y 0.000000 1.606370 0.000000 
#    z 0.000000 0.000000 1.536000 
# 
# From -- ./inp_files/22532.got.cif
#   From: 2010.03.12/outbox.cif.g09.slc.cpg/sg51_12_cif.got.tgz:22532.got - 2010.04.16 13:43:02.
