data_PCOD8206887
_publ_section_title
;
Structure prediction by ZEFSAII (Michael W. Deem and Ramdas Pophale) SiO2 
 PCOD8206887
Probable space group: P M M A
;
_chemical_formula_sum "Si O2"
_cell_formula_units_Z 44
_cell_length_a 8.737649
_cell_length_b 28.576748
_cell_length_c 9.828958
_cell_angle_alpha 90.000000
_cell_angle_beta 90.000000
_cell_angle_gamma 90.000000
_cell_volume 2454.227844
_symmetry_space_group_name_H-M "P M M A"
_symmetry_group_IT_number 51
_symmetry_cell_setting 'orthorhombic'
loop_
_space_group_symop_operation_xyz
x,y,z
1/2-x,-y,z
1/2+x,-y,-z
-x,y,-z
-x,-y,-z
1/2+x,y,-z
1/2-x,y,z
x,-y,z
loop_
_atom_site_type_symbol
_atom_site_label
_atom_site_fract_x
_atom_site_fract_y
_atom_site_fract_z
Si Si1 0.067586 0.094564 0.149423
Si Si2 0.930990 0.369832 0.350645
Si Si3 0.567219 0.000000 0.150483
Si Si4 0.929425 0.277459 0.647976
Si Si5 0.069416 0.447288 0.858285
Si Si6 0.571183 0.825426 0.647407
O O1 0.250000 0.090824 0.139743
O O2 0.010655 0.136880 0.244535
O O3 0.998604 0.047312 0.218736
O O4 0.000000 0.103193 0.000000
O O5 0.750000 0.368293 0.361169
O O6 0.989235 0.413241 0.260607
O O7 0.000000 0.376158 0.500000
O O8 0.990129 0.321611 0.277741
O O9 0.750000 0.000000 0.151630
O O10 0.500000 0.000000 0.000000
O O11 0.750000 0.287195 0.641213
O O12 0.966007 0.226205 0.710839
O O13 0.000000 0.276368 0.500000
O O14 0.250000 0.444977 0.871849
O O15 0.013808 0.500000 0.824098
O O16 0.000000 0.429818 0.000000
O O17 0.500000 0.834041 0.500000
O O18 0.750000 0.831131 0.625380
#
# Coordination Sequence:
#
# PCOD8206887 Si02
#       6
#     8   8   4   8   8   8
#     4  10  19  33  51  73  98 126 160 199 239 282
#     4  10  19  31  49  74  99 124 158 199 239 281
#     4  10  18  30  49  72  95 126 162 196 238 286
#     4   9  16  29  48  70  96 127 160 195 236 283
#     4   9  19  35  52  70  95 127 162 198 238 286
#     4   9  19  33  51  73  98 127 161 198 238 284
#
# _framework density 17.928245
#
# number of rings (size 3 to 8) (size 9 to 14) (size 15 to 20)
#    0.000    2.545    0.000    4.636    0.000    4.000 
#    0.000    1.364    0.000    4.364    0.000    0.000 
#    0.000    0.000    0.000    0.000    0.000    0.000 
#
# Total GULP energy -545256.889571 kJ/mol
# GULP energy per Si atom -12392.202036 kJ/mol
# Density = 1.788744 g / cm^3
# Si number density = 17.928245 Si / 1000 Ang^3
#
#
#
# Elastic Constant Matrix: (Units=GPa)
#
#
# Indices 1 2 3 4 5 6 
#
# 1 72.4549 53.1268 30.9607 0.0000 0.0000 0.0000
# 2 53.1268 184.1864 80.2490 0.0000 0.0000 0.0000
# 3 30.9607 80.2490 78.3508 0.0000 0.0000 0.0000
# 4 0.0000 0.0000 0.0000 24.5137 0.0000 0.0000
# 5 0.0000 0.0000 0.0000 0.0000 22.8236 0.0000
# 6 0.0000 0.0000 0.0000 0.0000 0.0000 27.7907
#
#
#
# Elastic Compliance Matrix: (Units=1/GPa)
#
#
# Indices 1 2 3 4 5 6 
#
# 1 0.017946 -0.003768 -0.003232 0.000000 0.000000 0.000000
# 2 -0.003768 0.010596 -0.009364 0.000000 0.000000 0.000000
# 3 -0.003232 -0.009364 0.023631 0.000000 0.000000 0.000000
# 4 0.000000 0.000000 0.000000 0.040794 0.000000 0.000000
# 5 0.000000 0.000000 0.000000 0.000000 0.043814 0.000000
# 6 0.000000 0.000000 0.000000 0.000000 0.000000 0.035983
#
#
# Mechanical properties :
#
#
# Convention : Reuss Voigt Hill
#
# Bulk Modulus (GPa) = 51.42716 73.74055 62.58385
# Shear Modulus (GPa) = 23.58803 26.40262 24.99533
#
# Velocity S-wave (km/s) = 3.63118 3.84172 3.73793
# Velocity P-wave (km/s) = 6.80646 7.80376 7.32211
#
# Compressibility (1/GPa) = 0.01944498
#
# Stress axis : x y z
#
# Youngs Moduli (GPa) = 55.72378 94.37702 42.31804
#
# Poissons Ratio (x) = 0.35563 0.13677
# Poissons Ratio (y) = 0.20997 0.39625
# Poissons Ratio (z) = 0.18009 0.88370
#
# Static dielectric constant tensor:
#      x y z
#    x 3.346690 0.000000 0.000000 
#    y 0.000000 4.611070 0.000000 
#    z 0.000000 0.000000 3.102170 
# 
# 
# High freq. dielectric constant tensor:
#      x y z
#    x 1.702340 0.000000 0.000000 
#    y 0.000000 1.719380 0.000000 
#    z 0.000000 0.000000 1.650790 
# 
# From -- ./inp_files/5799.got.cif
#   From: 2010.03.12/outbox.cif.g09.slc.cpg/sg51_3_cif.got.tgz:5799.got - 2010.04.16 13:43:02.
