data_PCOD8206144
_publ_section_title
;
Structure prediction by ZEFSAII (Michael W. Deem and Ramdas Pophale) SiO2 
 PCOD8206144
Probable space group: P M M A
;
_chemical_formula_sum "Si O2"
_cell_formula_units_Z 64
_cell_length_a 8.802895
_cell_length_b 22.005540
_cell_length_c 18.885360
_cell_angle_alpha 90.000000
_cell_angle_beta 90.000000
_cell_angle_gamma 90.000000
_cell_volume 3658.329507
_symmetry_space_group_name_H-M "P M M A"
_symmetry_group_IT_number 51
_symmetry_cell_setting 'orthorhombic'
loop_
_space_group_symop_operation_xyz
x,y,z
1/2-x,-y,z
1/2+x,-y,-z
-x,y,-z
-x,-y,-z
1/2+x,y,-z
1/2-x,y,z
x,-y,z
loop_
_atom_site_type_symbol
_atom_site_label
_atom_site_fract_x
_atom_site_fract_y
_atom_site_fract_z
Si Si1 0.425115 0.431510 0.853378
Si Si2 0.569868 0.068847 0.574994
Si Si3 0.430139 0.738898 0.214786
Si Si4 0.927515 0.171469 0.676826
Si Si5 0.919476 0.751269 0.431652
Si Si6 0.419520 0.391928 0.570097
Si Si7 0.569926 0.679693 0.926678
Si Si8 0.569670 0.385244 0.717078
O O1 0.250000 0.411512 0.847786
O O2 0.440508 0.500000 0.882603
O O3 0.510114 0.387367 0.908228
O O4 0.500914 0.429637 0.776034
O O5 0.500000 0.089417 0.500000
O O6 0.750000 0.075397 0.568675
O O7 0.502931 0.110877 0.639638
O O8 0.521263 0.000000 0.593081
O O9 0.250000 0.737661 0.218176
O O10 0.486149 0.805558 0.245018
O O11 0.483348 0.727802 0.133988
O O12 0.488606 0.682999 0.263835
O O13 0.750000 0.160870 0.679585
O O14 0.970061 0.230480 0.631630
O O15 0.750000 0.778882 0.422731
O O16 0.910202 0.679793 0.438374
O O17 0.000000 0.780213 0.500000
O O18 0.500000 0.419653 0.500000
O O19 0.250000 0.419416 0.575748
O O20 0.512315 0.407935 0.640724
O O21 0.750000 0.676671 0.932812
O O22 0.500000 0.703060 0.000000
O O23 0.750000 0.389907 0.718753
#
# Coordination Sequence:
#
# PCOD8206144 Si02
#       8
#     8   8   8   8   8   8   8   8
#     4  10  21  36  54  76 100 127 160 194 228 270
#     4   9  18  30  43  60  86 125 169 209 247 284
#     4   8  16  29  46  68  91 118 150 185 231 282
#     4  10  17  28  45  62  87 119 155 200 241 283
#     4  10  19  27  37  58  86 116 150 189 232 278
#     4  10  19  29  42  62  89 120 153 192 237 286
#     4  10  20  35  54  76 101 129 156 185 228 282
#     4  10  18  31  50  69  94 123 155 195 241 290
#
# _framework density 17.494323999999999
#
# number of rings (size 3 to 8) (size 9 to 14) (size 15 to 20)
#    0.000    2.375    1.250    3.000    0.000    3.750 
#    0.000    0.625    0.000    0.375    0.000    0.000 
#    0.000    0.500    0.000    0.375    0.000    0.750 
#
# Total GULP energy -792909.198323 kJ/mol
# GULP energy per Si atom -12389.206224 kJ/mol
# Density = 1.745451 g / cm^3
# Si number density = 17.494324 Si / 1000 Ang^3
#
#
#
# Elastic Constant Matrix: (Units=GPa)
#
#
# Indices 1 2 3 4 5 6 
#
# 1 49.0276 18.1301 23.9363 0.0000 0.0000 0.0000
# 2 18.1301 68.5312 40.1089 0.0000 0.0000 0.0000
# 3 23.9363 40.1089 125.5109 0.0000 0.0000 0.0000
# 4 0.0000 0.0000 0.0000 20.1610 0.0000 0.0000
# 5 0.0000 0.0000 0.0000 0.0000 28.2523 0.0000
# 6 0.0000 0.0000 0.0000 0.0000 0.0000 13.8199
#
#
#
# Elastic Compliance Matrix: (Units=1/GPa)
#
#
# Indices 1 2 3 4 5 6 
#
# 1 0.023534 -0.004427 -0.003073 0.000000 0.000000 0.000000
# 2 -0.004427 0.018782 -0.005158 0.000000 0.000000 0.000000
# 3 -0.003073 -0.005158 0.010202 0.000000 0.000000 0.000000
# 4 0.000000 0.000000 0.000000 0.049601 0.000000 0.000000
# 5 0.000000 0.000000 0.000000 0.000000 0.035395 0.000000
# 6 0.000000 0.000000 0.000000 0.000000 0.000000 0.072360
#
#
# Mechanical properties :
#
#
# Convention : Reuss Voigt Hill
#
# Bulk Modulus (GPa) = 36.76321 45.26893 41.01607
# Shear Modulus (GPa) = 20.47022 23.17294 21.82158
#
# Velocity S-wave (km/s) = 3.42439 3.64345 3.53562
# Velocity P-wave (km/s) = 6.05766 6.60547 6.33749
#
# Compressibility (1/GPa) = 0.02720111
#
# Stress axis : x y z
#
# Youngs Moduli (GPa) = 42.49099 53.24324 98.02204
#
# Poissons Ratio (x) = 0.23572 0.30127
# Poissons Ratio (y) = 0.18812 0.50556
# Poissons Ratio (z) = 0.13059 0.27461
#
# Static dielectric constant tensor:
#      x y z
#    x 3.271820 0.000000 0.000000 
#    y 0.000000 3.175870 0.000000 
#    z 0.000000 0.000000 3.455810 
# 
# 
# High freq. dielectric constant tensor:
#      x y z
#    x 1.674330 0.000000 0.000000 
#    y 0.000000 1.640260 0.000000 
#    z 0.000000 0.000000 1.665620 
# 
# From -- ./inp_files/28634.got.cif
#   From: 2010.03.12/outbox.cif.g09.slc.cpg/sg51_15_cif.got.tgz:28634.got - 2010.04.16 13:43:02.
