data_PCOD8206125
_publ_section_title
;
Structure prediction by ZEFSAII (Michael W. Deem and Ramdas Pophale) SiO2 
 PCOD8206125
Probable space group: P M M A
;
_chemical_formula_sum "Si O2"
_cell_formula_units_Z 64
_cell_length_a 18.012073
_cell_length_b 9.146431
_cell_length_c 21.577695
_cell_angle_alpha 90.000000
_cell_angle_beta 90.000000
_cell_angle_gamma 90.000000
_cell_volume 3554.842886
_symmetry_space_group_name_H-M "P M M A"
_symmetry_group_IT_number 51
_symmetry_cell_setting 'orthorhombic'
loop_
_space_group_symop_operation_xyz
x,y,z
1/2-x,-y,z
1/2+x,-y,-z
-x,y,-z
-x,-y,-z
1/2+x,y,-z
1/2-x,y,z
x,-y,z
loop_
_atom_site_type_symbol
_atom_site_label
_atom_site_fract_x
_atom_site_fract_y
_atom_site_fract_z
Si Si1 0.979419 0.171106 0.431781
Si Si2 0.049052 0.669478 0.320297
Si Si3 0.163481 0.832826 0.241237
Si Si4 0.905436 0.831329 0.886344
Si Si5 0.101541 0.329674 0.748900
Si Si6 0.588032 0.334730 0.006332
Si Si7 0.166963 0.167868 0.636846
Si Si8 0.921502 0.829561 0.127787
O O1 0.893207 0.208738 0.416136
O O2 0.000000 0.228244 0.500000
O O3 0.034024 0.252437 0.385146
O O4 0.995260 0.000000 0.425767
O O5 0.060012 0.500000 0.333868
O O6 0.123967 0.732995 0.291785
O O7 0.982581 0.699378 0.272462
O O8 0.250000 0.814937 0.252507
O O9 0.143542 0.780951 0.171947
O O10 0.136916 0.000000 0.249841
O O11 0.990800 0.800886 0.869950
O O12 0.892830 0.000000 0.903424
O O13 0.877386 0.737435 0.944814
O O14 0.117948 0.500000 0.758684
O O15 0.157116 0.268043 0.697169
O O16 0.116041 0.245694 0.812883
O O17 0.617315 0.500000 0.012736
O O18 0.613358 0.243303 0.066376
O O19 0.500000 0.329683 0.000000
O O20 0.250000 0.193548 0.610067
O O21 0.155537 0.000000 0.657393
O O22 0.901845 0.000000 0.127732
#
# Coordination Sequence:
#
# PCOD8206125 Si02
#       8
#     8   8   8   8   8   8   8   8
#     4   9  18  34  57  82 108 140 177 214 252 297
#     4  10  20  33  51  75 105 136 169 212 258 307
#     4  10  20  34  52  73  99 135 178 221 264 311
#     4   9  17  29  45  66  93 126 166 213 262 311
#     4  10  19  30  48  74 102 133 167 207 257 307
#     4   9  17  27  41  64  94 125 158 204 259 313
#     4   9  18  33  53  77 105 136 171 210 252 301
#     4  10  17  27  46  70  96 127 164 211 261 308
#
# _framework density 18.003608
#
# number of rings (size 3 to 8) (size 9 to 14) (size 15 to 20)
#    0.000    2.500    1.250    1.500    0.000    4.250 
#    0.000    0.625    0.000    3.000    0.000    1.750 
#    0.000    0.000    0.000    0.000    0.000    0.000 
#
# Total GULP energy -793703.514736 kJ/mol
# GULP energy per Si atom -12401.617418 kJ/mol
# Density = 1.796263 g / cm^3
# Si number density = 18.003608 Si / 1000 Ang^3
#
#
#
# Elastic Constant Matrix: (Units=GPa)
#
#
# Indices 1 2 3 4 5 6 
#
# 1 63.3079 30.1254 44.8775 0.0000 0.0000 0.0000
# 2 30.1254 93.1139 70.1349 0.0000 0.0000 0.0000
# 3 44.8775 70.1349 151.5775 0.0000 0.0000 0.0000
# 4 0.0000 0.0000 0.0000 23.8827 0.0000 0.0000
# 5 0.0000 0.0000 0.0000 0.0000 18.6092 0.0000
# 6 0.0000 0.0000 0.0000 0.0000 0.0000 15.1973
#
#
#
# Elastic Compliance Matrix: (Units=1/GPa)
#
#
# Indices 1 2 3 4 5 6 
#
# 1 0.020586 -0.003177 -0.004625 0.000000 0.000000 0.000000
# 2 -0.003177 0.016975 -0.006914 0.000000 0.000000 0.000000
# 3 -0.004625 -0.006914 0.011166 0.000000 0.000000 0.000000
# 4 0.000000 0.000000 0.000000 0.041871 0.000000 0.000000
# 5 0.000000 0.000000 0.000000 0.000000 0.053737 0.000000
# 6 0.000000 0.000000 0.000000 0.000000 0.000000 0.065801
#
#
# Mechanical properties :
#
#
# Convention : Reuss Voigt Hill
#
# Bulk Modulus (GPa) = 51.82518 66.47498 59.15008
# Shear Modulus (GPa) = 20.32532 22.39528 21.36030
#
# Velocity S-wave (km/s) = 3.36364 3.53077 3.44822
# Velocity P-wave (km/s) = 6.62827 7.32291 6.98423
#
# Compressibility (1/GPa) = 0.01929564
#
# Stress axis : x y z
#
# Youngs Moduli (GPa) = 48.57662 58.91085 89.56042
#
# Poissons Ratio (x) = 0.18713 0.41423
# Poissons Ratio (y) = 0.15431 0.61920
# Poissons Ratio (z) = 0.22467 0.40730
#
# Static dielectric constant tensor:
#      x y z
#    x 3.018370 0.000000 0.000000 
#    y 0.000000 3.370140 0.000000 
#    z 0.000000 0.000000 3.323140 
# 
# 
# High freq. dielectric constant tensor:
#      x y z
#    x 1.662910 0.000000 0.000000 
#    y 0.000000 1.701790 0.000000 
#    z 0.000000 0.000000 1.695210 
# 
# From -- ./inp_files/33836.got.cif
#   From: 2010.03.12/outbox.cif.g09.slc.cpg/sg51_17_cif.got.tgz:33836.got - 2010.04.16 13:43:02.
