data_PCOD8206122
_publ_section_title
;
Structure prediction by ZEFSAII (Michael W. Deem and Ramdas Pophale) SiO2 
 PCOD8206122
Probable space group: P M M A
;
_chemical_formula_sum "Si O2"
_cell_formula_units_Z 64
_cell_length_a 29.322338
_cell_length_b 9.353649
_cell_length_c 14.910372
_cell_angle_alpha 90.000000
_cell_angle_beta 90.000000
_cell_angle_gamma 90.000000
_cell_volume 4089.480514
_symmetry_space_group_name_H-M "P M M A"
_symmetry_group_IT_number 51
_symmetry_cell_setting 'orthorhombic'
loop_
_space_group_symop_operation_xyz
x,y,z
1/2-x,-y,z
1/2+x,-y,-z
-x,y,-z
-x,-y,-z
1/2+x,y,-z
1/2-x,y,z
x,-y,z
loop_
_atom_site_type_symbol
_atom_site_label
_atom_site_fract_x
_atom_site_fract_y
_atom_site_fract_z
Si Si1 0.885524 0.835317 0.194909
Si Si2 0.387054 0.831543 0.462720
Si Si3 0.800917 0.838862 0.305607
Si Si4 0.541140 0.167497 0.687862
Si Si5 0.802157 0.668506 0.483603
Si Si6 0.968201 0.666462 0.866455
Si Si7 0.434571 0.334208 0.943232
Si Si8 0.557844 0.169241 0.364577
O O1 0.833217 0.808123 0.221480
O O2 0.893675 0.751893 0.102642
O O3 0.917167 0.774992 0.275173
O O4 0.896573 0.000000 0.177299
O O5 0.416075 0.795913 0.374472
O O6 0.338841 0.748199 0.453035
O O7 0.415819 0.771840 0.547912
O O8 0.377258 0.000000 0.471080
O O9 0.750000 0.823600 0.268447
O O10 0.810604 0.726678 0.383791
O O11 0.810267 0.000000 0.343109
O O12 0.549196 0.244719 0.782069
O O13 0.494697 0.221475 0.638929
O O14 0.537138 0.000000 0.707230
O O15 0.750000 0.702987 0.514360
O O16 0.811258 0.500000 0.484979
O O17 0.967004 0.500000 0.841829
O O18 0.018731 0.714131 0.895216
O O19 0.935263 0.699515 0.950835
O O20 0.426282 0.500000 0.926970
O O21 0.559988 0.000000 0.370481
#
# Coordination Sequence:
#
# PCOD8206122 Si02
#       8
#     8   8   8   8   8   8   8   8
#     4  10  17  27  46  69  91 120 155 188 225 268
#     4  10  19  32  48  66  91 126 159 187 225 274
#     4   9  17  30  47  66  91 122 153 185 225 274
#     4  10  19  30  47  68  92 123 158 193 227 263
#     4  10  20  32  46  66  91 118 152 195 235 267
#     4   9  18  32  46  62  89 121 153 188 228 269
#     4   9  18  31  46  64  88 121 153 184 226 272
#     4   9  16  28  43  65  95 124 154 185 219 262
#
# _framework density 15.649908999999999
#
# number of rings (size 3 to 8) (size 9 to 14) (size 15 to 20)
#    0.000    2.500    2.500    1.500    0.000    3.750 
#    0.000    1.875    0.000    1.500    0.000    0.875 
#    0.000    3.000    0.000    0.000    0.000    0.000 
#
# Total GULP energy -793436.243789 kJ/mol
# GULP energy per Si atom -12397.441309 kJ/mol
# Density = 1.561429 g / cm^3
# Si number density = 15.649909 Si / 1000 Ang^3
#
#
#
# Elastic Constant Matrix: (Units=GPa)
#
#
# Indices 1 2 3 4 5 6 
#
# 1 109.5996 47.5028 52.8172 0.0000 0.0000 0.0000
# 2 47.5028 54.1294 43.5806 0.0000 0.0000 0.0000
# 3 52.8172 43.5806 92.8864 0.0000 0.0000 0.0000
# 4 0.0000 0.0000 0.0000 23.3557 0.0000 0.0000
# 5 0.0000 0.0000 0.0000 0.0000 21.2140 0.0000
# 6 0.0000 0.0000 0.0000 0.0000 0.0000 19.7306
#
#
#
# Elastic Compliance Matrix: (Units=1/GPa)
#
#
# Indices 1 2 3 4 5 6 
#
# 1 0.015567 -0.010501 -0.003925 0.000000 0.000000 0.000000
# 2 -0.010501 0.036774 -0.011282 0.000000 0.000000 0.000000
# 3 -0.003925 -0.011282 0.018291 0.000000 0.000000 0.000000
# 4 0.000000 0.000000 0.000000 0.042816 0.000000 0.000000
# 5 0.000000 0.000000 0.000000 0.000000 0.047139 0.000000
# 6 0.000000 0.000000 0.000000 0.000000 0.000000 0.050683
#
#
# Mechanical properties :
#
#
# Convention : Reuss Voigt Hill
#
# Bulk Modulus (GPa) = 52.04282 60.49073 56.26678
# Shear Modulus (GPa) = 18.58112 20.37439 19.47775
#
# Velocity S-wave (km/s) = 3.44946 3.61208 3.53171
# Velocity P-wave (km/s) = 7.01367 7.49216 7.25686
#
# Compressibility (1/GPa) = 0.01921495
#
# Stress axis : x y z
#
# Youngs Moduli (GPa) = 64.23846 27.19343 54.67212
#
# Poissons Ratio (x) = 0.28557 0.21457
# Poissons Ratio (y) = 0.67460 0.61682
# Poissons Ratio (z) = 0.25211 0.30680
#
# Static dielectric constant tensor:
#      x y z
#    x 3.069240 0.000000 0.000000 
#    y 0.000000 2.848590 0.000000 
#    z 0.000000 0.000000 2.831200 
# 
# 
# High freq. dielectric constant tensor:
#      x y z
#    x 1.592770 0.000000 0.000000 
#    y 0.000000 1.588520 0.000000 
#    z 0.000000 0.000000 1.579350 
# 
# From -- ./inp_files/26606.got.cif
#   From: 2010.03.12/outbox.cif.g09.slc.cpg/sg51_14_cif.got.tgz:26606.got - 2010.04.16 13:43:02.
