data_PCOD8206021
_publ_section_title
;
Structure prediction by ZEFSAII (Michael W. Deem and Ramdas Pophale) SiO2 
 PCOD8206021
Probable space group: P M M A
;
_chemical_formula_sum "Si O2"
_cell_formula_units_Z 64
_cell_length_a 23.055190
_cell_length_b 9.174038
_cell_length_c 20.254616
_cell_angle_alpha 90.000000
_cell_angle_beta 90.000000
_cell_angle_gamma 90.000000
_cell_volume 4284.037407
_symmetry_space_group_name_H-M "P M M A"
_symmetry_group_IT_number 51
_symmetry_cell_setting 'orthorhombic'
loop_
_space_group_symop_operation_xyz
x,y,z
1/2-x,-y,z
1/2+x,-y,-z
-x,y,-z
-x,-y,-z
1/2+x,y,-z
1/2-x,y,z
x,-y,z
loop_
_atom_site_type_symbol
_atom_site_label
_atom_site_fract_x
_atom_site_fract_y
_atom_site_fract_z
Si Si1 0.027588 0.165966 0.857692
Si Si2 0.919125 0.662728 0.545709
Si Si3 0.051076 0.334622 0.591430
Si Si4 0.682491 0.831255 0.786638
Si Si5 0.565631 0.335163 0.024468
Si Si6 0.599859 0.830890 0.903164
Si Si7 0.392976 0.675251 0.315789
Si Si8 0.487664 0.169605 0.710322
O O1 0.069930 0.262700 0.903152
O O2 0.960461 0.208986 0.867779
O O3 0.043280 0.190457 0.781061
O O4 0.037513 0.000000 0.879361
O O5 0.897570 0.500000 0.532901
O O6 0.914264 0.735677 0.472332
O O7 0.882580 0.728411 0.607394
O O8 0.984480 0.662258 0.571237
O O9 0.071706 0.500000 0.607697
O O10 0.057326 0.232604 0.655765
O O11 0.750000 0.802948 0.796726
O O12 0.650917 0.782335 0.853889
O O13 0.661079 0.732949 0.725909
O O14 0.668394 0.000000 0.771003
O O15 0.586745 0.500000 0.030671
O O16 0.500000 0.320956 0.000000
O O17 0.607162 0.255656 0.971825
O O18 0.603932 0.000000 0.920715
O O19 0.397636 0.500000 0.311951
O O20 0.451989 0.743880 0.287806
O O21 0.500530 0.000000 0.695955
#
# Coordination Sequence:
#
# PCOD8206021 Si02
#       8
#     8   8   8   8   8   8   8   8
#     4   9  16  26  39  54  76 106 133 157 191 239
#     4   7  12  23  37  51  70  98 130 161 193 231
#     4   8  13  23  36  51  72 100 132 160 190 226
#     4  10  20  33  46  60  79 103 133 170 208 243
#     4   9  17  26  38  58  77  94 124 165 198 228
#     4   9  16  29  43  54  72 102 131 157 197 243
#     4  10  18  28  42  56  73 101 135 169 203 236
#     4  10  17  25  37  56  81 105 133 163 196 232
#
# _framework density 14.939178
#
# number of rings (size 3 to 8) (size 9 to 14) (size 15 to 20)
#    0.000    3.000    1.250    2.625    0.000    3.250 
#    0.000    5.625    0.000    0.000    0.000    0.000 
#    0.000    0.000    0.000    1.125    0.000   17.500 
#
# Total GULP energy -792904.536110 kJ/mol
# GULP energy per Si atom -12389.133377 kJ/mol
# Density = 1.490518 g / cm^3
# Si number density = 14.939178 Si / 1000 Ang^3
#
#
#
# Elastic Constant Matrix: (Units=GPa)
#
#
# Indices 1 2 3 4 5 6 
#
# 1 34.0069 22.4641 39.6967 0.0000 0.0000 0.0000
# 2 22.4641 72.1673 61.0622 0.0000 0.0000 0.0000
# 3 39.6967 61.0622 144.2239 0.0000 0.0000 0.0000
# 4 0.0000 0.0000 0.0000 28.2739 0.0000 0.0000
# 5 0.0000 0.0000 0.0000 0.0000 13.5539 0.0000
# 6 0.0000 0.0000 0.0000 0.0000 0.0000 6.4413
#
#
#
# Elastic Compliance Matrix: (Units=1/GPa)
#
#
# Indices 1 2 3 4 5 6 
#
# 1 0.044664 -0.005455 -0.009984 0.000000 0.000000 0.000000
# 2 -0.005455 0.022258 -0.007922 0.000000 0.000000 0.000000
# 3 -0.009984 -0.007922 0.013036 0.000000 0.000000 0.000000
# 4 0.000000 0.000000 0.000000 0.035368 0.000000 0.000000
# 5 0.000000 0.000000 0.000000 0.000000 0.073780 0.000000
# 6 0.000000 0.000000 0.000000 0.000000 0.000000 0.155248
#
#
# Mechanical properties :
#
#
# Convention : Reuss Voigt Hill
#
# Bulk Modulus (GPa) = 30.08889 55.20491 42.64690
# Shear Modulus (GPa) = 12.43306 18.13215 15.28261
#
# Velocity S-wave (km/s) = 2.88800 3.48764 3.20189
# Velocity P-wave (km/s) = 5.59512 7.29737 6.50219
#
# Compressibility (1/GPa) = 0.03323485
#
# Stress axis : x y z
#
# Youngs Moduli (GPa) = 22.38957 44.92793 76.71259
#
# Poissons Ratio (x) = 0.24510 0.76587
# Poissons Ratio (y) = 0.12215 0.60772
# Poissons Ratio (z) = 0.22353 0.35592
#
# Static dielectric constant tensor:
#      x y z
#    x 2.360370 0.000000 0.000000 
#    y 0.000000 2.880290 0.000000 
#    z 0.000000 0.000000 3.357830 
# 
# 
# High freq. dielectric constant tensor:
#      x y z
#    x 1.491500 0.000000 0.000000 
#    y 0.000000 1.567690 0.000000 
#    z 0.000000 0.000000 1.590770 
# 
# From -- ./inp_files/34236.got.cif
#   From: 2010.03.12/outbox.cif.g09.slc.cpg/sg51_18_cif.got.tgz:34236.got - 2010.04.16 13:43:02.
