data_PCOD8207004
_publ_section_title
;
Structure prediction by ZEFSAII (Michael W. Deem and Ramdas Pophale) SiO2 
 PCOD8207004
Probable space group: P M M A
;
_chemical_formula_sum "Si O2"
_cell_formula_units_Z 44
_cell_length_a 8.832693
_cell_length_b 28.824718
_cell_length_c 9.272509
_cell_angle_alpha 90.000000
_cell_angle_beta 90.000000
_cell_angle_gamma 90.000000
_cell_volume 2360.779724
_symmetry_space_group_name_H-M "P M M A"
_symmetry_group_IT_number 51
_symmetry_cell_setting 'orthorhombic'
loop_
_space_group_symop_operation_xyz
x,y,z
1/2-x,-y,z
1/2+x,-y,-z
-x,y,-z
-x,-y,-z
1/2+x,y,-z
1/2-x,y,z
x,-y,z
loop_
_atom_site_type_symbol
_atom_site_label
_atom_site_fract_x
_atom_site_fract_y
_atom_site_fract_z
Si Si1 0.930587 0.000000 0.840815
Si Si2 0.926429 0.740863 0.843453
Si Si3 0.927000 0.449759 0.157325
Si Si4 0.575243 0.638113 0.845092
Si Si5 0.426945 0.181027 0.654077
Si Si6 0.072338 0.092006 0.844909
O O1 0.994582 0.047067 0.767939
O O2 0.750000 0.000000 0.840426
O O3 0.000000 0.000000 0.000000
O O4 0.750000 0.752481 0.860551
O O5 0.950328 0.689031 0.776522
O O6 0.001779 0.774610 0.729750
O O7 0.000000 0.747066 0.000000
O O8 0.750000 0.441647 0.142674
O O9 0.960516 0.500000 0.232917
O O10 0.998422 0.405212 0.242768
O O11 0.000000 0.450670 0.000000
O O12 0.750000 0.626463 0.861257
O O13 0.500000 0.640545 0.000000
O O14 0.500000 0.173501 0.500000
O O15 0.250000 0.189681 0.636653
O O16 0.463373 0.135618 0.746050
O O17 0.250000 0.082811 0.864141
O O18 0.000000 0.102196 0.000000
#
# Coordination Sequence:
#
# PCOD8207004 Si02
#       6
#     4   8   8   8   8   8
#     4  10  18  30  53  82 109 138 170 208 250 292
#     4  10  20  34  53  76 102 132 171 215 258 306
#     4   9  15  21  31  50  79 116 154 192 237 290
#     4   9  16  25  39  60  86 119 157 199 244 291
#     4  11  24  39  56  77 104 138 173 213 261 309
#     4  10  20  35  56  82 109 138 172 210 251 297
#
# _framework density 18.637910999999999
#
# number of rings (size 3 to 8) (size 9 to 14) (size 15 to 20)
#    0.000    2.182    0.000    6.273    0.000    7.636 
#    0.000    0.455    0.000    0.000    0.000    0.000 
#    0.000    0.727    0.000    2.364    0.000   10.182 
#
# Total GULP energy -545190.088669 kJ/mol
# GULP energy per Si atom -12390.683833 kJ/mol
# Density = 1.859549 g / cm^3
# Si number density = 18.637911 Si / 1000 Ang^3
#
#
#
# Elastic Constant Matrix: (Units=GPa)
#
#
# Indices 1 2 3 4 5 6 
#
# 1 149.7004 102.7033 43.1060 0.0000 0.0000 0.0000
# 2 102.7033 188.3303 51.5322 0.0000 0.0000 0.0000
# 3 43.1060 51.5322 59.9717 0.0000 0.0000 0.0000
# 4 0.0000 0.0000 0.0000 -3.4161 0.0000 0.0000
# 5 0.0000 0.0000 0.0000 0.0000 21.0402 0.0000
# 6 0.0000 0.0000 0.0000 0.0000 0.0000 29.7730
#
#
#
# Elastic Compliance Matrix: (Units=1/GPa)
#
#
# Indices 1 2 3 4 5 6 
#
# 1 0.011263 -0.005134 -0.003684 0.000000 0.000000 0.000000
# 2 -0.005134 0.009282 -0.004286 0.000000 0.000000 0.000000
# 3 -0.003684 -0.004286 0.023005 0.000000 0.000000 0.000000
# 4 0.000000 0.000000 0.000000 -0.292729 0.000000 0.000000
# 5 0.000000 0.000000 0.000000 0.000000 0.047528 0.000000
# 6 0.000000 0.000000 0.000000 0.000000 0.000000 0.033587
#
#
# Mechanical properties :
#
#
# Convention : Reuss Voigt Hill
#
# Bulk Modulus (GPa) = 57.66088 88.07615 72.86852
# Shear Modulus (GPa) = -36.74466 22.85682 -6.94392
#
# Velocity S-wave (km/s) = -4.44498 3.50574 -1.93230
# Velocity P-wave (km/s) = 2.15890 7.98411 5.84837
#
# Compressibility (1/GPa) = 0.01734278
#
# Stress axis : x y z
#
# Youngs Moduli (GPa) = 88.78517 107.73095 43.46843
#
# Poissons Ratio (x) = 0.55311 0.16014
# Poissons Ratio (y) = 0.45584 0.18630
# Poissons Ratio (z) = 0.32708 0.46172
#
# Static dielectric constant tensor:
#      x y z
#    x 3.651830 0.000000 0.000000 
#    y 0.000000 4.873970 0.000000 
#    z 0.000000 0.000000 2.803990 
# 
# 
# High freq. dielectric constant tensor:
#      x y z
#    x 1.746430 0.000000 0.000000 
#    y 0.000000 1.762340 0.000000 
#    z 0.000000 0.000000 1.645910 
# 
# From -- ./inp_files/5790.got.cif
#   From: 2010.03.12/outbox.cif.g09.slc.cpg/sg51_3_cif.got.tgz:5790.got - 2010.04.16 13:43:02.
