data_PCOD8207515
_publ_section_title
;
Structure prediction by ZEFSAII (Michael W. Deem and Ramdas Pophale) SiO2 
 PCOD8207515
Probable space group: P M M A
;
_chemical_formula_sum "Si O2"
_cell_formula_units_Z 48
_cell_length_a 15.886171
_cell_length_b 9.346001
_cell_length_c 16.521363
_cell_angle_alpha 90.000000
_cell_angle_beta 90.000000
_cell_angle_gamma 90.000000
_cell_volume 2452.962617
_symmetry_space_group_name_H-M "P M M A"
_symmetry_group_IT_number 51
_symmetry_cell_setting 'orthorhombic'
loop_
_space_group_symop_operation_xyz
x,y,z
1/2-x,-y,z
1/2+x,-y,-z
-x,y,-z
-x,-y,-z
1/2+x,y,-z
1/2-x,y,z
x,-y,z
loop_
_atom_site_type_symbol
_atom_site_label
_atom_site_fract_x
_atom_site_fract_y
_atom_site_fract_z
Si Si1 0.250000 0.330361 0.731996
Si Si2 0.524271 0.161219 0.773143
Si Si3 0.434893 0.831127 0.934394
Si Si4 0.151854 0.663752 0.311636
Si Si5 0.847434 0.161186 0.532911
Si Si6 0.387942 0.160826 0.643458
Si Si7 0.750000 0.169741 0.099192
O O1 0.250000 0.500000 0.744358
O O2 0.330799 0.283123 0.681555
O O3 0.250000 0.252158 0.817193
O O4 0.464626 0.219266 0.845301
O O5 0.606149 0.260261 0.764067
O O6 0.477212 0.168178 0.687432
O O7 0.553664 0.000000 0.793309
O O8 0.336428 0.785705 0.948425
O O9 0.439648 0.000000 0.941128
O O10 0.500000 0.762975 0.000000
O O11 0.250000 0.684706 0.296237
O O12 0.124389 0.500000 0.313919
O O13 0.124205 0.731951 0.396857
O O14 0.750000 0.184297 0.509492
O O15 0.901260 0.192121 0.451852
O O16 0.862979 0.000000 0.564670
O O17 0.349115 0.000000 0.654456
O O18 0.750000 0.000000 0.117440
#
# Coordination Sequence:
#
# PCOD8207515 Si02
#       7
#     4   8   8   8   8   8   4
#     4  12  22  30  50  84 117 148 191 232 271 336
#     4  10  20  35  58  83 110 140 182 235 281 339
#     4   9  18  34  59  92 119 143 183 234 286 337
#     4  10  22  39  55  72 106 152 193 230 282 338
#     4   9  17  31  54  78 104 142 193 237 273 329
#     4  10  19  34  55  81 111 148 187 228 288 338
#     4  10  18  36  62  82 117 158 183 224 287 346
#
# _framework density 19.568173000000002
#
# number of rings (size 3 to 8) (size 9 to 14) (size 15 to 20)
#    0.000    2.167    2.500    1.250    0.000    3.000 
#    1.500    3.333    0.000    2.000    0.000    0.000 
#    0.000    0.000    0.000    0.000    0.000    0.000 
#
# Total GULP energy -595021.302768 kJ/mol
# GULP energy per Si atom -12396.277141 kJ/mol
# Density = 1.952363 g / cm^3
# Si number density = 19.568173 Si / 1000 Ang^3
#
#
#
# Elastic Constant Matrix: (Units=GPa)
#
#
# Indices 1 2 3 4 5 6 
#
# 1 103.7861 45.1391 64.7063 0.0000 0.0000 0.0000
# 2 45.1391 80.0062 30.2912 0.0000 0.0000 0.0000
# 3 64.7063 30.2912 80.7208 0.0000 0.0000 0.0000
# 4 0.0000 0.0000 0.0000 9.3699 0.0000 0.0000
# 5 0.0000 0.0000 0.0000 0.0000 24.1432 0.0000
# 6 0.0000 0.0000 0.0000 0.0000 0.0000 19.0750
#
#
#
# Elastic Compliance Matrix: (Units=1/GPa)
#
#
# Indices 1 2 3 4 5 6 
#
# 1 0.021940 -0.006667 -0.015085 0.000000 0.000000 0.000000
# 2 -0.006667 0.016595 -0.000883 0.000000 0.000000 0.000000
# 3 -0.015085 -0.000883 0.024812 0.000000 0.000000 0.000000
# 4 0.000000 0.000000 0.000000 0.106725 0.000000 0.000000
# 5 0.000000 0.000000 0.000000 0.000000 0.041420 0.000000
# 6 0.000000 0.000000 0.000000 0.000000 0.000000 0.052425
#
#
# Mechanical properties :
#
#
# Convention : Reuss Voigt Hill
#
# Bulk Modulus (GPa) = 55.32115 60.53180 57.92647
# Shear Modulus (GPa) = 15.86235 18.80940 17.33588
#
# Velocity S-wave (km/s) = 2.85023 3.10372 2.97967
# Velocity P-wave (km/s) = 6.25812 6.62156 6.44241
#
# Compressibility (1/GPa) = 0.01807627
#
# Stress axis : x y z
#
# Youngs Moduli (GPa) = 45.57913 60.25982 40.30266
#
# Poissons Ratio (x) = 0.40175 0.60798
# Poissons Ratio (y) = 0.30387 0.03559
# Poissons Ratio (z) = 0.68758 0.05322
#
# Static dielectric constant tensor:
#      x y z
#    x 3.811570 0.000000 0.000000 
#    y 0.000000 3.342110 0.000000 
#    z 0.000000 0.000000 3.526850 
# 
# 
# High freq. dielectric constant tensor:
#      x y z
#    x 1.764280 0.000000 0.000000 
#    y 0.000000 1.728880 0.000000 
#    z 0.000000 0.000000 1.749310 
# 
# From -- ./inp_files/25008.got.cif
#   From: 2010.03.12/outbox.cif.g09.slc.cpg/sg51_13_cif.got.tgz:25008.got - 2010.04.16 13:43:02.
