data_PCOD8207242
_publ_section_title
;
Structure prediction by ZEFSAII (Michael W. Deem and Ramdas Pophale) SiO2 
 PCOD8207242
Probable space group: P M M A
;
_chemical_formula_sum "Si O2"
_cell_formula_units_Z 56
_cell_length_a 21.972115
_cell_length_b 9.247608
_cell_length_c 14.832269
_cell_angle_alpha 90.000000
_cell_angle_beta 90.000000
_cell_angle_gamma 90.000000
_cell_volume 3013.761418
_symmetry_space_group_name_H-M "P M M A"
_symmetry_group_IT_number 51
_symmetry_cell_setting 'orthorhombic'
loop_
_space_group_symop_operation_xyz
x,y,z
1/2-x,-y,z
1/2+x,-y,-z
-x,y,-z
-x,-y,-z
1/2+x,y,-z
1/2-x,y,z
x,-y,z
loop_
_atom_site_type_symbol
_atom_site_label
_atom_site_fract_x
_atom_site_fract_y
_atom_site_fract_z
Si Si1 0.681236 0.171271 0.215768
Si Si2 0.421759 0.169803 0.651644
Si Si3 0.128537 0.330234 0.151731
Si Si4 0.750000 0.335035 0.552093
Si Si5 0.370851 0.830698 0.463216
Si Si6 0.180367 0.334454 0.963131
Si Si7 0.250000 0.663841 0.235773
Si Si8 0.947430 0.828253 0.710321
O O1 0.750000 0.221682 0.240249
O O2 0.635306 0.232835 0.291573
O O3 0.677921 0.000000 0.208297
O O4 0.660918 0.234514 0.119682
O O5 0.415771 0.206278 0.545959
O O6 0.485527 0.232886 0.687523
O O7 0.422853 0.000000 0.666114
O O8 0.120781 0.500000 0.172781
O O9 0.134033 0.300651 0.045047
O O10 0.189055 0.262789 0.197898
O O11 0.072126 0.244938 0.195468
O O12 0.750000 0.500000 0.518069
O O13 0.809466 0.255343 0.515801
O O14 0.750000 0.325087 0.658481
O O15 0.402556 0.780096 0.370725
O O16 0.355020 0.000000 0.460217
O O17 0.250000 0.303387 0.994140
O O18 0.173831 0.500000 0.932513
O O19 0.250000 0.500000 0.199125
O O20 0.947019 0.000000 0.721464
#
# Coordination Sequence:
#
# PCOD8207242 Si02
#       8
#     8   8   8   4   8   8   4   8
#     4   9  18  33  54  77  99 128 170 216 261 307
#     4   9  19  36  56  74 101 140 177 212 258 310
#     4  10  18  32  53  76 103 140 173 202 255 319
#     4  11  21  33  51  78 111 138 166 213 263 305
#     4  10  20  34  55  78 104 138 178 215 252 303
#     4   9  17  31  53  77 102 133 169 210 260 312
#     4   9  16  29  49  70 101 138 168 199 247 309
#     4  10  20  34  52  78 106 136 175 217 253 296
#
# _framework density 18.581430999999998
#
# number of rings (size 3 to 8) (size 9 to 14) (size 15 to 20)
#    0.000    2.429    2.143    0.643    1.000    2.286 
#    0.000    3.214    0.000    6.000    0.000    0.000 
#    0.000    0.000    0.000    0.000    0.000    0.000 
#
# Total GULP energy -694304.157838 kJ/mol
# GULP energy per Si atom -12398.288533 kJ/mol
# Density = 1.853914 g / cm^3
# Si number density = 18.581431 Si / 1000 Ang^3
#
#
#
# Elastic Constant Matrix: (Units=GPa)
#
#
# Indices 1 2 3 4 5 6 
#
# 1 97.9290 25.6539 31.8312 0.0000 0.0000 0.0000
# 2 25.6539 32.7808 21.7513 0.0000 0.0000 0.0000
# 3 31.8312 21.7513 79.8404 0.0000 0.0000 0.0000
# 4 0.0000 0.0000 0.0000 21.4001 0.0000 0.0000
# 5 0.0000 0.0000 0.0000 0.0000 25.6058 0.0000
# 6 0.0000 0.0000 0.0000 0.0000 0.0000 17.2001
#
#
#
# Elastic Compliance Matrix: (Units=1/GPa)
#
#
# Indices 1 2 3 4 5 6 
#
# 1 0.013423 -0.008488 -0.003039 0.000000 0.000000 0.000000
# 2 -0.008488 0.042605 -0.008223 0.000000 0.000000 0.000000
# 3 -0.003039 -0.008223 0.015977 0.000000 0.000000 0.000000
# 4 0.000000 0.000000 0.000000 0.046729 0.000000 0.000000
# 5 0.000000 0.000000 0.000000 0.000000 0.039054 0.000000
# 6 0.000000 0.000000 0.000000 0.000000 0.000000 0.058139
#
#
# Mechanical properties :
#
#
# Convention : Reuss Voigt Hill
#
# Bulk Modulus (GPa) = 30.76525 41.00256 35.88391
# Shear Modulus (GPa) = 18.77858 21.59544 20.18701
#
# Velocity S-wave (km/s) = 3.18246 3.41281 3.29965
# Velocity P-wave (km/s) = 5.48607 6.13547 5.81984
#
# Compressibility (1/GPa) = 0.03250420
#
# Stress axis : x y z
#
# Youngs Moduli (GPa) = 74.49966 23.47164 62.59063
#
# Poissons Ratio (x) = 0.19923 0.19022
# Poissons Ratio (y) = 0.63236 0.51468
# Poissons Ratio (z) = 0.22641 0.19301
#
# Static dielectric constant tensor:
#      x y z
#    x 3.554690 0.000000 0.000000 
#    y 0.000000 3.128240 0.000000 
#    z 0.000000 0.000000 3.383190 
# 
# 
# High freq. dielectric constant tensor:
#      x y z
#    x 1.716270 0.000000 0.000000 
#    y 0.000000 1.688750 0.000000 
#    z 0.000000 0.000000 1.723130 
# 
# From -- ./inp_files/25926.got.cif
#   From: 2010.03.12/outbox.cif.g09.slc.cpg/sg51_13_cif.got.tgz:25926.got - 2010.04.16 13:43:02.
