data_PCOD8207863
_publ_section_title
;
Structure prediction by ZEFSAII (Michael W. Deem and Ramdas Pophale) SiO2 
 PCOD8207863
Probable space group: P M M A
;
_chemical_formula_sum "Si O2"
_cell_formula_units_Z 56
_cell_length_a 26.014821
_cell_length_b 26.464075
_cell_length_c 5.169686
_cell_angle_alpha 90.000000
_cell_angle_beta 90.000000
_cell_angle_gamma 90.000000
_cell_volume 3559.112584
_symmetry_space_group_name_H-M "P M M A"
_symmetry_group_IT_number 51
_symmetry_cell_setting 'orthorhombic'
loop_
_space_group_symop_operation_xyz
x,y,z
1/2-x,-y,z
1/2+x,-y,-z
-x,y,-z
-x,-y,-z
1/2+x,y,-z
1/2-x,y,z
x,-y,z
loop_
_atom_site_type_symbol
_atom_site_label
_atom_site_fract_x
_atom_site_fract_y
_atom_site_fract_z
Si Si1 0.311272 0.556989 0.793997
Si Si2 0.811379 0.615679 0.706440
Si Si3 0.357221 0.897766 0.744680
Si Si4 0.689224 0.209961 0.230918
Si Si5 0.691471 0.941598 0.758529
Si Si6 0.189590 0.728743 0.276059
Si Si7 0.033481 0.058122 0.747392
O O1 0.250000 0.556070 0.793719
O O2 0.332908 0.500000 0.790363
O O3 0.332442 0.585615 0.045754
O O4 0.332166 0.586903 0.545527
O O5 0.750000 0.616919 0.710293
O O6 0.834112 0.672495 0.709189
O O7 0.342800 0.840700 0.812534
O O8 0.338716 0.910058 0.455766
O O9 0.418190 0.904740 0.757397
O O10 0.331267 0.933982 0.956364
O O11 0.750000 0.197480 0.239544
O O12 0.668856 0.236533 0.491326
O O13 0.675080 0.246907 0.996578
O O14 0.750000 0.922629 0.758533
O O15 0.687176 0.000000 0.684742
O O16 0.250000 0.724020 0.311317
O O17 0.000000 0.072730 0.500000
O O18 0.052432 0.000000 0.729983
O O19 0.000000 0.067418 0.000000
#
# Coordination Sequence:
#
# PCOD8207863 Si02
#       7
#     8   8   8   8   8   8   8
#     4   9  15  21  30  46  66  89 124 172 221 259
#     4   9  15  23  34  46  65  96 130 166 212 256
#     4  12  22  35  53  71  93 120 146 180 226 262
#     4  10  19  30  44  63  86 110 139 174 212 258
#     4  11  22  34  49  71  97 122 146 170 206 268
#     4   9  17  28  40  55  77 107 141 173 208 254
#     4  10  21  37  55  73  91 113 145 182 220 266
#
# _framework density 15.734259
#
# number of rings (size 3 to 8) (size 9 to 14) (size 15 to 20)
#    0.000    2.000    0.000    5.571    0.000    8.571 
#    0.000    0.000    0.000    0.000    0.000    0.000 
#    0.000    0.000    0.000    0.000    0.000    0.000 
#
# Total GULP energy -694516.288267 kJ/mol
# GULP energy per Si atom -12402.076576 kJ/mol
# Density = 1.569845 g / cm^3
# Si number density = 15.734259 Si / 1000 Ang^3
#
#
#
# Elastic Constant Matrix: (Units=GPa)
#
#
# Indices 1 2 3 4 5 6 
#
# 1 54.5557 35.7486 24.3787 0.0000 0.0000 0.0000
# 2 35.7486 93.4391 33.4581 0.0000 0.0000 0.0000
# 3 24.3787 33.4581 108.2669 0.0000 0.0000 0.0000
# 4 0.0000 0.0000 0.0000 26.9169 0.0000 0.0000
# 5 0.0000 0.0000 0.0000 0.0000 11.4808 0.0000
# 6 0.0000 0.0000 0.0000 0.0000 0.0000 3.0400
#
#
#
# Elastic Compliance Matrix: (Units=1/GPa)
#
#
# Indices 1 2 3 4 5 6 
#
# 1 0.025325 -0.008599 -0.003045 0.000000 0.000000 0.000000
# 2 -0.008599 0.014953 -0.002685 0.000000 0.000000 0.000000
# 3 -0.003045 -0.002685 0.010752 0.000000 0.000000 0.000000
# 4 0.000000 0.000000 0.000000 0.037151 0.000000 0.000000
# 5 0.000000 0.000000 0.000000 0.000000 0.087102 0.000000
# 6 0.000000 0.000000 0.000000 0.000000 0.000000 0.328947
#
#
# Mechanical properties :
#
#
# Convention : Reuss Voigt Hill
#
# Bulk Modulus (GPa) = 44.69732 49.27027 46.98379
# Shear Modulus (GPa) = 9.25334 19.13264 14.19299
#
# Velocity S-wave (km/s) = 2.42771 3.49088 3.00666
# Velocity P-wave (km/s) = 6.02725 6.90147 6.47912
#
# Compressibility (1/GPa) = 0.02237271
#
# Stress axis : x y z
#
# Youngs Moduli (GPa) = 39.48651 66.87505 93.00714
#
# Poissons Ratio (x) = 0.57503 0.28323
# Poissons Ratio (y) = 0.33953 0.24971
# Poissons Ratio (z) = 0.12025 0.17955
#
# Static dielectric constant tensor:
#      x y z
#    x 2.480380 0.000000 0.000000 
#    y 0.000000 3.104350 0.000000 
#    z 0.000000 0.000000 3.213500 
# 
# 
# High freq. dielectric constant tensor:
#      x y z
#    x 1.526930 0.000000 0.000000 
#    y 0.000000 1.608760 0.000000 
#    z 0.000000 0.000000 1.631140 
# 
# From -- ./inp_files/2624.got.cif
#   From: 2010.03.12/outbox.cif.g09.slc.cpg/sg51_2_cif.got.tgz:2624.got - 2010.04.16 13:43:02.
