data_PCOD8207961
_publ_section_title
;
Structure prediction by ZEFSAII (Michael W. Deem and Ramdas Pophale) SiO2 
 PCOD8207961
Probable space group: P M M A
;
_chemical_formula_sum "Si O2"
_cell_formula_units_Z 56
_cell_length_a 24.603263
_cell_length_b 9.324592
_cell_length_c 15.309597
_cell_angle_alpha 90.000000
_cell_angle_beta 90.000000
_cell_angle_gamma 90.000000
_cell_volume 3512.257156
_symmetry_space_group_name_H-M "P M M A"
_symmetry_group_IT_number 51
_symmetry_cell_setting 'orthorhombic'
loop_
_space_group_symop_operation_xyz
x,y,z
1/2-x,-y,z
1/2+x,-y,-z
-x,y,-z
-x,-y,-z
1/2+x,y,-z
1/2-x,y,z
x,-y,z
loop_
_atom_site_type_symbol
_atom_site_label
_atom_site_fract_x
_atom_site_fract_y
_atom_site_fract_z
Si Si1 0.609738 0.165864 0.125299
Si Si2 0.189522 0.329047 0.364532
Si Si3 0.898193 0.337293 0.771003
Si Si4 0.913647 0.337216 0.960918
Si Si5 0.685409 0.341132 0.443751
Si Si6 0.812492 0.167617 0.278958
Si Si7 0.486220 0.833481 0.152345
O O1 0.653145 0.220613 0.196022
O O2 0.550112 0.189384 0.166245
O O3 0.619303 0.000000 0.100725
O O4 0.618724 0.260618 0.038911
O O5 0.250000 0.266792 0.345730
O O6 0.192358 0.500000 0.361588
O O7 0.147938 0.270292 0.291542
O O8 0.168239 0.280826 0.460668
O O9 0.912820 0.500000 0.742322
O O10 0.876821 0.336545 0.872119
O O11 0.953026 0.239393 0.766665
O O12 0.928772 0.500000 0.987891
O O13 0.968472 0.246953 0.937681
O O14 0.750000 0.347635 0.442146
O O15 0.661181 0.500000 0.428820
O O16 0.663683 0.240356 0.366408
O O17 0.750000 0.210592 0.262114
O O18 0.819668 0.000000 0.293204
O O19 0.470657 0.000000 0.145195
#
# Coordination Sequence:
#
# PCOD8207961 Si02
#       7
#     8   8   8   8   8   8   8
#     4  10  19  30  46  65  86 117 153 179 213 265
#     4   8  13  25  47  69  89 115 144 176 218 266
#     4   8  16  28  42  65  92 114 141 178 218 255
#     4   9  18  29  44  68  90 111 142 182 217 246
#     4   8  14  26  46  69  87 108 143 182 217 256
#     4   9  18  32  47  64  89 117 142 177 223 263
#     4   9  17  29  45  64  87 115 148 184 217 253
#
# _framework density 15.944163
#
# number of rings (size 3 to 8) (size 9 to 14) (size 15 to 20)
#    0.857    2.429    0.000    1.714    0.000    3.429 
#    0.000    1.429    0.000    3.000    0.000    6.000 
#    0.000    0.000    0.000    0.000    0.000    0.000 
#
# Total GULP energy -693762.943135 kJ/mol
# GULP energy per Si atom -12388.623985 kJ/mol
# Density = 1.590787 g / cm^3
# Si number density = 15.944163 Si / 1000 Ang^3
#
#
#
# Elastic Constant Matrix: (Units=GPa)
#
#
# Indices 1 2 3 4 5 6 
#
# 1 59.2907 32.3403 61.2111 0.0000 0.0000 0.0000
# 2 32.3403 67.2988 46.1219 0.0000 0.0000 0.0000
# 3 61.2111 46.1219 100.4755 0.0000 0.0000 0.0000
# 4 0.0000 0.0000 0.0000 22.2111 0.0000 0.0000
# 5 0.0000 0.0000 0.0000 0.0000 13.1713 0.0000
# 6 0.0000 0.0000 0.0000 0.0000 0.0000 14.5741
#
#
#
# Elastic Compliance Matrix: (Units=1/GPa)
#
#
# Indices 1 2 3 4 5 6 
#
# 1 0.046275 -0.004256 -0.026238 0.000000 0.000000 0.000000
# 2 -0.004256 0.022071 -0.007539 0.000000 0.000000 0.000000
# 3 -0.026238 -0.007539 0.029398 0.000000 0.000000 0.000000
# 4 0.000000 0.000000 0.000000 0.045023 0.000000 0.000000
# 5 0.000000 0.000000 0.000000 0.000000 0.075923 0.000000
# 6 0.000000 0.000000 0.000000 0.000000 0.000000 0.068615
#
#
# Mechanical properties :
#
#
# Convention : Reuss Voigt Hill
#
# Bulk Modulus (GPa) = 46.12776 56.26798 51.19787
# Shear Modulus (GPa) = 13.49185 15.81741 14.65463
#
# Velocity S-wave (km/s) = 2.91210 3.15310 3.03499
# Velocity P-wave (km/s) = 6.34828 6.97304 6.66798
#
# Compressibility (1/GPa) = 0.02167892
#
# Stress axis : x y z
#
# Youngs Moduli (GPa) = 21.60990 45.30913 34.01639
#
# Poissons Ratio (x) = 0.19283 0.89252
# Poissons Ratio (y) = 0.09197 0.25643
# Poissons Ratio (z) = 0.56700 0.34156
#
# Static dielectric constant tensor:
#      x y z
#    x 2.823450 0.000000 0.000000 
#    y 0.000000 2.990700 0.000000 
#    z 0.000000 0.000000 3.132760 
# 
# 
# High freq. dielectric constant tensor:
#      x y z
#    x 1.577530 0.000000 0.000000 
#    y 0.000000 1.603920 0.000000 
#    z 0.000000 0.000000 1.606950 
# 
# From -- ./inp_files/26546.got.cif
#   From: 2010.03.12/outbox.cif.g09.slc.cpg/sg51_14_cif.got.tgz:26546.got - 2010.04.16 13:43:02.
