data_PCOD8207559
_publ_section_title
;
Structure prediction by ZEFSAII (Michael W. Deem and Ramdas Pophale) SiO2 
 PCOD8207559
Probable space group: P M M A
;
_chemical_formula_sum "Si O2"
_cell_formula_units_Z 64
_cell_length_a 8.914391
_cell_length_b 21.811976
_cell_length_c 18.711714
_cell_angle_alpha 90.000000
_cell_angle_beta 90.000000
_cell_angle_gamma 90.000000
_cell_volume 3638.314699
_symmetry_space_group_name_H-M "P M M A"
_symmetry_group_IT_number 51
_symmetry_cell_setting 'orthorhombic'
loop_
_space_group_symop_operation_xyz
x,y,z
1/2-x,-y,z
1/2+x,-y,-z
-x,y,-z
-x,-y,-z
1/2+x,y,-z
1/2-x,y,z
x,-y,z
loop_
_atom_site_type_symbol
_atom_site_label
_atom_site_fract_x
_atom_site_fract_y
_atom_site_fract_z
Si Si1 0.423705 0.931326 0.654879
Si Si2 0.072100 0.874259 0.215543
Si Si3 0.416353 0.744497 0.932613
Si Si4 0.073800 0.245034 0.719006
Si Si5 0.926513 0.430412 0.925638
Si Si6 0.076589 0.813764 0.572545
Si Si7 0.926102 0.326820 0.818591
Si Si8 0.582579 0.112027 0.069401
O O1 0.250000 0.918059 0.675322
O O2 0.524686 0.923944 0.725174
O O3 0.476401 0.882260 0.595238
O O4 0.445041 0.000000 0.624401
O O5 0.250000 0.866374 0.213047
O O6 0.997301 0.809361 0.234285
O O7 0.014202 0.900748 0.140158
O O8 0.250000 0.715249 0.923913
O O9 0.522341 0.731009 0.865613
O O10 0.401366 0.816121 0.943555
O O11 0.500000 0.713804 0.000000
O O12 0.250000 0.244405 0.734351
O O13 0.037086 0.234340 0.635513
O O14 0.005368 0.311668 0.742308
O O15 0.750000 0.423315 0.935310
O O16 0.973456 0.500000 0.907344
O O17 0.982121 0.388702 0.858744
O O18 0.000000 0.408994 0.000000
O O19 0.250000 0.813930 0.555874
O O20 0.000000 0.791971 0.500000
O O21 0.750000 0.328114 0.806488
O O22 0.750000 0.083522 0.077155
O O23 0.500000 0.082817 0.000000
#
# Coordination Sequence:
#
# PCOD8207559 Si02
#       8
#     8   8   8   8   8   8   8   8
#     4   9  19  36  55  74  99 132 166 197 234 282
#     4  11  20  31  49  71  97 125 158 202 247 292
#     4  10  19  28  40  59  89 122 153 194 240 287
#     4  10  20  34  49  69  98 130 161 195 240 295
#     4   9  19  34  48  65  94 133 176 218 257 296
#     4   9  19  34  53  76 103 133 161 190 233 285
#     4  11  20  29  46  69  93 124 165 209 249 290
#     4  10  19  30  44  63  90 122 154 192 240 292
#
# _framework density 17.590561000000001
#
# number of rings (size 3 to 8) (size 9 to 14) (size 15 to 20)
#    0.000    2.125    1.250    3.750    0.000    6.000 
#    0.000    0.000    0.000    0.375    0.000    0.000 
#    0.000    0.500    0.000    1.125    0.000    1.750 
#
# Total GULP energy -793267.266018 kJ/mol
# GULP energy per Si atom -12394.801032 kJ/mol
# Density = 1.755052 g / cm^3
# Si number density = 17.590561 Si / 1000 Ang^3
#
#
#
# Elastic Constant Matrix: (Units=GPa)
#
#
# Indices 1 2 3 4 5 6 
#
# 1 83.7597 26.8988 47.8018 0.0000 0.0000 0.0000
# 2 26.8988 65.3587 34.3802 0.0000 0.0000 0.0000
# 3 47.8018 34.3802 121.3094 0.0000 0.0000 0.0000
# 4 0.0000 0.0000 0.0000 19.9334 0.0000 0.0000
# 5 0.0000 0.0000 0.0000 0.0000 31.5286 0.0000
# 6 0.0000 0.0000 0.0000 0.0000 0.0000 17.3336
#
#
#
# Elastic Compliance Matrix: (Units=1/GPa)
#
#
# Indices 1 2 3 4 5 6 
#
# 1 0.016203 -0.003890 -0.005282 0.000000 0.000000 0.000000
# 2 -0.003890 0.018915 -0.003828 0.000000 0.000000 0.000000
# 3 -0.005282 -0.003828 0.011410 0.000000 0.000000 0.000000
# 4 0.000000 0.000000 0.000000 0.050167 0.000000 0.000000
# 5 0.000000 0.000000 0.000000 0.000000 0.031717 0.000000
# 6 0.000000 0.000000 0.000000 0.000000 0.000000 0.057691
#
#
# Mechanical properties :
#
#
# Convention : Reuss Voigt Hill
#
# Bulk Modulus (GPa) = 48.71558 54.28771 51.50164
# Shear Modulus (GPa) = 22.83684 24.51560 23.67622
#
# Velocity S-wave (km/s) = 3.60702 3.73725 3.67272
# Velocity P-wave (km/s) = 6.71579 7.03929 6.87944
#
# Compressibility (1/GPa) = 0.02052731
#
# Stress axis : x y z
#
# Youngs Moduli (GPa) = 61.71827 52.86939 87.64488
#
# Poissons Ratio (x) = 0.20565 0.46296
# Poissons Ratio (y) = 0.24007 0.33549
# Poissons Ratio (z) = 0.32601 0.20237
#
# Static dielectric constant tensor:
#      x y z
#    x 3.443090 0.000000 0.000000 
#    y 0.000000 3.107860 0.000000 
#    z 0.000000 0.000000 3.316500 
# 
# 
# High freq. dielectric constant tensor:
#      x y z
#    x 1.689200 0.000000 0.000000 
#    y 0.000000 1.642530 0.000000 
#    z 0.000000 0.000000 1.665200 
# 
# From -- ./inp_files/32712.got.cif
#   From: 2010.03.12/outbox.cif.g09.slc.cpg/sg51_17_cif.got.tgz:32712.got - 2010.04.16 13:43:02.
