data_PCOD8207993
_publ_section_title
;
Structure prediction by ZEFSAII (Michael W. Deem and Ramdas Pophale) SiO2 
 PCOD8207993
Probable space group: P M M A
;
_chemical_formula_sum "Si O2"
_cell_formula_units_Z 40
_cell_length_a 9.154851
_cell_length_b 18.810479
_cell_length_c 13.518880
_cell_angle_alpha 90.000000
_cell_angle_beta 90.000000
_cell_angle_gamma 90.000000
_cell_volume 2328.047559
_symmetry_space_group_name_H-M "P M M A"
_symmetry_group_IT_number 51
_symmetry_cell_setting 'orthorhombic'
loop_
_space_group_symop_operation_xyz
x,y,z
1/2-x,-y,z
1/2+x,-y,-z
-x,y,-z
-x,-y,-z
1/2+x,y,-z
1/2-x,y,z
x,-y,z
loop_
_atom_site_type_symbol
_atom_site_label
_atom_site_fract_x
_atom_site_fract_y
_atom_site_fract_z
Si Si1 0.080078 0.340689 0.902125
Si Si2 0.079167 0.704409 0.401512
Si Si3 0.418890 0.218849 0.203669
Si Si4 0.918750 0.418397 0.297236
Si Si5 0.080389 0.921081 0.099634
O O1 0.250000 0.331298 0.924895
O O2 0.050318 0.398012 0.816402
O O3 0.016372 0.264460 0.870980
O O4 0.000000 0.369112 0.000000
O O5 0.250000 0.696901 0.421865
O O6 0.043469 0.762359 0.316965
O O7 0.000000 0.731806 0.500000
O O8 0.018128 0.627431 0.370554
O O9 0.250000 0.236464 0.181136
O O10 0.455141 0.135707 0.185947
O O11 0.750000 0.403987 0.323609
O O12 0.961916 0.500000 0.312691
O O13 0.250000 0.920727 0.073956
O O14 0.030326 0.000000 0.134898
O O15 0.000000 0.897883 0.000000
#
# Coordination Sequence:
#
# PCOD8207993 Si02
#       5
#     8   8   8   8   8
#     4  10  19  30  46  68  94 125 158 191 228 271
#     4  10  20  34  52  72  92 117 152 193 237 282
#     4   9  18  32  49  69  93 122 157 194 230 272
#     4   9  19  35  51  68  92 121 154 192 233 277
#     4   9  17  29  46  70  99 128 156 186 222 265
#
# _framework density 17.18178
#
# number of rings (size 3 to 8) (size 9 to 14) (size 15 to 20)
#    0.000    2.600    0.000    1.800    0.000    5.200 
#    0.000    0.000    0.000    0.600    0.000    0.000 
#    0.000    0.000    0.000    0.000    0.000    0.600 
#
# Total GULP energy -496032.735363 kJ/mol
# GULP energy per Si atom -12400.818384 kJ/mol
# Density = 1.714267 g / cm^3
# Si number density = 17.181780 Si / 1000 Ang^3
#
#
#
# Elastic Constant Matrix: (Units=GPa)
#
#
# Indices 1 2 3 4 5 6 
#
# 1 70.9839 35.8276 45.3802 0.0000 0.0000 0.0000
# 2 35.8276 111.7407 48.5328 0.0000 0.0000 0.0000
# 3 45.3802 48.5328 100.1153 0.0000 0.0000 0.0000
# 4 0.0000 0.0000 0.0000 17.0774 0.0000 0.0000
# 5 0.0000 0.0000 0.0000 0.0000 32.8779 0.0000
# 6 0.0000 0.0000 0.0000 0.0000 0.0000 21.9280
#
#
#
# Elastic Compliance Matrix: (Units=1/GPa)
#
#
# Indices 1 2 3 4 5 6 
#
# 1 0.020727 -0.003249 -0.007820 0.000000 0.000000 0.000000
# 2 -0.003249 0.011845 -0.004270 0.000000 0.000000 0.000000
# 3 -0.007820 -0.004270 0.015603 0.000000 0.000000 0.000000
# 4 0.000000 0.000000 0.000000 0.058557 0.000000 0.000000
# 5 0.000000 0.000000 0.000000 0.000000 0.030416 0.000000
# 6 0.000000 0.000000 0.000000 0.000000 0.000000 0.045604
#
#
# Mechanical properties :
#
#
# Convention : Reuss Voigt Hill
#
# Bulk Modulus (GPa) = 57.14984 60.25790 58.70387
# Shear Modulus (GPa) = 22.80378 24.58328 23.69353
#
# Velocity S-wave (km/s) = 3.64704 3.78666 3.71751
# Velocity P-wave (km/s) = 7.14623 7.36650 7.25720
#
# Compressibility (1/GPa) = 0.01749786
#
# Stress axis : x y z
#
# Youngs Moduli (GPa) = 48.24614 84.42031 64.09079
#
# Poissons Ratio (x) = 0.27430 0.50119
# Poissons Ratio (y) = 0.15676 0.27364
# Poissons Ratio (z) = 0.37729 0.36043
#
# Static dielectric constant tensor:
#      x y z
#    x 3.272860 0.000000 0.000000 
#    y 0.000000 3.247150 0.000000 
#    z 0.000000 0.000000 3.181790 
# 
# 
# High freq. dielectric constant tensor:
#      x y z
#    x 1.670100 0.000000 0.000000 
#    y 0.000000 1.652950 0.000000 
#    z 0.000000 0.000000 1.653930 
# 
# From -- ./inp_files/14007.got.cif
#   From: 2010.03.12/outbox.cif.g09.slc.cpg/sg51_8_cif.got.tgz:14007.got - 2010.04.16 13:43:02.
