data_PCOD8207751
_publ_section_title
;
Structure prediction by ZEFSAII (Michael W. Deem and Ramdas Pophale) SiO2 
 PCOD8207751
Probable space group: P M M A
;
_chemical_formula_sum "Si O2"
_cell_formula_units_Z 56
_cell_length_a 18.189132
_cell_length_b 8.944027
_cell_length_c 20.535740
_cell_angle_alpha 90.000000
_cell_angle_beta 90.000000
_cell_angle_gamma 90.000000
_cell_volume 3340.838127
_symmetry_space_group_name_H-M "P M M A"
_symmetry_group_IT_number 51
_symmetry_cell_setting 'orthorhombic'
loop_
_space_group_symop_operation_xyz
x,y,z
1/2-x,-y,z
1/2+x,-y,-z
-x,y,-z
-x,-y,-z
1/2+x,y,-z
1/2-x,y,z
x,-y,z
loop_
_atom_site_type_symbol
_atom_site_label
_atom_site_fract_x
_atom_site_fract_y
_atom_site_fract_z
Si Si1 0.036958 0.665103 0.929727
Si Si2 0.909353 0.175847 0.869503
Si Si3 0.333795 0.327481 0.509411
Si Si4 0.111511 0.822687 0.380213
Si Si5 0.833012 0.325089 0.989793
Si Si6 0.665228 0.326259 0.749490
Si Si7 0.039752 0.165906 0.569065
O O1 0.035312 0.500000 0.897526
O O2 0.994353 0.779298 0.882875
O O3 0.120415 0.718113 0.945255
O O4 0.000000 0.658970 0.000000
O O5 0.856862 0.233635 0.926556
O O6 0.885738 0.245054 0.801464
O O7 0.903060 0.000000 0.864818
O O8 0.250000 0.303650 0.533268
O O9 0.349607 0.500000 0.493465
O O10 0.347436 0.231291 0.445032
O O11 0.389484 0.274969 0.567038
O O12 0.150315 0.742318 0.320686
O O13 0.024049 0.780869 0.380724
O O14 0.121810 0.000000 0.374975
O O15 0.750000 0.284249 0.006849
O O16 0.843891 0.500000 0.973022
O O17 0.750000 0.300713 0.768397
O O18 0.645192 0.500000 0.748283
O O19 0.000000 0.162299 0.500000
O O20 0.067870 0.000000 0.587461
#
# Coordination Sequence:
#
# PCOD8207751 Si02
#       7
#     8   8   8   8   8   8   8
#     4   8  15  29  47  65  88 119 152 186 226 270
#     4  11  21  31  45  66  93 124 156 189 225 266
#     4  10  19  29  44  69  97 123 153 188 225 266
#     4  10  20  33  48  67  92 121 154 190 227 270
#     4   9  17  30  48  69  93 121 152 187 228 272
#     4  11  23  36  49  66  90 122 158 190 221 264
#     4   8  16  30  46  65  89 118 151 186 227 272
#
# _framework density 16.762260999999999
#
# number of rings (size 3 to 8) (size 9 to 14) (size 15 to 20)
#    0.000    2.429    0.000    5.143    0.000   11.714 
#    0.000    0.000    0.000    0.000    0.000    1.000 
#    0.000    5.714    0.000    0.000    0.000    0.000 
#
# Total GULP energy -694157.600646 kJ/mol
# GULP energy per Si atom -12395.671440 kJ/mol
# Density = 1.672411 g / cm^3
# Si number density = 16.762261 Si / 1000 Ang^3
#
#
#
# Elastic Constant Matrix: (Units=GPa)
#
#
# Indices 1 2 3 4 5 6 
#
# 1 98.6318 41.9182 15.1833 0.0000 0.0000 0.0000
# 2 41.9182 94.9218 22.3903 0.0000 0.0000 0.0000
# 3 15.1833 22.3903 28.3948 0.0000 0.0000 0.0000
# 4 0.0000 0.0000 0.0000 0.4401 0.0000 0.0000
# 5 0.0000 0.0000 0.0000 0.0000 24.7307 0.0000
# 6 0.0000 0.0000 0.0000 0.0000 0.0000 22.1006
#
#
#
# Elastic Compliance Matrix: (Units=1/GPa)
#
#
# Indices 1 2 3 4 5 6 
#
# 1 0.012673 -0.004912 -0.002904 0.000000 0.000000 0.000000
# 2 -0.004912 0.014846 -0.009080 0.000000 0.000000 0.000000
# 3 -0.002904 -0.009080 0.043930 0.000000 0.000000 0.000000
# 4 0.000000 0.000000 0.000000 2.272321 0.000000 0.000000
# 5 0.000000 0.000000 0.000000 0.000000 0.040436 0.000000
# 6 0.000000 0.000000 0.000000 0.000000 0.000000 0.045248
#
#
# Mechanical properties :
#
#
# Convention : Reuss Voigt Hill
#
# Bulk Modulus (GPa) = 26.55436 42.32577 34.44007
# Shear Modulus (GPa) = 2.01955 18.95137 10.48546
#
# Velocity S-wave (km/s) = 1.09883 3.36608 2.50379
# Velocity P-wave (km/s) = 4.18163 6.35711 5.38047
#
# Compressibility (1/GPa) = 0.03765859
#
# Stress axis : x y z
#
# Youngs Moduli (GPa) = 78.90711 67.35893 22.76333
#
# Poissons Ratio (x) = 0.33084 0.06610
# Poissons Ratio (y) = 0.38756 0.20669
# Poissons Ratio (z) = 0.22911 0.61163
#
# Static dielectric constant tensor:
#      x y z
#    x 3.775890 0.000000 0.000000 
#    y 0.000000 3.206520 0.000000 
#    z 0.000000 0.000000 2.900600 
# 
# 
# High freq. dielectric constant tensor:
#      x y z
#    x 1.652680 0.000000 0.000000 
#    y 0.000000 1.652730 0.000000 
#    z 0.000000 0.000000 1.599820 
# 
# From -- ./inp_files/33701.got.cif
#   From: 2010.03.12/outbox.cif.g09.slc.cpg/sg51_17_cif.got.tgz:33701.got - 2010.04.16 13:43:02.
