data_PCOD8207120
_publ_section_title
;
Structure prediction by ZEFSAII (Michael W. Deem and Ramdas Pophale) SiO2 
 PCOD8207120
Probable space group: P M M A
;
_chemical_formula_sum "Si O2"
_cell_formula_units_Z 64
_cell_length_a 20.868406
_cell_length_b 8.752951
_cell_length_c 19.489292
_cell_angle_alpha 90.000000
_cell_angle_beta 90.000000
_cell_angle_gamma 90.000000
_cell_volume 3559.916711
_symmetry_space_group_name_H-M "P M M A"
_symmetry_group_IT_number 51
_symmetry_cell_setting 'orthorhombic'
loop_
_space_group_symop_operation_xyz
x,y,z
1/2-x,-y,z
1/2+x,-y,-z
-x,y,-z
-x,-y,-z
1/2+x,y,-z
1/2-x,y,z
x,-y,z
loop_
_atom_site_type_symbol
_atom_site_label
_atom_site_fract_x
_atom_site_fract_y
_atom_site_fract_z
Si Si1 0.677100 0.323075 0.040183
Si Si2 0.319545 0.179883 0.541172
Si Si3 0.374816 0.823799 0.832064
Si Si4 0.988184 0.678389 0.828965
Si Si5 0.018495 0.324300 0.324611
Si Si6 0.938780 0.180789 0.541995
Si Si7 0.563055 0.179152 0.957407
Si Si8 0.384293 0.175407 0.678765
O O1 0.750000 0.291143 0.016136
O O2 0.659467 0.500000 0.031461
O O3 0.671007 0.276617 0.119988
O O4 0.627955 0.222780 0.996354
O O5 0.250000 0.250814 0.522333
O O6 0.374702 0.250577 0.492741
O O7 0.332493 0.216200 0.621142
O O8 0.317751 0.000000 0.529649
O O9 0.448259 0.775929 0.842320
O O10 0.352984 0.797411 0.753432
O O11 0.368688 0.000000 0.853893
O O12 0.004801 0.500000 0.836197
O O13 0.959537 0.713378 0.753292
O O14 0.936403 0.730733 0.885167
O O15 0.028735 0.500000 0.342384
O O16 0.060421 0.228621 0.378483
O O17 0.944153 0.284971 0.332749
O O18 0.000000 0.245614 0.500000
O O19 0.938398 0.000000 0.536785
O O20 0.562981 0.000000 0.942963
O O21 0.500000 0.228904 0.000000
O O22 0.408298 0.000000 0.671654
#
# Coordination Sequence:
#
# PCOD8207120 Si02
#       8
#     8   8   8   8   8   8   8   8
#     4  11  24  39  55  77 109 150 186 217 263 322
#     4   9  17  30  49  73 100 132 172 214 256 306
#     4  10  19  31  51  78 107 141 179 219 260 307
#     4  10  20  34  54  79 108 140 173 215 266 321
#     4  10  20  32  50  78 107 135 171 214 261 309
#     4  10  18  31  52  75  99 133 174 217 261 305
#     4  11  22  36  58  86 109 136 178 227 272 313
#     4   9  17  31  50  73 104 139 175 212 255 306
#
# _framework density 17.977948999999999
#
# number of rings (size 3 to 8) (size 9 to 14) (size 15 to 20)
#    0.000    2.000    2.500    1.875    0.000    4.250 
#    0.000    1.250    0.000    2.250    0.000    3.500 
#    0.000    0.000    0.000    0.000    0.000    0.000 
#
# Total GULP energy -793565.116395 kJ/mol
# GULP energy per Si atom -12399.454944 kJ/mol
# Density = 1.793703 g / cm^3
# Si number density = 17.977949 Si / 1000 Ang^3
#
#
#
# Elastic Constant Matrix: (Units=GPa)
#
#
# Indices 1 2 3 4 5 6 
#
# 1 102.3967 20.3161 57.1090 0.0000 0.0000 0.0000
# 2 20.3161 34.5600 26.1279 0.0000 0.0000 0.0000
# 3 57.1090 26.1279 113.9135 0.0000 0.0000 0.0000
# 4 0.0000 0.0000 0.0000 27.7739 0.0000 0.0000
# 5 0.0000 0.0000 0.0000 0.0000 23.4886 0.0000
# 6 0.0000 0.0000 0.0000 0.0000 0.0000 17.2322
#
#
#
# Elastic Compliance Matrix: (Units=1/GPa)
#
#
# Indices 1 2 3 4 5 6 
#
# 1 0.013900 -0.003512 -0.006163 0.000000 0.000000 0.000000
# 2 -0.003512 0.035893 -0.006472 0.000000 0.000000 0.000000
# 3 -0.006163 -0.006472 0.013353 0.000000 0.000000 0.000000
# 4 0.000000 0.000000 0.000000 0.036005 0.000000 0.000000
# 5 0.000000 0.000000 0.000000 0.000000 0.042574 0.000000
# 6 0.000000 0.000000 0.000000 0.000000 0.000000 0.058031
#
#
# Mechanical properties :
#
#
# Convention : Reuss Voigt Hill
#
# Bulk Modulus (GPa) = 32.41309 50.88624 41.64967
# Shear Modulus (GPa) = 20.63280 23.52008 22.07644
#
# Velocity S-wave (km/s) = 3.39141 3.62093 3.50805
# Velocity P-wave (km/s) = 5.77962 6.77110 6.29491
#
# Compressibility (1/GPa) = 0.03085174
#
# Stress axis : x y z
#
# Youngs Moduli (GPa) = 71.94254 27.86096 74.89048
#
# Poissons Ratio (x) = 0.09784 0.46156
# Poissons Ratio (y) = 0.25264 0.48469
# Poissons Ratio (z) = 0.44339 0.18032
#
# Static dielectric constant tensor:
#      x y z
#    x 3.205150 0.000000 0.000000 
#    y 0.000000 3.216050 0.000000 
#    z 0.000000 0.000000 3.537500 
# 
# 
# High freq. dielectric constant tensor:
#      x y z
#    x 1.665420 0.000000 0.000000 
#    y 0.000000 1.688510 0.000000 
#    z 0.000000 0.000000 1.702900 
# 
# From -- ./inp_files/33926.got.cif
#   From: 2010.03.12/outbox.cif.g09.slc.cpg/sg51_17_cif.got.tgz:33926.got - 2010.04.16 13:43:02.
