data_PCOD8207970
_publ_section_title
;
Structure prediction by ZEFSAII (Michael W. Deem and Ramdas Pophale) SiO2 
 PCOD8207970
Probable space group: P M M A
;
_chemical_formula_sum "Si O2"
_cell_formula_units_Z 64
_cell_length_a 13.822764
_cell_length_b 8.885522
_cell_length_c 31.655004
_cell_angle_alpha 90.000000
_cell_angle_beta 90.000000
_cell_angle_gamma 90.000000
_cell_volume 3887.945894
_symmetry_space_group_name_H-M "P M M A"
_symmetry_group_IT_number 51
_symmetry_cell_setting 'orthorhombic'
loop_
_space_group_symop_operation_xyz
x,y,z
1/2-x,-y,z
1/2+x,-y,-z
-x,y,-z
-x,-y,-z
1/2+x,y,-z
1/2-x,y,z
x,-y,z
loop_
_atom_site_type_symbol
_atom_site_label
_atom_site_fract_x
_atom_site_fract_y
_atom_site_fract_z
Si Si1 0.859164 0.677609 0.186048
Si Si2 0.360562 0.176728 0.062066
Si Si3 0.361670 0.822145 0.482565
Si Si4 0.362176 0.325686 0.976553
Si Si5 0.024885 0.321634 0.894151
Si Si6 0.862136 0.822686 0.362726
Si Si7 0.135165 0.833799 0.731047
Si Si8 0.036211 0.320932 0.560602
O O1 0.750000 0.740329 0.180114
O O2 0.857883 0.500000 0.184359
O O3 0.925455 0.741891 0.148351
O O4 0.903016 0.727369 0.231310
O O5 0.250000 0.227272 0.067861
O O6 0.418970 0.249165 0.101066
O O7 0.373032 0.000000 0.062781
O O8 0.401924 0.238461 0.017546
O O9 0.250000 0.787450 0.471936
O O10 0.388286 0.749942 0.527554
O O11 0.428910 0.746591 0.446794
O O12 0.381362 0.000000 0.484580
O O13 0.250000 0.292500 0.969853
O O14 0.384012 0.500000 0.984540
O O15 0.412885 0.266946 0.934228
O O16 0.016293 0.500000 0.892247
O O17 0.750000 0.780416 0.370070
O O18 0.896881 0.777576 0.315384
O O19 0.929140 0.723998 0.392972
O O20 0.877587 0.000000 0.370737
O O21 0.250000 0.838841 0.730818
O O22 0.093220 0.000000 0.739493
O O23 0.033333 0.500000 0.555299
#
# Coordination Sequence:
#
# PCOD8207970 Si02
#       8
#     8   8   8   8   8   8   8   8
#     4   9  17  29  45  67  95 120 141 172 215 263
#     4  10  21  34  45  60  84 112 144 184 224 255
#     4  10  20  34  50  65  88 126 165 197 231 274
#     4   9  17  30  47  65  87 115 144 173 207 252
#     4  10  19  30  46  67  88 114 147 176 208 256
#     4   9  17  30  47  66  92 126 160 191 222 263
#     4   8  15  28  45  65  90 121 153 182 215 258
#     4  11  21  30  45  70  97 123 154 196 239 276
#
# _framework density 16.461134000000001
#
# number of rings (size 3 to 8) (size 9 to 14) (size 15 to 20)
#    0.000    2.500    0.000    4.500    0.000    8.000 
#    0.000    1.250    0.000    3.750    0.000    0.875 
#    0.000    5.000    0.000    0.000    0.000    0.000 
#
# Total GULP energy -793473.166830 kJ/mol
# GULP energy per Si atom -12398.018232 kJ/mol
# Density = 1.642367 g / cm^3
# Si number density = 16.461134 Si / 1000 Ang^3
#
#
#
# Elastic Constant Matrix: (Units=GPa)
#
#
# Indices 1 2 3 4 5 6 
#
# 1 78.9568 37.9353 58.6335 0.0000 0.0000 0.0000
# 2 37.9353 63.3418 44.2530 0.0000 0.0000 0.0000
# 3 58.6335 44.2530 131.4097 0.0000 0.0000 0.0000
# 4 0.0000 0.0000 0.0000 22.7327 0.0000 0.0000
# 5 0.0000 0.0000 0.0000 0.0000 24.7658 0.0000
# 6 0.0000 0.0000 0.0000 0.0000 0.0000 19.1005
#
#
#
# Elastic Compliance Matrix: (Units=1/GPa)
#
#
# Indices 1 2 3 4 5 6 
#
# 1 0.021756 -0.008170 -0.006956 0.000000 0.000000 0.000000
# 2 -0.008170 0.023712 -0.004340 0.000000 0.000000 0.000000
# 3 -0.006956 -0.004340 0.012175 0.000000 0.000000 0.000000
# 4 0.000000 0.000000 0.000000 0.043989 0.000000 0.000000
# 5 0.000000 0.000000 0.000000 0.000000 0.040378 0.000000
# 6 0.000000 0.000000 0.000000 0.000000 0.000000 0.052355
#
#
# Mechanical properties :
#
#
# Convention : Reuss Voigt Hill
#
# Bulk Modulus (GPa) = 53.44275 61.70575 57.57425
# Shear Modulus (GPa) = 20.87381 22.17891 21.52636
#
# Velocity S-wave (km/s) = 3.56486 3.67461 3.62015
# Velocity P-wave (km/s) = 7.03426 7.45458 7.24747
#
# Compressibility (1/GPa) = 0.01871161
#
# Stress axis : x y z
#
# Youngs Moduli (GPa) = 45.96435 42.17210 82.13553
#
# Poissons Ratio (x) = 0.34454 0.57134
# Poissons Ratio (y) = 0.37552 0.35647
# Poissons Ratio (z) = 0.31973 0.18303
#
# Static dielectric constant tensor:
#      x y z
#    x 3.037410 0.000000 0.000000 
#    y 0.000000 3.055970 0.000000 
#    z 0.000000 0.000000 3.260520 
# 
# 
# High freq. dielectric constant tensor:
#      x y z
#    x 1.611240 0.000000 0.000000 
#    y 0.000000 1.631790 0.000000 
#    z 0.000000 0.000000 1.626700 
# 
# From -- ./inp_files/37806.got.cif
#   From: 2010.03.12/outbox.cif.g09.slc.cpg/sg51_19_cif.got.tgz:37806.got - 2010.04.16 13:43:02.
