data_PCOD8207454
_publ_section_title
;
Structure prediction by ZEFSAII (Michael W. Deem and Ramdas Pophale) SiO2 
 PCOD8207454
Probable space group: P M M A
;
_chemical_formula_sum "Si O2"
_cell_formula_units_Z 56
_cell_length_a 21.583221
_cell_length_b 9.169414
_cell_length_c 14.720959
_cell_angle_alpha 90.000000
_cell_angle_beta 90.000000
_cell_angle_gamma 90.000000
_cell_volume 2913.358587
_symmetry_space_group_name_H-M "P M M A"
_symmetry_group_IT_number 51
_symmetry_cell_setting 'orthorhombic'
loop_
_space_group_symop_operation_xyz
x,y,z
1/2-x,-y,z
1/2+x,-y,-z
-x,y,-z
-x,-y,-z
1/2+x,y,-z
1/2-x,y,z
x,-y,z
loop_
_atom_site_type_symbol
_atom_site_label
_atom_site_fract_x
_atom_site_fract_y
_atom_site_fract_z
Si Si1 0.929970 0.338139 0.471446
Si Si2 0.179475 0.669318 0.873168
Si Si3 0.872529 0.171627 0.630377
Si Si4 0.576602 0.668878 0.264894
Si Si5 0.750000 0.328694 0.676966
Si Si6 0.250000 0.158984 0.148324
Si Si7 0.873980 0.835511 0.963127
Si Si8 0.042100 0.827223 0.201187
O O1 0.898780 0.500000 0.481165
O O2 0.901776 0.214032 0.534659
O O3 0.922427 0.278823 0.368999
O O4 0.000000 0.354918 0.500000
O O5 0.250000 0.734785 0.870038
O O6 0.184042 0.500000 0.896156
O O7 0.144984 0.696540 0.777161
O O8 0.133767 0.738704 0.947710
O O9 0.809147 0.258461 0.630923
O O10 0.915167 0.223692 0.714472
O O11 0.860534 0.000000 0.635049
O O12 0.557786 0.500000 0.259437
O O13 0.525290 0.756663 0.208213
O O14 0.750000 0.500000 0.661572
O O15 0.750000 0.292804 0.783319
O O16 0.309216 0.170808 0.086840
O O17 0.250000 0.000000 0.198953
O O18 0.926874 0.776477 0.894208
O O19 0.890251 0.000000 0.993295
O O20 0.035120 0.000000 0.203017
#
# Coordination Sequence:
#
# PCOD8207454 Si02
#       8
#     8   8   8   8   4   4   8   8
#     4  10  20  37  61  88 115 150 198 245 295 360
#     4  10  22  40  60  83 112 153 200 240 287 346
#     4  11  22  38  59  85 122 160 196 244 299 357
#     4  10  22  40  60  83 118 154 191 247 301 346
#     4  12  24  36  56  87 122 159 198 243 298 356
#     4  10  18  34  56  81 116 155 192 231 286 346
#     4  10  20  36  59  85 115 152 191 236 287 341
#     4  10  21  36  58  88 119 152 190 235 294 356
#
# _framework density 19.221800999999999
#
# number of rings (size 3 to 8) (size 9 to 14) (size 15 to 20)
#    0.000    1.714    3.571    1.071    0.000    3.714 
#    1.286    2.857    0.000    0.000    0.000    0.000 
#    0.000    0.000    0.000    0.000    0.000    0.000 
#
# Total GULP energy -694294.003989 kJ/mol
# GULP energy per Si atom -12398.107214 kJ/mol
# Density = 1.917805 g / cm^3
# Si number density = 19.221801 Si / 1000 Ang^3
#
#
#
# Elastic Constant Matrix: (Units=GPa)
#
#
# Indices 1 2 3 4 5 6 
#
# 1 87.7340 33.9891 44.8497 0.0000 0.0000 0.0000
# 2 33.9891 60.9633 33.4698 0.0000 0.0000 0.0000
# 3 44.8497 33.4698 127.2692 0.0000 0.0000 0.0000
# 4 0.0000 0.0000 0.0000 32.0686 0.0000 0.0000
# 5 0.0000 0.0000 0.0000 0.0000 107.4064 0.0000
# 6 0.0000 0.0000 0.0000 0.0000 0.0000 29.8139
#
#
#
# Elastic Compliance Matrix: (Units=1/GPa)
#
#
# Indices 1 2 3 4 5 6 
#
# 1 0.016004 -0.006810 -0.003849 0.000000 0.000000 0.000000
# 2 -0.006810 0.022069 -0.003404 0.000000 0.000000 0.000000
# 3 -0.003849 -0.003404 0.010109 0.000000 0.000000 0.000000
# 4 0.000000 0.000000 0.000000 0.031183 0.000000 0.000000
# 5 0.000000 0.000000 0.000000 0.000000 0.009310 0.000000
# 6 0.000000 0.000000 0.000000 0.000000 0.000000 0.033541
#
#
# Mechanical properties :
#
#
# Convention : Reuss Voigt Hill
#
# Bulk Modulus (GPa) = 49.85936 55.62043 52.73989
# Shear Modulus (GPa) = 31.84169 44.76831 38.30500
#
# Velocity S-wave (km/s) = 4.07448 4.83125 4.46891
# Velocity P-wave (km/s) = 6.93761 7.75372 7.35699
#
# Compressibility (1/GPa) = 0.02005641
#
# Stress axis : x y z
#
# Youngs Moduli (GPa) = 62.48538 45.31298 98.92232
#
# Poissons Ratio (x) = 0.30856 0.38075
# Poissons Ratio (y) = 0.42549 0.33674
# Poissons Ratio (z) = 0.24050 0.15425
#
# Static dielectric constant tensor:
#      x y z
#    x 3.601250 0.000000 0.000000 
#    y 0.000000 3.529240 0.000000 
#    z 0.000000 0.000000 3.637070 
# 
# 
# High freq. dielectric constant tensor:
#      x y z
#    x 1.749800 0.000000 0.000000 
#    y 0.000000 1.738810 0.000000 
#    z 0.000000 0.000000 1.747830 
# 
# From -- ./inp_files/25855.got.cif
#   From: 2010.03.12/outbox.cif.g09.slc.cpg/sg51_13_cif.got.tgz:25855.got - 2010.04.16 13:43:02.
