data_PCOD8207190
_publ_section_title
;
Structure prediction by ZEFSAII (Michael W. Deem and Ramdas Pophale) SiO2 
 PCOD8207190
Probable space group: P M M A
;
_chemical_formula_sum "Si O2"
_cell_formula_units_Z 52
_cell_length_a 8.752770
_cell_length_b 23.665471
_cell_length_c 14.504179
_cell_angle_alpha 90.000000
_cell_angle_beta 90.000000
_cell_angle_gamma 90.000000
_cell_volume 3004.372788
_symmetry_space_group_name_H-M "P M M A"
_symmetry_group_IT_number 51
_symmetry_cell_setting 'orthorhombic'
loop_
_space_group_symop_operation_xyz
x,y,z
1/2-x,-y,z
1/2+x,-y,-z
-x,y,-z
-x,-y,-z
1/2+x,y,-z
1/2-x,y,z
x,-y,z
loop_
_atom_site_type_symbol
_atom_site_label
_atom_site_fract_x
_atom_site_fract_y
_atom_site_fract_z
Si Si1 0.569037 0.772125 0.711971
Si Si2 0.925689 0.563428 0.730006
Si Si3 0.931027 0.121813 0.601007
Si Si4 0.430709 0.336024 0.399497
Si Si5 0.930925 0.731299 0.906344
Si Si6 0.571516 0.000000 0.598861
Si Si7 0.430334 0.608463 0.906310
O O1 0.750000 0.771379 0.704874
O O2 0.502182 0.829770 0.668057
O O3 0.504824 0.718010 0.656531
O O4 0.519950 0.769720 0.819269
O O5 0.750000 0.576664 0.755720
O O6 0.944587 0.500000 0.690712
O O7 0.984110 0.607145 0.652768
O O8 0.026954 0.568277 0.821680
O O9 0.750000 0.127768 0.591696
O O10 0.000000 0.129971 0.500000
O O11 0.976135 0.060015 0.645818
O O12 0.500000 0.336028 0.500000
O O13 0.250000 0.333530 0.408221
O O14 0.750000 0.726615 0.916078
O O15 0.997389 0.669557 0.888497
O O16 0.000000 0.758154 0.000000
O O17 0.500000 0.000000 0.500000
O O18 0.750000 0.000000 0.584491
O O19 0.250000 0.613872 0.916519
O O20 0.500000 0.582145 0.000000
#
# Coordination Sequence:
#
# PCOD8207190 Si02
#       7
#     8   8   8   8   8   4   8
#     4   9  17  30  49  69  96 126 155 191 238 282
#     4  10  21  38  56  71  93 126 161 195 236 284
#     4   9  16  27  43  67  96 131 162 195 232 273
#     4  10  20  35  51  70  94 123 156 194 238 281
#     4  10  18  32  51  72  97 125 155 191 236 288
#     4   8  14  24  40  62  93 126 164 196 227 270
#     4  11  21  34  54  77 100 124 152 191 238 291
#
# _framework density 17.308105999999999
#
# number of rings (size 3 to 8) (size 9 to 14) (size 15 to 20)
#    0.000    2.308    1.538    3.231    0.000    1.538 
#    0.000    1.538    0.000    0.000    0.000    0.538 
#    0.000    0.000    0.000    0.000    0.000    0.000 
#
# Total GULP energy -644490.499140 kJ/mol
# GULP energy per Si atom -12394.048060 kJ/mol
# Density = 1.726871 g / cm^3
# Si number density = 17.308106 Si / 1000 Ang^3
#
#
#
# Elastic Constant Matrix: (Units=GPa)
#
#
# Indices 1 2 3 4 5 6 
#
# 1 50.9112 25.1816 29.9675 0.0000 0.0000 0.0000
# 2 25.1816 145.8052 76.6100 0.0000 0.0000 0.0000
# 3 29.9675 76.6100 132.7756 0.0000 0.0000 0.0000
# 4 0.0000 0.0000 0.0000 24.2855 0.0000 0.0000
# 5 0.0000 0.0000 0.0000 0.0000 26.7211 0.0000
# 6 0.0000 0.0000 0.0000 0.0000 0.0000 12.7475
#
#
#
# Elastic Compliance Matrix: (Units=1/GPa)
#
#
# Indices 1 2 3 4 5 6 
#
# 1 0.022970 -0.001784 -0.004155 0.000000 0.000000 0.000000
# 2 -0.001784 0.009981 -0.005356 0.000000 0.000000 0.000000
# 3 -0.004155 -0.005356 0.011560 0.000000 0.000000 0.000000
# 4 0.000000 0.000000 0.000000 0.041177 0.000000 0.000000
# 5 0.000000 0.000000 0.000000 0.000000 0.037424 0.000000
# 6 0.000000 0.000000 0.000000 0.000000 0.000000 0.078447
#
#
# Mechanical properties :
#
#
# Convention : Reuss Voigt Hill
#
# Bulk Modulus (GPa) = 45.61958 65.89002 55.75480
# Shear Modulus (GPa) = 21.60245 25.93301 23.76773
#
# Velocity S-wave (km/s) = 3.53669 3.87501 3.70971
# Velocity P-wave (km/s) = 6.56446 7.62709 7.11564
#
# Compressibility (1/GPa) = 0.02192041
#
# Stress axis : x y z
#
# Youngs Moduli (GPa) = 43.53465 100.19175 86.50685
#
# Poissons Ratio (x) = 0.17873 0.35944
# Poissons Ratio (y) = 0.07766 0.46335
# Poissons Ratio (z) = 0.18089 0.53665
#
# Static dielectric constant tensor:
#      x y z
#    x 3.040390 0.000000 0.000000 
#    y 0.000000 3.638480 0.000000 
#    z 0.000000 0.000000 3.318830 
# 
# 
# High freq. dielectric constant tensor:
#      x y z
#    x 1.655930 0.000000 0.000000 
#    y 0.000000 1.662350 0.000000 
#    z 0.000000 0.000000 1.657390 
# 
# From -- ./inp_files/22061.got.cif
#   From: 2010.03.12/outbox.cif.g09.slc.cpg/sg51_12_cif.got.tgz:22061.got - 2010.04.16 13:43:02.
