data_PCOD8207095
_publ_section_title
;
Structure prediction by ZEFSAII (Michael W. Deem and Ramdas Pophale) SiO2 
 PCOD8207095
Probable space group: P M M A
;
_chemical_formula_sum "Si O2"
_cell_formula_units_Z 56
_cell_length_a 9.083824
_cell_length_b 18.803663
_cell_length_c 18.558656
_cell_angle_alpha 90.000000
_cell_angle_beta 90.000000
_cell_angle_gamma 90.000000
_cell_volume 3169.988539
_symmetry_space_group_name_H-M "P M M A"
_symmetry_group_IT_number 51
_symmetry_cell_setting 'orthorhombic'
loop_
_space_group_symop_operation_xyz
x,y,z
1/2-x,-y,z
1/2+x,-y,-z
-x,y,-z
-x,-y,-z
1/2+x,y,-z
1/2-x,y,z
x,-y,z
loop_
_atom_site_type_symbol
_atom_site_label
_atom_site_fract_x
_atom_site_fract_y
_atom_site_fract_z
Si Si1 0.919644 0.580714 0.362341
Si Si2 0.923910 0.165264 0.072071
Si Si3 0.421332 0.712627 0.148426
Si Si4 0.579710 0.199990 0.709676
Si Si5 0.424235 0.710728 0.427265
Si Si6 0.080189 0.580427 0.804324
Si Si7 0.422998 0.919750 0.786454
O O1 0.750000 0.602693 0.373512
O O2 0.945742 0.500000 0.388392
O O3 0.964342 0.587753 0.279023
O O4 0.022233 0.631199 0.409776
O O5 0.750000 0.170969 0.061194
O O6 0.967412 0.111047 0.135603
O O7 0.989578 0.242986 0.088982
O O8 0.000000 0.135375 0.000000
O O9 0.250000 0.714474 0.128506
O O10 0.454532 0.744352 0.227109
O O11 0.479070 0.631832 0.147603
O O12 0.750000 0.180480 0.706730
O O13 0.525927 0.235175 0.635437
O O14 0.493658 0.126618 0.722660
O O15 0.500000 0.738460 0.500000
O O16 0.250000 0.709164 0.436610
O O17 0.250000 0.601684 0.814853
O O18 0.052123 0.500000 0.830758
O O19 0.250000 0.916894 0.775655
O O20 0.483101 0.000000 0.781087
#
# Coordination Sequence:
#
# PCOD8207095 Si02
#       7
#     8   8   8   8   8   8   8
#     4   9  18  32  49  70  98 133 172 213 260 311
#     4  10  20  34  52  77 109 142 171 202 242 292
#     4  10  18  31  51  74 100 132 172 215 255 299
#     4   9  19  34  51  74 102 130 167 211 253 299
#     4  11  22  35  50  72 100 134 174 217 262 310
#     4   9  17  29  47  72 100 130 168 214 261 306
#     4   9  19  35  56  82 108 135 167 201 242 294
#
# _framework density 17.665678
#
# number of rings (size 3 to 8) (size 9 to 14) (size 15 to 20)
#    0.000    2.429    1.429    2.143    0.000    3.714 
#    0.000    1.429    0.000    0.857    0.000    0.000 
#    0.000    0.000    0.000    0.000    0.000    0.000 
#
# Total GULP energy -694515.057216 kJ/mol
# GULP energy per Si atom -12402.054593 kJ/mol
# Density = 1.762547 g / cm^3
# Si number density = 17.665678 Si / 1000 Ang^3
#
#
#
# Elastic Constant Matrix: (Units=GPa)
#
#
# Indices 1 2 3 4 5 6 
#
# 1 68.1780 45.1903 35.9556 0.0000 0.0000 0.0000
# 2 45.1903 116.9502 45.5493 0.0000 0.0000 0.0000
# 3 35.9556 45.5493 74.9249 0.0000 0.0000 0.0000
# 4 0.0000 0.0000 0.0000 18.4390 0.0000 0.0000
# 5 0.0000 0.0000 0.0000 0.0000 28.4622 0.0000
# 6 0.0000 0.0000 0.0000 0.0000 0.0000 30.1623
#
#
#
# Elastic Compliance Matrix: (Units=1/GPa)
#
#
# Indices 1 2 3 4 5 6 
#
# 1 0.022309 -0.005831 -0.007161 0.000000 0.000000 0.000000
# 2 -0.005831 0.012728 -0.004939 0.000000 0.000000 0.000000
# 3 -0.007161 -0.004939 0.019786 0.000000 0.000000 0.000000
# 4 0.000000 0.000000 0.000000 0.054233 0.000000 0.000000
# 5 0.000000 0.000000 0.000000 0.000000 0.035134 0.000000
# 6 0.000000 0.000000 0.000000 0.000000 0.000000 0.033154
#
#
# Mechanical properties :
#
#
# Convention : Reuss Voigt Hill
#
# Bulk Modulus (GPa) = 52.74304 57.04928 54.89616
# Shear Modulus (GPa) = 22.77630 24.30320 23.53975
#
# Velocity S-wave (km/s) = 3.59457 3.71311 3.65432
# Velocity P-wave (km/s) = 6.86651 7.12368 6.99628
#
# Compressibility (1/GPa) = 0.01895985
#
# Stress axis : x y z
#
# Youngs Moduli (GPa) = 44.82461 78.56937 50.54148
#
# Poissons Ratio (x) = 0.45817 0.36192
# Poissons Ratio (y) = 0.26139 0.24963
# Poissons Ratio (z) = 0.32098 0.38806
#
# Static dielectric constant tensor:
#      x y z
#    x 3.214500 0.000000 0.000000 
#    y 0.000000 3.271590 0.000000 
#    z 0.000000 0.000000 3.158540 
# 
# 
# High freq. dielectric constant tensor:
#      x y z
#    x 1.686060 0.000000 0.000000 
#    y 0.000000 1.675570 0.000000 
#    z 0.000000 0.000000 1.662110 
# 
# From -- ./inp_files/28208.got.cif
#   From: 2010.03.12/outbox.cif.g09.slc.cpg/sg51_15_cif.got.tgz:28208.got - 2010.04.16 13:43:02.
