data_PCOD8207670
_publ_section_title
;
Structure prediction by ZEFSAII (Michael W. Deem and Ramdas Pophale) SiO2 
 PCOD8207670
Probable space group: P M M A
;
_chemical_formula_sum "Si O2"
_cell_formula_units_Z 48
_cell_length_a 24.110271
_cell_length_b 13.787227
_cell_length_c 8.655922
_cell_angle_alpha 90.000000
_cell_angle_beta 90.000000
_cell_angle_gamma 90.000000
_cell_volume 2877.347745
_symmetry_space_group_name_H-M "P M M A"
_symmetry_group_IT_number 51
_symmetry_cell_setting 'orthorhombic'
loop_
_space_group_symop_operation_xyz
x,y,z
1/2-x,-y,z
1/2+x,-y,-z
-x,y,-z
-x,-y,-z
1/2+x,y,-z
1/2-x,y,z
x,-y,z
loop_
_atom_site_type_symbol
_atom_site_label
_atom_site_fract_x
_atom_site_fract_y
_atom_site_fract_z
Si Si1 0.314723 0.888433 0.717663
Si Si2 0.583353 0.114102 0.813133
Si Si3 0.558015 0.392016 0.912963
Si Si4 0.096077 0.770626 0.891826
Si Si5 0.189327 0.885243 0.367458
Si Si6 0.493680 0.743950 0.323400
O O1 0.250000 0.879650 0.756232
O O2 0.346360 0.813376 0.829023
O O3 0.327097 0.855939 0.542106
O O4 0.334299 0.000000 0.746827
O O5 0.643731 0.151687 0.754316
O O6 0.537013 0.152868 0.694816
O O7 0.579601 0.000000 0.813222
O O8 0.570869 0.153485 0.984483
O O9 0.581709 0.500000 0.883092
O O10 0.545819 0.338135 0.751866
O O11 0.500000 0.396560 0.000000
O O12 0.602694 0.331901 0.016483
O O13 0.054067 0.754263 0.751594
O O14 0.250000 0.841405 0.324217
O O15 0.193417 0.000000 0.362059
O O16 0.500000 0.714798 0.500000
#
# Coordination Sequence:
#
# PCOD8207670 Si02
#       6
#     8   8   8   8   8   8
#     4   9  17  29  45  66  93 124 156 188 221 261
#     4  10  19  29  42  62  91 125 156 188 228 274
#     4   8  16  32  50  67  89 115 144 184 232 278
#     4  10  19  30  46  67  92 119 151 189 228 276
#     4   8  15  28  44  62  87 121 158 191 222 259
#     4  10  20  31  45  67  91 119 156 193 234 282
#
# _framework density 16.682029
#
# number of rings (size 3 to 8) (size 9 to 14) (size 15 to 20)
#    0.000    2.833    0.000    4.000    0.000    3.333 
#    0.000    1.667    0.000    0.500    0.000    0.000 
#    0.000    5.333    0.000    0.000    0.000    0.000 
#
# Total GULP energy -594893.092156 kJ/mol
# GULP energy per Si atom -12393.606087 kJ/mol
# Density = 1.664406 g / cm^3
# Si number density = 16.682029 Si / 1000 Ang^3
#
#
#
# Elastic Constant Matrix: (Units=GPa)
#
#
# Indices 1 2 3 4 5 6 
#
# 1 49.2734 33.1920 32.9142 0.0000 0.0000 0.0000
# 2 33.1920 98.5077 40.8910 0.0000 0.0000 0.0000
# 3 32.9142 40.8910 106.2716 0.0000 0.0000 0.0000
# 4 0.0000 0.0000 0.0000 15.1298 0.0000 0.0000
# 5 0.0000 0.0000 0.0000 0.0000 20.9310 0.0000
# 6 0.0000 0.0000 0.0000 0.0000 0.0000 17.2030
#
#
#
# Elastic Compliance Matrix: (Units=1/GPa)
#
#
# Indices 1 2 3 4 5 6 
#
# 1 0.029422 -0.007296 -0.006305 0.000000 0.000000 0.000000
# 2 -0.007296 0.013891 -0.003085 0.000000 0.000000 0.000000
# 3 -0.006305 -0.003085 0.012550 0.000000 0.000000 0.000000
# 4 0.000000 0.000000 0.000000 0.066095 0.000000 0.000000
# 5 0.000000 0.000000 0.000000 0.000000 0.047776 0.000000
# 6 0.000000 0.000000 0.000000 0.000000 0.000000 0.058129
#
#
# Mechanical properties :
#
#
# Convention : Reuss Voigt Hill
#
# Bulk Modulus (GPa) = 44.46559 52.00524 48.23541
# Shear Modulus (GPa) = 18.60598 20.45646 19.53122
#
# Velocity S-wave (km/s) = 3.34328 3.50559 3.42540
# Velocity P-wave (km/s) = 6.45105 6.90128 6.67996
#
# Compressibility (1/GPa) = 0.02248930
#
# Stress axis : x y z
#
# Youngs Moduli (GPa) = 33.98863 71.99126 79.68360
#
# Poissons Ratio (x) = 0.52527 0.50240
# Poissons Ratio (y) = 0.24799 0.24582
# Poissons Ratio (z) = 0.21430 0.22209
#
# Static dielectric constant tensor:
#      x y z
#    x 3.210110 0.000000 0.000000 
#    y 0.000000 3.145310 0.000000 
#    z 0.000000 0.000000 3.186910 
# 
# 
# High freq. dielectric constant tensor:
#      x y z
#    x 1.627240 0.000000 0.000000 
#    y 0.000000 1.613360 0.000000 
#    z 0.000000 0.000000 1.647210 
# 
# From -- ./inp_files/10787.got.cif
#   From: 2010.03.12/outbox.cif.g09.slc.cpg/sg51_6_cif.got.tgz:10787.got - 2010.04.16 13:43:02.
