data_PCOD8207619
_publ_section_title
;
Structure prediction by ZEFSAII (Michael W. Deem and Ramdas Pophale) SiO2 
 PCOD8207619
Probable space group: P M M A
;
_chemical_formula_sum "Si O2"
_cell_formula_units_Z 64
_cell_length_a 9.068351
_cell_length_b 17.488391
_cell_length_c 27.922164
_cell_angle_alpha 90.000000
_cell_angle_beta 90.000000
_cell_angle_gamma 90.000000
_cell_volume 4428.200226
_symmetry_space_group_name_H-M "P M M A"
_symmetry_group_IT_number 51
_symmetry_cell_setting 'orthorhombic'
loop_
_space_group_symop_operation_xyz
x,y,z
1/2-x,-y,z
1/2+x,-y,-z
-x,y,-z
-x,-y,-z
1/2+x,y,-z
1/2-x,y,z
x,-y,z
loop_
_atom_site_type_symbol
_atom_site_label
_atom_site_fract_x
_atom_site_fract_y
_atom_site_fract_z
Si Si1 0.085466 0.083420 0.402141
Si Si2 0.580962 0.804238 0.686180
Si Si3 0.415279 0.089976 0.139869
Si Si4 0.091326 0.191084 0.541432
Si Si5 0.080533 0.590295 0.450842
Si Si6 0.925167 0.911714 0.237674
Si Si7 0.915422 0.309849 0.375396
Si Si8 0.083084 0.908790 0.952832
O O1 0.250000 0.080061 0.422312
O O2 0.076494 0.139828 0.358156
O O3 0.984770 0.110943 0.445814
O O4 0.030954 0.000000 0.385088
O O5 0.750000 0.787102 0.701791
O O6 0.494178 0.848540 0.727549
O O7 0.502071 0.723552 0.671291
O O8 0.250000 0.124829 0.144630
O O9 0.513053 0.110226 0.185778
O O10 0.496782 0.124360 0.093279
O O11 0.402330 0.000000 0.133553
O O12 0.250000 0.172984 0.519907
O O13 0.101579 0.241165 0.588163
O O14 0.000000 0.234504 0.500000
O O15 0.250000 0.618569 0.453780
O O16 0.071273 0.500000 0.445166
O O17 0.000000 0.616161 0.500000
O O18 0.005024 0.623725 0.402804
O O19 0.750000 0.902822 0.237810
O O20 0.968969 0.000000 0.251099
O O21 0.750000 0.338328 0.360708
O O22 0.250000 0.877122 0.952672
O O23 0.084967 0.000000 0.951849
O O24 0.000000 0.878512 0.000000
#
# Coordination Sequence:
#
# PCOD8207619 Si02
#       8
#     8   8   8   8   8   8   8   8
#     4   9  18  31  44  56  70  89 115 147 181 217
#     4  10  19  31  46  61  77  98 125 156 191 230
#     4   9  16  25  36  50  68  91 121 157 198 242
#     4  10  20  31  43  58  74  94 118 143 173 209
#     4  10  20  33  50  72  94 113 131 150 176 213
#     4  10  19  29  41  57  77 100 128 165 206 245
#     4  10  20  33  48  65  84 104 126 151 180 217
#     4   9  15  22  32  46  65  89 117 150 191 240
#
# _framework density 14.452825000000001
#
# number of rings (size 3 to 8) (size 9 to 14) (size 15 to 20)
#    0.000    2.375    0.000    3.375    0.000    8.500 
#    0.000    0.000    0.000    0.000    0.000    0.000 
#    0.000    0.000    0.000    0.000    0.000    0.000 
#
# Total GULP energy -793132.348033 kJ/mol
# GULP energy per Si atom -12392.692938 kJ/mol
# Density = 1.441993 g / cm^3
# Si number density = 14.452825 Si / 1000 Ang^3
#
#
#
# Elastic Constant Matrix: (Units=GPa)
#
#
# Indices 1 2 3 4 5 6 
#
# 1 126.3553 23.6263 50.2726 0.0000 0.0000 0.0000
# 2 23.6263 32.0413 16.3335 0.0000 0.0000 0.0000
# 3 50.2726 16.3335 77.7920 0.0000 0.0000 0.0000
# 4 0.0000 0.0000 0.0000 47.3447 0.0000 0.0000
# 5 0.0000 0.0000 0.0000 0.0000 28.4014 0.0000
# 6 0.0000 0.0000 0.0000 0.0000 0.0000 30.6024
#
#
#
# Elastic Compliance Matrix: (Units=1/GPa)
#
#
# Indices 1 2 3 4 5 6 
#
# 1 0.011377 -0.005197 -0.006261 0.000000 0.000000 0.000000
# 2 -0.005197 0.037325 -0.004478 0.000000 0.000000 0.000000
# 3 -0.006261 -0.004478 0.017841 0.000000 0.000000 0.000000
# 4 0.000000 0.000000 0.000000 0.021122 0.000000 0.000000
# 5 0.000000 0.000000 0.000000 0.000000 0.035210 0.000000
# 6 0.000000 0.000000 0.000000 0.000000 0.000000 0.032677
#
#
# Mechanical properties :
#
#
# Convention : Reuss Voigt Hill
#
# Bulk Modulus (GPa) = 28.84333 46.29480 37.56907
# Shear Modulus (GPa) = 25.12796 31.00012 28.06404
#
# Velocity S-wave (km/s) = 4.17420 4.63635 4.41133
# Velocity P-wave (km/s) = 6.57511 7.79501 7.21091
#
# Compressibility (1/GPa) = 0.03467006
#
# Stress axis : x y z
#
# Youngs Moduli (GPa) = 87.89578 26.79173 56.05005
#
# Poissons Ratio (x) = 0.13925 0.35094
# Poissons Ratio (y) = 0.45684 0.25099
# Poissons Ratio (z) = 0.55032 0.11997
#
# Static dielectric constant tensor:
#      x y z
#    x 3.285480 0.000000 0.000000 
#    y 0.000000 2.487890 0.000000 
#    z 0.000000 0.000000 2.780500 
# 
# 
# High freq. dielectric constant tensor:
#      x y z
#    x 1.578030 0.000000 0.000000 
#    y 0.000000 1.495290 0.000000 
#    z 0.000000 0.000000 1.533030 
# 
# From -- ./inp_files/36441.got.cif
#   From: 2010.03.12/outbox.cif.g09.slc.cpg/sg51_19_cif.got.tgz:36441.got - 2010.04.16 13:43:02.
