data_PCOD8207510
_publ_section_title
;
Structure prediction by ZEFSAII (Michael W. Deem and Ramdas Pophale) SiO2 
 PCOD8207510
Probable space group: P M M A
;
_chemical_formula_sum "Si O2"
_cell_formula_units_Z 32
_cell_length_a 17.112306
_cell_length_b 11.309995
_cell_length_c 8.826290
_cell_angle_alpha 90.000000
_cell_angle_beta 90.000000
_cell_angle_gamma 90.000000
_cell_volume 1708.241008
_symmetry_space_group_name_H-M "P M M A"
_symmetry_group_IT_number 51
_symmetry_cell_setting 'orthorhombic'
loop_
_space_group_symop_operation_xyz
x,y,z
1/2-x,-y,z
1/2+x,-y,-z
-x,y,-z
-x,-y,-z
1/2+x,y,-z
1/2-x,y,z
x,-y,z
loop_
_atom_site_type_symbol
_atom_site_label
_atom_site_fract_x
_atom_site_fract_y
_atom_site_fract_z
Si Si1 0.042624 0.247063 0.342006
Si Si2 0.160057 0.863797 0.143278
Si Si3 0.929769 0.296317 0.094933
Si Si4 0.417802 0.500000 0.423679
Si Si5 0.840326 0.500000 0.262490
O O1 0.114197 0.159287 0.302086
O O2 0.082562 0.378851 0.326464
O O3 0.000000 0.221700 0.500000
O O4 0.974562 0.220138 0.221459
O O5 0.250000 0.827428 0.167115
O O6 0.152404 0.000000 0.097248
O O7 0.123757 0.786608 0.008241
O O8 0.876201 0.386835 0.183305
O O9 0.000000 0.359191 0.000000
O O10 0.500000 0.500000 0.500000
O O11 0.352723 0.500000 0.555883
O O12 0.750000 0.500000 0.228045
#
# Coordination Sequence:
#
# PCOD8207510 Si02
#       5
#     8   8   8   4   4
#     4  10  19  37  63  84 112 151 191 231 280 344
#     4  10  23  41  57  80 117 152 190 243 292 331
#     4  10  20  36  60  83 113 152 188 232 280 340
#     4  10  18  36  57  82 121 148 173 228 293 336
#     4  12  21  32  56  90 118 146 187 232 284 346
#
# _framework density 18.732718999999999
#
# number of rings (size 3 to 8) (size 9 to 14) (size 15 to 20)
#    0.000    1.750    5.000    1.125    0.000    9.000 
#    0.000    1.250    0.000    3.000    0.000    0.000 
#    0.000    0.000    0.000    0.000    0.000    0.000 
#
# Total GULP energy -396445.688214 kJ/mol
# GULP energy per Si atom -12388.927757 kJ/mol
# Density = 1.869008 g / cm^3
# Si number density = 18.732719 Si / 1000 Ang^3
#
#
#
# Elastic Constant Matrix: (Units=GPa)
#
#
# Indices 1 2 3 4 5 6 
#
# 1 152.1303 43.9966 50.7454 0.0000 0.0000 0.0000
# 2 43.9966 68.6211 17.3592 0.0000 0.0000 0.0000
# 3 50.7454 17.3592 96.2050 0.0000 0.0000 0.0000
# 4 0.0000 0.0000 0.0000 33.9754 0.0000 0.0000
# 5 0.0000 0.0000 0.0000 0.0000 33.8255 0.0000
# 6 0.0000 0.0000 0.0000 0.0000 0.0000 30.1665
#
#
#
# Elastic Compliance Matrix: (Units=1/GPa)
#
#
# Indices 1 2 3 4 5 6 
#
# 1 0.009361 -0.004980 -0.004039 0.000000 0.000000 0.000000
# 2 -0.004980 0.017919 -0.000607 0.000000 0.000000 0.000000
# 3 -0.004039 -0.000607 0.012634 0.000000 0.000000 0.000000
# 4 0.000000 0.000000 0.000000 0.029433 0.000000 0.000000
# 5 0.000000 0.000000 0.000000 0.000000 0.029563 0.000000
# 6 0.000000 0.000000 0.000000 0.000000 0.000000 0.033149
#
#
# Mechanical properties :
#
#
# Convention : Reuss Voigt Hill
#
# Bulk Modulus (GPa) = 48.39485 60.12874 54.26179
# Shear Modulus (GPa) = 31.60578 33.25049 32.42813
#
# Velocity S-wave (km/s) = 4.11201 4.21764 4.16516
# Velocity P-wave (km/s) = 6.95955 7.47569 7.22223
#
# Compressibility (1/GPa) = 0.02066336
#
# Stress axis : x y z
#
# Youngs Moduli (GPa) = 106.82853 55.80636 79.14921
#
# Poissons Ratio (x) = 0.27791 0.31968
# Poissons Ratio (y) = 0.53200 0.04801
# Poissons Ratio (z) = 0.43148 0.03385
#
# Static dielectric constant tensor:
#      x y z
#    x 3.612410 0.000000 0.000000 
#    y 0.000000 -12.342820 0.000000 
#    z 0.000000 0.000000 3.482070 
# 
# 
# High freq. dielectric constant tensor:
#      x y z
#    x 1.734290 0.000000 0.000000 
#    y 0.000000 1.709460 0.000000 
#    z 0.000000 0.000000 1.731520 
# 
# From -- ./inp_files/7590.got.cif
#   From: 2010.03.12/outbox.cif.g09.slc.cpg/sg51_4_cif.got.tgz:7590.got - 2010.04.16 13:43:02.
