data_PCOD8207117
_publ_section_title
;
Structure prediction by ZEFSAII (Michael W. Deem and Ramdas Pophale) SiO2 
 PCOD8207117
Probable space group: P M M A
;
_chemical_formula_sum "Si O2"
_cell_formula_units_Z 64
_cell_length_a 18.202460
_cell_length_b 9.022878
_cell_length_c 21.724342
_cell_angle_alpha 90.000000
_cell_angle_beta 90.000000
_cell_angle_gamma 90.000000
_cell_volume 3567.974992
_symmetry_space_group_name_H-M "P M M A"
_symmetry_group_IT_number 51
_symmetry_cell_setting 'orthorhombic'
loop_
_space_group_symop_operation_xyz
x,y,z
1/2-x,-y,z
1/2+x,-y,-z
-x,y,-z
-x,-y,-z
1/2+x,y,-z
1/2-x,y,z
x,-y,z
loop_
_atom_site_type_symbol
_atom_site_label
_atom_site_fract_x
_atom_site_fract_y
_atom_site_fract_z
Si Si1 0.086310 0.324461 0.390756
Si Si2 0.567324 0.170118 0.383359
Si Si3 0.977416 0.176156 0.067288
Si Si4 0.081066 0.170232 0.754507
Si Si5 0.545956 0.326379 0.820925
Si Si6 0.830365 0.173433 0.129511
Si Si7 0.164960 0.171452 0.502177
Si Si8 0.668337 0.675043 0.729585
O O1 0.084992 0.500000 0.389850
O O2 0.130854 0.271895 0.449656
O O3 0.125937 0.259551 0.329754
O O4 0.003468 0.269233 0.394386
O O5 0.603151 0.198549 0.316145
O O6 0.628469 0.213621 0.432870
O O7 0.542733 0.000000 0.390444
O O8 0.895283 0.234869 0.084898
O O9 0.036630 0.241044 0.114844
O O10 0.980844 0.000000 0.071690
O O11 0.000000 0.233623 0.000000
O O12 0.149466 0.207581 0.799270
O O13 0.013763 0.276723 0.770834
O O14 0.056335 0.000000 0.765659
O O15 0.537375 0.500000 0.832981
O O16 0.625321 0.285614 0.792448
O O17 0.750000 0.245985 0.115183
O O18 0.824038 0.000000 0.118234
O O19 0.250000 0.209728 0.508386
O O20 0.151548 0.000000 0.485616
O O21 0.750000 0.744680 0.733488
O O22 0.673325 0.500000 0.721690
#
# Coordination Sequence:
#
# PCOD8207117 Si02
#       8
#     8   8   8   8   8   8   8   8
#     4  11  21  35  55  76  99 132 176 218 257 311
#     4  10  20  34  53  75 101 133 168 212 262 315
#     4   9  18  33  52  74 103 138 171 207 249 294
#     4   9  17  30  50  74 100 130 163 203 251 301
#     4  10  18  31  52  75 100 129 165 206 247 298
#     4   8  14  26  47  74  99 127 167 207 241 285
#     4  10  22  38  52  71 102 137 173 216 266 314
#     4   9  18  32  50  73 100 130 165 207 255 302
#
# _framework density 17.937344
#
# number of rings (size 3 to 8) (size 9 to 14) (size 15 to 20)
#    0.000    2.500    1.250    2.250    0.000    3.500 
#    0.000    3.125    0.000   10.500    0.000    3.500 
#    0.000    0.000    0.000    0.000    0.000    0.000 
#
# Total GULP energy -793415.549658 kJ/mol
# GULP energy per Si atom -12397.117963 kJ/mol
# Density = 1.789652 g / cm^3
# Si number density = 17.937344 Si / 1000 Ang^3
#
#
#
# Elastic Constant Matrix: (Units=GPa)
#
#
# Indices 1 2 3 4 5 6 
#
# 1 103.8095 21.3963 78.6471 0.0000 0.0000 0.0000
# 2 21.3963 32.3849 34.2277 0.0000 0.0000 0.0000
# 3 78.6471 34.2277 150.9977 0.0000 0.0000 0.0000
# 4 0.0000 0.0000 0.0000 22.8251 0.0000 0.0000
# 5 0.0000 0.0000 0.0000 0.0000 22.6753 0.0000
# 6 0.0000 0.0000 0.0000 0.0000 0.0000 16.5823
#
#
#
# Elastic Compliance Matrix: (Units=1/GPa)
#
#
# Indices 1 2 3 4 5 6 
#
# 1 0.016044 -0.002325 -0.007829 0.000000 0.000000 0.000000
# 2 -0.002325 0.040944 -0.008070 0.000000 0.000000 0.000000
# 3 -0.007829 -0.008070 0.012530 0.000000 0.000000 0.000000
# 4 0.000000 0.000000 0.000000 0.043811 0.000000 0.000000
# 5 0.000000 0.000000 0.000000 0.000000 0.044101 0.000000
# 6 0.000000 0.000000 0.000000 0.000000 0.000000 0.060305
#
#
# Mechanical properties :
#
#
# Convention : Reuss Voigt Hill
#
# Bulk Modulus (GPa) = 30.24007 61.74827 45.99417
# Shear Modulus (GPa) = 18.85318 22.61128 20.73223
#
# Velocity S-wave (km/s) = 3.24552 3.55430 3.40341
# Velocity P-wave (km/s) = 5.56236 7.16542 6.41417
#
# Compressibility (1/GPa) = 0.03306871
#
# Stress axis : x y z
#
# Youngs Moduli (GPa) = 62.32900 24.42357 79.80933
#
# Poissons Ratio (x) = 0.05679 0.62486
# Poissons Ratio (y) = 0.14492 0.64407
# Poissons Ratio (z) = 0.48800 0.19710
#
# Static dielectric constant tensor:
#      x y z
#    x 3.535400 0.000000 0.000000 
#    y 0.000000 3.073360 0.000000 
#    z 0.000000 0.000000 3.482090 
# 
# 
# High freq. dielectric constant tensor:
#      x y z
#    x 1.692390 0.000000 0.000000 
#    y 0.000000 1.667780 0.000000 
#    z 0.000000 0.000000 1.697860 
# 
# From -- ./inp_files/33787.got.cif
#   From: 2010.03.12/outbox.cif.g09.slc.cpg/sg51_17_cif.got.tgz:33787.got - 2010.04.16 13:43:02.
