data_PCOD8207309
_publ_section_title
;
Structure prediction by ZEFSAII (Michael W. Deem and Ramdas Pophale) SiO2 
 PCOD8207309
Probable space group: P M M A
;
_chemical_formula_sum "Si O2"
_cell_formula_units_Z 64
_cell_length_a 23.773720
_cell_length_b 9.088808
_cell_length_c 15.482636
_cell_angle_alpha 90.000000
_cell_angle_beta 90.000000
_cell_angle_gamma 90.000000
_cell_volume 3345.407114
_symmetry_space_group_name_H-M "P M M A"
_symmetry_group_IT_number 51
_symmetry_cell_setting 'orthorhombic'
loop_
_space_group_symop_operation_xyz
x,y,z
1/2-x,-y,z
1/2+x,-y,-z
-x,y,-z
-x,-y,-z
1/2+x,y,-z
1/2-x,y,z
x,-y,z
loop_
_atom_site_type_symbol
_atom_site_label
_atom_site_fract_x
_atom_site_fract_y
_atom_site_fract_z
Si Si1 0.386020 0.825539 0.404879
Si Si2 0.186920 0.175114 0.246924
Si Si3 0.504483 0.668997 0.852190
Si Si4 0.113383 0.174464 0.085326
Si Si5 0.622662 0.169996 0.403941
Si Si6 0.119343 0.331208 0.914433
Si Si7 0.002327 0.169713 0.674491
Si Si8 0.185246 0.327420 0.747327
O O1 0.343434 0.762331 0.332714
O O2 0.368521 0.765914 0.499298
O O3 0.449372 0.777137 0.381945
O O4 0.383144 0.000000 0.407222
O O5 0.250000 0.238925 0.243261
O O6 0.153110 0.229268 0.163043
O O7 0.187659 0.000000 0.249454
O O8 0.524154 0.500000 0.847339
O O9 0.551202 0.763605 0.900475
O O10 0.447506 0.683981 0.906258
O O11 0.492801 0.727868 0.757116
O O12 0.110311 0.000000 0.080269
O O13 0.139275 0.236639 0.996545
O O14 0.557381 0.192186 0.382454
O O15 0.663254 0.255901 0.340156
O O16 0.639723 0.000000 0.398175
O O17 0.137284 0.500000 0.929122
O O18 0.150346 0.267308 0.829515
O O19 0.994917 0.000000 0.704219
O O20 0.250000 0.285142 0.760957
O O21 0.175902 0.500000 0.737950
#
# Coordination Sequence:
#
# PCOD8207309 Si02
#       8
#     8   8   8   8   8   8   8   8
#     4   9  17  32  54  83 116 148 179 219 277 335
#     4   9  18  33  53  78 109 144 182 223 268 321
#     4  11  21  35  57  82 111 147 182 221 272 334
#     4  11  22  36  57  85 112 142 181 228 281 331
#     4  10  20  33  57  88 115 142 181 234 281 326
#     4  10  22  39  57  80 109 144 184 225 274 333
#     4  10  18  32  55  84 115 145 180 226 280 332
#     4  10  22  41  60  77 108 154 194 229 275 330
#
# _framework density 19.130704999999999
#
# number of rings (size 3 to 8) (size 9 to 14) (size 15 to 20)
#    0.000    2.000    2.500    1.500    0.000    5.750 
#    0.000    1.875    0.000    2.625    0.000    0.000 
#    0.000    0.000    0.000    0.000    0.000    0.000 
#
# Total GULP energy -793717.038279 kJ/mol
# GULP energy per Si atom -12401.828723 kJ/mol
# Density = 1.908716 g / cm^3
# Si number density = 19.130705 Si / 1000 Ang^3
#
#
#
# Elastic Constant Matrix: (Units=GPa)
#
#
# Indices 1 2 3 4 5 6 
#
# 1 105.3687 31.6096 52.0838 0.0000 0.0000 0.0000
# 2 31.6096 47.5508 45.5549 0.0000 0.0000 0.0000
# 3 52.0838 45.5549 168.9315 0.0000 0.0000 0.0000
# 4 0.0000 0.0000 0.0000 6.8905 0.0000 0.0000
# 5 0.0000 0.0000 0.0000 0.0000 13.5912 0.0000
# 6 0.0000 0.0000 0.0000 0.0000 0.0000 18.8940
#
#
#
# Elastic Compliance Matrix: (Units=1/GPa)
#
#
# Indices 1 2 3 4 5 6 
#
# 1 0.012413 -0.006182 -0.002160 0.000000 0.000000 0.000000
# 2 -0.006182 0.031435 -0.006571 0.000000 0.000000 0.000000
# 3 -0.002160 -0.006571 0.008357 0.000000 0.000000 0.000000
# 4 0.000000 0.000000 0.000000 0.145127 0.000000 0.000000
# 5 0.000000 0.000000 0.000000 0.000000 0.073577 0.000000
# 6 0.000000 0.000000 0.000000 0.000000 0.000000 0.052927
#
#
# Mechanical properties :
#
#
# Convention : Reuss Voigt Hill
#
# Bulk Modulus (GPa) = 44.68448 64.48307 54.58378
# Shear Modulus (GPa) = 13.84574 20.71531 17.28053
#
# Velocity S-wave (km/s) = 2.69317 3.29421 3.00873
# Velocity P-wave (km/s) = 5.75144 6.94614 6.37683
#
# Compressibility (1/GPa) = 0.02237913
#
# Stress axis : x y z
#
# Youngs Moduli (GPa) = 80.56254 31.81190 119.65439
#
# Poissons Ratio (x) = 0.19667 0.25844
# Poissons Ratio (y) = 0.49805 0.78623
# Poissons Ratio (z) = 0.17401 0.20903
#
# Static dielectric constant tensor:
#      x y z
#    x 3.581840 0.000000 0.000000 
#    y 0.000000 3.240560 0.000000 
#    z 0.000000 0.000000 3.770360 
# 
# 
# High freq. dielectric constant tensor:
#      x y z
#    x 1.743920 0.000000 0.000000 
#    y 0.000000 1.711010 0.000000 
#    z 0.000000 0.000000 1.759970 
# 
# From -- ./inp_files/26293.got.cif
#   From: 2010.03.12/outbox.cif.g09.slc.cpg/sg51_14_cif.got.tgz:26293.got - 2010.04.16 13:43:02.
