data_PCOD8207051
_publ_section_title
;
Structure prediction by ZEFSAII (Michael W. Deem and Ramdas Pophale) SiO2 
 PCOD8207051
Probable space group: P M M A
;
_chemical_formula_sum "Si O2"
_cell_formula_units_Z 48
_cell_length_a 18.545548
_cell_length_b 15.165259
_cell_length_c 8.529711
_cell_angle_alpha 90.000000
_cell_angle_beta 90.000000
_cell_angle_gamma 90.000000
_cell_volume 2398.964490
_symmetry_space_group_name_H-M "P M M A"
_symmetry_group_IT_number 51
_symmetry_cell_setting 'orthorhombic'
loop_
_space_group_symop_operation_xyz
x,y,z
1/2-x,-y,z
1/2+x,-y,-z
-x,y,-z
-x,-y,-z
1/2+x,y,-z
1/2-x,y,z
x,-y,z
loop_
_atom_site_type_symbol
_atom_site_label
_atom_site_fract_x
_atom_site_fract_y
_atom_site_fract_z
Si Si1 0.332575 0.231302 0.980221
Si Si2 0.830412 0.000000 0.318086
Si Si3 0.167285 0.195378 0.624505
Si Si4 0.567168 0.313659 0.593447
Si Si5 0.832164 0.598706 0.829291
Si Si6 0.979060 0.000000 0.178575
Si Si7 0.041352 0.175874 0.159632
O O1 0.250000 0.204208 0.997943
O O2 0.358885 0.213045 0.803147
O O3 0.347063 0.333727 0.027614
O O4 0.374809 0.170238 0.105933
O O5 0.839738 0.090512 0.417644
O O6 0.892515 0.000000 0.186908
O O7 0.750000 0.000000 0.239789
O O8 0.250000 0.226389 0.604542
O O9 0.117882 0.251520 0.510736
O O10 0.500000 0.358140 0.500000
O O11 0.616245 0.386301 0.678944
O O12 0.527052 0.254179 0.721305
O O13 0.750000 0.609740 0.770171
O O14 0.846072 0.500000 0.893451
O O15 0.014634 0.087904 0.250806
O O16 0.000000 0.000000 0.000000
O O17 0.000000 0.197677 0.000000
#
# Coordination Sequence:
#
# PCOD8207051 Si02
#       7
#     8   4   8   8   8   4   8
#     4   9  18  34  56  76  99 134 177 220 264 318
#     4  10  20  33  51  73 106 146 183 218 256 308
#     4  10  20  35  54  79 108 141 180 220 261 307
#     4  11  21  33  54  79 108 141 173 215 265 318
#     4   9  19  37  58  78 102 135 174 218 269 322
#     4  10  18  31  49  73 103 136 181 228 265 302
#     4  10  20  34  51  74 106 142 180 219 262 312
#
# _framework density 20.008633
#
# number of rings (size 3 to 8) (size 9 to 14) (size 15 to 20)
#    0.000    2.167    0.000    4.500    0.000    1.667 
#    0.000    2.917    0.000   20.000    0.000    0.000 
#    0.000    0.000    0.000    0.000    0.000    0.000 
#
# Total GULP energy -594812.824193 kJ/mol
# GULP energy per Si atom -12391.933837 kJ/mol
# Density = 1.996309 g / cm^3
# Si number density = 20.008633 Si / 1000 Ang^3
#
#
#
# Elastic Constant Matrix: (Units=GPa)
#
#
# Indices 1 2 3 4 5 6 
#
# 1 74.2966 36.7017 18.8292 0.0000 0.0000 0.0000
# 2 36.7017 93.0885 18.2288 0.0000 0.0000 0.0000
# 3 18.8292 18.2288 50.7528 0.0000 0.0000 0.0000
# 4 0.0000 0.0000 0.0000 17.7214 0.0000 0.0000
# 5 0.0000 0.0000 0.0000 0.0000 35.4022 0.0000
# 6 0.0000 0.0000 0.0000 0.0000 0.0000 23.5697
#
#
#
# Elastic Compliance Matrix: (Units=1/GPa)
#
#
# Indices 1 2 3 4 5 6 
#
# 1 0.017558 -0.006074 -0.004332 0.000000 0.000000 0.000000
# 2 -0.006074 0.013657 -0.002651 0.000000 0.000000 0.000000
# 3 -0.004332 -0.002651 0.022263 0.000000 0.000000 0.000000
# 4 0.000000 0.000000 0.000000 0.056429 0.000000 0.000000
# 5 0.000000 0.000000 0.000000 0.000000 0.028247 0.000000
# 6 0.000000 0.000000 0.000000 0.000000 0.000000 0.042427
#
#
# Mechanical properties :
#
#
# Convention : Reuss Voigt Hill
#
# Bulk Modulus (GPa) = 36.54768 40.62861 38.58815
# Shear Modulus (GPa) = 23.16774 24.96387 24.06580
#
# Velocity S-wave (km/s) = 3.40647 3.53605 3.47186
# Velocity P-wave (km/s) = 5.81185 6.08450 5.94974
#
# Compressibility (1/GPa) = 0.02736152
#
# Stress axis : x y z
#
# Youngs Moduli (GPa) = 56.95365 73.22500 44.91760
#
# Poissons Ratio (x) = 0.44478 0.19460
# Poissons Ratio (y) = 0.34595 0.11910
# Poissons Ratio (z) = 0.24675 0.19415
#
# Static dielectric constant tensor:
#      x y z
#    x 3.977850 0.000000 0.000000 
#    y 0.000000 4.041510 0.000000 
#    z 0.000000 0.000000 3.508760 
# 
# 
# High freq. dielectric constant tensor:
#      x y z
#    x 1.802640 0.000000 0.000000 
#    y 0.000000 1.765440 0.000000 
#    z 0.000000 0.000000 1.754660 
# 
# From -- ./inp_files/9723.got.cif
#   From: 2010.03.12/outbox.cif.g09.slc.cpg/sg51_5_cif.got.tgz:9723.got - 2010.04.16 13:43:02.
