data_PCOD8207981
_publ_section_title
;
Structure prediction by ZEFSAII (Michael W. Deem and Ramdas Pophale) SiO2 
 PCOD8207981
Probable space group: P M M A
;
_chemical_formula_sum "Si O2"
_cell_formula_units_Z 48
_cell_length_a 13.896830
_cell_length_b 9.172213
_cell_length_c 21.102954
_cell_angle_alpha 90.000000
_cell_angle_beta 90.000000
_cell_angle_gamma 90.000000
_cell_volume 2689.881380
_symmetry_space_group_name_H-M "P M M A"
_symmetry_group_IT_number 51
_symmetry_cell_setting 'orthorhombic'
loop_
_space_group_symop_operation_xyz
x,y,z
1/2-x,-y,z
1/2+x,-y,-z
-x,y,-z
-x,-y,-z
1/2+x,y,-z
1/2-x,y,z
x,-y,z
loop_
_atom_site_type_symbol
_atom_site_label
_atom_site_fract_x
_atom_site_fract_y
_atom_site_fract_z
Si Si1 0.138701 0.166658 0.469345
Si Si2 0.861158 0.329407 0.404526
Si Si3 0.356251 0.826536 0.967544
Si Si4 0.546381 0.173385 0.904810
Si Si5 0.358972 0.826182 0.222979
Si Si6 0.524159 0.171639 0.655379
O O1 0.250000 0.189336 0.454188
O O2 0.104831 0.264409 0.528108
O O3 0.083964 0.215777 0.406568
O O4 0.115335 0.000000 0.487475
O O5 0.750000 0.292096 0.391758
O O6 0.880954 0.500000 0.405265
O O7 0.921941 0.254159 0.348336
O O8 0.250000 0.763876 0.950712
O O9 0.435800 0.773551 0.916172
O O10 0.353426 0.000000 0.968194
O O11 0.387124 0.771178 0.037349
O O12 0.587834 0.237439 0.839329
O O13 0.548817 0.000000 0.902427
O O14 0.250000 0.765595 0.225737
O O15 0.417660 0.770379 0.283864
O O16 0.356702 0.000000 0.221766
O O17 0.505581 0.000000 0.660147
#
# Coordination Sequence:
#
# PCOD8207981 Si02
#       6
#     8   8   8   8   8   8
#     4   9  17  30  48  69  92 116 143 179 224 270
#     4  10  21  35  49  65  86 114 148 185 225 267
#     4   8  12  18  29  46  71 104 143 185 222 255
#     4   8  13  20  31  49  73 106 147 184 219 258
#     4   9  16  26  40  58  82 112 146 182 219 264
#     4  10  19  30  46  68  91 116 147 182 221 265
#
# _framework density 17.844652
#
# number of rings (size 3 to 8) (size 9 to 14) (size 15 to 20)
#    0.000    3.000    0.000    3.000    0.000    7.667 
#    0.000    0.833    0.000    4.500    0.000    0.000 
#    0.000    0.000    0.000    3.000    0.000   14.667 
#
# Total GULP energy -595003.414651 kJ/mol
# GULP energy per Si atom -12395.904472 kJ/mol
# Density = 1.780404 g / cm^3
# Si number density = 17.844652 Si / 1000 Ang^3
#
#
#
# Elastic Constant Matrix: (Units=GPa)
#
#
# Indices 1 2 3 4 5 6 
#
# 1 145.9004 28.6996 93.7989 0.0000 0.0000 0.0000
# 2 28.6996 25.1281 28.7161 0.0000 0.0000 0.0000
# 3 93.7989 28.7161 130.3686 0.0000 0.0000 0.0000
# 4 0.0000 0.0000 0.0000 -0.6264 0.0000 0.0000
# 5 0.0000 0.0000 0.0000 0.0000 31.8874 0.0000
# 6 0.0000 0.0000 0.0000 0.0000 0.0000 14.7253
#
#
#
# Elastic Compliance Matrix: (Units=1/GPa)
#
#
# Indices 1 2 3 4 5 6 
#
# 1 0.013338 -0.005702 -0.008340 0.000000 0.000000 0.000000
# 2 -0.005702 0.055621 -0.008149 0.000000 0.000000 0.000000
# 3 -0.008340 -0.008149 0.015466 0.000000 0.000000 0.000000
# 4 0.000000 0.000000 0.000000 -1.596538 0.000000 0.000000
# 5 0.000000 0.000000 0.000000 0.000000 0.031360 0.000000
# 6 0.000000 0.000000 0.000000 0.000000 0.000000 0.067911
#
#
# Mechanical properties :
#
#
# Convention : Reuss Voigt Hill
#
# Bulk Modulus (GPa) = 24.97361 67.09181 46.03271
# Shear Modulus (GPa) = -3.68973 19.20942 7.75985
#
# Velocity S-wave (km/s) = -1.43951 3.28454 2.08758
# Velocity P-wave (km/s) = 3.35596 7.21551 5.62699
#
# Compressibility (1/GPa) = 0.04004226
#
# Stress axis : x y z
#
# Youngs Moduli (GPa) = 74.97644 17.97878 64.65694
#
# Poissons Ratio (x) = 0.10252 0.53925
# Poissons Ratio (y) = 0.42752 0.52689
# Poissons Ratio (z) = 0.62532 0.14651
#
# Static dielectric constant tensor:
#      x y z
#    x 3.688070 0.000000 0.000000 
#    y 0.000000 2.712390 0.000000 
#    z 0.000000 0.000000 3.390110 
# 
# 
# High freq. dielectric constant tensor:
#      x y z
#    x 1.709430 0.000000 0.000000 
#    y 0.000000 1.624730 0.000000 
#    z 0.000000 0.000000 1.678880 
# 
# From -- ./inp_files/33194.got.cif
#   From: 2010.03.12/outbox.cif.g09.slc.cpg/sg51_17_cif.got.tgz:33194.got - 2010.04.16 13:43:02.
