data_PCOD8207603
_publ_section_title
;
Structure prediction by ZEFSAII (Michael W. Deem and Ramdas Pophale) SiO2 
 PCOD8207603
Probable space group: P M M A
;
_chemical_formula_sum "Si O2"
_cell_formula_units_Z 64
_cell_length_a 9.358612
_cell_length_b 17.942790
_cell_length_c 27.894708
_cell_angle_alpha 90.000000
_cell_angle_beta 90.000000
_cell_angle_gamma 90.000000
_cell_volume 4684.068483
_symmetry_space_group_name_H-M "P M M A"
_symmetry_group_IT_number 51
_symmetry_cell_setting 'orthorhombic'
loop_
_space_group_symop_operation_xyz
x,y,z
1/2-x,-y,z
1/2+x,-y,-z
-x,y,-z
-x,-y,-z
1/2+x,y,-z
1/2-x,y,z
x,-y,z
loop_
_atom_site_type_symbol
_atom_site_label
_atom_site_fract_x
_atom_site_fract_y
_atom_site_fract_z
Si Si1 0.911445 0.411994 0.363297
Si Si2 0.090470 0.417672 0.095401
Si Si3 0.088647 0.307139 0.183186
Si Si4 0.412858 0.411174 0.453875
Si Si5 0.593922 0.683811 0.040590
Si Si6 0.418479 0.413969 0.268372
Si Si7 0.592263 0.798464 0.125218
Si Si8 0.582743 0.086347 0.048179
O O1 0.750000 0.378740 0.363337
O O2 0.902292 0.500000 0.368690
O O3 0.003448 0.379488 0.407518
O O4 0.993028 0.390143 0.314910
O O5 0.250000 0.415232 0.074286
O O6 0.049221 0.500000 0.113143
O O7 0.077907 0.363840 0.140009
O O8 0.983573 0.393768 0.053276
O O9 0.250000 0.280853 0.192603
O O10 0.030571 0.354101 0.228556
O O11 0.001269 0.231140 0.170343
O O12 0.500000 0.382313 0.500000
O O13 0.250000 0.380288 0.454804
O O14 0.408576 0.500000 0.452951
O O15 0.750000 0.666892 0.019699
O O16 0.604300 0.732819 0.087395
O O17 0.500000 0.725493 0.000000
O O18 0.250000 0.406685 0.278782
O O19 0.452876 0.500000 0.253196
O O20 0.750000 0.818677 0.145152
O O21 0.527235 0.869029 0.095551
O O22 0.750000 0.104558 0.039824
O O23 0.555138 0.000000 0.059008
O O24 0.500000 0.111087 0.000000
#
# Coordination Sequence:
#
# PCOD8207603 Si02
#       8
#     8   8   8   8   8   8   8   8
#     4   9  16  24  33  47  66  87 113 145 182 223
#     4   9  17  29  42  53  65  82 106 136 167 199
#     4   9  17  28  42  57  70  88 114 141 171 206
#     4   9  15  22  32  45  62  85 112 143 181 225
#     4  10  19  29  40  53  68  86 107 130 158 192
#     4   9  16  26  39  53  69  89 115 149 186 220
#     4   9  18  30  42  57  76  94 111 133 161 195
#     4   9  17  29  45  64  83 100 116 134 159 194
#
# _framework density 13.663335
#
# number of rings (size 3 to 8) (size 9 to 14) (size 15 to 20)
#    0.000    2.875    0.000    1.875    0.000    6.500 
#    0.000    0.000    0.000    2.250    0.000    0.000 
#    0.000    0.000    0.000    0.000    0.000    0.000 
#
# Total GULP energy -793011.485591 kJ/mol
# GULP energy per Si atom -12390.804462 kJ/mol
# Density = 1.363224 g / cm^3
# Si number density = 13.663335 Si / 1000 Ang^3
#
#
#
# Elastic Constant Matrix: (Units=GPa)
#
#
# Indices 1 2 3 4 5 6 
#
# 1 86.1145 21.9244 46.0246 0.0000 0.0000 0.0000
# 2 21.9244 46.4132 24.0708 0.0000 0.0000 0.0000
# 3 46.0246 24.0708 80.4031 0.0000 0.0000 0.0000
# 4 0.0000 0.0000 0.0000 -6.9524 0.0000 0.0000
# 5 0.0000 0.0000 0.0000 0.0000 23.9785 0.0000
# 6 0.0000 0.0000 0.0000 0.0000 0.0000 12.0946
#
#
#
# Elastic Compliance Matrix: (Units=1/GPa)
#
#
# Indices 1 2 3 4 5 6 
#
# 1 0.017219 -0.003577 -0.008785 0.000000 0.000000 0.000000
# 2 -0.003577 0.026249 -0.005811 0.000000 0.000000 0.000000
# 3 -0.008785 -0.005811 0.019206 0.000000 0.000000 0.000000
# 4 0.000000 0.000000 0.000000 -0.143835 0.000000 0.000000
# 5 0.000000 0.000000 0.000000 0.000000 0.041704 0.000000
# 6 0.000000 0.000000 0.000000 0.000000 0.000000 0.082682
#
#
# Mechanical properties :
#
#
# Convention : Reuss Voigt Hill
#
# Bulk Modulus (GPa) = 37.98406 44.10781 41.04594
# Shear Modulus (GPa) = 56.59540 13.88486 35.24013
#
# Velocity S-wave (km/s) = 6.44293 3.19127 5.08407
# Velocity P-wave (km/s) = 9.12188 6.77723 8.03553
#
# Compressibility (1/GPa) = 0.02632683
#
# Stress axis : x y z
#
# Youngs Moduli (GPa) = 58.07660 38.09680 52.06756
#
# Poissons Ratio (x) = 0.13629 0.45743
# Poissons Ratio (y) = 0.20776 0.30254
# Poissons Ratio (z) = 0.51022 0.22136
#
# Static dielectric constant tensor:
#      x y z
#    x 3.037830 0.000000 0.000000 
#    y 0.000000 2.457520 0.000000 
#    z 0.000000 0.000000 2.682110 
# 
# 
# High freq. dielectric constant tensor:
#      x y z
#    x 1.532530 0.000000 0.000000 
#    y 0.000000 1.467220 0.000000 
#    z 0.000000 0.000000 1.503200 
# 
# From -- ./inp_files/36470.got.cif
#   From: 2010.03.12/outbox.cif.g09.slc.cpg/sg51_19_cif.got.tgz:36470.got - 2010.04.16 13:43:02.
