data_PCOD8207611
_publ_section_title
;
Structure prediction by ZEFSAII (Michael W. Deem and Ramdas Pophale) SiO2 
 PCOD8207611
Probable space group: P M M A
;
_chemical_formula_sum "Si O2"
_cell_formula_units_Z 56
_cell_length_a 26.679569
_cell_length_b 8.885230
_cell_length_c 14.641213
_cell_angle_alpha 90.000000
_cell_angle_beta 90.000000
_cell_angle_gamma 90.000000
_cell_volume 3470.759671
_symmetry_space_group_name_H-M "P M M A"
_symmetry_group_IT_number 51
_symmetry_cell_setting 'orthorhombic'
loop_
_space_group_symop_operation_xyz
x,y,z
1/2-x,-y,z
1/2+x,-y,-z
-x,y,-z
-x,-y,-z
1/2+x,y,-z
1/2-x,y,z
x,-y,z
loop_
_atom_site_type_symbol
_atom_site_label
_atom_site_fract_x
_atom_site_fract_y
_atom_site_fract_z
Si Si1 0.457936 0.175747 0.379035
Si Si2 0.883961 0.324885 0.754295
Si Si3 0.694846 0.323361 0.612838
Si Si4 0.563897 0.675153 0.929013
Si Si5 0.544853 0.321827 0.126091
Si Si6 0.067541 0.823665 0.688553
Si Si7 0.391008 0.678406 0.522072
O O1 0.424555 0.219986 0.292945
O O2 0.514333 0.220373 0.354847
O O3 0.440439 0.265417 0.468704
O O4 0.452664 0.000000 0.400344
O O5 0.897155 0.500000 0.734164
O O6 0.829215 0.286977 0.712842
O O7 0.888285 0.290368 0.863180
O O8 0.750000 0.246903 0.606884
O O9 0.700795 0.500000 0.600940
O O10 0.658356 0.263130 0.532685
O O11 0.554280 0.500000 0.940526
O O12 0.512748 0.735930 0.882132
O O13 0.572536 0.734223 0.032236
O O14 0.548834 0.500000 0.142403
O O15 0.572423 0.240497 0.209542
O O16 0.109671 0.748171 0.623637
O O17 0.076829 0.000000 0.692126
O O18 0.391942 0.500000 0.527963
#
# Coordination Sequence:
#
# PCOD8207611 Si02
#       7
#     8   8   8   8   8   8   8
#     4  10  19  29  40  59  89 119 144 178 217 249
#     4   9  15  26  46  66  86 115 148 176 210 261
#     4   8  15  28  46  69  90 105 131 177 226 266
#     4   8  14  25  42  64  85 112 150 186 212 242
#     4   9  16  27  43  60  85 118 153 186 209 243
#     4  11  21  30  40  60  90 120 148 183 218 251
#     4  10  20  31  46  63  81 113 149 178 214 264
#
# _framework density 16.134796999999999
#
# number of rings (size 3 to 8) (size 9 to 14) (size 15 to 20)
#    0.000    2.714    1.429    3.429    0.000    3.429 
#    0.000    2.143    0.000   10.714    0.000    1.000 
#    0.000    5.714    0.000    0.000    0.000    0.000 
#
# Total GULP energy -693904.990209 kJ/mol
# GULP energy per Si atom -12391.160539 kJ/mol
# Density = 1.609807 g / cm^3
# Si number density = 16.134797 Si / 1000 Ang^3
#
#
#
# Elastic Constant Matrix: (Units=GPa)
#
#
# Indices 1 2 3 4 5 6 
#
# 1 71.3838 15.1291 52.0768 0.0000 0.0000 0.0000
# 2 15.1291 32.8175 27.1850 0.0000 0.0000 0.0000
# 3 52.0768 27.1850 149.5313 0.0000 0.0000 0.0000
# 4 0.0000 0.0000 0.0000 13.9556 0.0000 0.0000
# 5 0.0000 0.0000 0.0000 0.0000 14.6588 0.0000
# 6 0.0000 0.0000 0.0000 0.0000 0.0000 8.5160
#
#
#
# Elastic Compliance Matrix: (Units=1/GPa)
#
#
# Indices 1 2 3 4 5 6 
#
# 1 0.019195 -0.003898 -0.005976 0.000000 0.000000 0.000000
# 2 -0.003898 0.036666 -0.005308 0.000000 0.000000 0.000000
# 3 -0.005976 -0.005308 0.009734 0.000000 0.000000 0.000000
# 4 0.000000 0.000000 0.000000 0.071656 0.000000 0.000000
# 5 0.000000 0.000000 0.000000 0.000000 0.068218 0.000000
# 6 0.000000 0.000000 0.000000 0.000000 0.000000 0.117426
#
#
# Mechanical properties :
#
#
# Convention : Reuss Voigt Hill
#
# Bulk Modulus (GPa) = 28.38573 49.16826 38.77699
# Shear Modulus (GPa) = 13.69852 18.04888 15.87370
#
# Velocity S-wave (km/s) = 2.91693 3.34822 3.13999
# Velocity P-wave (km/s) = 5.38291 6.74441 6.10175
#
# Compressibility (1/GPa) = 0.03522897
#
# Stress axis : x y z
#
# Youngs Moduli (GPa) = 52.09738 27.27330 102.73368
#
# Poissons Ratio (x) = 0.10632 0.61395
# Poissons Ratio (y) = 0.20310 0.54533
# Poissons Ratio (z) = 0.31134 0.14477
#
# Static dielectric constant tensor:
#      x y z
#    x 2.968530 0.000000 0.000000 
#    y 0.000000 2.816360 0.000000 
#    z 0.000000 0.000000 3.295980 
# 
# 
# High freq. dielectric constant tensor:
#      x y z
#    x 1.571900 0.000000 0.000000 
#    y 0.000000 1.600380 0.000000 
#    z 0.000000 0.000000 1.629770 
# 
# From -- ./inp_files/26495.got.cif
#   From: 2010.03.12/outbox.cif.g09.slc.cpg/sg51_14_cif.got.tgz:26495.got - 2010.04.16 13:43:02.
