data_PCOD8207593
_publ_section_title
;
Structure prediction by ZEFSAII (Michael W. Deem and Ramdas Pophale) SiO2 
 PCOD8207593
Probable space group: P M M A
;
_chemical_formula_sum "Si O2"
_cell_formula_units_Z 64
_cell_length_a 27.315726
_cell_length_b 13.514155
_cell_length_c 8.768840
_cell_angle_alpha 90.000000
_cell_angle_beta 90.000000
_cell_angle_gamma 90.000000
_cell_volume 3237.008123
_symmetry_space_group_name_H-M "P M M A"
_symmetry_group_IT_number 51
_symmetry_cell_setting 'orthorhombic'
loop_
_space_group_symop_operation_xyz
x,y,z
1/2-x,-y,z
1/2+x,-y,-z
-x,y,-z
-x,-y,-z
1/2+x,y,-z
1/2-x,y,z
x,-y,z
loop_
_atom_site_type_symbol
_atom_site_label
_atom_site_fract_x
_atom_site_fract_y
_atom_site_fract_z
Si Si1 0.692218 0.615738 0.792158
Si Si2 0.863272 0.743275 0.556850
Si Si3 0.637081 0.262309 0.048947
Si Si4 0.903726 0.390098 0.306068
Si Si5 0.135606 0.882829 0.700429
Si Si6 0.488764 0.608972 0.337297
Si Si7 0.564149 0.774596 0.802585
Si Si8 0.020850 0.885582 0.664105
O O1 0.750000 0.615589 0.800864
O O2 0.673656 0.500000 0.799995
O O3 0.676472 0.671342 0.636367
O O4 0.673287 0.686574 0.928862
O O5 0.898988 0.671934 0.461289
O O6 0.839205 0.826558 0.444008
O O7 0.894619 0.807126 0.679592
O O8 0.628700 0.346544 0.172214
O O9 0.656711 0.164925 0.141980
O O10 0.587157 0.222370 0.970246
O O11 0.884441 0.500000 0.338855
O O12 0.959774 0.391042 0.247949
O O13 0.077447 0.856042 0.687360
O O14 0.146316 0.000000 0.696070
O O15 0.500000 0.661551 0.500000
O O16 0.467867 0.500000 0.369610
O O17 0.447664 0.660640 0.236130
O O18 0.513714 0.835651 0.792207
O O19 0.000000 0.852660 0.500000
O O20 0.014036 0.000000 0.689800
#
# Coordination Sequence:
#
# PCOD8207593 Si02
#       8
#     8   8   8   8   8   8   8   8
#     4  10  22  42  66  90 114 138 173 230 296 360
#     4  10  19  33  59  84 105 142 186 234 285 334
#     4  10  23  36  54  81 112 153 187 226 286 346
#     4  10  19  32  48  73 109 145 187 229 271 332
#     4  10  21  38  57  83 120 158 197 239 278 323
#     4  10  19  28  43  69 104 150 193 230 272 318
#     4  11  19  31  49  73 108 146 191 236 273 317
#     4  10  19  31  52  80 110 150 201 247 282 309
#
# _framework density 19.771342000000001
#
# number of rings (size 3 to 8) (size 9 to 14) (size 15 to 20)
#    0.000    1.875    2.500    2.625    0.000    5.000 
#    0.000    6.875    0.000    9.000    0.000    0.000 
#    0.000    0.000    0.000    0.000    0.000    0.000 
#
# Total GULP energy -792958.888018 kJ/mol
# GULP energy per Si atom -12389.982625 kJ/mol
# Density = 1.972634 g / cm^3
# Si number density = 19.771342 Si / 1000 Ang^3
#
#
#
# Elastic Constant Matrix: (Units=GPa)
#
#
# Indices 1 2 3 4 5 6 
#
# 1 43.8235 18.2231 17.2143 0.0000 0.0000 0.0000
# 2 18.2231 129.4341 50.3766 0.0000 0.0000 0.0000
# 3 17.2143 50.3766 87.7729 0.0000 0.0000 0.0000
# 4 0.0000 0.0000 0.0000 23.3427 0.0000 0.0000
# 5 0.0000 0.0000 0.0000 0.0000 16.9722 0.0000
# 6 0.0000 0.0000 0.0000 0.0000 0.0000 22.8809
#
#
#
# Elastic Compliance Matrix: (Units=1/GPa)
#
#
# Indices 1 2 3 4 5 6 
#
# 1 0.025154 -0.002088 -0.003735 0.000000 0.000000 0.000000
# 2 -0.002088 0.010121 -0.005400 0.000000 0.000000 0.000000
# 3 -0.003735 -0.005400 0.015225 0.000000 0.000000 0.000000
# 4 0.000000 0.000000 0.000000 0.042840 0.000000 0.000000
# 5 0.000000 0.000000 0.000000 0.000000 0.058920 0.000000
# 6 0.000000 0.000000 0.000000 0.000000 0.000000 0.043705
#
#
# Mechanical properties :
#
#
# Convention : Reuss Voigt Hill
#
# Bulk Modulus (GPa) = 35.64392 48.07317 41.85855
# Shear Modulus (GPa) = 21.95281 24.32027 23.13654
#
# Velocity S-wave (km/s) = 3.33578 3.51105 3.42454
# Velocity P-wave (km/s) = 5.73618 6.38780 6.07074
#
# Compressibility (1/GPa) = 0.02805528
#
# Stress axis : x y z
#
# Youngs Moduli (GPa) = 39.75488 98.79993 65.68288
#
# Poissons Ratio (x) = 0.20627 0.24533
# Poissons Ratio (y) = 0.08300 0.35467
# Poissons Ratio (z) = 0.14849 0.53349
#
# Static dielectric constant tensor:
#      x y z
#    x 3.172180 0.000000 0.000000 
#    y 0.000000 3.738260 0.000000 
#    z 0.000000 0.000000 3.676060 
# 
# 
# High freq. dielectric constant tensor:
#      x y z
#    x 1.723560 0.000000 0.000000 
#    y 0.000000 1.779580 0.000000 
#    z 0.000000 0.000000 1.769510 
# 
# From -- ./inp_files/13279.got.cif
#   From: 2010.03.12/outbox.cif.g09.slc.cpg/sg51_7_cif.got.tgz:13279.got - 2010.04.16 13:43:02.
