data_PCOD8207359
_publ_section_title
;
Structure prediction by ZEFSAII (Michael W. Deem and Ramdas Pophale) SiO2 
 PCOD8207359
Probable space group: P M M A
;
_chemical_formula_sum "Si O2"
_cell_formula_units_Z 32
_cell_length_a 13.816696
_cell_length_b 11.700803
_cell_length_c 9.874960
_cell_angle_alpha 90.000000
_cell_angle_beta 90.000000
_cell_angle_gamma 90.000000
_cell_volume 1596.449609
_symmetry_space_group_name_H-M "P M M A"
_symmetry_group_IT_number 51
_symmetry_cell_setting 'orthorhombic'
loop_
_space_group_symop_operation_xyz
x,y,z
1/2-x,-y,z
1/2+x,-y,-z
-x,y,-z
-x,-y,-z
1/2+x,y,-z
1/2-x,y,z
x,-y,z
loop_
_atom_site_type_symbol
_atom_site_label
_atom_site_fract_x
_atom_site_fract_y
_atom_site_fract_z
Si Si1 0.423646 0.738733 0.618964
Si Si2 0.557068 0.734665 0.860699
Si Si3 0.390740 0.500000 0.539193
Si Si4 0.855550 0.500000 0.764556
Si Si5 0.750000 0.136877 0.801914
Si Si6 0.250000 0.132886 0.504411
O O1 0.500000 0.732819 0.500000
O O2 0.478836 0.780534 0.752906
O O3 0.369640 0.614155 0.628322
O O4 0.344117 0.833180 0.587976
O O5 0.584886 0.608619 0.813030
O O6 0.652404 0.814584 0.872055
O O7 0.500000 0.731598 0.000000
O O8 0.500000 0.500000 0.500000
O O9 0.334672 0.500000 0.396705
O O10 0.750000 0.500000 0.834839
O O11 0.750000 0.184873 0.647631
O O12 0.750000 0.000000 0.814298
O O13 0.250000 0.000000 0.485260
#
# Coordination Sequence:
#
# PCOD8207359 Si02
#       6
#     8   8   4   4   4   4
#     4  11  21  39  65  95 126 163 214 264 317 373
#     4  12  25  42  66  96 133 171 209 259 322 389
#     4  10  18  32  63  94 120 154 208 258 306 381
#     4  12  21  38  68  93 126 169 209 259 322 385
#     4  11  24  44  68  93 120 171 227 259 317 386
#     4  11  24  40  66  99 126 163 223 279 317 366
#
# _framework density 20.044478000000002
#
# number of rings (size 3 to 8) (size 9 to 14) (size 15 to 20)
#    0.000    0.750    8.750    0.375    1.750    3.000 
#    0.000    1.250    0.000    0.000    0.000    0.000 
#    0.000    0.000    0.000    0.000    0.000    0.000 
#
# Total GULP energy -396694.459248 kJ/mol
# GULP energy per Si atom -12396.701851 kJ/mol
# Density = 1.999886 g / cm^3
# Si number density = 20.044478 Si / 1000 Ang^3
#
#
#
# Elastic Constant Matrix: (Units=GPa)
#
#
# Indices 1 2 3 4 5 6 
#
# 1 124.6260 31.3917 44.6409 0.0000 0.0000 0.0000
# 2 31.3917 71.8792 7.1648 0.0000 0.0000 0.0000
# 3 44.6409 7.1648 94.6700 0.0000 0.0000 0.0000
# 4 0.0000 0.0000 0.0000 18.9434 0.0000 0.0000
# 5 0.0000 0.0000 0.0000 0.0000 6.3070 0.0000
# 6 0.0000 0.0000 0.0000 0.0000 0.0000 18.9895
#
#
#
# Elastic Compliance Matrix: (Units=1/GPa)
#
#
# Indices 1 2 3 4 5 6 
#
# 1 0.010802 -0.004242 -0.004773 0.000000 0.000000 0.000000
# 2 -0.004242 0.015684 0.000813 0.000000 0.000000 0.000000
# 3 -0.004773 0.000813 0.012752 0.000000 0.000000 0.000000
# 4 0.000000 0.000000 0.000000 0.052789 0.000000 0.000000
# 5 0.000000 0.000000 0.000000 0.000000 0.158554 0.000000
# 6 0.000000 0.000000 0.000000 0.000000 0.000000 0.052661
#
#
# Mechanical properties :
#
#
# Convention : Reuss Voigt Hill
#
# Bulk Modulus (GPa) = 43.79183 50.84111 47.31647
# Shear Modulus (GPa) = 15.27857 22.71316 18.99586
#
# Velocity S-wave (km/s) = 2.76385 3.36986 3.08179
# Velocity P-wave (km/s) = 5.66391 6.36871 6.02663
#
# Compressibility (1/GPa) = 0.02283531
#
# Stress axis : x y z
#
# Youngs Moduli (GPa) = 92.57548 63.76043 78.41954
#
# Poissons Ratio (x) = 0.27046 0.37426
# Poissons Ratio (y) = 0.39269 -0.06377
# Poissons Ratio (z) = 0.44182 -0.05185
#
# Static dielectric constant tensor:
#      x y z
#    x 3.520130 0.000000 0.000000 
#    y 0.000000 4.761990 0.000000 
#    z 0.000000 0.000000 5.891870 
# 
# 
# High freq. dielectric constant tensor:
#      x y z
#    x 1.799080 0.000000 0.000000 
#    y 0.000000 1.782600 0.000000 
#    z 0.000000 0.000000 1.753690 
# 
# From -- ./inp_files/7640.got.cif
#   From: 2010.03.12/outbox.cif.g09.slc.cpg/sg51_4_cif.got.tgz:7640.got - 2010.04.16 13:43:02.
