data_PCOD8207273
_publ_section_title
;
Structure prediction by ZEFSAII (Michael W. Deem and Ramdas Pophale) SiO2 
 PCOD8207273
Probable space group: P M M A
;
_chemical_formula_sum "Si O2"
_cell_formula_units_Z 64
_cell_length_a 28.938889
_cell_length_b 9.175142
_cell_length_c 12.638934
_cell_angle_alpha 90.000000
_cell_angle_beta 90.000000
_cell_angle_gamma 90.000000
_cell_volume 3355.869734
_symmetry_space_group_name_H-M "P M M A"
_symmetry_group_IT_number 51
_symmetry_cell_setting 'orthorhombic'
loop_
_space_group_symop_operation_xyz
x,y,z
1/2-x,-y,z
1/2+x,-y,-z
-x,y,-z
-x,-y,-z
1/2+x,y,-z
1/2-x,y,z
x,-y,z
loop_
_atom_site_type_symbol
_atom_site_label
_atom_site_fract_x
_atom_site_fract_y
_atom_site_fract_z
Si Si1 0.558712 0.168576 0.763291
Si Si2 0.518883 0.671215 0.115707
Si Si3 0.301116 0.328189 0.997541
Si Si4 0.370322 0.672427 0.600830
Si Si5 0.551705 0.833076 0.518074
Si Si6 0.301629 0.673298 0.423100
Si Si7 0.122505 0.673110 0.838702
Si Si8 0.149518 0.328902 0.210265
O O1 0.511224 0.243443 0.798346
O O2 0.565633 0.189547 0.638899
O O3 0.602161 0.246631 0.818241
O O4 0.557279 0.000000 0.796223
O O5 0.514953 0.500000 0.139509
O O6 0.571604 0.727331 0.126828
O O7 0.500000 0.710048 0.000000
O O8 0.250000 0.262499 0.975221
O O9 0.299711 0.500000 0.980019
O O10 0.338902 0.259757 0.917403
O O11 0.314384 0.292244 0.117994
O O12 0.373975 0.500000 0.595884
O O13 0.417694 0.733903 0.556575
O O14 0.327597 0.727947 0.528990
O O15 0.364160 0.726844 0.721011
O O16 0.500000 0.779093 0.500000
O O17 0.557614 0.000000 0.482497
O O18 0.250000 0.739146 0.424735
O O19 0.299310 0.500000 0.419013
O O20 0.328590 0.730027 0.319522
O O21 0.123096 0.500000 0.845672
O O22 0.138209 0.500000 0.215995
#
# Coordination Sequence:
#
# PCOD8207273 Si02
#       8
#     8   8   8   8   8   8   8   8
#     4  11  22  34  52  78 107 138 176 222 271 317
#     4  10  20  35  54  76 105 143 183 221 262 313
#     4   9  17  30  52  81 108 136 172 216 264 312
#     4  10  19  32  51  76 105 136 171 215 263 313
#     4  10  21  36  52  72 102 139 177 217 263 317
#     4   9  17  29  48  76 105 133 170 215 262 311
#     4   9  18  31  48  75 108 137 172 217 264 313
#     4  10  18  32  54  78 106 139 176 216 260 314
#
# _framework density 19.071062000000001
#
# number of rings (size 3 to 8) (size 9 to 14) (size 15 to 20)
#    0.000    2.250    1.250    2.250    0.000    5.000 
#    0.000    2.500    0.000    3.375    0.000    0.000 
#    0.000    0.000    0.000    0.000    0.000    0.000 
#
# Total GULP energy -793637.966243 kJ/mol
# GULP energy per Si atom -12400.593223 kJ/mol
# Density = 1.902766 g / cm^3
# Si number density = 19.071062 Si / 1000 Ang^3
#
#
#
# Elastic Constant Matrix: (Units=GPa)
#
#
# Indices 1 2 3 4 5 6 
#
# 1 174.0815 27.5834 72.9269 0.0000 0.0000 0.0000
# 2 27.5834 28.9774 24.8910 0.0000 0.0000 0.0000
# 3 72.9269 24.8910 124.1514 0.0000 0.0000 0.0000
# 4 0.0000 0.0000 0.0000 9.9873 0.0000 0.0000
# 5 0.0000 0.0000 0.0000 0.0000 34.5040 0.0000
# 6 0.0000 0.0000 0.0000 0.0000 0.0000 5.3221
#
#
#
# Elastic Compliance Matrix: (Units=1/GPa)
#
#
# Indices 1 2 3 4 5 6 
#
# 1 0.008049 -0.004350 -0.003856 0.000000 0.000000 0.000000
# 2 -0.004350 0.044040 -0.006274 0.000000 0.000000 0.000000
# 3 -0.003856 -0.006274 0.011578 0.000000 0.000000 0.000000
# 4 0.000000 0.000000 0.000000 0.100127 0.000000 0.000000
# 5 0.000000 0.000000 0.000000 0.000000 0.028982 0.000000
# 6 0.000000 0.000000 0.000000 0.000000 0.000000 0.187897
#
#
# Mechanical properties :
#
#
# Convention : Reuss Voigt Hill
#
# Bulk Modulus (GPa) = 28.81334 64.22367 46.51850
# Shear Modulus (GPa) = 11.87082 23.41662 17.64372
#
# Velocity S-wave (km/s) = 2.49760 3.50789 3.04494
# Velocity P-wave (km/s) = 4.84341 7.08210 6.06691
#
# Compressibility (1/GPa) = 0.03470615
#
# Stress axis : x y z
#
# Youngs Moduli (GPa) = 124.23924 22.70684 86.37338
#
# Poissons Ratio (x) = 0.09877 0.33305
# Poissons Ratio (y) = 0.54039 0.54195
# Poissons Ratio (z) = 0.47906 0.14247
#
# Static dielectric constant tensor:
#      x y z
#    x 3.722750 0.000000 0.000000 
#    y 0.000000 3.008930 0.000000 
#    z 0.000000 0.000000 3.652590 
# 
# 
# High freq. dielectric constant tensor:
#      x y z
#    x 1.755220 0.000000 0.000000 
#    y 0.000000 1.688110 0.000000 
#    z 0.000000 0.000000 1.750980 
# 
# From -- ./inp_files/19497.got.cif
#   From: 2010.03.12/outbox.cif.g09.slc.cpg/sg51_10_cif.got.tgz:19497.got - 2010.04.16 13:43:02.
