data_PCOD8207250
_publ_section_title
;
Structure prediction by ZEFSAII (Michael W. Deem and Ramdas Pophale) SiO2 
 PCOD8207250
Probable space group: P M M A
;
_chemical_formula_sum "Si O2"
_cell_formula_units_Z 44
_cell_length_a 8.625480
_cell_length_b 28.373569
_cell_length_c 10.000676
_cell_angle_alpha 90.000000
_cell_angle_beta 90.000000
_cell_angle_gamma 90.000000
_cell_volume 2447.521961
_symmetry_space_group_name_H-M "P M M A"
_symmetry_group_IT_number 51
_symmetry_cell_setting 'orthorhombic'
loop_
_space_group_symop_operation_xyz
x,y,z
1/2-x,-y,z
1/2+x,-y,-z
-x,y,-z
-x,-y,-z
1/2+x,y,-z
1/2-x,y,z
x,-y,z
loop_
_atom_site_type_symbol
_atom_site_label
_atom_site_fract_x
_atom_site_fract_y
_atom_site_fract_z
Si Si1 0.933635 0.095900 0.648001
Si Si2 0.566540 0.166988 0.142241
Si Si3 0.432626 0.549703 0.646266
Si Si4 0.934292 0.000000 0.351561
Si Si5 0.433795 0.651651 0.646871
Si Si6 0.932271 0.725038 0.139466
O O1 0.750000 0.092506 0.639071
O O2 0.000000 0.104099 0.500000
O O3 0.984620 0.138874 0.739823
O O4 0.000962 0.047821 0.715742
O O5 0.750000 0.158805 0.145348
O O6 0.519657 0.221159 0.167690
O O7 0.500000 0.149787 0.000000
O O8 0.500000 0.548249 0.500000
O O9 0.250000 0.550186 0.634002
O O10 0.484086 0.500000 0.720554
O O11 0.484731 0.600102 0.708995
O O12 0.000000 0.000000 0.500000
O O13 0.750000 0.000000 0.348981
O O14 0.500000 0.660027 0.500000
O O15 0.250000 0.655605 0.637066
O O16 0.501443 0.691972 0.743824
O O17 0.750000 0.719755 0.131181
O O18 0.000000 0.707061 0.000000
#
# Coordination Sequence:
#
# PCOD8207250 Si02
#       6
#     8   8   8   4   8   8
#     4  11  21  35  55  80 107 137 170 206 246 290
#     4  10  20  36  54  74  99 130 167 207 251 299
#     4   8  13  22  38  60  87 118 150 186 232 283
#     4  10  18  32  53  78 107 138 169 204 244 290
#     4   9  17  29  45  69  96 121 154 198 242 285
#     4   9  19  34  51  69  93 126 163 199 239 291
#
# _framework density 17.977366
#
# number of rings (size 3 to 8) (size 9 to 14) (size 15 to 20)
#    0.000    2.545    0.000    4.091    0.000    2.182 
#    0.000    2.273    0.000    0.545    0.000    0.000 
#    0.000    0.000    0.000    0.000    0.000    0.000 
#
# Total GULP energy -545099.155824 kJ/mol
# GULP energy per Si atom -12388.617178 kJ/mol
# Density = 1.793645 g / cm^3
# Si number density = 17.977366 Si / 1000 Ang^3
#
#
#
# Elastic Constant Matrix: (Units=GPa)
#
#
# Indices 1 2 3 4 5 6 
#
# 1 74.4839 41.7683 32.2214 0.0000 0.0000 0.0000
# 2 41.7683 143.7955 79.7992 0.0000 0.0000 0.0000
# 3 32.2214 79.7992 94.4805 0.0000 0.0000 0.0000
# 4 0.0000 0.0000 0.0000 12.6051 0.0000 0.0000
# 5 0.0000 0.0000 0.0000 0.0000 25.6074 0.0000
# 6 0.0000 0.0000 0.0000 0.0000 0.0000 15.0739
#
#
#
# Elastic Compliance Matrix: (Units=1/GPa)
#
#
# Indices 1 2 3 4 5 6 
#
# 1 0.016468 -0.003137 -0.002967 0.000000 0.000000 0.000000
# 2 -0.003137 0.013687 -0.010491 0.000000 0.000000 0.000000
# 3 -0.002967 -0.010491 0.020456 0.000000 0.000000 0.000000
# 4 0.000000 0.000000 0.000000 0.079333 0.000000 0.000000
# 5 0.000000 0.000000 0.000000 0.000000 0.039051 0.000000
# 6 0.000000 0.000000 0.000000 0.000000 0.000000 0.066340
#
#
# Mechanical properties :
#
#
# Convention : Reuss Voigt Hill
#
# Bulk Modulus (GPa) = 57.39451 68.92640 63.16045
# Shear Modulus (GPa) = 18.22606 21.25534 19.74070
#
# Velocity S-wave (km/s) = 3.18753 3.44225 3.31733
# Velocity P-wave (km/s) = 6.74851 7.36360 7.06276
#
# Compressibility (1/GPa) = 0.01742327
#
# Stress axis : x y z
#
# Youngs Moduli (GPa) = 60.72265 73.06036 48.88474
#
# Poissons Ratio (x) = 0.22921 0.14502
# Poissons Ratio (y) = 0.19050 0.51283
# Poissons Ratio (z) = 0.18014 0.76644
#
# Static dielectric constant tensor:
#      x y z
#    x 3.282480 0.000000 0.000000 
#    y 0.000000 4.281190 0.000000 
#    z 0.000000 0.000000 3.171620 
# 
# 
# High freq. dielectric constant tensor:
#      x y z
#    x 1.699780 0.000000 0.000000 
#    y 0.000000 1.721300 0.000000 
#    z 0.000000 0.000000 1.654370 
# 
# From -- ./inp_files/5858.got.cif
#   From: 2010.03.12/outbox.cif.g09.slc.cpg/sg51_3_cif.got.tgz:5858.got - 2010.04.16 13:43:02.
