data_PCOD8207692
_publ_section_title
;
Structure prediction by ZEFSAII (Michael W. Deem and Ramdas Pophale) SiO2 
 PCOD8207692
Probable space group: P M M A
;
_chemical_formula_sum "Si O2"
_cell_formula_units_Z 56
_cell_length_a 9.009499
_cell_length_b 21.268820
_cell_length_c 17.983323
_cell_angle_alpha 90.000000
_cell_angle_beta 90.000000
_cell_angle_gamma 90.000000
_cell_volume 3445.989755
_symmetry_space_group_name_H-M "P M M A"
_symmetry_group_IT_number 51
_symmetry_cell_setting 'orthorhombic'
loop_
_space_group_symop_operation_xyz
x,y,z
1/2-x,-y,z
1/2+x,-y,-z
-x,y,-z
-x,-y,-z
1/2+x,y,-z
1/2-x,y,z
x,-y,z
loop_
_atom_site_type_symbol
_atom_site_label
_atom_site_fract_x
_atom_site_fract_y
_atom_site_fract_z
Si Si1 0.418185 0.259943 0.799789
Si Si2 0.925560 0.815775 0.920449
Si Si3 0.080101 0.787566 0.422936
Si Si4 0.421126 0.333041 0.319760
Si Si5 0.916324 0.139697 0.305215
Si Si6 0.079012 0.929148 0.183897
Si Si7 0.078907 0.426132 0.575900
O O1 0.250000 0.279575 0.820304
O O2 0.508512 0.242670 0.874128
O O3 0.500319 0.317495 0.758701
O O4 0.418708 0.200766 0.745844
O O5 0.750000 0.807220 0.927752
O O6 0.969054 0.881753 0.881454
O O7 0.000000 0.816234 0.000000
O O8 0.250000 0.804407 0.437797
O O9 0.061691 0.724605 0.375822
O O10 0.000000 0.775557 0.500000
O O11 0.007469 0.846570 0.380196
O O12 0.250000 0.349068 0.304381
O O13 0.501424 0.393391 0.354262
O O14 0.750000 0.120638 0.327602
O O15 0.988729 0.082587 0.259631
O O16 0.250000 0.917974 0.204024
O O17 0.048125 0.000000 0.156050
O O18 0.250000 0.405317 0.570869
O O19 0.061870 0.500000 0.588361
O O20 0.000000 0.404547 0.500000
#
# Coordination Sequence:
#
# PCOD8207692 Si02
#       7
#     8   8   8   8   8   8   8
#     4   9  17  30  47  66  89 117 149 185 225 268
#     4  10  19  31  47  68  95 123 150 181 221 267
#     4  10  19  29  43  64  88 113 143 182 227 272
#     4  10  19  30  46  67  91 120 154 191 229 270
#     4   9  17  29  45  64  85 110 142 181 223 266
#     4   9  18  32  48  65  87 117 150 181 215 260
#     4  10  20  32  45  63  91 128 166 201 236 272
#
# _framework density 16.250772999999999
#
# number of rings (size 3 to 8) (size 9 to 14) (size 15 to 20)
#    0.000    2.429    0.000    3.000    0.000    8.286 
#    0.000    0.000    0.000    0.429    0.000    0.000 
#    0.000    0.571    0.000    2.143    0.000    3.286 
#
# Total GULP energy -694472.712249 kJ/mol
# GULP energy per Si atom -12401.298433 kJ/mol
# Density = 1.621379 g / cm^3
# Si number density = 16.250773 Si / 1000 Ang^3
#
#
#
# Elastic Constant Matrix: (Units=GPa)
#
#
# Indices 1 2 3 4 5 6 
#
# 1 133.4763 37.9944 55.7318 0.0000 0.0000 0.0000
# 2 37.9944 50.0368 31.6701 0.0000 0.0000 0.0000
# 3 55.7318 31.6701 60.7769 0.0000 0.0000 0.0000
# 4 0.0000 0.0000 0.0000 21.8922 0.0000 0.0000
# 5 0.0000 0.0000 0.0000 0.0000 32.8413 0.0000
# 6 0.0000 0.0000 0.0000 0.0000 0.0000 23.5369
#
#
#
# Elastic Compliance Matrix: (Units=1/GPa)
#
#
# Indices 1 2 3 4 5 6 
#
# 1 0.012503 -0.003338 -0.009726 0.000000 0.000000 0.000000
# 2 -0.003338 0.030712 -0.012943 0.000000 0.000000 0.000000
# 3 -0.009726 -0.012943 0.032116 0.000000 0.000000 0.000000
# 4 0.000000 0.000000 0.000000 0.045678 0.000000 0.000000
# 5 0.000000 0.000000 0.000000 0.000000 0.030449 0.000000
# 6 0.000000 0.000000 0.000000 0.000000 0.000000 0.042487
#
#
# Mechanical properties :
#
#
# Convention : Reuss Voigt Hill
#
# Bulk Modulus (GPa) = 42.88472 55.00920 48.94696
# Shear Modulus (GPa) = 19.70590 23.58032 21.64311
#
# Velocity S-wave (km/s) = 3.48604 3.81337 3.65337
# Velocity P-wave (km/s) = 6.53069 7.30156 6.92685
#
# Compressibility (1/GPa) = 0.02331833
#
# Stress axis : x y z
#
# Youngs Moduli (GPa) = 79.98034 32.56066 31.13697
#
# Poissons Ratio (x) = 0.10869 0.30283
# Poissons Ratio (y) = 0.26699 0.40299
# Poissons Ratio (z) = 0.77786 0.42142
#
# Static dielectric constant tensor:
#      x y z
#    x 3.315340 0.000000 0.000000 
#    y 0.000000 2.857080 0.000000 
#    z 0.000000 0.000000 2.987320 
# 
# 
# High freq. dielectric constant tensor:
#      x y z
#    x 1.646140 0.000000 0.000000 
#    y 0.000000 1.591320 0.000000 
#    z 0.000000 0.000000 1.608950 
# 
# From -- ./inp_files/21838.got.cif
#   From: 2010.03.12/outbox.cif.g09.slc.cpg/sg51_11_cif.got.tgz:21838.got - 2010.04.16 13:43:02.
