data_PCOD8207064
_publ_section_title
;
Structure prediction by ZEFSAII (Michael W. Deem and Ramdas Pophale) SiO2 
 PCOD8207064
Probable space group: P M M A
;
_chemical_formula_sum "Si O2"
_cell_formula_units_Z 56
_cell_length_a 17.815997
_cell_length_b 9.259846
_cell_length_c 19.632263
_cell_angle_alpha 90.000000
_cell_angle_beta 90.000000
_cell_angle_gamma 90.000000
_cell_volume 3238.800952
_symmetry_space_group_name_H-M "P M M A"
_symmetry_group_IT_number 51
_symmetry_cell_setting 'orthorhombic'
loop_
_space_group_symop_operation_xyz
x,y,z
1/2-x,-y,z
1/2+x,-y,-z
-x,y,-z
-x,-y,-z
1/2+x,y,-z
1/2-x,y,z
x,-y,z
loop_
_atom_site_type_symbol
_atom_site_label
_atom_site_fract_x
_atom_site_fract_y
_atom_site_fract_z
Si Si1 0.528690 0.670431 0.149982
Si Si2 0.836901 0.160702 0.514505
Si Si3 0.163685 0.331587 0.947034
Si Si4 0.833282 0.332384 0.650656
Si Si5 0.053188 0.331041 0.563743
Si Si6 0.430311 0.162315 0.049994
Si Si7 0.986277 0.668936 0.704199
O O1 0.513760 0.500000 0.145160
O O2 0.609159 0.710258 0.116292
O O3 0.457633 0.747730 0.115083
O O4 0.527914 0.727680 0.228127
O O5 0.750000 0.152811 0.499556
O O6 0.854318 0.244570 0.583789
O O7 0.870560 0.245057 0.450048
O O8 0.871138 0.000000 0.520713
O O9 0.250000 0.294230 0.927768
O O10 0.154712 0.500000 0.964662
O O11 0.139697 0.241749 0.013782
O O12 0.750000 0.292523 0.678710
O O13 0.837503 0.500000 0.629590
O O14 0.896522 0.296146 0.707238
O O15 0.070118 0.500000 0.569202
O O16 0.000000 0.295590 0.500000
O O17 0.020328 0.267029 0.634428
O O18 0.405700 0.000000 0.070887
O O19 0.500000 0.156383 0.000000
O O20 0.999280 0.500000 0.701550
#
# Coordination Sequence:
#
# PCOD8207064 Si02
#       7
#     8   8   8   8   8   8   8
#     4   9  17  31  50  71 101 134 163 202 247 290
#     4  10  20  32  46  67  94 121 155 204 257 302
#     4   9  17  30  50  75  99 128 166 203 241 285
#     4   9  16  29  49  68  88 119 159 201 246 296
#     4  10  18  31  50  71  95 124 164 210 249 294
#     4   9  17  30  49  72  97 125 159 194 232 283
#     4   9  17  30  48  72  98 128 165 205 247 293
#
# _framework density 17.290348999999999
#
# number of rings (size 3 to 8) (size 9 to 14) (size 15 to 20)
#    0.000    2.714    1.429    0.857    0.000    3.143 
#    0.000    2.857    0.000    5.143    0.000    0.000 
#    0.000    0.000    0.000    0.000    0.000    0.000 
#
# Total GULP energy -694017.689742 kJ/mol
# GULP energy per Si atom -12393.173031 kJ/mol
# Density = 1.725100 g / cm^3
# Si number density = 17.290349 Si / 1000 Ang^3
#
#
#
# Elastic Constant Matrix: (Units=GPa)
#
#
# Indices 1 2 3 4 5 6 
#
# 1 95.2350 34.3044 58.5239 0.0000 0.0000 0.0000
# 2 34.3044 55.6620 35.2837 0.0000 0.0000 0.0000
# 3 58.5239 35.2837 115.6789 0.0000 0.0000 0.0000
# 4 0.0000 0.0000 0.0000 8.0022 0.0000 0.0000
# 5 0.0000 0.0000 0.0000 0.0000 23.4188 0.0000
# 6 0.0000 0.0000 0.0000 0.0000 0.0000 18.0513
#
#
#
# Elastic Compliance Matrix: (Units=1/GPa)
#
#
# Indices 1 2 3 4 5 6 
#
# 1 0.016779 -0.006149 -0.006613 0.000000 0.000000 0.000000
# 2 -0.006149 0.024525 -0.004370 0.000000 0.000000 0.000000
# 3 -0.006613 -0.004370 0.013323 0.000000 0.000000 0.000000
# 4 0.000000 0.000000 0.000000 0.124966 0.000000 0.000000
# 5 0.000000 0.000000 0.000000 0.000000 0.042701 0.000000
# 6 0.000000 0.000000 0.000000 0.000000 0.000000 0.055398
#
#
# Mechanical properties :
#
#
# Convention : Reuss Voigt Hill
#
# Bulk Modulus (GPa) = 49.10707 58.08890 53.59799
# Shear Modulus (GPa) = 15.68656 19.12537 17.40597
#
# Velocity S-wave (km/s) = 3.01532 3.32946 3.17627
# Velocity P-wave (km/s) = 6.37071 6.96057 6.67216
#
# Compressibility (1/GPa) = 0.02036367
#
# Stress axis : x y z
#
# Youngs Moduli (GPa) = 59.59712 40.77468 75.05657
#
# Poissons Ratio (x) = 0.25072 0.49638
# Poissons Ratio (y) = 0.36646 0.32797
# Poissons Ratio (z) = 0.39414 0.17817
#
# Static dielectric constant tensor:
#      x y z
#    x 3.301800 0.000000 0.000000 
#    y 0.000000 3.251130 0.000000 
#    z 0.000000 0.000000 3.315390 
# 
# 
# High freq. dielectric constant tensor:
#      x y z
#    x 1.663610 0.000000 0.000000 
#    y 0.000000 1.654370 0.000000 
#    z 0.000000 0.000000 1.646670 
# 
# From -- ./inp_files/33727.got.cif
#   From: 2010.03.12/outbox.cif.g09.slc.cpg/sg51_17_cif.got.tgz:33727.got - 2010.04.16 13:43:02.
