data_PCOD8207568
_publ_section_title
;
Structure prediction by ZEFSAII (Michael W. Deem and Ramdas Pophale) SiO2 
 PCOD8207568
Probable space group: P M M A
;
_chemical_formula_sum "Si O2"
_cell_formula_units_Z 64
_cell_length_a 18.107957
_cell_length_b 9.124991
_cell_length_c 26.323492
_cell_angle_alpha 90.000000
_cell_angle_beta 90.000000
_cell_angle_gamma 90.000000
_cell_volume 4349.560744
_symmetry_space_group_name_H-M "P M M A"
_symmetry_group_IT_number 51
_symmetry_cell_setting 'orthorhombic'
loop_
_space_group_symop_operation_xyz
x,y,z
1/2-x,-y,z
1/2+x,-y,-z
-x,y,-z
-x,-y,-z
1/2+x,y,-z
1/2-x,y,z
x,-y,z
loop_
_atom_site_type_symbol
_atom_site_label
_atom_site_fract_x
_atom_site_fract_y
_atom_site_fract_z
Si Si1 0.044818 0.834634 0.551995
Si Si2 0.835937 0.829404 0.804438
Si Si3 0.405937 0.326179 0.101929
Si Si4 0.420443 0.328601 0.398224
Si Si5 0.165921 0.671678 0.498575
Si Si6 0.835087 0.331247 0.702122
Si Si7 0.164546 0.169513 0.007337
Si Si8 0.450367 0.338529 0.950259
O O1 0.122443 0.753175 0.543674
O O2 0.000000 0.826058 0.500000
O O3 0.997995 0.755555 0.596070
O O4 0.060380 0.000000 0.569147
O O5 0.750000 0.800662 0.815833
O O6 0.883964 0.740043 0.844388
O O7 0.857491 0.770931 0.749000
O O8 0.855571 0.000000 0.807957
O O9 0.392867 0.500000 0.101073
O O10 0.493102 0.288120 0.094103
O O11 0.355035 0.257098 0.058189
O O12 0.437412 0.500000 0.399675
O O13 0.364755 0.284303 0.443288
O O14 0.383918 0.280579 0.345424
O O15 0.250000 0.723902 0.501179
O O16 0.157448 0.500000 0.507965
O O17 0.750000 0.308879 0.686888
O O18 0.850219 0.500000 0.716714
O O19 0.250000 0.193514 0.994067
O O20 0.117096 0.226387 0.958921
O O21 0.145953 0.000000 0.016727
O O22 0.417485 0.500000 0.938474
O O23 0.500000 0.346747 0.000000
#
# Coordination Sequence:
#
# PCOD8207568 Si02
#       8
#     8   8   8   8   8   8   8   8
#     4   9  17  27  38  55  80 108 136 166 201 241
#     4  10  20  31  42  59  83 109 138 171 205 241
#     4  10  19  30  44  60  79 107 142 174 204 239
#     4   9  16  27  43  60  79 106 139 171 203 240
#     4   9  16  26  41  60  81 106 137 171 204 239
#     4   9  17  29  44  61  81 106 137 172 207 240
#     4  10  19  28  40  61  86 110 137 167 200 241
#     4   8  16  29  42  58  79 104 136 170 202 238
#
# _framework density 14.714129
#
# number of rings (size 3 to 8) (size 9 to 14) (size 15 to 20)
#    0.000    2.750    0.000    3.000    0.000    9.750 
#    0.000    0.000    0.000    2.250    0.000    0.000 
#    0.000    1.000    0.000    5.500    0.000    4.125 
#
# Total GULP energy -793501.660874 kJ/mol
# GULP energy per Si atom -12398.463451 kJ/mol
# Density = 1.468064 g / cm^3
# Si number density = 14.714129 Si / 1000 Ang^3
#
#
#
# Elastic Constant Matrix: (Units=GPa)
#
#
# Indices 1 2 3 4 5 6 
#
# 1 97.3700 57.7257 53.8874 0.0000 0.0000 0.0000
# 2 57.7257 85.6706 47.3341 0.0000 0.0000 0.0000
# 3 53.8874 47.3341 79.6748 0.0000 0.0000 0.0000
# 4 0.0000 0.0000 0.0000 19.1072 0.0000 0.0000
# 5 0.0000 0.0000 0.0000 0.0000 27.0174 0.0000
# 6 0.0000 0.0000 0.0000 0.0000 0.0000 21.4220
#
#
#
# Elastic Compliance Matrix: (Units=1/GPa)
#
#
# Indices 1 2 3 4 5 6 
#
# 1 0.020228 -0.009037 -0.008312 0.000000 0.000000 0.000000
# 2 -0.009037 0.021414 -0.006609 0.000000 0.000000 0.000000
# 3 -0.008312 -0.006609 0.022099 0.000000 0.000000 0.000000
# 4 0.000000 0.000000 0.000000 0.052336 0.000000 0.000000
# 5 0.000000 0.000000 0.000000 0.000000 0.037013 0.000000
# 6 0.000000 0.000000 0.000000 0.000000 0.000000 0.046681
#
#
# Mechanical properties :
#
#
# Convention : Reuss Voigt Hill
#
# Bulk Modulus (GPa) = 63.19666 64.51219 63.85443
# Shear Modulus (GPa) = 19.76566 20.42719 20.09642
#
# Velocity S-wave (km/s) = 3.66910 3.72999 3.69967
# Velocity P-wave (km/s) = 7.80977 7.90502 7.85754
#
# Compressibility (1/GPa) = 0.01582362
#
# Stress axis : x y z
#
# Youngs Moduli (GPa) = 49.43646 46.69871 45.25000
#
# Poissons Ratio (x) = 0.42203 0.37612
# Poissons Ratio (y) = 0.44677 0.29908
# Poissons Ratio (z) = 0.41092 0.30866
#
# Static dielectric constant tensor:
#      x y z
#    x 2.923820 0.000000 0.000000 
#    y 0.000000 2.945770 0.000000 
#    z 0.000000 0.000000 2.708850 
# 
# 
# High freq. dielectric constant tensor:
#      x y z
#    x 1.549840 0.000000 0.000000 
#    y 0.000000 1.572930 0.000000 
#    z 0.000000 0.000000 1.530150 
# 
# From -- ./inp_files/35914.got.cif
#   From: 2010.03.12/outbox.cif.g09.slc.cpg/sg51_18_cif.got.tgz:35914.got - 2010.04.16 13:43:02.
