data_PCOD8207447
_publ_section_title
;
Structure prediction by ZEFSAII (Michael W. Deem and Ramdas Pophale) SiO2 
 PCOD8207447
Probable space group: P M M A
;
_chemical_formula_sum "Si O2"
_cell_formula_units_Z 64
_cell_length_a 8.960880
_cell_length_b 20.519854
_cell_length_c 19.721054
_cell_angle_alpha 90.000000
_cell_angle_beta 90.000000
_cell_angle_gamma 90.000000
_cell_volume 3626.227526
_symmetry_space_group_name_H-M "P M M A"
_symmetry_group_IT_number 51
_symmetry_cell_setting 'orthorhombic'
loop_
_space_group_symop_operation_xyz
x,y,z
1/2-x,-y,z
1/2+x,-y,-z
-x,y,-z
-x,-y,-z
1/2+x,y,-z
1/2-x,y,z
x,-y,z
loop_
_atom_site_type_symbol
_atom_site_label
_atom_site_fract_x
_atom_site_fract_y
_atom_site_fract_z
Si Si1 0.427166 0.186028 0.793874
Si Si2 0.923926 0.115014 0.566443
Si Si3 0.926705 0.696028 0.713018
Si Si4 0.578046 0.073827 0.712981
Si Si5 0.423115 0.628857 0.067600
Si Si6 0.424069 0.736422 0.433614
Si Si7 0.427399 0.428121 0.206540
Si Si8 0.074810 0.219132 0.069509
O O1 0.250000 0.191632 0.799064
O O2 0.489984 0.247669 0.753485
O O3 0.471075 0.119530 0.756398
O O4 0.497528 0.181773 0.868602
O O5 0.750000 0.110911 0.553434
O O6 0.969834 0.076351 0.634009
O O7 0.978333 0.189403 0.576023
O O8 0.000000 0.083517 0.500000
O O9 0.750000 0.706944 0.724060
O O10 0.970477 0.697462 0.633908
O O11 0.981793 0.625630 0.739516
O O12 0.750000 0.097529 0.720289
O O13 0.559016 0.000000 0.738935
O O14 0.250000 0.615643 0.058632
O O15 0.488681 0.590129 0.131985
O O16 0.457240 0.704601 0.079486
O O17 0.500000 0.601996 0.000000
O O18 0.500000 0.704620 0.500000
O O19 0.250000 0.732583 0.445843
O O20 0.250000 0.427576 0.204208
O O21 0.487167 0.500000 0.227111
O O22 0.250000 0.203364 0.068087
O O23 0.000000 0.194155 0.000000
#
# Coordination Sequence:
#
# PCOD8207447 Si02
#       8
#     8   8   8   8   8   8   8   8
#     4  12  23  34  54  82 109 139 177 221 265 310
#     4   9  17  30  48  73 104 137 175 213 255 311
#     4  10  18  34  55  75 101 138 178 221 267 314
#     4  10  21  38  57  76 104 144 182 216 261 315
#     4   9  17  29  47  71 102 137 171 210 251 300
#     4   9  17  29  49  73 101 131 168 216 267 314
#     4   9  17  30  50  75 101 134 178 222 264 310
#     4  10  19  34  55  80 109 139 174 219 265 312
#
# _framework density 17.649194999999999
#
# number of rings (size 3 to 8) (size 9 to 14) (size 15 to 20)
#    0.000    2.250    2.500    1.500    0.000    2.250 
#    0.000    0.000    0.000    1.875    0.000    0.000 
#    0.000    0.000    0.000    0.000    0.000    0.000 
#
# Total GULP energy -793545.396863 kJ/mol
# GULP energy per Si atom -12399.146826 kJ/mol
# Density = 1.760902 g / cm^3
# Si number density = 17.649195 Si / 1000 Ang^3
#
#
#
# Elastic Constant Matrix: (Units=GPa)
#
#
# Indices 1 2 3 4 5 6 
#
# 1 61.9828 31.8378 50.6705 0.0000 0.0000 0.0000
# 2 31.8378 86.2616 55.9609 0.0000 0.0000 0.0000
# 3 50.6705 55.9609 138.6431 0.0000 0.0000 0.0000
# 4 0.0000 0.0000 0.0000 22.4208 0.0000 0.0000
# 5 0.0000 0.0000 0.0000 0.0000 32.8817 0.0000
# 6 0.0000 0.0000 0.0000 0.0000 0.0000 7.6233
#
#
#
# Elastic Compliance Matrix: (Units=1/GPa)
#
#
# Indices 1 2 3 4 5 6 
#
# 1 0.024138 -0.004316 -0.007080 0.000000 0.000000 0.000000
# 2 -0.004316 0.016477 -0.005073 0.000000 0.000000 0.000000
# 3 -0.007080 -0.005073 0.011848 0.000000 0.000000 0.000000
# 4 0.000000 0.000000 0.000000 0.044601 0.000000 0.000000
# 5 0.000000 0.000000 0.000000 0.000000 0.030412 0.000000
# 6 0.000000 0.000000 0.000000 0.000000 0.000000 0.131176
#
#
# Mechanical properties :
#
#
# Convention : Reuss Voigt Hill
#
# Bulk Modulus (GPa) = 51.21684 62.64732 56.93208
# Shear Modulus (GPa) = 16.77294 22.47972 19.62633
#
# Velocity S-wave (km/s) = 3.08612 3.57276 3.33832
# Velocity P-wave (km/s) = 6.46384 7.25206 6.86927
#
# Compressibility (1/GPa) = 0.01952483
#
# Stress axis : x y z
#
# Youngs Moduli (GPa) = 41.42812 60.69154 84.40304
#
# Poissons Ratio (x) = 0.26195 0.59755
# Poissons Ratio (y) = 0.17881 0.42819
# Poissons Ratio (z) = 0.29330 0.30790
#
# Static dielectric constant tensor:
#      x y z
#    x 3.119830 0.000000 0.000000 
#    y 0.000000 3.187230 0.000000 
#    z 0.000000 0.000000 3.507950 
# 
# 
# High freq. dielectric constant tensor:
#      x y z
#    x 1.664700 0.000000 0.000000 
#    y 0.000000 1.656190 0.000000 
#    z 0.000000 0.000000 1.691540 
# 
# From -- ./inp_files/32303.got.cif
#   From: 2010.03.12/outbox.cif.g09.slc.cpg/sg51_17_cif.got.tgz:32303.got - 2010.04.16 13:43:02.
