data_PCOD8207227
_publ_section_title
;
Structure prediction by ZEFSAII (Michael W. Deem and Ramdas Pophale) SiO2 
 PCOD8207227
Probable space group: P M M A
;
_chemical_formula_sum "Si O2"
_cell_formula_units_Z 64
_cell_length_a 29.172347
_cell_length_b 8.945091
_cell_length_c 12.524177
_cell_angle_alpha 90.000000
_cell_angle_beta 90.000000
_cell_angle_gamma 90.000000
_cell_volume 3268.175204
_symmetry_space_group_name_H-M "P M M A"
_symmetry_group_IT_number 51
_symmetry_cell_setting 'orthorhombic'
loop_
_space_group_symop_operation_xyz
x,y,z
1/2-x,-y,z
1/2+x,-y,-z
-x,y,-z
-x,-y,-z
1/2+x,y,-z
1/2-x,y,z
x,-y,z
loop_
_atom_site_type_symbol
_atom_site_label
_atom_site_fract_x
_atom_site_fract_y
_atom_site_fract_z
Si Si1 0.356356 0.827459 0.781718
Si Si2 0.140975 0.324574 0.171431
Si Si3 0.931314 0.675141 0.500899
Si Si4 0.955348 0.324908 0.740167
Si Si5 0.660808 0.171706 0.451609
Si Si6 0.044678 0.822532 0.711033
Si Si7 0.800057 0.332051 0.630281
Si Si8 0.697482 0.821934 0.015868
O O1 0.327303 0.803232 0.672889
O O2 0.408061 0.762143 0.765804
O O3 0.362070 0.000000 0.809342
O O4 0.327194 0.754394 0.877849
O O5 0.148335 0.500000 0.149295
O O6 0.087034 0.283591 0.181273
O O7 0.163275 0.277251 0.283548
O O8 0.165971 0.230759 0.080976
O O9 0.939269 0.500000 0.484347
O O10 0.945454 0.725718 0.619132
O O11 0.878661 0.716258 0.487962
O O12 0.960319 0.760056 0.409798
O O13 0.965025 0.500000 0.746494
O O14 0.001029 0.236891 0.778627
O O15 0.702204 0.220542 0.528223
O O16 0.646119 0.000000 0.469771
O O17 0.045080 0.000000 0.706103
O O18 0.750000 0.326403 0.684359
O O19 0.811862 0.500000 0.592065
O O20 0.750000 0.761129 0.008281
O O21 0.698717 0.000000 0.017533
#
# Coordination Sequence:
#
# PCOD8207227 Si02
#       8
#     8   8   8   8   8   8   8   8
#     4   8  18  37  56  78 112 147 179 223 282 337
#     4  10  21  39  58  79 110 146 184 228 279 333
#     4  10  18  32  52  75 110 153 190 221 264 327
#     4  10  20  34  53  77 109 151 190 221 269 334
#     4  10  19  32  53  81 112 144 182 227 275 328
#     4  10  20  33  52  81 114 148 186 230 277 324
#     4  10  20  35  54  76 108 148 181 217 278 347
#     4  10  21  39  63  85 104 136 186 236 280 331
#
# _framework density 19.582792999999999
#
# number of rings (size 3 to 8) (size 9 to 14) (size 15 to 20)
#    0.000    2.250    1.250    2.625    0.000    5.000 
#    0.000    5.625    0.000    3.750    0.000    0.000 
#    0.000    0.000    0.000    0.000    0.000    0.000 
#
# Total GULP energy -793198.472299 kJ/mol
# GULP energy per Si atom -12393.726130 kJ/mol
# Density = 1.953822 g / cm^3
# Si number density = 19.582793 Si / 1000 Ang^3
#
#
#
# Elastic Constant Matrix: (Units=GPa)
#
#
# Indices 1 2 3 4 5 6 
#
# 1 98.1635 24.8827 54.7497 0.0000 0.0000 0.0000
# 2 24.8827 40.5663 29.7381 0.0000 0.0000 0.0000
# 3 54.7497 29.7381 98.3019 0.0000 0.0000 0.0000
# 4 0.0000 0.0000 0.0000 14.4802 0.0000 0.0000
# 5 0.0000 0.0000 0.0000 0.0000 23.7158 0.0000
# 6 0.0000 0.0000 0.0000 0.0000 0.0000 28.2655
#
#
#
# Elastic Compliance Matrix: (Units=1/GPa)
#
#
# Indices 1 2 3 4 5 6 
#
# 1 0.015272 -0.004025 -0.007288 0.000000 0.000000 0.000000
# 2 -0.004025 0.032736 -0.007662 0.000000 0.000000 0.000000
# 3 -0.007288 -0.007662 0.016550 0.000000 0.000000 0.000000
# 4 0.000000 0.000000 0.000000 0.069060 0.000000 0.000000
# 5 0.000000 0.000000 0.000000 0.000000 0.042166 0.000000
# 6 0.000000 0.000000 0.000000 0.000000 0.000000 0.035379
#
#
# Mechanical properties :
#
#
# Convention : Reuss Voigt Hill
#
# Bulk Modulus (GPa) = 37.58177 50.64142 44.11160
# Shear Modulus (GPa) = 19.38115 21.80304 20.59210
#
# Velocity S-wave (km/s) = 3.14937 3.34035 3.24626
# Velocity P-wave (km/s) = 5.69715 6.38698 6.05191
#
# Compressibility (1/GPa) = 0.02660864
#
# Stress axis : x y z
#
# Youngs Moduli (GPa) = 65.47786 30.54710 60.42350
#
# Poissons Ratio (x) = 0.12295 0.44039
# Poissons Ratio (y) = 0.26354 0.46295
# Poissons Ratio (z) = 0.47723 0.23404
#
# Static dielectric constant tensor:
#      x y z
#    x 3.838580 0.000000 0.000000 
#    y 0.000000 3.343260 0.000000 
#    z 0.000000 0.000000 3.530610 
# 
# 
# High freq. dielectric constant tensor:
#      x y z
#    x 1.774850 0.000000 0.000000 
#    y 0.000000 1.743250 0.000000 
#    z 0.000000 0.000000 1.742160 
# 
# From -- ./inp_files/19599.got.cif
#   From: 2010.03.12/outbox.cif.g09.slc.cpg/sg51_10_cif.got.tgz:19599.got - 2010.04.16 13:43:02.
