data_PCOD8207115
_publ_section_title
;
Structure prediction by ZEFSAII (Michael W. Deem and Ramdas Pophale) SiO2 
 PCOD8207115
Probable space group: P M M A
;
_chemical_formula_sum "Si O2"
_cell_formula_units_Z 64
_cell_length_a 19.640165
_cell_length_b 8.943184
_cell_length_c 20.187128
_cell_angle_alpha 90.000000
_cell_angle_beta 90.000000
_cell_angle_gamma 90.000000
_cell_volume 3545.780399
_symmetry_space_group_name_H-M "P M M A"
_symmetry_group_IT_number 51
_symmetry_cell_setting 'orthorhombic'
loop_
_space_group_symop_operation_xyz
x,y,z
1/2-x,-y,z
1/2+x,-y,-z
-x,y,-z
-x,-y,-z
1/2+x,y,-z
1/2-x,y,z
x,-y,z
loop_
_atom_site_type_symbol
_atom_site_label
_atom_site_fract_x
_atom_site_fract_y
_atom_site_fract_z
Si Si1 0.548290 0.821901 0.087712
Si Si2 0.327612 0.176969 0.660452
Si Si3 0.586655 0.822845 0.729989
Si Si4 0.830848 0.668014 0.472559
Si Si5 0.061945 0.177151 0.763256
Si Si6 0.087799 0.673469 0.036763
Si Si7 0.828302 0.823482 0.605212
Si Si8 0.673088 0.672059 0.840192
O O1 0.571911 0.771034 0.160871
O O2 0.474924 0.751849 0.073674
O O3 0.544132 0.000000 0.081232
O O4 0.601254 0.754845 0.033817
O O5 0.250000 0.228052 0.674820
O O6 0.356731 0.246600 0.592665
O O7 0.374785 0.237840 0.720110
O O8 0.332024 0.000000 0.653040
O O9 0.509236 0.761450 0.732983
O O10 0.625268 0.761305 0.665010
O O11 0.625091 0.772197 0.795481
O O12 0.587652 0.000000 0.729288
O O13 0.750000 0.670957 0.473248
O O14 0.859517 0.500000 0.471587
O O15 0.857618 0.750115 0.538334
O O16 0.060359 0.000000 0.760311
O O17 0.070703 0.500000 0.024658
O O18 0.153787 0.693360 0.082716
O O19 0.750000 0.776501 0.619082
O O20 0.834396 0.000000 0.597060
O O21 0.750000 0.727262 0.830989
O O22 0.664378 0.500000 0.818927
#
# Coordination Sequence:
#
# PCOD8207115 Si02
#       8
#     8   8   8   8   8   8   8   8
#     4  10  18  31  52  74  98 126 161 206 251 294
#     4   9  17  32  54  75  96 126 163 203 250 305
#     4  10  19  33  51  73 101 132 169 210 250 296
#     4   9  17  30  49  72  97 126 162 204 246 291
#     4   9  18  32  51  76 102 128 161 205 254 300
#     4  10  19  32  50  72  97 128 169 206 242 292
#     4   9  17  29  47  71  96 126 164 202 241 291
#     4  10  21  35  50  71 103 139 172 208 250 296
#
# _framework density 18.049623
#
# number of rings (size 3 to 8) (size 9 to 14) (size 15 to 20)
#    0.000    2.500    1.250    2.250    0.000    3.250 
#    0.000    4.375    0.000    4.500    0.000    0.000 
#    0.000    0.000    0.000    0.000    0.000    0.000 
#
# Total GULP energy -793444.177832 kJ/mol
# GULP energy per Si atom -12397.565279 kJ/mol
# Density = 1.800854 g / cm^3
# Si number density = 18.049623 Si / 1000 Ang^3
#
#
#
# Elastic Constant Matrix: (Units=GPa)
#
#
# Indices 1 2 3 4 5 6 
#
# 1 85.1754 20.0122 63.9799 0.0000 0.0000 0.0000
# 2 20.0122 49.1818 39.0844 0.0000 0.0000 0.0000
# 3 63.9799 39.0844 167.7881 0.0000 0.0000 0.0000
# 4 0.0000 0.0000 0.0000 16.6858 0.0000 0.0000
# 5 0.0000 0.0000 0.0000 0.0000 30.9363 0.0000
# 6 0.0000 0.0000 0.0000 0.0000 0.0000 14.6192
#
#
#
# Elastic Compliance Matrix: (Units=1/GPa)
#
#
# Indices 1 2 3 4 5 6 
#
# 1 0.016631 -0.002120 -0.005848 0.000000 0.000000 0.000000
# 2 -0.002120 0.025222 -0.005067 0.000000 0.000000 0.000000
# 3 -0.005848 -0.005067 0.009370 0.000000 0.000000 0.000000
# 4 0.000000 0.000000 0.000000 0.059931 0.000000 0.000000
# 5 0.000000 0.000000 0.000000 0.000000 0.032324 0.000000
# 6 0.000000 0.000000 0.000000 0.000000 0.000000 0.068403
#
#
# Mechanical properties :
#
#
# Convention : Reuss Voigt Hill
#
# Bulk Modulus (GPa) = 39.75545 60.92204 50.33874
# Shear Modulus (GPa) = 20.29749 24.38619 22.34184
#
# Velocity S-wave (km/s) = 3.35705 3.67967 3.52206
# Velocity P-wave (km/s) = 6.09096 7.20271 6.67004
#
# Compressibility (1/GPa) = 0.02515379
#
# Stress axis : x y z
#
# Youngs Moduli (GPa) = 60.12775 39.64811 106.72331
#
# Poissons Ratio (x) = 0.08406 0.62411
# Poissons Ratio (y) = 0.12747 0.54074
# Poissons Ratio (z) = 0.35162 0.20089
#
# Static dielectric constant tensor:
#      x y z
#    x 3.301880 0.000000 0.000000 
#    y 0.000000 3.220040 0.000000 
#    z 0.000000 0.000000 3.666980 
# 
# 
# High freq. dielectric constant tensor:
#      x y z
#    x 1.671300 0.000000 0.000000 
#    y 0.000000 1.687080 0.000000 
#    z 0.000000 0.000000 1.711790 
# 
# From -- ./inp_files/34094.got.cif
#   From: 2010.03.12/outbox.cif.g09.slc.cpg/sg51_18_cif.got.tgz:34094.got - 2010.04.16 13:43:02.
