data_PCOD8207199
_publ_section_title
;
Structure prediction by ZEFSAII (Michael W. Deem and Ramdas Pophale) SiO2 
 PCOD8207199
Probable space group: P M M A
;
_chemical_formula_sum "Si O2"
_cell_formula_units_Z 36
_cell_length_a 8.783493
_cell_length_b 12.402520
_cell_length_c 20.630243
_cell_angle_alpha 90.000000
_cell_angle_beta 90.000000
_cell_angle_gamma 90.000000
_cell_volume 2247.406016
_symmetry_space_group_name_H-M "P M M A"
_symmetry_group_IT_number 51
_symmetry_cell_setting 'orthorhombic'
loop_
_space_group_symop_operation_xyz
x,y,z
1/2-x,-y,z
1/2+x,-y,-z
-x,y,-z
-x,-y,-z
1/2+x,y,-z
1/2-x,y,z
x,-y,z
loop_
_atom_site_type_symbol
_atom_site_label
_atom_site_fract_x
_atom_site_fract_y
_atom_site_fract_z
Si Si1 0.929752 0.783986 0.570478
Si Si2 0.931666 0.000000 0.428389
Si Si3 0.570690 0.621910 0.936905
Si Si4 0.575866 0.373099 0.332506
Si Si5 0.420194 0.628379 0.203294
O O1 0.750000 0.798965 0.563619
O O2 0.000000 0.762487 0.500000
O O3 0.003844 0.890716 0.604259
O O4 0.967387 0.682476 0.615255
O O5 0.000000 0.000000 0.500000
O O6 0.750000 0.000000 0.428075
O O7 0.750000 0.624765 0.943502
O O8 0.507571 0.500000 0.937236
O O9 0.524393 0.674560 0.867087
O O10 0.500000 0.683090 0.000000
O O11 0.750000 0.341603 0.345994
O O12 0.548020 0.500000 0.339178
O O13 0.532496 0.333117 0.260192
O O14 0.250000 0.670396 0.219290
O O15 0.416922 0.500000 0.197859
#
# Coordination Sequence:
#
# PCOD8207199 Si02
#       5
#     8   4   8   8   8
#     4  11  21  34  51  69  89 113 143 178 218 261
#     4  10  18  32  52  72  92 110 135 172 215 260
#     4   8  13  20  31  48  70  97 132 172 210 247
#     4  10  20  32  45  63  87 116 150 184 219 260
#     4   8  14  25  38  52  74 106 141 175 212 254
#
# _framework density 16.018467000000001
#
# number of rings (size 3 to 8) (size 9 to 14) (size 15 to 20)
#    0.000    2.667    0.000    6.333    0.000    2.667 
#    0.000    4.444    0.000    0.000    0.000    0.000 
#    0.000    0.000    0.000    1.000    0.000   14.000 
#
# Total GULP energy -446060.824686 kJ/mol
# GULP energy per Si atom -12390.578463 kJ/mol
# Density = 1.598201 g / cm^3
# Si number density = 16.018467 Si / 1000 Ang^3
#
#
#
# Elastic Constant Matrix: (Units=GPa)
#
#
# Indices 1 2 3 4 5 6 
#
# 1 101.1116 28.4925 44.9055 0.0000 0.0000 0.0000
# 2 28.4925 36.9638 33.3486 0.0000 0.0000 0.0000
# 3 44.9055 33.3486 109.2361 0.0000 0.0000 0.0000
# 4 0.0000 0.0000 0.0000 0.5422 0.0000 0.0000
# 5 0.0000 0.0000 0.0000 0.0000 30.4525 0.0000
# 6 0.0000 0.0000 0.0000 0.0000 0.0000 19.2103
#
#
#
# Elastic Compliance Matrix: (Units=1/GPa)
#
#
# Indices 1 2 3 4 5 6 
#
# 1 0.013424 -0.007410 -0.003256 0.000000 0.000000 0.000000
# 2 -0.007410 0.041427 -0.009601 0.000000 0.000000 0.000000
# 3 -0.003256 -0.009601 0.013424 0.000000 0.000000 0.000000
# 4 0.000000 0.000000 0.000000 1.844244 0.000000 0.000000
# 5 0.000000 0.000000 0.000000 0.000000 0.032838 0.000000
# 6 0.000000 0.000000 0.000000 0.000000 0.000000 0.052055
#
#
# Mechanical properties :
#
#
# Convention : Reuss Voigt Hill
#
# Bulk Modulus (GPa) = 36.04769 51.20048 43.62408
# Shear Modulus (GPa) = 2.44237 19.41200 10.92718
#
# Velocity S-wave (km/s) = 1.23613 3.48494 2.61466
# Velocity P-wave (km/s) = 4.95884 6.94449 6.03390
#
# Compressibility (1/GPa) = 0.02774103
#
# Stress axis : x y z
#
# Youngs Moduli (GPa) = 74.49161 24.13863 74.49173
#
# Poissons Ratio (x) = 0.17886 0.24258
# Poissons Ratio (y) = 0.55197 0.71521
# Poissons Ratio (z) = 0.24258 0.23176
#
# Static dielectric constant tensor:
#      x y z
#    x 3.071510 0.000000 0.000000 
#    y 0.000000 2.852800 0.000000 
#    z 0.000000 0.000000 3.308820 
# 
# 
# High freq. dielectric constant tensor:
#      x y z
#    x 1.625310 0.000000 0.000000 
#    y 0.000000 1.550420 0.000000 
#    z 0.000000 0.000000 1.619310 
# 
# From -- ./inp_files/31307.got.cif
#   From: 2010.03.12/outbox.cif.g09.slc.cpg/sg51_16_cif.got.tgz:31307.got - 2010.04.16 13:43:02.
