data_PCOD8207990
_publ_section_title
;
Structure prediction by ZEFSAII (Michael W. Deem and Ramdas Pophale) SiO2 
 PCOD8207990
Probable space group: P M M A
;
_chemical_formula_sum "Si O2"
_cell_formula_units_Z 64
_cell_length_a 9.376649
_cell_length_b 22.235705
_cell_length_c 16.192982
_cell_angle_alpha 90.000000
_cell_angle_beta 90.000000
_cell_angle_gamma 90.000000
_cell_volume 3376.178469
_symmetry_space_group_name_H-M "P M M A"
_symmetry_group_IT_number 51
_symmetry_cell_setting 'orthorhombic'
loop_
_space_group_symop_operation_xyz
x,y,z
1/2-x,-y,z
1/2+x,-y,-z
-x,y,-z
-x,-y,-z
1/2+x,y,-z
1/2-x,y,z
x,-y,z
loop_
_atom_site_type_symbol
_atom_site_label
_atom_site_fract_x
_atom_site_fract_y
_atom_site_fract_z
Si Si1 0.910041 0.251230 0.075685
Si Si2 0.589934 0.934026 0.729416
Si Si3 0.913025 0.192410 0.784932
Si Si4 0.908882 0.226524 0.366617
Si Si5 0.415748 0.640397 0.580810
Si Si6 0.411617 0.393746 0.920663
Si Si7 0.417688 0.568504 0.741326
Si Si8 0.909164 0.901909 0.425028
O O1 0.750000 0.226928 0.067137
O O2 0.913852 0.322443 0.079134
O O3 0.979060 0.225792 0.156831
O O4 0.000000 0.225458 0.000000
O O5 0.750000 0.927905 0.691964
O O6 0.568932 0.879961 0.795133
O O7 0.474070 0.927339 0.658713
O O8 0.570683 0.000000 0.771640
O O9 0.750000 0.212443 0.800783
O O10 0.961256 0.214109 0.695097
O O11 0.750000 0.230650 0.324206
O O12 0.940283 0.288250 0.414013
O O13 0.908375 0.170758 0.429635
O O14 0.500000 0.616329 0.500000
O O15 0.250000 0.623555 0.569022
O O16 0.476063 0.609432 0.665480
O O17 0.250000 0.418245 0.929766
O O18 0.480038 0.414522 0.832496
O O19 0.500000 0.418578 0.000000
O O20 0.250000 0.579140 0.747603
O O21 0.458245 0.500000 0.720850
O O22 0.750000 0.927482 0.431995
O O23 0.000000 0.928278 0.500000
#
# Coordination Sequence:
#
# PCOD8207990 Si02
#       8
#     8   8   8   8   8   8   8   8
#     4  10  19  32  51  76 106 134 160 194 240 294
#     4   9  19  35  51  67  91 125 163 200 238 283
#     4  10  19  31  51  77 101 127 161 201 245 292
#     4   9  18  32  49  70  97 128 162 201 250 306
#     4  10  20  34  52  73  98 132 174 218 263 307
#     4   9  18  33  54  79 106 135 166 202 248 303
#     4   9  18  33  52  73 100 137 176 209 248 304
#     4  10  19  30  46  68  94 123 156 198 246 295
#
# _framework density 18.956343
#
# number of rings (size 3 to 8) (size 9 to 14) (size 15 to 20)
#    0.000    2.500    0.000    2.250    0.000    5.000 
#    0.000    0.625    0.000    1.125    0.000    0.000 
#    0.000    0.000    0.000    0.000    0.000    0.000 
#
# Total GULP energy -793202.486893 kJ/mol
# GULP energy per Si atom -12393.788858 kJ/mol
# Density = 1.891320 g / cm^3
# Si number density = 18.956343 Si / 1000 Ang^3
#
#
#
# Elastic Constant Matrix: (Units=GPa)
#
#
# Indices 1 2 3 4 5 6 
#
# 1 94.9137 15.1354 31.0079 0.0000 0.0000 0.0000
# 2 15.1354 30.6472 12.1979 0.0000 0.0000 0.0000
# 3 31.0079 12.1979 87.9197 0.0000 0.0000 0.0000
# 4 0.0000 0.0000 0.0000 8.1135 0.0000 0.0000
# 5 0.0000 0.0000 0.0000 0.0000 33.5882 0.0000
# 6 0.0000 0.0000 0.0000 0.0000 0.0000 19.1559
#
#
#
# Elastic Compliance Matrix: (Units=1/GPa)
#
#
# Indices 1 2 3 4 5 6 
#
# 1 0.012512 -0.004681 -0.003763 0.000000 0.000000 0.000000
# 2 -0.004681 0.036288 -0.003384 0.000000 0.000000 0.000000
# 3 -0.003763 -0.003384 0.013171 0.000000 0.000000 0.000000
# 4 0.000000 0.000000 0.000000 0.123251 0.000000 0.000000
# 5 0.000000 0.000000 0.000000 0.000000 0.029772 0.000000
# 6 0.000000 0.000000 0.000000 0.000000 0.000000 0.052203
#
#
# Mechanical properties :
#
#
# Convention : Reuss Voigt Hill
#
# Bulk Modulus (GPa) = 26.09986 36.68476 31.39231
# Shear Modulus (GPa) = 16.46767 22.51413 19.49090
#
# Velocity S-wave (km/s) = 2.95060 3.45002 3.21003
# Velocity P-wave (km/s) = 5.04047 5.93838 5.50775
#
# Compressibility (1/GPa) = 0.03831439
#
# Stress axis : x y z
#
# Youngs Moduli (GPa) = 79.92438 27.55733 75.92613
#
# Poissons Ratio (x) = 0.12900 0.28573
# Poissons Ratio (y) = 0.37415 0.25690
# Poissons Ratio (z) = 0.30078 0.09324
#
# Static dielectric constant tensor:
#      x y z
#    x 3.330510 0.000000 0.000000 
#    y 0.000000 3.550650 0.000000 
#    z 0.000000 0.000000 3.393210 
# 
# 
# High freq. dielectric constant tensor:
#      x y z
#    x 1.729580 0.000000 0.000000 
#    y 0.000000 1.733520 0.000000 
#    z 0.000000 0.000000 1.716700 
# 
# From -- ./inp_files/22295.got.cif
#   From: 2010.03.12/outbox.cif.g09.slc.cpg/sg51_12_cif.got.tgz:22295.got - 2010.04.16 13:43:02.
