data_PCOD8207412
_publ_section_title
;
Structure prediction by ZEFSAII (Michael W. Deem and Ramdas Pophale) SiO2 
 PCOD8207412
Probable space group: P M M A
;
_chemical_formula_sum "Si O2"
_cell_formula_units_Z 64
_cell_length_a 8.726641
_cell_length_b 20.166197
_cell_length_c 20.190301
_cell_angle_alpha 90.000000
_cell_angle_beta 90.000000
_cell_angle_gamma 90.000000
_cell_volume 3553.153003
_symmetry_space_group_name_H-M "P M M A"
_symmetry_group_IT_number 51
_symmetry_cell_setting 'orthorhombic'
loop_
_space_group_symop_operation_xyz
x,y,z
1/2-x,-y,z
1/2+x,-y,-z
-x,y,-z
-x,-y,-z
1/2+x,y,-z
1/2-x,y,z
x,-y,z
loop_
_atom_site_type_symbol
_atom_site_label
_atom_site_fract_x
_atom_site_fract_y
_atom_site_fract_z
Si Si1 0.067113 0.662066 0.684711
Si Si2 0.924260 0.791142 0.250260
Si Si3 0.929877 0.927700 0.203499
Si Si4 0.930312 0.378120 0.934349
Si Si5 0.574436 0.240386 0.099690
Si Si6 0.929357 0.894036 0.932908
Si Si7 0.077203 0.574646 0.806536
Si Si8 0.069399 0.425041 0.429092
O O1 0.250000 0.659199 0.677806
O O2 0.006629 0.738422 0.696402
O O3 0.012043 0.620121 0.748039
O O4 0.992016 0.630822 0.620234
O O5 0.750000 0.800732 0.271286
O O6 0.998802 0.865970 0.247377
O O7 0.940291 0.756932 0.178922
O O8 0.750000 0.914045 0.193377
O O9 0.002550 0.930489 0.131013
O O10 0.959471 0.000000 0.237508
O O11 0.750000 0.369410 0.940905
O O12 0.014206 0.308049 0.929698
O O13 0.968655 0.421707 0.870317
O O14 0.000000 0.413353 0.000000
O O15 0.750000 0.227784 0.078369
O O16 0.468567 0.183523 0.069567
O O17 0.750000 0.905922 0.933551
O O18 0.000000 0.925174 0.000000
O O19 0.250000 0.596901 0.826186
O O20 0.075688 0.500000 0.779490
O O21 0.250000 0.418945 0.433663
O O22 0.021304 0.500000 0.407214
O O23 0.000000 0.408087 0.500000
#
# Coordination Sequence:
#
# PCOD8207412 Si02
#       8
#     8   8   8   8   8   8   8   8
#     4  10  18  33  57  82 107 139 176 213 257 306
#     4   8  15  29  52  76  99 128 164 207 252 302
#     4   9  18  33  51  71  97 131 168 209 258 311
#     4  12  24  36  51  69  92 123 163 213 271 324
#     4  10  18  34  53  70  94 122 159 206 259 315
#     4  11  21  32  46  67  92 121 160 204 259 321
#     4  10  21  37  55  74  97 129 168 211 262 317
#     4  10  21  36  54  80 115 152 186 218 254 299
#
# _framework density 18.012170999999999
#
# number of rings (size 3 to 8) (size 9 to 14) (size 15 to 20)
#    0.000    2.000    1.250    4.500    0.000    2.750 
#    0.000    0.625    0.000    0.000    0.000    0.000 
#    0.000    0.500    0.000    0.875    0.000    1.250 
#
# Total GULP energy -793228.137290 kJ/mol
# GULP energy per Si atom -12394.189645 kJ/mol
# Density = 1.797117 g / cm^3
# Si number density = 18.012171 Si / 1000 Ang^3
#
#
#
# Elastic Constant Matrix: (Units=GPa)
#
#
# Indices 1 2 3 4 5 6 
#
# 1 61.1345 28.3700 29.7191 0.0000 0.0000 0.0000
# 2 28.3700 125.7263 59.8311 0.0000 0.0000 0.0000
# 3 29.7191 59.8311 90.9311 0.0000 0.0000 0.0000
# 4 0.0000 0.0000 0.0000 12.5989 0.0000 0.0000
# 5 0.0000 0.0000 0.0000 0.0000 24.8316 0.0000
# 6 0.0000 0.0000 0.0000 0.0000 0.0000 17.6524
#
#
#
# Elastic Compliance Matrix: (Units=1/GPa)
#
#
# Indices 1 2 3 4 5 6 
#
# 1 0.019794 -0.002020 -0.005140 0.000000 0.000000 0.000000
# 2 -0.002020 0.011786 -0.007095 0.000000 0.000000 0.000000
# 3 -0.005140 -0.007095 0.017345 0.000000 0.000000 0.000000
# 4 0.000000 0.000000 0.000000 0.079372 0.000000 0.000000
# 5 0.000000 0.000000 0.000000 0.000000 0.040271 0.000000
# 6 0.000000 0.000000 0.000000 0.000000 0.000000 0.056650
#
#
# Mechanical properties :
#
#
# Convention : Reuss Voigt Hill
#
# Bulk Modulus (GPa) = 48.98310 57.07024 53.02667
# Shear Modulus (GPa) = 19.19148 21.67469 20.43308
#
# Velocity S-wave (km/s) = 3.26770 3.47268 3.37175
# Velocity P-wave (km/s) = 6.44132 6.91609 6.68293
#
# Compressibility (1/GPa) = 0.02041520
#
# Stress axis : x y z
#
# Youngs Moduli (GPa) = 50.52148 84.84729 57.65274
#
# Poissons Ratio (x) = 0.17143 0.29632
# Poissons Ratio (y) = 0.10208 0.40902
# Poissons Ratio (z) = 0.25967 0.60195
#
# Static dielectric constant tensor:
#      x y z
#    x 3.249580 0.000000 0.000000 
#    y 0.000000 3.582190 0.000000 
#    z 0.000000 0.000000 3.112310 
# 
# 
# High freq. dielectric constant tensor:
#      x y z
#    x 1.685830 0.000000 0.000000 
#    y 0.000000 1.704800 0.000000 
#    z 0.000000 0.000000 1.656270 
# 
# From -- ./inp_files/32668.got.cif
#   From: 2010.03.12/outbox.cif.g09.slc.cpg/sg51_17_cif.got.tgz:32668.got - 2010.04.16 13:43:02.
