data_PCOD8207455
_publ_section_title
;
Structure prediction by ZEFSAII (Michael W. Deem and Ramdas Pophale) SiO2 
 PCOD8207455
Probable space group: P M M A
;
_chemical_formula_sum "Si O2"
_cell_formula_units_Z 56
_cell_length_a 21.482785
_cell_length_b 9.283535
_cell_length_c 14.570739
_cell_angle_alpha 90.000000
_cell_angle_beta 90.000000
_cell_angle_gamma 90.000000
_cell_volume 2905.932620
_symmetry_space_group_name_H-M "P M M A"
_symmetry_group_IT_number 51
_symmetry_cell_setting 'orthorhombic'
loop_
_space_group_symop_operation_xyz
x,y,z
1/2-x,-y,z
1/2+x,-y,-z
-x,y,-z
-x,-y,-z
1/2+x,y,-z
1/2-x,y,z
x,-y,z
loop_
_atom_site_type_symbol
_atom_site_label
_atom_site_fract_x
_atom_site_fract_y
_atom_site_fract_z
Si Si1 0.578820 0.667471 0.729423
Si Si2 0.367385 0.160752 0.636125
Si Si3 0.938247 0.837415 0.546968
Si Si4 0.750000 0.844340 0.143465
Si Si5 0.376145 0.161944 0.963936
Si Si6 0.750000 0.331722 0.316888
Si Si7 0.678727 0.666192 0.875813
Si Si8 0.961529 0.829954 0.203642
O O1 0.561459 0.500000 0.719868
O O2 0.584003 0.737424 0.629375
O O3 0.646452 0.687203 0.776685
O O4 0.525992 0.744615 0.790425
O O5 0.386543 0.160174 0.530744
O O6 0.310907 0.269901 0.636081
O O7 0.420867 0.212289 0.706732
O O8 0.346627 0.000000 0.666602
O O9 0.000000 0.773222 0.500000
O O10 0.951478 0.000000 0.584229
O O11 0.809424 0.833251 0.081332
O O12 0.750000 0.710217 0.210763
O O13 0.750000 0.000000 0.195215
O O14 0.427077 0.218867 0.890471
O O15 0.393899 0.000000 0.994464
O O16 0.369274 0.259490 0.053543
O O17 0.750000 0.500000 0.328934
O O18 0.750000 0.728928 0.874011
O O19 0.681853 0.500000 0.903651
O O20 0.974554 0.000000 0.202205
#
# Coordination Sequence:
#
# PCOD8207455 Si02
#       8
#     8   8   8   4   8   4   8   8
#     4  11  24  40  60  87 120 155 194 244 297 352
#     4  10  20  38  61  83 118 160 196 242 298 356
#     4  10  20  39  66  89 111 149 198 244 296 353
#     4  10  18  34  56  81 116 155 196 237 286 344
#     4  10  20  35  61  90 114 148 196 246 287 333
#     4  12  24  34  52  87 126 159 196 241 292 354
#     4  10  23  43  62  81 115 162 200 236 291 350
#     4  10  20  37  61  89 121 155 191 239 296 352
#
# _framework density 19.270923
#
# number of rings (size 3 to 8) (size 9 to 14) (size 15 to 20)
#    0.000    1.714    3.571    1.071    0.000    4.286 
#    1.286    2.857    0.000    0.000    0.000    0.000 
#    0.000    0.000    0.000    0.000    0.000    0.000 
#
# Total GULP energy -694259.500532 kJ/mol
# GULP energy per Si atom -12397.491081 kJ/mol
# Density = 1.922706 g / cm^3
# Si number density = 19.270923 Si / 1000 Ang^3
#
#
#
# Elastic Constant Matrix: (Units=GPa)
#
#
# Indices 1 2 3 4 5 6 
#
# 1 79.2158 42.3618 35.5992 0.0000 0.0000 0.0000
# 2 42.3618 87.8835 43.9262 0.0000 0.0000 0.0000
# 3 35.5992 43.9262 111.0652 0.0000 0.0000 0.0000
# 4 0.0000 0.0000 0.0000 25.4110 0.0000 0.0000
# 5 0.0000 0.0000 0.0000 0.0000 60.3099 0.0000
# 6 0.0000 0.0000 0.0000 0.0000 0.0000 24.7987
#
#
#
# Elastic Compliance Matrix: (Units=1/GPa)
#
#
# Indices 1 2 3 4 5 6 
#
# 1 0.017711 -0.007104 -0.002867 0.000000 0.000000 0.000000
# 2 -0.007104 0.017032 -0.004459 0.000000 0.000000 0.000000
# 3 -0.002867 -0.004459 0.011686 0.000000 0.000000 0.000000
# 4 0.000000 0.000000 0.000000 0.039353 0.000000 0.000000
# 5 0.000000 0.000000 0.000000 0.000000 0.016581 0.000000
# 6 0.000000 0.000000 0.000000 0.000000 0.000000 0.040325
#
#
# Mechanical properties :
#
#
# Convention : Reuss Voigt Hill
#
# Bulk Modulus (GPa) = 56.91974 57.99323 57.45648
# Shear Modulus (GPa) = 28.18408 32.52239 30.35323
#
# Velocity S-wave (km/s) = 3.82844 4.11255 3.97303
# Velocity P-wave (km/s) = 7.01023 7.26014 7.13628
#
# Compressibility (1/GPa) = 0.01756860
#
# Stress axis : x y z
#
# Youngs Moduli (GPa) = 56.46107 58.71383 85.57048
#
# Poissons Ratio (x) = 0.41711 0.24535
# Poissons Ratio (y) = 0.40111 0.38156
# Poissons Ratio (z) = 0.16189 0.26180
#
# Static dielectric constant tensor:
#      x y z
#    x 3.550860 0.000000 0.000000 
#    y 0.000000 3.529160 0.000000 
#    z 0.000000 0.000000 3.497370 
# 
# 
# High freq. dielectric constant tensor:
#      x y z
#    x 1.752820 0.000000 0.000000 
#    y 0.000000 1.737600 0.000000 
#    z 0.000000 0.000000 1.750160 
# 
# From -- ./inp_files/25876.got.cif
#   From: 2010.03.12/outbox.cif.g09.slc.cpg/sg51_13_cif.got.tgz:25876.got - 2010.04.16 13:43:02.
