data_PCOD8207210
_publ_section_title
;
Structure prediction by ZEFSAII (Michael W. Deem and Ramdas Pophale) SiO2 
 PCOD8207210
Probable space group: P M M A
;
_chemical_formula_sum "Si O2"
_cell_formula_units_Z 40
_cell_length_a 27.548843
_cell_length_b 7.796729
_cell_length_c 10.272548
_cell_angle_alpha 90.000000
_cell_angle_beta 90.000000
_cell_angle_gamma 90.000000
_cell_volume 2206.449452
_symmetry_space_group_name_H-M "P M M A"
_symmetry_group_IT_number 51
_symmetry_cell_setting 'orthorhombic'
loop_
_space_group_symop_operation_xyz
x,y,z
1/2-x,-y,z
1/2+x,-y,-z
-x,y,-z
-x,-y,-z
1/2+x,y,-z
1/2-x,y,z
x,-y,z
loop_
_atom_site_type_symbol
_atom_site_label
_atom_site_fract_x
_atom_site_fract_y
_atom_site_fract_z
Si Si1 0.474712 0.302656 0.371470
Si Si2 0.129896 0.307111 0.472830
Si Si3 0.804495 0.000000 0.219539
Si Si4 0.803670 0.000000 0.528324
Si Si5 0.627858 0.691698 0.225853
Si Si6 0.971871 0.804960 0.123985
O O1 0.500000 0.225549 0.500000
O O2 0.490584 0.500000 0.354304
O O3 0.417084 0.282068 0.383573
O O4 0.492308 0.198810 0.246893
O O5 0.150818 0.500000 0.457350
O O6 0.169543 0.171722 0.422717
O O7 0.115703 0.271607 0.622910
O O8 0.800626 0.000000 0.373817
O O9 0.832989 0.170847 0.172871
O O10 0.750000 0.000000 0.159502
O O11 0.750000 0.000000 0.589689
O O12 0.649419 0.500000 0.207391
O O13 0.577622 0.701648 0.147425
O O14 0.957168 0.000000 0.094871
O O15 0.000000 0.724869 0.000000
#
# Coordination Sequence:
#
# PCOD8207210 Si02
#       6
#     8   8   4   4   8   8
#     4  10  19  32  51  76 103 136 177 213 252 309
#     4   9  18  30  48  76 102 130 174 216 252 309
#     4   9  18  32  48  73 105 132 171 221 260 309
#     4   9  18  30  46  70 101 137 169 207 268 315
#     4  10  18  32  52  73 103 140 172 210 263 310
#     4  11  23  35  49  76 111 145 178 216 261 312
#
# _framework density 18.128672000000002
#
# number of rings (size 3 to 8) (size 9 to 14) (size 15 to 20)
#    0.000    2.200    3.000    0.600    1.400    2.800 
#    0.000    4.000    0.000    0.000    0.000    2.800 
#    0.000    3.200    0.000    0.000    0.000    0.000 
#
# Total GULP energy -496004.626489 kJ/mol
# GULP energy per Si atom -12400.115662 kJ/mol
# Density = 1.808741 g / cm^3
# Si number density = 18.128672 Si / 1000 Ang^3
#
#
#
# Elastic Constant Matrix: (Units=GPa)
#
#
# Indices 1 2 3 4 5 6 
#
# 1 127.2850 62.4019 32.1273 0.0000 0.0000 0.0000
# 2 62.4019 113.8301 17.1407 0.0000 0.0000 0.0000
# 3 32.1273 17.1407 63.2971 0.0000 0.0000 0.0000
# 4 0.0000 0.0000 0.0000 15.2779 0.0000 0.0000
# 5 0.0000 0.0000 0.0000 0.0000 13.0508 0.0000
# 6 0.0000 0.0000 0.0000 0.0000 0.0000 21.4606
#
#
#
# Elastic Compliance Matrix: (Units=1/GPa)
#
#
# Indices 1 2 3 4 5 6 
#
# 1 0.011825 -0.005816 -0.004427 0.000000 0.000000 0.000000
# 2 -0.005816 0.012019 -0.000303 0.000000 0.000000 0.000000
# 3 -0.004427 -0.000303 0.018127 0.000000 0.000000 0.000000
# 4 0.000000 0.000000 0.000000 0.065454 0.000000 0.000000
# 5 0.000000 0.000000 0.000000 0.000000 0.076623 0.000000
# 6 0.000000 0.000000 0.000000 0.000000 0.000000 0.046597
#
#
# Mechanical properties :
#
#
# Convention : Reuss Voigt Hill
#
# Bulk Modulus (GPa) = 47.89254 58.63913 53.26584
# Shear Modulus (GPa) = 19.32762 22.80736 21.06749
#
# Velocity S-wave (km/s) = 3.26872 3.55079 3.41267
# Velocity P-wave (km/s) = 6.38134 7.01621 6.70629
#
# Compressibility (1/GPa) = 0.02088008
#
# Stress axis : x y z
#
# Youngs Moduli (GPa) = 84.56620 83.20236 55.16482
#
# Poissons Ratio (x) = 0.48390 0.24422
# Poissons Ratio (y) = 0.49183 0.01670
# Poissons Ratio (z) = 0.37438 0.02519
#
# Static dielectric constant tensor:
#      x y z
#    x 3.363270 0.000000 0.000000 
#    y 0.000000 3.447040 0.000000 
#    z 0.000000 0.000000 2.961210 
# 
# 
# High freq. dielectric constant tensor:
#      x y z
#    x 1.693920 0.000000 0.000000 
#    y 0.000000 1.714300 0.000000 
#    z 0.000000 0.000000 1.648940 
# 
# From -- ./inp_files/12182.got.cif
#   From: 2010.03.12/outbox.cif.g09.slc.cpg/sg51_7_cif.got.tgz:12182.got - 2010.04.16 13:43:02.
