data_PCOD8207008
_publ_section_title
;
Structure prediction by ZEFSAII (Michael W. Deem and Ramdas Pophale) SiO2 
 PCOD8207008
Probable space group: P M M A
;
_chemical_formula_sum "Si O2"
_cell_formula_units_Z 64
_cell_length_a 14.467777
_cell_length_b 8.994315
_cell_length_c 25.059241
_cell_angle_alpha 90.000000
_cell_angle_beta 90.000000
_cell_angle_gamma 90.000000
_cell_volume 3260.902490
_symmetry_space_group_name_H-M "P M M A"
_symmetry_group_IT_number 51
_symmetry_cell_setting 'orthorhombic'
loop_
_space_group_symop_operation_xyz
x,y,z
1/2-x,-y,z
1/2+x,-y,-z
-x,y,-z
-x,-y,-z
1/2+x,y,-z
1/2-x,y,z
x,-y,z
loop_
_atom_site_type_symbol
_atom_site_label
_atom_site_fract_x
_atom_site_fract_y
_atom_site_fract_z
Si Si1 0.351619 0.176344 0.907996
Si Si2 0.855903 0.325821 0.365019
Si Si3 0.543710 0.823731 0.870336
Si Si4 0.473719 0.177532 0.320945
Si Si5 0.149341 0.834448 0.416105
Si Si6 0.852397 0.824773 0.973763
Si Si7 0.857874 0.324284 0.772671
Si Si8 0.104837 0.331093 0.516862
O O1 0.250000 0.233765 0.888084
O O2 0.434358 0.220444 0.867298
O O3 0.348654 0.000000 0.912382
O O4 0.373277 0.241514 0.967287
O O5 0.750000 0.294763 0.348770
O O6 0.879916 0.500000 0.362125
O O7 0.874637 0.263019 0.424824
O O8 0.921346 0.238331 0.323385
O O9 0.575856 0.770920 0.929095
O O10 0.603340 0.730622 0.828921
O O11 0.559205 0.000000 0.860660
O O12 0.423104 0.236652 0.374702
O O13 0.418910 0.243476 0.271547
O O14 0.473189 0.000000 0.316233
O O15 0.250000 0.834823 0.388029
O O16 0.162667 0.748937 0.471367
O O17 0.115824 0.000000 0.429911
O O18 0.750000 0.775983 0.955428
O O19 0.859594 0.000000 0.978083
O O20 0.750000 0.279975 0.767149
O O21 0.870864 0.500000 0.767485
O O22 0.137994 0.500000 0.517890
O O23 0.000000 0.311110 0.500000
#
# Coordination Sequence:
#
# PCOD8207008 Si02
#       8
#     8   8   8   8   8   8   8   8
#     4   8  14  25  44  76 116 151 183 222 268 318
#     4  10  21  38  59  84 117 154 190 228 271 322
#     4  10  18  30  53  82 110 144 186 231 276 322
#     4  11  23  40  62  84 109 140 182 234 283 331
#     4  10  21  35  53  80 112 143 176 220 276 330
#     4   8  13  22  41  74 113 147 181 224 272 323
#     4  11  25  43  61  81 107 140 178 224 283 347
#     4  10  19  33  55  82 114 151 188 222 257 312
#
# _framework density 19.626467000000002
#
# number of rings (size 3 to 8) (size 9 to 14) (size 15 to 20)
#    0.000    2.250    1.250    3.000    0.000    5.750 
#    0.000    0.625    0.000    4.125    0.000    1.750 
#    0.000    0.000    0.000    0.000    0.000    0.000 
#
# Total GULP energy -793170.544924 kJ/mol
# GULP energy per Si atom -12393.289764 kJ/mol
# Density = 1.958180 g / cm^3
# Si number density = 19.626467 Si / 1000 Ang^3
#
#
#
# Elastic Constant Matrix: (Units=GPa)
#
#
# Indices 1 2 3 4 5 6 
#
# 1 135.6687 41.5200 50.0679 0.0000 0.0000 0.0000
# 2 41.5200 50.1126 28.1502 0.0000 0.0000 0.0000
# 3 50.0679 28.1502 68.4592 0.0000 0.0000 0.0000
# 4 0.0000 0.0000 0.0000 15.8019 0.0000 0.0000
# 5 0.0000 0.0000 0.0000 0.0000 -106.4139 0.0000
# 6 0.0000 0.0000 0.0000 0.0000 0.0000 24.2561
#
#
#
# Elastic Compliance Matrix: (Units=1/GPa)
#
#
# Indices 1 2 3 4 5 6 
#
# 1 0.011405 -0.006195 -0.005794 0.000000 0.000000 0.000000
# 2 -0.006195 0.029314 -0.007523 0.000000 0.000000 0.000000
# 3 -0.005794 -0.007523 0.021938 0.000000 0.000000 0.000000
# 4 0.000000 0.000000 0.000000 0.063283 0.000000 0.000000
# 5 0.000000 0.000000 0.000000 0.000000 -0.009397 0.000000
# 6 0.000000 0.000000 0.000000 0.000000 0.000000 0.041227
#
#
# Mechanical properties :
#
#
# Convention : Reuss Voigt Hill
#
# Bulk Modulus (GPa) = 42.31320 54.85740 48.58530
# Shear Modulus (GPa) = 24.42952 -4.30435 10.06258
#
# Velocity S-wave (km/s) = 3.53189 -1.48253 2.26675
# Velocity P-wave (km/s) = 6.18372 5.00808 5.62669
#
# Compressibility (1/GPa) = 0.02363329
#
# Stress axis : x y z
#
# Youngs Moduli (GPa) = 87.68167 34.11380 45.58304
#
# Poissons Ratio (x) = 0.21133 0.26410
# Poissons Ratio (y) = 0.54317 0.34293
# Poissons Ratio (z) = 0.50800 0.25664
#
# Static dielectric constant tensor:
#      x y z
#    x 3.886840 0.000000 0.000000 
#    y 0.000000 3.211590 0.000000 
#    z 0.000000 0.000000 3.606740 
# 
# 
# High freq. dielectric constant tensor:
#      x y z
#    x 1.785120 0.000000 0.000000 
#    y 0.000000 1.724080 0.000000 
#    z 0.000000 0.000000 1.747650 
# 
# From -- ./inp_files/35680.got.cif
#   From: 2010.03.12/outbox.cif.g09.slc.cpg/sg51_18_cif.got.tgz:35680.got - 2010.04.16 13:43:02.
