data_PCOD8207844
_publ_section_title
;
Structure prediction by ZEFSAII (Michael W. Deem and Ramdas Pophale) SiO2 
 PCOD8207844
Probable space group: P M M A
;
_chemical_formula_sum "Si O2"
_cell_formula_units_Z 48
_cell_length_a 9.618305
_cell_length_b 12.007201
_cell_length_c 25.909126
_cell_angle_alpha 90.000000
_cell_angle_beta 90.000000
_cell_angle_gamma 90.000000
_cell_volume 2992.217017
_symmetry_space_group_name_H-M "P M M A"
_symmetry_group_IT_number 51
_symmetry_cell_setting 'orthorhombic'
loop_
_space_group_symop_operation_xyz
x,y,z
1/2-x,-y,z
1/2+x,-y,-z
-x,y,-z
-x,-y,-z
1/2+x,y,-z
1/2-x,y,z
x,-y,z
loop_
_atom_site_type_symbol
_atom_site_label
_atom_site_fract_x
_atom_site_fract_y
_atom_site_fract_z
Si Si1 0.084355 0.500000 0.788600
Si Si2 0.914872 0.124824 0.148052
Si Si3 0.595537 0.132592 0.454825
Si Si4 0.414555 0.732973 0.950214
Si Si5 0.084168 0.262609 0.754611
Si Si6 0.414298 0.500000 0.904449
Si Si7 0.584166 0.124559 0.341416
O O1 0.250000 0.500000 0.791365
O O2 0.031153 0.390007 0.758661
O O3 0.022852 0.500000 0.846666
O O4 0.750000 0.121662 0.151937
O O5 0.959762 0.184506 0.095418
O O6 0.974588 0.192942 0.196818
O O7 0.976511 0.000000 0.148819
O O8 0.500000 0.183725 0.500000
O O9 0.750000 0.181860 0.462441
O O10 0.535229 0.165534 0.398275
O O11 0.600845 0.000000 0.458468
O O12 0.250000 0.738544 0.961276
O O13 0.463816 0.608824 0.935128
O O14 0.500000 0.771799 0.000000
O O15 0.250000 0.258640 0.754993
O O16 0.025422 0.208762 0.701827
O O17 0.250000 0.500000 0.898946
O O18 0.750000 0.121569 0.340858
O O19 0.527886 0.000000 0.329612
#
# Coordination Sequence:
#
# PCOD8207844 Si02
#       7
#     4   8   8   8   8   4   8
#     4   9  14  21  35  54  77 103 125 152 197 242
#     4   9  16  25  38  56  78 104 131 158 192 237
#     4   8  13  21  33  51  77 106 133 160 190 224
#     4  10  19  30  44  61  81 104 131 162 195 233
#     4   9  14  21  34  53  77 102 127 157 197 240
#     4   9  15  27  42  58  80 103 127 160 199 234
#     4   8  13  20  31  50  76 102 126 157 196 232
#
# _framework density 16.041616999999999
#
# number of rings (size 3 to 8) (size 9 to 14) (size 15 to 20)
#    0.000    3.167    1.667    1.750    0.000    2.333 
#    0.000    0.000    0.000    0.000    0.000    1.750 
#    0.000    2.667    0.000    0.000    0.000    0.000 
#
# Total GULP energy -594882.012743 kJ/mol
# GULP energy per Si atom -12393.375265 kJ/mol
# Density = 1.600511 g / cm^3
# Si number density = 16.041617 Si / 1000 Ang^3
#
#
#
# Elastic Constant Matrix: (Units=GPa)
#
#
# Indices 1 2 3 4 5 6 
#
# 1 17.8509 13.3499 29.4092 0.0000 0.0000 0.0000
# 2 13.3499 114.5300 70.2698 0.0000 0.0000 0.0000
# 3 29.4092 70.2698 165.1383 0.0000 0.0000 0.0000
# 4 0.0000 0.0000 0.0000 16.6458 0.0000 0.0000
# 5 0.0000 0.0000 0.0000 0.0000 18.5284 0.0000
# 6 0.0000 0.0000 0.0000 0.0000 0.0000 5.1982
#
#
#
# Elastic Compliance Matrix: (Units=1/GPa)
#
#
# Indices 1 2 3 4 5 6 
#
# 1 0.079332 -0.000783 -0.013795 0.000000 0.000000 0.000000
# 2 -0.000783 0.011824 -0.004892 0.000000 0.000000 0.000000
# 3 -0.013795 -0.004892 0.010594 0.000000 0.000000 0.000000
# 4 0.000000 0.000000 0.000000 0.060075 0.000000 0.000000
# 5 0.000000 0.000000 0.000000 0.000000 0.053971 0.000000
# 6 0.000000 0.000000 0.000000 0.000000 0.000000 0.192376
#
#
# Mechanical properties :
#
#
# Convention : Reuss Voigt Hill
#
# Bulk Modulus (GPa) = 15.92103 58.17522 37.04813
# Shear Modulus (GPa) = 10.68264 20.37382 15.52823
#
# Velocity S-wave (km/s) = 2.58337 3.56766 3.11464
# Velocity P-wave (km/s) = 4.34106 7.30170 6.00665
#
# Compressibility (1/GPa) = 0.06280999
#
# Stress axis : x y z
#
# Youngs Moduli (GPa) = 12.60522 84.57342 94.39463
#
# Poissons Ratio (x) = 0.06625 1.30216
# Poissons Ratio (y) = 0.00987 0.46177
# Poissons Ratio (z) = 0.17389 0.41372
#
# Static dielectric constant tensor:
#      x y z
#    x 2.453650 0.000000 0.000000 
#    y 0.000000 3.142540 0.000000 
#    z 0.000000 0.000000 3.315280 
# 
# 
# High freq. dielectric constant tensor:
#      x y z
#    x 1.540440 0.000000 0.000000 
#    y 0.000000 1.601180 0.000000 
#    z 0.000000 0.000000 1.628900 
# 
# From -- ./inp_files/35368.got.cif
#   From: 2010.03.12/outbox.cif.g09.slc.cpg/sg51_18_cif.got.tgz:35368.got - 2010.04.16 13:43:02.
