data_PCOD8207744
_publ_section_title
;
Structure prediction by ZEFSAII (Michael W. Deem and Ramdas Pophale) SiO2 
 PCOD8207744
Probable space group: P M M A
;
_chemical_formula_sum "Si O2"
_cell_formula_units_Z 40
_cell_length_a 34.441960
_cell_length_b 13.226592
_cell_length_c 5.088455
_cell_angle_alpha 90.000000
_cell_angle_beta 90.000000
_cell_angle_gamma 90.000000
_cell_volume 2318.044416
_symmetry_space_group_name_H-M "P M M A"
_symmetry_group_IT_number 51
_symmetry_cell_setting 'orthorhombic'
loop_
_space_group_symop_operation_xyz
x,y,z
1/2-x,-y,z
1/2+x,-y,-z
-x,y,-z
-x,-y,-z
1/2+x,y,-z
1/2-x,y,z
x,-y,z
loop_
_atom_site_type_symbol
_atom_site_label
_atom_site_fract_x
_atom_site_fract_y
_atom_site_fract_z
Si Si1 0.841917 0.379971 0.952289
Si Si2 0.706883 0.619120 0.448541
Si Si3 0.539754 0.616331 0.374235
Si Si4 0.075716 0.298084 0.140238
Si Si5 0.026121 0.886002 0.255315
O O1 0.852213 0.500000 0.959401
O O2 0.815642 0.348749 0.708180
O O3 0.880309 0.311361 0.953619
O O4 0.817883 0.343140 0.202875
O O5 0.750000 0.668158 0.446612
O O6 0.711499 0.500000 0.434185
O O7 0.500000 0.658779 0.500000
O O8 0.536511 0.500000 0.297665
O O9 0.571932 0.631184 0.601063
O O10 0.547777 0.672753 0.101628
O O11 0.064318 0.184338 0.226358
O O12 0.000000 0.849617 0.500000
O O13 0.041425 0.000000 0.302229
O O14 0.000000 0.879580 0.000000
#
# Coordination Sequence:
#
# PCOD8207744 Si02
#       5
#     8   8   8   8   8
#     4  10  19  29  44  68  96 125 155 190 234 281
#     4   9  17  30  46  64  91 127 161 189 221 271
#     4  11  22  33  46  66  95 133 168 193 227 285
#     4  12  21  33  50  70  98 126 160 205 251 286
#     4  10  21  37  55  72  91 122 166 211 252 291
#
# _framework density 17.255925999999999
#
# number of rings (size 3 to 8) (size 9 to 14) (size 15 to 20)
#    0.000    1.600    0.000    7.200    0.000    5.600 
#    0.000    0.000    0.000    0.000    0.000    0.000 
#    0.000    4.800    0.000    0.000    0.000    0.000 
#
# Total GULP energy -495989.106848 kJ/mol
# GULP energy per Si atom -12399.727671 kJ/mol
# Density = 1.721665 g / cm^3
# Si number density = 17.255926 Si / 1000 Ang^3
#
#
#
# Elastic Constant Matrix: (Units=GPa)
#
#
# Indices 1 2 3 4 5 6 
#
# 1 120.5811 55.0453 42.3932 0.0000 0.0000 0.0000
# 2 55.0453 75.7487 38.2085 0.0000 0.0000 0.0000
# 3 42.3932 38.2085 138.4864 0.0000 0.0000 0.0000
# 4 0.0000 0.0000 0.0000 -193.5397 0.0000 0.0000
# 5 0.0000 0.0000 0.0000 0.0000 18.4479 0.0000
# 6 0.0000 0.0000 0.0000 0.0000 0.0000 17.5785
#
#
#
# Elastic Compliance Matrix: (Units=1/GPa)
#
#
# Indices 1 2 3 4 5 6 
#
# 1 0.012693 -0.008438 -0.001557 0.000000 0.000000 0.000000
# 2 -0.008438 0.020945 -0.003196 0.000000 0.000000 0.000000
# 3 -0.001557 -0.003196 0.008579 0.000000 0.000000 0.000000
# 4 0.000000 0.000000 0.000000 -0.005167 0.000000 0.000000
# 5 0.000000 0.000000 0.000000 0.000000 0.054207 0.000000
# 6 0.000000 0.000000 0.000000 0.000000 0.000000 0.056888
#
#
# Mechanical properties :
#
#
# Convention : Reuss Voigt Hill
#
# Bulk Modulus (GPa) = 63.15136 67.34559 65.24848
# Shear Modulus (GPa) = 27.80781 -18.22472 4.79154
#
# Velocity S-wave (km/s) = 4.01870 -3.25336 1.66817
# Velocity P-wave (km/s) = 7.62952 4.99998 6.45017
#
# Compressibility (1/GPa) = 0.01583497
#
# Stress axis : x y z
#
# Youngs Moduli (GPa) = 78.78572 47.74344 116.55819
#
# Poissons Ratio (x) = 0.40286 0.18153
# Poissons Ratio (y) = 0.66479 0.37250
# Poissons Ratio (z) = 0.12270 0.15258
#
# Static dielectric constant tensor:
#      x y z
#    x 3.218670 0.000000 0.000000 
#    y 0.000000 2.978180 0.000000 
#    z 0.000000 0.000000 3.487150 
# 
# 
# High freq. dielectric constant tensor:
#      x y z
#    x 1.654810 0.000000 0.000000 
#    y 0.000000 1.617880 0.000000 
#    z 0.000000 0.000000 1.696360 
# 
# From -- ./inp_files/3915.got.cif
#   From: 2010.03.12/outbox.cif.g09.slc.cpg/sg51_2_cif.got.tgz:3915.got - 2010.04.16 13:43:02.
