data_PCOD8207918
_publ_section_title
;
Structure prediction by ZEFSAII (Michael W. Deem and Ramdas Pophale) SiO2 
 PCOD8207918
Probable space group: P M M A
;
_chemical_formula_sum "Si O2"
_cell_formula_units_Z 48
_cell_length_a 9.405998
_cell_length_b 18.280344
_cell_length_c 16.981925
_cell_angle_alpha 90.000000
_cell_angle_beta 90.000000
_cell_angle_gamma 90.000000
_cell_volume 2919.955041
_symmetry_space_group_name_H-M "P M M A"
_symmetry_group_IT_number 51
_symmetry_cell_setting 'orthorhombic'
loop_
_space_group_symop_operation_xyz
x,y,z
1/2-x,-y,z
1/2+x,-y,-z
-x,y,-z
-x,-y,-z
1/2+x,y,-z
1/2-x,y,z
x,-y,z
loop_
_atom_site_type_symbol
_atom_site_label
_atom_site_fract_x
_atom_site_fract_y
_atom_site_fract_z
Si Si1 0.917046 0.184510 0.922876
Si Si2 0.580919 0.581664 0.277637
Si Si3 0.593239 0.189027 0.315707
Si Si4 0.591247 0.294712 0.167243
Si Si5 0.918375 0.319324 0.420271
Si Si6 0.084987 0.917336 0.224201
O O1 0.750000 0.193180 0.939887
O O2 0.948715 0.123588 0.857224
O O3 0.980829 0.263087 0.896576
O O4 0.000000 0.157291 0.000000
O O5 0.750000 0.580131 0.280102
O O6 0.516400 0.500000 0.272755
O O7 0.534849 0.626850 0.199291
O O8 0.526606 0.620887 0.357093
O O9 0.750000 0.156884 0.332094
O O10 0.599348 0.241976 0.241487
O O11 0.541736 0.237559 0.389954
O O12 0.489450 0.121345 0.298680
O O13 0.750000 0.301073 0.129756
O O14 0.750000 0.325858 0.433656
O O15 0.000000 0.336063 0.500000
O O16 0.250000 0.915370 0.243368
O O17 0.028338 0.000000 0.216162
#
# Coordination Sequence:
#
# PCOD8207918 Si02
#       6
#     8   8   8   8   8   8
#     4  10  19  30  45  65  90 117 143 174 212 255
#     4   8  14  26  45  67  90 117 147 179 217 260
#     4   8  15  28  44  62  84 113 149 182 211 250
#     4   8  14  27  46  64  83 111 148 183 213 251
#     4   9  17  28  43  65  92 119 148 181 215 255
#     4   9  18  31  46  66  90 113 139 175 218 259
#
# _framework density 16.438609
#
# number of rings (size 3 to 8) (size 9 to 14) (size 15 to 20)
#    0.000    3.333    0.000    2.500    0.000    2.333 
#    0.000    2.500    0.000    2.500    0.000    0.000 
#    0.000    0.000    0.000    0.000    0.000    0.000 
#
# Total GULP energy -594892.793689 kJ/mol
# GULP energy per Si atom -12393.599869 kJ/mol
# Density = 1.640119 g / cm^3
# Si number density = 16.438609 Si / 1000 Ang^3
#
#
#
# Elastic Constant Matrix: (Units=GPa)
#
#
# Indices 1 2 3 4 5 6 
#
# 1 50.6685 42.0761 16.9420 0.0000 0.0000 0.0000
# 2 42.0761 126.4359 39.3757 0.0000 0.0000 0.0000
# 3 16.9420 39.3757 22.9333 0.0000 0.0000 0.0000
# 4 0.0000 0.0000 0.0000 16.8925 0.0000 0.0000
# 5 0.0000 0.0000 0.0000 0.0000 28.8452 0.0000
# 6 0.0000 0.0000 0.0000 0.0000 0.0000 17.6741
#
#
#
# Elastic Compliance Matrix: (Units=1/GPa)
#
#
# Indices 1 2 3 4 5 6 
#
# 1 0.028340 -0.006256 -0.010194 0.000000 0.000000 0.000000
# 2 -0.006256 0.018380 -0.026935 0.000000 0.000000 0.000000
# 3 -0.010194 -0.026935 0.097382 0.000000 0.000000 0.000000
# 4 0.000000 0.000000 0.000000 0.059198 0.000000 0.000000
# 5 0.000000 0.000000 0.000000 0.000000 0.034668 0.000000
# 6 0.000000 0.000000 0.000000 0.000000 0.000000 0.056580
#
#
# Mechanical properties :
#
#
# Convention : Reuss Voigt Hill
#
# Bulk Modulus (GPa) = 17.44268 44.09167 30.76717
# Shear Modulus (GPa) = 12.48659 19.45864 15.97262
#
# Velocity S-wave (km/s) = 2.75905 3.44425 3.12052
# Velocity P-wave (km/s) = 4.55891 6.53432 5.63387
#
# Compressibility (1/GPa) = 0.05733064
#
# Stress axis : x y z
#
# Youngs Moduli (GPa) = 35.28555 54.40830 10.26879
#
# Poissons Ratio (x) = 0.34040 0.10468
# Poissons Ratio (y) = 0.22076 0.27659
# Poissons Ratio (z) = 0.35971 1.46549
#
# Static dielectric constant tensor:
#      x y z
#    x 3.023340 0.000000 0.000000 
#    y 0.000000 3.395530 0.000000 
#    z 0.000000 0.000000 2.976960 
# 
# 
# High freq. dielectric constant tensor:
#      x y z
#    x 1.617010 0.000000 0.000000 
#    y 0.000000 1.623900 0.000000 
#    z 0.000000 0.000000 1.611910 
# 
# From -- ./inp_files/27840.got.cif
#   From: 2010.03.12/outbox.cif.g09.slc.cpg/sg51_14_cif.got.tgz:27840.got - 2010.04.16 13:43:02.
