data_PCOD8207277
_publ_section_title
;
Structure prediction by ZEFSAII (Michael W. Deem and Ramdas Pophale) SiO2 
 PCOD8207277
Probable space group: P M M A
;
_chemical_formula_sum "Si O2"
_cell_formula_units_Z 64
_cell_length_a 8.846220
_cell_length_b 19.906201
_cell_length_c 20.499528
_cell_angle_alpha 90.000000
_cell_angle_beta 90.000000
_cell_angle_gamma 90.000000
_cell_volume 3609.856868
_symmetry_space_group_name_H-M "P M M A"
_symmetry_group_IT_number 51
_symmetry_cell_setting 'orthorhombic'
loop_
_space_group_symop_operation_xyz
x,y,z
1/2-x,-y,z
1/2+x,-y,-z
-x,y,-z
-x,-y,-z
1/2+x,y,-z
1/2-x,y,z
x,-y,z
loop_
_atom_site_type_symbol
_atom_site_label
_atom_site_fract_x
_atom_site_fract_y
_atom_site_fract_z
Si Si1 0.572136 0.923586 0.066997
Si Si2 0.925625 0.573530 0.387491
Si Si3 0.576328 0.571448 0.749074
Si Si4 0.574721 0.285583 0.757740
Si Si5 0.075508 0.077962 0.320728
Si Si6 0.427939 0.707129 0.391966
Si Si7 0.072797 0.850329 0.186434
Si Si8 0.428074 0.159540 0.564996
O O1 0.750000 0.918363 0.060306
O O2 0.517743 0.876981 0.125175
O O3 0.519406 0.000000 0.080651
O O4 0.500000 0.896956 0.000000
O O5 0.750000 0.590671 0.395100
O O6 0.962909 0.500000 0.419160
O O7 0.964832 0.568960 0.311385
O O8 0.022093 0.633890 0.419929
O O9 0.750000 0.578145 0.723434
O O10 0.558023 0.500000 0.788535
O O11 0.540846 0.640177 0.789847
O O12 0.750000 0.268373 0.755942
O O13 0.517557 0.286433 0.683177
O O14 0.504336 0.224522 0.799179
O O15 0.250000 0.092216 0.337528
O O16 0.037627 0.103029 0.248359
O O17 0.974238 0.117415 0.371949
O O18 0.034753 0.000000 0.324777
O O19 0.250000 0.716215 0.400700
O O20 0.512899 0.764300 0.431816
O O21 0.250000 0.850479 0.169494
O O22 0.500000 0.126237 0.500000
O O23 0.250000 0.159076 0.558350
#
# Coordination Sequence:
#
# PCOD8207277 Si02
#       8
#     8   8   8   8   8   8   8   8
#     4  10  21  36  53  75 104 138 176 214 253 300
#     4   9  16  25  40  67 100 130 163 204 251 302
#     4   8  13  22  37  60  92 132 173 209 247 293
#     4   8  14  25  45  70  98 131 166 206 249 297
#     4  10  21  38  59  81 105 135 171 210 257 312
#     4  10  18  33  53  72  98 130 170 212 254 308
#     4  10  18  32  54  79 108 140 173 208 253 303
#     4  12  25  40  58  77 100 130 168 214 267 320
#
# _framework density 17.729236
#
# number of rings (size 3 to 8) (size 9 to 14) (size 15 to 20)
#    0.000    2.375    1.250    3.375    0.000    3.000 
#    0.000    0.625    0.000    0.375    0.000    0.000 
#    0.000    0.500    0.000    0.875    0.000    1.375 
#
# Total GULP energy -793064.763963 kJ/mol
# GULP energy per Si atom -12391.636937 kJ/mol
# Density = 1.768888 g / cm^3
# Si number density = 17.729236 Si / 1000 Ang^3
#
#
#
# Elastic Constant Matrix: (Units=GPa)
#
#
# Indices 1 2 3 4 5 6 
#
# 1 77.5824 40.5352 34.5739 0.0000 0.0000 0.0000
# 2 40.5352 124.6167 36.8781 0.0000 0.0000 0.0000
# 3 34.5739 36.8781 72.3529 0.0000 0.0000 0.0000
# 4 0.0000 0.0000 0.0000 7.0261 0.0000 0.0000
# 5 0.0000 0.0000 0.0000 0.0000 23.7907 0.0000
# 6 0.0000 0.0000 0.0000 0.0000 0.0000 26.4315
#
#
#
# Elastic Compliance Matrix: (Units=1/GPa)
#
#
# Indices 1 2 3 4 5 6 
#
# 1 0.017825 -0.003860 -0.006551 0.000000 0.000000 0.000000
# 2 -0.003860 0.010286 -0.003398 0.000000 0.000000 0.000000
# 3 -0.006551 -0.003398 0.018683 0.000000 0.000000 0.000000
# 4 0.000000 0.000000 0.000000 0.142326 0.000000 0.000000
# 5 0.000000 0.000000 0.000000 0.000000 0.042033 0.000000
# 6 0.000000 0.000000 0.000000 0.000000 0.000000 0.037834
#
#
# Mechanical properties :
#
#
# Convention : Reuss Voigt Hill
#
# Bulk Modulus (GPa) = 52.14456 55.39183 53.76819
# Shear Modulus (GPa) = 16.50183 22.28731 19.39457
#
# Velocity S-wave (km/s) = 3.05416 3.54940 3.31105
# Velocity P-wave (km/s) = 6.47400 6.93604 6.70900
#
# Compressibility (1/GPa) = 0.01917746
#
# Stress axis : x y z
#
# Youngs Moduli (GPa) = 56.09998 97.22202 53.52334
#
# Poissons Ratio (x) = 0.37525 0.35061
# Poissons Ratio (y) = 0.21653 0.18189
# Poissons Ratio (z) = 0.36749 0.33039
#
# Static dielectric constant tensor:
#      x y z
#    x 3.167200 0.000000 0.000000 
#    y 0.000000 3.853890 0.000000 
#    z 0.000000 0.000000 2.905450 
# 
# 
# High freq. dielectric constant tensor:
#      x y z
#    x 1.677980 0.000000 0.000000 
#    y 0.000000 1.708240 0.000000 
#    z 0.000000 0.000000 1.632040 
# 
# From -- ./inp_files/28502.got.cif
#   From: 2010.03.12/outbox.cif.g09.slc.cpg/sg51_15_cif.got.tgz:28502.got - 2010.04.16 13:43:02.
