data_PCOD8207763
_publ_section_title
;
Structure prediction by ZEFSAII (Michael W. Deem and Ramdas Pophale) SiO2 
 PCOD8207763
Probable space group: P M M A
;
_chemical_formula_sum "Si O2"
_cell_formula_units_Z 64
_cell_length_a 9.120927
_cell_length_b 20.400259
_cell_length_c 19.597262
_cell_angle_alpha 90.000000
_cell_angle_beta 90.000000
_cell_angle_gamma 90.000000
_cell_volume 3646.448295
_symmetry_space_group_name_H-M "P M M A"
_symmetry_group_IT_number 51
_symmetry_cell_setting 'orthorhombic'
loop_
_space_group_symop_operation_xyz
x,y,z
1/2-x,-y,z
1/2+x,-y,-z
-x,y,-z
-x,-y,-z
1/2+x,y,-z
1/2-x,y,z
x,-y,z
loop_
_atom_site_type_symbol
_atom_site_label
_atom_site_fract_x
_atom_site_fract_y
_atom_site_fract_z
Si Si1 0.582532 0.426162 0.668311
Si Si2 0.079011 0.228341 0.798992
Si Si3 0.584202 0.227236 0.933963
Si Si4 0.920607 0.073973 0.568083
Si Si5 0.578393 0.189395 0.666256
Si Si6 0.079213 0.618506 0.799092
Si Si7 0.915640 0.616641 0.933964
Si Si8 0.921760 0.310115 0.571773
O O1 0.750000 0.409193 0.689082
O O2 0.569121 0.500000 0.639764
O O3 0.481583 0.420088 0.734422
O O4 0.529180 0.377093 0.609147
O O5 0.250000 0.213263 0.806056
O O6 0.047786 0.304953 0.788117
O O7 0.999521 0.202155 0.866849
O O8 0.013302 0.189425 0.735433
O O9 0.750000 0.200137 0.933592
O O10 0.583908 0.305300 0.936150
O O11 0.500000 0.199118 0.000000
O O12 0.750000 0.078398 0.552047
O O13 0.962827 0.121225 0.630119
O O14 0.000000 0.098568 0.500000
O O15 0.968624 0.000000 0.587514
O O16 0.750000 0.194835 0.683777
O O17 0.528838 0.249262 0.618288
O O18 0.250000 0.603650 0.807825
O O19 0.997811 0.591729 0.866296
O O20 0.750000 0.589402 0.933880
O O21 0.000000 0.588512 0.000000
O O22 0.750000 0.308484 0.557704
O O23 0.000000 0.305136 0.500000
#
# Coordination Sequence:
#
# PCOD8207763 Si02
#       8
#     8   8   8   8   8   8   8   8
#     4  10  21  37  54  70  91 122 159 199 245 298
#     4  10  19  29  45  70  98 128 164 205 247 291
#     4   9  16  26  41  63  95 132 166 201 243 290
#     4   9  18  32  50  73 101 134 170 205 244 292
#     4  10  19  32  50  72 100 133 165 201 244 290
#     4  10  19  31  48  70  95 123 158 201 246 293
#     4   9  16  26  43  67  95 126 159 196 238 288
#     4  10  21  35  52  73  96 122 156 196 243 294
#
# _framework density 17.551324999999999
#
# number of rings (size 3 to 8) (size 9 to 14) (size 15 to 20)
#    0.000    2.375    1.250    1.875    0.000    6.000 
#    0.000    0.000    0.000    0.375    0.000    0.000 
#    0.000    0.500    0.000    1.375    0.000    2.000 
#
# Total GULP energy -793745.162625 kJ/mol
# GULP energy per Si atom -12402.268166 kJ/mol
# Density = 1.751138 g / cm^3
# Si number density = 17.551325 Si / 1000 Ang^3
#
#
#
# Elastic Constant Matrix: (Units=GPa)
#
#
# Indices 1 2 3 4 5 6 
#
# 1 95.9754 30.2190 66.5935 0.0000 0.0000 0.0000
# 2 30.2190 61.5216 43.0709 0.0000 0.0000 0.0000
# 3 66.5935 43.0709 148.1482 0.0000 0.0000 0.0000
# 4 0.0000 0.0000 0.0000 10.8894 0.0000 0.0000
# 5 0.0000 0.0000 0.0000 0.0000 40.7909 0.0000
# 6 0.0000 0.0000 0.0000 0.0000 0.0000 12.0936
#
#
#
# Elastic Compliance Matrix: (Units=1/GPa)
#
#
# Indices 1 2 3 4 5 6 
#
# 1 0.015715 -0.003482 -0.006051 0.000000 0.000000 0.000000
# 2 -0.003482 0.021180 -0.004592 0.000000 0.000000 0.000000
# 3 -0.006051 -0.004592 0.010805 0.000000 0.000000 0.000000
# 4 0.000000 0.000000 0.000000 0.091832 0.000000 0.000000
# 5 0.000000 0.000000 0.000000 0.000000 0.024515 0.000000
# 6 0.000000 0.000000 0.000000 0.000000 0.000000 0.082689
#
#
# Mechanical properties :
#
#
# Convention : Reuss Voigt Hill
#
# Bulk Modulus (GPa) = 51.41976 65.04577 58.23276
# Shear Modulus (GPa) = 17.76385 23.80556 20.78471
#
# Velocity S-wave (km/s) = 3.18482 3.68685 3.44499
# Velocity P-wave (km/s) = 6.54862 7.43401 7.00532
#
# Compressibility (1/GPa) = 0.01944778
#
# Stress axis : x y z
#
# Youngs Moduli (GPa) = 63.63496 47.21433 92.54759
#
# Poissons Ratio (x) = 0.16442 0.56004
# Poissons Ratio (y) = 0.22160 0.42501
# Poissons Ratio (z) = 0.38508 0.21682
#
# Static dielectric constant tensor:
#      x y z
#    x 3.311480 0.000000 0.000000 
#    y 0.000000 3.010320 0.000000 
#    z 0.000000 0.000000 3.285970 
# 
# 
# High freq. dielectric constant tensor:
#      x y z
#    x 1.685580 0.000000 0.000000 
#    y 0.000000 1.634090 0.000000 
#    z 0.000000 0.000000 1.684330 
# 
# From -- ./inp_files/28377.got.cif
#   From: 2010.03.12/outbox.cif.g09.slc.cpg/sg51_15_cif.got.tgz:28377.got - 2010.04.16 13:43:02.
