data_PCOD8207404
_publ_section_title
;
Structure prediction by ZEFSAII (Michael W. Deem and Ramdas Pophale) SiO2 
 PCOD8207404
Probable space group: P M M A
;
_chemical_formula_sum "Si O2"
_cell_formula_units_Z 64
_cell_length_a 18.988096
_cell_length_b 8.730979
_cell_length_c 20.001533
_cell_angle_alpha 90.000000
_cell_angle_beta 90.000000
_cell_angle_gamma 90.000000
_cell_volume 3315.947496
_symmetry_space_group_name_H-M "P M M A"
_symmetry_group_IT_number 51
_symmetry_cell_setting 'orthorhombic'
loop_
_space_group_symop_operation_xyz
x,y,z
1/2-x,-y,z
1/2+x,-y,-z
-x,y,-z
-x,-y,-z
1/2+x,y,-z
1/2-x,y,z
x,-y,z
loop_
_atom_site_type_symbol
_atom_site_label
_atom_site_fract_x
_atom_site_fract_y
_atom_site_fract_z
Si Si1 0.573912 0.320431 0.842505
Si Si2 0.559572 0.319678 0.356699
Si Si3 0.170208 0.682129 0.887547
Si Si4 0.591281 0.681215 0.594878
Si Si5 0.077683 0.320304 0.008571
Si Si6 0.934621 0.180257 0.211262
Si Si7 0.671455 0.317534 0.724260
Si Si8 0.670291 0.318034 0.464982
O O1 0.558566 0.500000 0.832655
O O2 0.604441 0.285433 0.916312
O O3 0.500797 0.234230 0.832204
O O4 0.631290 0.259203 0.790124
O O5 0.558618 0.500000 0.341362
O O6 0.490931 0.273639 0.400533
O O7 0.558141 0.231499 0.287482
O O8 0.628748 0.269694 0.398009
O O9 0.250000 0.741188 0.890420
O O10 0.166902 0.500000 0.884741
O O11 0.135340 0.747411 0.820449
O O12 0.131119 0.748609 0.953761
O O13 0.599187 0.500000 0.593042
O O14 0.631614 0.747796 0.659431
O O15 0.628082 0.750544 0.528684
O O16 0.072865 0.500000 0.995280
O O17 0.000000 0.247591 0.000000
O O18 0.928756 0.000000 0.208434
O O19 0.750000 0.249720 0.725479
O O20 0.673221 0.500000 0.722813
O O21 0.750000 0.251991 0.462548
O O22 0.672531 0.500000 0.470563
#
# Coordination Sequence:
#
# PCOD8207404 Si02
#       8
#     8   8   8   8   8   8   8   8
#     4  10  18  33  56  81 111 144 179 220 268 329
#     4  10  19  33  54  78 104 140 185 226 273 328
#     4  10  21  38  60  85 112 145 185 228 278 333
#     4   9  15  26  47  76 109 139 168 214 271 328
#     4   9  16  29  55  83 108 135 170 218 268 317
#     4  12  24  37  55  79 109 146 189 234 277 322
#     4   9  16  25  44  78 112 138 167 212 269 320
#     4   9  17  28  46  77 112 137 167 219 278 332
#
# _framework density 19.300666
#
# number of rings (size 3 to 8) (size 9 to 14) (size 15 to 20)
#    0.000    2.250    2.500    1.875    0.000    4.250 
#    0.000    5.000    0.000    1.875    0.000    0.000 
#    0.000    0.000    0.000    0.000    0.000    0.000 
#
# Total GULP energy -793509.502743 kJ/mol
# GULP energy per Si atom -12398.585980 kJ/mol
# Density = 1.925674 g / cm^3
# Si number density = 19.300666 Si / 1000 Ang^3
#
#
#
# Elastic Constant Matrix: (Units=GPa)
#
#
# Indices 1 2 3 4 5 6 
#
# 1 146.6156 19.7336 42.1062 0.0000 0.0000 0.0000
# 2 19.7336 19.6929 7.7484 0.0000 0.0000 0.0000
# 3 42.1062 7.7484 80.6398 0.0000 0.0000 0.0000
# 4 0.0000 0.0000 0.0000 3.8513 0.0000 0.0000
# 5 0.0000 0.0000 0.0000 0.0000 39.3627 0.0000
# 6 0.0000 0.0000 0.0000 0.0000 0.0000 3.4337
#
#
#
# Elastic Compliance Matrix: (Units=1/GPa)
#
#
# Indices 1 2 3 4 5 6 
#
# 1 0.008957 -0.007416 -0.003964 0.000000 0.000000 0.000000
# 2 -0.007416 0.058915 -0.001789 0.000000 0.000000 0.000000
# 3 -0.003964 -0.001789 0.014643 0.000000 0.000000 0.000000
# 4 0.000000 0.000000 0.000000 0.259654 0.000000 0.000000
# 5 0.000000 0.000000 0.000000 0.000000 0.025405 0.000000
# 6 0.000000 0.000000 0.000000 0.000000 0.000000 0.291230
#
#
# Mechanical properties :
#
#
# Convention : Reuss Voigt Hill
#
# Bulk Modulus (GPa) = 17.80098 42.90273 30.35186
# Shear Modulus (GPa) = 7.10361 21.15355 14.12858
#
# Velocity S-wave (km/s) = 1.92054 3.31418 2.70853
# Velocity P-wave (km/s) = 3.76311 6.07634 5.05386
#
# Compressibility (1/GPa) = 0.05617668
#
# Stress axis : x y z
#
# Youngs Moduli (GPa) = 111.64156 16.97365 68.29324
#
# Poissons Ratio (x) = 0.12587 0.27075
# Poissons Ratio (y) = 0.82792 0.12216
# Poissons Ratio (z) = 0.44260 0.03036
#
# Static dielectric constant tensor:
#      x y z
#    x 3.787100 0.000000 0.000000 
#    y 0.000000 2.881350 0.000000 
#    z 0.000000 0.000000 3.714410 
# 
# 
# High freq. dielectric constant tensor:
#      x y z
#    x 1.758290 0.000000 0.000000 
#    y 0.000000 1.680290 0.000000 
#    z 0.000000 0.000000 1.767300 
# 
# From -- ./inp_files/30572.got.cif
#   From: 2010.03.12/outbox.cif.g09.slc.cpg/sg51_16_cif.got.tgz:30572.got - 2010.04.16 13:43:02.
