data_PCOD8207943
_publ_section_title
;
Structure prediction by ZEFSAII (Michael W. Deem and Ramdas Pophale) SiO2 
 PCOD8207943
Probable space group: P M M A
;
_chemical_formula_sum "Si O2"
_cell_formula_units_Z 64
_cell_length_a 9.218451
_cell_length_b 19.948983
_cell_length_c 19.641011
_cell_angle_alpha 90.000000
_cell_angle_beta 90.000000
_cell_angle_gamma 90.000000
_cell_volume 3611.956827
_symmetry_space_group_name_H-M "P M M A"
_symmetry_group_IT_number 51
_symmetry_cell_setting 'orthorhombic'
loop_
_space_group_symop_operation_xyz
x,y,z
1/2-x,-y,z
1/2+x,-y,-z
-x,y,-z
-x,-y,-z
1/2+x,y,-z
1/2-x,y,z
x,-y,z
loop_
_atom_site_type_symbol
_atom_site_label
_atom_site_fract_x
_atom_site_fract_y
_atom_site_fract_z
Si Si1 0.584032 0.394440 0.757000
Si Si2 0.418891 0.755623 0.202498
Si Si3 0.419214 0.923176 0.568201
Si Si4 0.920873 0.717278 0.067118
Si Si5 0.916284 0.426534 0.375497
Si Si6 0.080690 0.184990 0.677343
Si Si7 0.086240 0.427225 0.886280
Si Si8 0.917215 0.290799 0.435669
O O1 0.750000 0.414652 0.752434
O O2 0.561738 0.314858 0.759805
O O3 0.506992 0.425726 0.692711
O O4 0.520895 0.429490 0.823214
O O5 0.250000 0.772080 0.188104
O O6 0.507016 0.754046 0.131740
O O7 0.487715 0.811413 0.252982
O O8 0.500000 0.898746 0.500000
O O9 0.250000 0.912298 0.554114
O O10 0.467608 0.880014 0.633757
O O11 0.457963 0.000000 0.584813
O O12 0.750000 0.734038 0.065207
O O13 0.950175 0.636839 0.066910
O O14 0.000000 0.745842 0.000000
O O15 0.750000 0.412382 0.355486
O O16 0.934936 0.500000 0.410092
O O17 0.968504 0.367956 0.426116
O O18 0.250000 0.181630 0.696973
O O19 0.045343 0.250236 0.632305
O O20 0.250000 0.418495 0.858742
O O21 0.069956 0.500000 0.924492
O O22 0.750000 0.284414 0.453822
O O23 0.000000 0.259805 0.500000
#
# Coordination Sequence:
#
# PCOD8207943 Si02
#       8
#     8   8   8   8   8   8   8   8
#     4  10  19  30  45  67  90 113 148 200 253 298
#     4  10  20  33  51  74  98 125 163 208 251 295
#     4   9  18  32  51  78 112 147 179 209 246 295
#     4  10  20  34  51  70  97 130 163 203 253 307
#     4  10  20  33  47  61  82 115 153 196 250 308
#     4  10  19  33  53  75 100 133 169 206 247 291
#     4   9  18  31  46  64  88 121 157 193 242 306
#     4  10  21  34  48  66  89 119 158 201 248 298
#
# _framework density 17.718927000000001
#
# number of rings (size 3 to 8) (size 9 to 14) (size 15 to 20)
#    0.000    2.250    1.250    1.875    0.000    5.500 
#    0.000    0.000    0.000    0.000    0.000    0.000 
#    0.000    0.500    0.000    1.375    0.000    2.000 
#
# Total GULP energy -793378.864820 kJ/mol
# GULP energy per Si atom -12396.544763 kJ/mol
# Density = 1.767860 g / cm^3
# Si number density = 17.718927 Si / 1000 Ang^3
#
#
#
# Elastic Constant Matrix: (Units=GPa)
#
#
# Indices 1 2 3 4 5 6 
#
# 1 75.6764 30.9957 53.5609 0.0000 0.0000 0.0000
# 2 30.9957 69.6820 40.2403 0.0000 0.0000 0.0000
# 3 53.5609 40.2403 101.3533 0.0000 0.0000 0.0000
# 4 0.0000 0.0000 0.0000 16.5477 0.0000 0.0000
# 5 0.0000 0.0000 0.0000 0.0000 30.0727 0.0000
# 6 0.0000 0.0000 0.0000 0.0000 0.0000 17.0064
#
#
#
# Elastic Compliance Matrix: (Units=1/GPa)
#
#
# Indices 1 2 3 4 5 6 
#
# 1 0.021926 -0.003973 -0.010010 0.000000 0.000000 0.000000
# 2 -0.003973 0.019340 -0.005579 0.000000 0.000000 0.000000
# 3 -0.010010 -0.005579 0.017371 0.000000 0.000000 0.000000
# 4 0.000000 0.000000 0.000000 0.060431 0.000000 0.000000
# 5 0.000000 0.000000 0.000000 0.000000 0.033253 0.000000
# 6 0.000000 0.000000 0.000000 0.000000 0.000000 0.058801
#
#
# Mechanical properties :
#
#
# Convention : Reuss Voigt Hill
#
# Bulk Modulus (GPa) = 51.24486 55.14506 53.19496
# Shear Modulus (GPa) = 19.47426 20.85302 20.16364
#
# Velocity S-wave (km/s) = 3.31881 3.43429 3.37704
# Velocity P-wave (km/s) = 6.60831 6.84949 6.72998
#
# Compressibility (1/GPa) = 0.01951415
#
# Stress axis : x y z
#
# Youngs Moduli (GPa) = 45.60878 51.70673 57.56653
#
# Poissons Ratio (x) = 0.20541 0.57621
# Poissons Ratio (y) = 0.18118 0.32118
# Poissons Ratio (z) = 0.45652 0.28848
#
# Static dielectric constant tensor:
#      x y z
#    x 3.295840 0.000000 0.000000 
#    y 0.000000 3.194110 0.000000 
#    z 0.000000 0.000000 3.101980 
# 
# 
# High freq. dielectric constant tensor:
#      x y z
#    x 1.690750 0.000000 0.000000 
#    y 0.000000 1.654830 0.000000 
#    z 0.000000 0.000000 1.669060 
# 
# From -- ./inp_files/28463.got.cif
#   From: 2010.03.12/outbox.cif.g09.slc.cpg/sg51_15_cif.got.tgz:28463.got - 2010.04.16 13:43:02.
