data_PCOD8207395
_publ_section_title
;
Structure prediction by ZEFSAII (Michael W. Deem and Ramdas Pophale) SiO2 
 PCOD8207395
Probable space group: P M M A
;
_chemical_formula_sum "Si O2"
_cell_formula_units_Z 64
_cell_length_a 8.842921
_cell_length_b 20.140338
_cell_length_c 20.256573
_cell_angle_alpha 90.000000
_cell_angle_beta 90.000000
_cell_angle_gamma 90.000000
_cell_volume 3607.683859
_symmetry_space_group_name_H-M "P M M A"
_symmetry_group_IT_number 51
_symmetry_cell_setting 'orthorhombic'
loop_
_space_group_symop_operation_xyz
x,y,z
1/2-x,-y,z
1/2+x,-y,-z
-x,y,-z
-x,-y,-z
1/2+x,y,-z
1/2-x,y,z
x,-y,z
loop_
_atom_site_type_symbol
_atom_site_label
_atom_site_fract_x
_atom_site_fract_y
_atom_site_fract_z
Si Si1 0.072579 0.111359 0.432736
Si Si2 0.072966 0.609223 0.566429
Si Si3 0.430295 0.838682 0.190773
Si Si4 0.578804 0.074580 0.301106
Si Si5 0.071218 0.075622 0.068754
Si Si6 0.079442 0.739589 0.399761
Si Si7 0.578877 0.292028 0.750472
Si Si8 0.072158 0.572704 0.298779
O O1 0.250000 0.096445 0.431564
O O2 0.035890 0.189190 0.427468
O O3 0.000000 0.083893 0.500000
O O4 0.994255 0.073119 0.373186
O O5 0.250000 0.596283 0.565320
O O6 0.000000 0.578713 0.500000
O O7 0.037742 0.687698 0.569324
O O8 0.003807 0.572677 0.629723
O O9 0.250000 0.838458 0.191712
O O10 0.481877 0.879935 0.253437
O O11 0.491484 0.873689 0.124297
O O12 0.492659 0.762005 0.198073
O O13 0.750000 0.101753 0.304912
O O14 0.575985 0.000000 0.272936
O O15 0.250000 0.080437 0.062771
O O16 0.021802 0.000000 0.086078
O O17 0.000000 0.098741 0.000000
O O18 0.250000 0.718687 0.419883
O O19 0.065241 0.741700 0.320875
O O20 0.750000 0.302197 0.773025
O O21 0.505483 0.366850 0.747151
O O22 0.250000 0.585772 0.309800
O O23 0.042763 0.500000 0.266090
#
# Coordination Sequence:
#
# PCOD8207395 Si02
#       8
#     8   8   8   8   8   8   8   8
#     4  11  22  36  53  70  90 120 159 208 261 313
#     4  11  21  31  45  65  89 118 153 195 242 299
#     4  10  18  33  56  79 101 131 170 210 248 292
#     4  11  24  38  51  71  98 127 163 207 254 305
#     4   9  18  31  49  75 108 144 176 204 241 291
#     4   9  17  32  50  69  91 116 150 195 249 302
#     4   8  14  28  50  74  95 117 153 198 242 287
#     4   9  18  33  50  67  92 124 154 192 245 302
#
# _framework density 17.739912
#
# number of rings (size 3 to 8) (size 9 to 14) (size 15 to 20)
#    0.000    2.250    1.250    3.375    0.000    4.750 
#    0.000    1.250    0.000    0.000    0.000    0.000 
#    0.000    0.500    0.000    0.375    0.000    0.750 
#
# Total GULP energy -793187.469553 kJ/mol
# GULP energy per Si atom -12393.554212 kJ/mol
# Density = 1.769954 g / cm^3
# Si number density = 17.739912 Si / 1000 Ang^3
#
#
#
# Elastic Constant Matrix: (Units=GPa)
#
#
# Indices 1 2 3 4 5 6 
#
# 1 41.5498 18.5951 15.6977 0.0000 0.0000 0.0000
# 2 18.5951 119.0735 57.6480 0.0000 0.0000 0.0000
# 3 15.6977 57.6480 87.1903 0.0000 0.0000 0.0000
# 4 0.0000 0.0000 0.0000 16.6214 0.0000 0.0000
# 5 0.0000 0.0000 0.0000 0.0000 21.7351 0.0000
# 6 0.0000 0.0000 0.0000 0.0000 0.0000 12.9131
#
#
#
# Elastic Compliance Matrix: (Units=1/GPa)
#
#
# Indices 1 2 3 4 5 6 
#
# 1 0.026392 -0.002678 -0.002981 0.000000 0.000000 0.000000
# 2 -0.002678 0.012624 -0.007864 0.000000 0.000000 0.000000
# 3 -0.002981 -0.007864 0.017206 0.000000 0.000000 0.000000
# 4 0.000000 0.000000 0.000000 0.060164 0.000000 0.000000
# 5 0.000000 0.000000 0.000000 0.000000 0.046008 0.000000
# 6 0.000000 0.000000 0.000000 0.000000 0.000000 0.077441
#
#
# Mechanical properties :
#
#
# Convention : Reuss Voigt Hill
#
# Bulk Modulus (GPa) = 34.27637 47.96613 41.12125
# Shear Modulus (GPa) = 18.07623 20.64545 19.36084
#
# Velocity S-wave (km/s) = 3.19558 3.41513 3.30718
# Velocity P-wave (km/s) = 5.74275 6.53055 6.14928
#
# Compressibility (1/GPa) = 0.02917462
#
# Stress axis : x y z
#
# Youngs Moduli (GPa) = 37.88980 79.21489 58.12089
#
# Poissons Ratio (x) = 0.21217 0.17324
# Poissons Ratio (y) = 0.10149 0.45708
# Poissons Ratio (z) = 0.11294 0.62297
#
# Static dielectric constant tensor:
#      x y z
#    x 3.124000 0.000000 0.000000 
#    y 0.000000 3.567730 0.000000 
#    z 0.000000 0.000000 3.121250 
# 
# 
# High freq. dielectric constant tensor:
#      x y z
#    x 1.671550 0.000000 0.000000 
#    y 0.000000 1.692840 0.000000 
#    z 0.000000 0.000000 1.644660 
# 
# From -- ./inp_files/32550.got.cif
#   From: 2010.03.12/outbox.cif.g09.slc.cpg/sg51_17_cif.got.tgz:32550.got - 2010.04.16 13:43:02.
