data_PCOD8207888
_publ_section_title
;
Structure prediction by ZEFSAII (Michael W. Deem and Ramdas Pophale) SiO2 
 PCOD8207888
Probable space group: P M M A
;
_chemical_formula_sum "Si O2"
_cell_formula_units_Z 52
_cell_length_a 9.067746
_cell_length_b 22.086149
_cell_length_c 15.384201
_cell_angle_alpha 90.000000
_cell_angle_beta 90.000000
_cell_angle_gamma 90.000000
_cell_volume 3081.018384
_symmetry_space_group_name_H-M "P M M A"
_symmetry_group_IT_number 51
_symmetry_cell_setting 'orthorhombic'
loop_
_space_group_symop_operation_xyz
x,y,z
1/2-x,-y,z
1/2+x,-y,-z
-x,y,-z
-x,-y,-z
1/2+x,y,-z
1/2-x,y,z
x,-y,z
loop_
_atom_site_type_symbol
_atom_site_label
_atom_site_fract_x
_atom_site_fract_y
_atom_site_fract_z
Si Si1 0.084846 0.850776 0.416629
Si Si2 0.577116 0.930879 0.087435
Si Si3 0.924353 0.631518 0.905821
Si Si4 0.917684 0.500000 0.911465
Si Si5 0.417390 0.706631 0.414720
Si Si6 0.422458 0.291137 0.760137
Si Si7 0.920638 0.149606 0.246023
O O1 0.250000 0.876177 0.418718
O O2 0.083062 0.778603 0.418924
O O3 0.000000 0.877121 0.500000
O O4 0.006991 0.874391 0.329851
O O5 0.750000 0.923317 0.073898
O O6 0.519233 0.888352 0.164604
O O7 0.533585 0.000000 0.108893
O O8 0.500000 0.908171 0.000000
O O9 0.750000 0.645222 0.914337
O O10 0.952968 0.563944 0.863733
O O11 0.999076 0.678776 0.841856
O O12 0.000000 0.637636 0.000000
O O13 0.750000 0.500000 0.939613
O O14 0.000000 0.500000 0.000000
O O15 0.500000 0.680474 0.500000
O O16 0.250000 0.681587 0.412117
O O17 0.504225 0.684762 0.328952
O O18 0.250000 0.307442 0.758210
O O19 0.449313 0.219958 0.771527
O O20 0.750000 0.136430 0.263405
#
# Coordination Sequence:
#
# PCOD8207888 Si02
#       7
#     8   8   8   4   8   8   8
#     4   9  16  26  43  66  91 119 149 181 220 267
#     4   9  18  33  51  68  86 113 151 192 230 268
#     4  10  19  32  48  67  92 122 155 190 227 268
#     4   8  16  30  48  66  85 114 153 192 226 262
#     4   9  16  27  43  64  90 121 154 188 225 266
#     4  10  19  30  44  67  97 125 152 184 226 274
#     4   9  18  31  46  66  93 121 149 185 228 271
#
# _framework density 16.877535999999999
#
# number of rings (size 3 to 8) (size 9 to 14) (size 15 to 20)
#    0.000    2.769    0.000    1.846    0.000    6.154 
#    0.000    1.538    0.000    0.462    0.000    0.538 
#    0.000    0.000    0.000    0.000    0.000    0.000 
#
# Total GULP energy -644564.701526 kJ/mol
# GULP energy per Si atom -12395.475029 kJ/mol
# Density = 1.683912 g / cm^3
# Si number density = 16.877536 Si / 1000 Ang^3
#
#
#
# Elastic Constant Matrix: (Units=GPa)
#
#
# Indices 1 2 3 4 5 6 
#
# 1 111.9153 37.7067 78.9034 0.0000 0.0000 0.0000
# 2 37.7067 42.6926 52.4479 0.0000 0.0000 0.0000
# 3 78.9034 52.4479 158.2891 0.0000 0.0000 0.0000
# 4 0.0000 0.0000 0.0000 1.1995 0.0000 0.0000
# 5 0.0000 0.0000 0.0000 0.0000 37.5645 0.0000
# 6 0.0000 0.0000 0.0000 0.0000 0.0000 15.8039
#
#
#
# Elastic Compliance Matrix: (Units=1/GPa)
#
#
# Indices 1 2 3 4 5 6 
#
# 1 0.014858 -0.006787 -0.005158 0.000000 0.000000 0.000000
# 2 -0.006787 0.042603 -0.010733 0.000000 0.000000 0.000000
# 3 -0.005158 -0.010733 0.012445 0.000000 0.000000 0.000000
# 4 0.000000 0.000000 0.000000 0.833676 0.000000 0.000000
# 5 0.000000 0.000000 0.000000 0.000000 0.026621 0.000000
# 6 0.000000 0.000000 0.000000 0.000000 0.000000 0.063276
#
#
# Mechanical properties :
#
#
# Convention : Reuss Voigt Hill
#
# Bulk Modulus (GPa) = 40.73161 72.33478 56.53319
# Shear Modulus (GPa) = 4.77547 20.50285 12.63916
#
# Velocity S-wave (km/s) = 1.68393 3.48918 2.73953
# Velocity P-wave (km/s) = 5.28837 7.69312 6.60117
#
# Compressibility (1/GPa) = 0.02455096
#
# Stress axis : x y z
#
# Youngs Moduli (GPa) = 67.30240 23.47245 80.35387
#
# Poissons Ratio (x) = 0.15930 0.41445
# Poissons Ratio (y) = 0.45676 0.86245
# Poissons Ratio (z) = 0.34713 0.25193
#
# Static dielectric constant tensor:
#      x y z
#    x 3.328540 0.000000 0.000000 
#    y 0.000000 3.149000 0.000000 
#    z 0.000000 0.000000 3.211260 
# 
# 
# High freq. dielectric constant tensor:
#      x y z
#    x 1.664800 0.000000 0.000000 
#    y 0.000000 1.610880 0.000000 
#    z 0.000000 0.000000 1.650770 
# 
# From -- ./inp_files/21556.got.cif
#   From: 2010.03.12/outbox.cif.g09.slc.cpg/sg51_11_cif.got.tgz:21556.got - 2010.04.16 13:43:02.
