data_PCOD8207272
_publ_section_title
;
Structure prediction by ZEFSAII (Michael W. Deem and Ramdas Pophale) SiO2 
 PCOD8207272
Probable space group: P M M A
;
_chemical_formula_sum "Si O2"
_cell_formula_units_Z 44
_cell_length_a 9.060747
_cell_length_b 9.798336
_cell_length_c 29.299894
_cell_angle_alpha 90.000000
_cell_angle_beta 90.000000
_cell_angle_gamma 90.000000
_cell_volume 2601.251724
_symmetry_space_group_name_H-M "P M M A"
_symmetry_group_IT_number 51
_symmetry_cell_setting 'orthorhombic'
loop_
_space_group_symop_operation_xyz
x,y,z
1/2-x,-y,z
1/2+x,-y,-z
-x,y,-z
-x,-y,-z
1/2+x,y,-z
1/2-x,y,z
x,-y,z
loop_
_atom_site_type_symbol
_atom_site_label
_atom_site_fract_x
_atom_site_fract_y
_atom_site_fract_z
Si Si1 0.074631 0.000000 0.548803
Si Si2 0.583737 0.837569 0.044215
Si Si3 0.077150 0.842526 0.135138
Si Si4 0.415706 0.149181 0.378397
Si Si5 0.416805 0.342204 0.688465
Si Si6 0.420522 0.343238 0.793440
O O1 0.000000 0.000000 0.500000
O O2 0.018368 0.135562 0.576209
O O3 0.250000 0.000000 0.544381
O O4 0.750000 0.780428 0.044442
O O5 0.502295 0.786772 0.089741
O O6 0.582750 0.000000 0.042237
O O7 0.500000 0.777797 0.000000
O O8 0.250000 0.823700 0.127863
O O9 0.024774 0.754661 0.177813
O O10 0.035916 0.000000 0.144418
O O11 0.250000 0.191039 0.393233
O O12 0.474359 0.260020 0.343565
O O13 0.414198 0.000000 0.353861
O O14 0.250000 0.291313 0.680362
O O15 0.431236 0.500000 0.675530
O O16 0.461607 0.318485 0.740812
O O17 0.250000 0.306534 0.802539
O O18 0.451065 0.500000 0.806838
#
# Coordination Sequence:
#
# PCOD8207272 Si02
#       6
#     4   8   8   8   8   8
#     4  10  18  32  54  78 106 138 172 210 251 296
#     4   9  16  27  45  68  94 123 155 194 241 292
#     4  10  20  32  47  71 100 128 161 202 246 292
#     4   9  19  32  48  76 106 134 169 208 249 296
#     4   9  18  33  52  73  98 132 173 212 252 300
#     4   9  19  35  52  70  95 130 170 207 246 297
#
# _framework density 16.914933999999999
#
# number of rings (size 3 to 8) (size 9 to 14) (size 15 to 20)
#    0.545    2.182    0.000    3.273    0.000    5.455 
#    0.000    5.455    0.000    1.091    0.000    0.000 
#    0.000    0.000    0.000    0.000    0.000    0.000 
#
# Total GULP energy -545422.441207 kJ/mol
# GULP energy per Si atom -12395.964573 kJ/mol
# Density = 1.687643 g / cm^3
# Si number density = 16.914934 Si / 1000 Ang^3
#
#
#
# Elastic Constant Matrix: (Units=GPa)
#
#
# Indices 1 2 3 4 5 6 
#
# 1 131.9828 40.5162 67.6554 0.0000 0.0000 0.0000
# 2 40.5162 47.4796 45.8480 0.0000 0.0000 0.0000
# 3 67.6554 45.8480 106.9212 0.0000 0.0000 0.0000
# 4 0.0000 0.0000 0.0000 -7.4847 0.0000 0.0000
# 5 0.0000 0.0000 0.0000 0.0000 37.5291 0.0000
# 6 0.0000 0.0000 0.0000 0.0000 0.0000 26.5093
#
#
#
# Elastic Compliance Matrix: (Units=1/GPa)
#
#
# Indices 1 2 3 4 5 6 
#
# 1 0.011846 -0.004899 -0.005395 0.000000 0.000000 0.000000
# 2 -0.004899 0.037972 -0.013182 0.000000 0.000000 0.000000
# 3 -0.005395 -0.013182 0.018419 0.000000 0.000000 0.000000
# 4 0.000000 0.000000 0.000000 -0.133606 0.000000 0.000000
# 5 0.000000 0.000000 0.000000 0.000000 0.026646 0.000000
# 6 0.000000 0.000000 0.000000 0.000000 0.000000 0.037723
#
#
# Mechanical properties :
#
#
# Convention : Reuss Voigt Hill
#
# Bulk Modulus (GPa) = 46.98393 66.04697 56.51545
# Shear Modulus (GPa) = 94.25477 20.13500 57.19488
#
# Velocity S-wave (km/s) = 7.47287 3.45391 5.82122
# Velocity P-wave (km/s) = 10.11411 7.41872 8.86940
#
# Compressibility (1/GPa) = 0.02128387
#
# Stress axis : x y z
#
# Youngs Moduli (GPa) = 84.41483 26.33537 54.29161
#
# Poissons Ratio (x) = 0.12902 0.29291
# Poissons Ratio (y) = 0.41357 0.71569
# Poissons Ratio (z) = 0.45542 0.34716
#
# Static dielectric constant tensor:
#      x y z
#    x 3.275200 0.000000 0.000000 
#    y 0.000000 2.844840 0.000000 
#    z 0.000000 0.000000 3.084920 
# 
# 
# High freq. dielectric constant tensor:
#      x y z
#    x 1.665130 0.000000 0.000000 
#    y 0.000000 1.618040 0.000000 
#    z 0.000000 0.000000 1.649420 
# 
# From -- ./inp_files/34543.got.cif
#   From: 2010.03.12/outbox.cif.g09.slc.cpg/sg51_18_cif.got.tgz:34543.got - 2010.04.16 13:43:02.
