data_PCOD8207042
_publ_section_title
;
Structure prediction by ZEFSAII (Michael W. Deem and Ramdas Pophale) SiO2 
 PCOD8207042
Probable space group: P M M A
;
_chemical_formula_sum "Si O2"
_cell_formula_units_Z 64
_cell_length_a 29.689601
_cell_length_b 8.820819
_cell_length_c 14.984523
_cell_angle_alpha 90.000000
_cell_angle_beta 90.000000
_cell_angle_gamma 90.000000
_cell_volume 3924.245730
_symmetry_space_group_name_H-M "P M M A"
_symmetry_group_IT_number 51
_symmetry_cell_setting 'orthorhombic'
loop_
_space_group_symop_operation_xyz
x,y,z
1/2-x,-y,z
1/2+x,-y,-z
-x,y,-z
-x,-y,-z
1/2+x,y,-z
1/2-x,y,z
x,-y,z
loop_
_atom_site_type_symbol
_atom_site_label
_atom_site_fract_x
_atom_site_fract_y
_atom_site_fract_z
Si Si1 0.943434 0.321449 0.870480
Si Si2 0.299322 0.821807 0.017599
Si Si3 0.043646 0.676685 0.820603
Si Si4 0.612999 0.675388 0.698442
Si Si5 0.799886 0.671574 0.797877
Si Si6 0.060874 0.821589 0.449108
Si Si7 0.894790 0.820686 0.039108
Si Si8 0.029793 0.321862 0.617861
O O1 0.938894 0.500000 0.884494
O O2 0.916660 0.269943 0.782454
O O3 0.995284 0.271989 0.858960
O O4 0.923166 0.242059 0.956603
O O5 0.250000 0.753262 0.987528
O O6 0.308685 0.782934 0.120300
O O7 0.296601 0.000000 0.008094
O O8 0.342554 0.761399 0.961907
O O9 0.050802 0.500000 0.838687
O O10 0.083269 0.767617 0.868752
O O11 0.047833 0.715124 0.716110
O O12 0.602509 0.500000 0.677227
O O13 0.665299 0.705747 0.718974
O O14 0.603127 0.776214 0.611710
O O15 0.750000 0.694459 0.757880
O O16 0.806972 0.500000 0.833439
O O17 0.065565 0.738430 0.544987
O O18 0.016644 0.765916 0.397390
O O19 0.058956 0.000000 0.464791
O O20 0.895857 0.000000 0.032710
O O21 0.020799 0.500000 0.605946
#
# Coordination Sequence:
#
# PCOD8207042 Si02
#       8
#     8   8   8   8   8   8   8   8
#     4  10  19  33  48  66  94 132 169 195 225 276
#     4   9  18  32  47  65  93 126 157 192 240 293
#     4  10  21  35  50  66  91 130 168 197 232 279
#     4  10  18  31  49  69  97 132 164 193 234 288
#     4   9  17  29  48  72  94 120 159 204 241 275
#     4  11  21  31  48  74  99 123 155 197 239 278
#     4  11  22  32  46  70  96 126 162 200 242 280
#     4  10  19  35  53  69  92 125 162 196 237 285
#
# _framework density 16.308866999999999
#
# number of rings (size 3 to 8) (size 9 to 14) (size 15 to 20)
#    0.000    2.000    2.500    3.000    0.000    4.500 
#    0.000    0.000    0.000    0.000    0.000    0.875 
#    0.000    1.000    0.000    0.000    0.000    0.000 
#
# Total GULP energy -793443.549247 kJ/mol
# GULP energy per Si atom -12397.555457 kJ/mol
# Density = 1.627175 g / cm^3
# Si number density = 16.308867 Si / 1000 Ang^3
#
#
#
# Elastic Constant Matrix: (Units=GPa)
#
#
# Indices 1 2 3 4 5 6 
#
# 1 118.6527 27.5296 60.0069 0.0000 0.0000 0.0000
# 2 27.5296 37.7059 28.5991 0.0000 0.0000 0.0000
# 3 60.0069 28.5991 100.9780 0.0000 0.0000 0.0000
# 4 0.0000 0.0000 0.0000 14.2239 0.0000 0.0000
# 5 0.0000 0.0000 0.0000 0.0000 20.5094 0.0000
# 6 0.0000 0.0000 0.0000 0.0000 0.0000 18.2998
#
#
#
# Elastic Compliance Matrix: (Units=1/GPa)
#
#
# Indices 1 2 3 4 5 6 
#
# 1 0.012619 -0.004490 -0.006227 0.000000 0.000000 0.000000
# 2 -0.004490 0.035375 -0.007351 0.000000 0.000000 0.000000
# 3 -0.006227 -0.007351 0.015686 0.000000 0.000000 0.000000
# 4 0.000000 0.000000 0.000000 0.070304 0.000000 0.000000
# 5 0.000000 0.000000 0.000000 0.000000 0.048758 0.000000
# 6 0.000000 0.000000 0.000000 0.000000 0.000000 0.054645
#
#
# Mechanical properties :
#
#
# Convention : Reuss Voigt Hill
#
# Bulk Modulus (GPa) = 36.30636 54.40086 45.35361
# Shear Modulus (GPa) = 17.68633 20.02002 18.85318
#
# Velocity S-wave (km/s) = 3.29669 3.50745 3.40370
# Velocity P-wave (km/s) = 6.06638 7.05918 6.58152
#
# Compressibility (1/GPa) = 0.02754338
#
# Stress axis : x y z
#
# Youngs Moduli (GPa) = 79.24489 28.26884 63.75274
#
# Poissons Ratio (x) = 0.12693 0.39701
# Poissons Ratio (y) = 0.35582 0.46862
# Poissons Ratio (z) = 0.49348 0.20779
#
# Static dielectric constant tensor:
#      x y z
#    x 3.347190 0.000000 0.000000 
#    y 0.000000 3.063100 0.000000 
#    z 0.000000 0.000000 3.066380 
# 
# 
# High freq. dielectric constant tensor:
#      x y z
#    x 1.619810 0.000000 0.000000 
#    y 0.000000 1.627120 0.000000 
#    z 0.000000 0.000000 1.608280 
# 
# From -- ./inp_files/26691.got.cif
#   From: 2010.03.12/outbox.cif.g09.slc.cpg/sg51_14_cif.got.tgz:26691.got - 2010.04.16 13:43:02.
