data_PCOD8207007
_publ_section_title
;
Structure prediction by ZEFSAII (Michael W. Deem and Ramdas Pophale) SiO2 
 PCOD8207007
Probable space group: P M M A
;
_chemical_formula_sum "Si O2"
_cell_formula_units_Z 28
_cell_length_a 8.745925
_cell_length_b 17.692261
_cell_length_c 9.410725
_cell_angle_alpha 90.000000
_cell_angle_beta 90.000000
_cell_angle_gamma 90.000000
_cell_volume 1456.170300
_symmetry_space_group_name_H-M "P M M A"
_symmetry_group_IT_number 51
_symmetry_cell_setting 'orthorhombic'
loop_
_space_group_symop_operation_xyz
x,y,z
1/2-x,-y,z
1/2+x,-y,-z
-x,y,-z
-x,-y,-z
1/2+x,y,-z
1/2-x,y,z
x,-y,z
loop_
_atom_site_type_symbol
_atom_site_label
_atom_site_fract_x
_atom_site_fract_y
_atom_site_fract_z
Si Si1 0.428504 0.412271 0.647655
Si Si2 0.569882 0.848685 0.654415
Si Si3 0.570553 0.293222 0.847140
Si Si4 0.931892 0.000000 0.342775
O O1 0.500000 0.383266 0.500000
O O2 0.250000 0.395617 0.641471
O O3 0.465770 0.500000 0.671619
O O4 0.501696 0.368617 0.778995
O O5 0.500000 0.833353 0.500000
O O6 0.750000 0.860671 0.639249
O O7 0.526364 0.778302 0.751767
O O8 0.495716 0.923245 0.729125
O O9 0.750000 0.304003 0.861459
O O10 0.500000 0.279558 0.000000
O O11 0.000000 0.000000 0.500000
O O12 0.750000 0.000000 0.342200
#
# Coordination Sequence:
#
# PCOD8207007 Si02
#       4
#     8   8   8   4
#     4  10  21  38  61  87 114 145 183 228 276 327
#     4  10  20  35  56  82 110 142 181 226 275 326
#     4  11  24  39  57  81 112 150 188 229 277 330
#     4  10  18  30  53  82 109 140 178 224 274 322
#
# _framework density 19.228521000000001
#
# number of rings (size 3 to 8) (size 9 to 14) (size 15 to 20)
#    0.000    1.714    0.000    6.429    0.000    9.143 
#    0.000    0.714    0.000    0.000    0.000    0.000 
#    0.000    0.000    0.000    0.000    0.000    0.000 
#
# Total GULP energy -347278.781871 kJ/mol
# GULP energy per Si atom -12402.813638 kJ/mol
# Density = 1.918476 g / cm^3
# Si number density = 19.228521 Si / 1000 Ang^3
#
#
#
# Elastic Constant Matrix: (Units=GPa)
#
#
# Indices 1 2 3 4 5 6 
#
# 1 119.4411 73.7485 59.3588 0.0000 0.0000 0.0000
# 2 73.7485 120.1567 67.4870 0.0000 0.0000 0.0000
# 3 59.3588 67.4870 114.5233 0.0000 0.0000 0.0000
# 4 0.0000 0.0000 0.0000 7.2795 0.0000 0.0000
# 5 0.0000 0.0000 0.0000 0.0000 33.9381 0.0000
# 6 0.0000 0.0000 0.0000 0.0000 0.0000 33.3620
#
#
#
# Elastic Compliance Matrix: (Units=1/GPa)
#
#
# Indices 1 2 3 4 5 6 
#
# 1 0.014290 -0.006892 -0.003346 0.000000 0.000000 0.000000
# 2 -0.006892 0.015764 -0.005717 0.000000 0.000000 0.000000
# 3 -0.003346 -0.005717 0.013835 0.000000 0.000000 0.000000
# 4 0.000000 0.000000 0.000000 0.137373 0.000000 0.000000
# 5 0.000000 0.000000 0.000000 0.000000 0.029465 0.000000
# 6 0.000000 0.000000 0.000000 0.000000 0.000000 0.029974
#
#
# Mechanical properties :
#
#
# Convention : Reuss Voigt Hill
#
# Bulk Modulus (GPa) = 83.47459 83.92329 83.69894
# Shear Modulus (GPa) = 18.07643 25.15103 21.61373
#
# Velocity S-wave (km/s) = 3.06941 3.62056 3.35632
# Velocity P-wave (km/s) = 7.48784 7.82419 7.65786
#
# Compressibility (1/GPa) = 0.01197969
#
# Stress axis : x y z
#
# Youngs Moduli (GPa) = 69.97728 63.43741 72.28110
#
# Poissons Ratio (x) = 0.43721 0.24182
# Poissons Ratio (y) = 0.48228 0.41324
# Poissons Ratio (z) = 0.23411 0.36268
#
# Static dielectric constant tensor:
#      x y z
#    x 3.652770 0.000000 0.000000 
#    y 0.000000 4.036040 0.000000 
#    z 0.000000 0.000000 3.296800 
# 
# 
# High freq. dielectric constant tensor:
#      x y z
#    x 1.768130 0.000000 0.000000 
#    y 0.000000 1.768420 0.000000 
#    z 0.000000 0.000000 1.722520 
# 
# From -- ./inp_files/4646.got.cif
#   From: 2010.03.12/outbox.cif.g09.slc.cpg/sg51_3_cif.got.tgz:4646.got - 2010.04.16 13:43:02.
