data_PCOD8207006
_publ_section_title
;
Structure prediction by ZEFSAII (Michael W. Deem and Ramdas Pophale) SiO2 
 PCOD8207006
Probable space group: P M M A
;
_chemical_formula_sum "Si O2"
_cell_formula_units_Z 40
_cell_length_a 25.819622
_cell_length_b 8.994735
_cell_length_c 9.179983
_cell_angle_alpha 90.000000
_cell_angle_beta 90.000000
_cell_angle_gamma 90.000000
_cell_volume 2131.965290
_symmetry_space_group_name_H-M "P M M A"
_symmetry_group_IT_number 51
_symmetry_cell_setting 'orthorhombic'
loop_
_space_group_symop_operation_xyz
x,y,z
1/2-x,-y,z
1/2+x,-y,-z
-x,y,-z
-x,-y,-z
1/2+x,y,-z
1/2-x,y,z
x,-y,z
loop_
_atom_site_type_symbol
_atom_site_label
_atom_site_fract_x
_atom_site_fract_y
_atom_site_fract_z
Si Si1 0.137857 0.667964 0.079748
Si Si2 0.250000 0.668280 0.113647
Si Si3 0.646027 0.674125 0.580700
Si Si4 0.450947 0.824565 0.913590
Si Si5 0.750000 0.174607 0.590492
Si Si6 0.552774 0.174001 0.417908
O O1 0.118268 0.500000 0.056846
O O2 0.197227 0.686699 0.020519
O O3 0.136317 0.711562 0.249757
O O4 0.102268 0.776039 0.987609
O O5 0.250000 0.500000 0.184017
O O6 0.250000 0.791777 0.238110
O O7 0.652248 0.500000 0.554883
O O8 0.698110 0.753767 0.521877
O O9 0.598238 0.733416 0.489475
O O10 0.453321 0.770236 0.747601
O O11 0.453422 0.000000 0.920978
O O12 0.500000 0.755765 0.000000
O O13 0.750000 0.000000 0.560561
O O14 0.500000 0.212055 0.500000
O O15 0.566094 0.000000 0.427795
#
# Coordination Sequence:
#
# PCOD8207006 Si02
#       6
#     8   4   8   8   4   8
#     4   9  18  33  54  78 105 138 175 215 257 309
#     4   8  16  32  51  76 109 140 174 214 256 306
#     4  10  20  35  55  80 110 143 179 218 263 315
#     4  10  21  36  54  77 105 137 174 219 269 317
#     4  10  18  30  53  82 109 140 178 218 262 310
#     4  10  21  37  56  78 105 139 181 226 270 318
#
# _framework density 18.762031
#
# number of rings (size 3 to 8) (size 9 to 14) (size 15 to 20)
#    0.000    2.400    0.000    3.900    0.000    7.200 
#    0.000    1.000    0.000    4.800    0.000    0.000 
#    0.000    0.000    0.000    0.000    0.000    0.000 
#
# Total GULP energy -495928.910413 kJ/mol
# GULP energy per Si atom -12398.222760 kJ/mol
# Density = 1.871933 g / cm^3
# Si number density = 18.762031 Si / 1000 Ang^3
#
#
#
# Elastic Constant Matrix: (Units=GPa)
#
#
# Indices 1 2 3 4 5 6 
#
# 1 162.1350 54.7869 71.9813 0.0000 0.0000 0.0000
# 2 54.7869 64.2221 38.2950 0.0000 0.0000 0.0000
# 3 71.9813 38.2950 99.2403 0.0000 0.0000 0.0000
# 4 0.0000 0.0000 0.0000 24.9359 0.0000 0.0000
# 5 0.0000 0.0000 0.0000 0.0000 26.3495 0.0000
# 6 0.0000 0.0000 0.0000 0.0000 0.0000 34.2894
#
#
#
# Elastic Compliance Matrix: (Units=1/GPa)
#
#
# Indices 1 2 3 4 5 6 
#
# 1 0.010508 -0.005740 -0.005406 0.000000 0.000000 0.000000
# 2 -0.005740 0.023360 -0.004851 0.000000 0.000000 0.000000
# 3 -0.005406 -0.004851 0.015870 0.000000 0.000000 0.000000
# 4 0.000000 0.000000 0.000000 0.040103 0.000000 0.000000
# 5 0.000000 0.000000 0.000000 0.000000 0.037951 0.000000
# 6 0.000000 0.000000 0.000000 0.000000 0.000000 0.029164
#
#
# Mechanical properties :
#
#
# Convention : Reuss Voigt Hill
#
# Bulk Modulus (GPa) = 56.36048 72.85821 64.60935
# Shear Modulus (GPa) = 25.65886 27.81722 26.73804
#
# Velocity S-wave (km/s) = 3.70211 3.85468 3.77916
# Velocity P-wave (km/s) = 6.95551 7.66345 7.31804
#
# Compressibility (1/GPa) = 0.01774293
#
# Stress axis : x y z
#
# Youngs Moduli (GPa) = 95.17000 42.80771 63.01275
#
# Poissons Ratio (x) = 0.24572 0.34067
# Poissons Ratio (y) = 0.54628 0.30567
# Poissons Ratio (z) = 0.51452 0.20766
#
# Static dielectric constant tensor:
#      x y z
#    x 3.690460 0.000000 0.000000 
#    y 0.000000 3.311310 0.000000 
#    z 0.000000 0.000000 3.278880 
# 
# 
# High freq. dielectric constant tensor:
#      x y z
#    x 1.750620 0.000000 0.000000 
#    y 0.000000 1.723520 0.000000 
#    z 0.000000 0.000000 1.698590 
# 
# From -- ./inp_files/12188.got.cif
#   From: 2010.03.12/outbox.cif.g09.slc.cpg/sg51_7_cif.got.tgz:12188.got - 2010.04.16 13:43:02.
