data_PCOD8207845
_publ_section_title
;
Structure prediction by ZEFSAII (Michael W. Deem and Ramdas Pophale) SiO2 
 PCOD8207845
Probable space group: P M M A
;
_chemical_formula_sum "Si O2"
_cell_formula_units_Z 56
_cell_length_a 9.157294
_cell_length_b 29.687298
_cell_length_c 13.524190
_cell_angle_alpha 90.000000
_cell_angle_beta 90.000000
_cell_angle_gamma 90.000000
_cell_volume 3676.622944
_symmetry_space_group_name_H-M "P M M A"
_symmetry_group_IT_number 51
_symmetry_cell_setting 'orthorhombic'
loop_
_space_group_symop_operation_xyz
x,y,z
1/2-x,-y,z
1/2+x,-y,-z
-x,y,-z
-x,-y,-z
1/2+x,y,-z
1/2-x,y,z
x,-y,z
loop_
_atom_site_type_symbol
_atom_site_label
_atom_site_fract_x
_atom_site_fract_y
_atom_site_fract_z
Si Si1 0.920720 0.217287 0.098730
Si Si2 0.081419 0.861078 0.202733
Si Si3 0.919634 0.049954 0.900335
Si Si4 0.080505 0.264809 0.701897
Si Si5 0.420524 0.186118 0.401900
Si Si6 0.420466 0.355344 0.603653
Si Si7 0.579861 0.452447 0.396933
O O1 0.750000 0.212092 0.077793
O O2 0.953991 0.253979 0.183844
O O3 0.982472 0.168859 0.130808
O O4 0.000000 0.234537 0.000000
O O5 0.250000 0.850111 0.178136
O O6 0.043632 0.913573 0.184475
O O7 0.047252 0.850631 0.316985
O O8 0.750000 0.050205 0.925694
O O9 0.969249 0.000000 0.864323
O O10 0.000000 0.064297 0.000000
O O11 0.250000 0.255130 0.678330
O O12 0.036368 0.316639 0.681823
O O13 0.984387 0.234303 0.629517
O O14 0.500000 0.168358 0.500000
O O15 0.250000 0.191907 0.423011
O O16 0.500000 0.347423 0.500000
O O17 0.250000 0.352802 0.579754
O O18 0.461836 0.404334 0.653751
O O19 0.500000 0.453517 0.500000
O O20 0.750000 0.452078 0.419794
O O21 0.540440 0.500000 0.339012
#
# Coordination Sequence:
#
# PCOD8207845 Si02
#       7
#     8   8   8   8   8   8   8
#     4  10  19  30  44  61  82 107 133 163 199 238
#     4   9  18  31  46  64  84 108 137 165 195 234
#     4   9  17  29  45  65  87 108 130 159 197 239
#     4   9  18  30  42  58  80 106 135 166 200 236
#     4  10  19  30  44  61  82 108 138 170 200 232
#     4   9  16  25  37  54  77 104 132 161 193 229
#     4   8  13  21  33  49  70  97 127 157 189 226
#
# _framework density 15.231369000000001
#
# number of rings (size 3 to 8) (size 9 to 14) (size 15 to 20)
#    0.000    2.857    0.000    1.714    0.000    4.571 
#    0.000    0.000    0.000    0.429    0.000    0.000 
#    0.000    0.571    0.000    0.429    0.000    1.571 
#
# Total GULP energy -693869.476133 kJ/mol
# GULP energy per Si atom -12390.526360 kJ/mol
# Density = 1.519670 g / cm^3
# Si number density = 15.231369 Si / 1000 Ang^3
#
#
#
# Elastic Constant Matrix: (Units=GPa)
#
#
# Indices 1 2 3 4 5 6 
#
# 1 49.8662 36.7159 36.4203 0.0000 0.0000 0.0000
# 2 36.7159 147.5245 60.2032 0.0000 0.0000 0.0000
# 3 36.4203 60.2032 84.8438 0.0000 0.0000 0.0000
# 4 0.0000 0.0000 0.0000 10.3062 0.0000 0.0000
# 5 0.0000 0.0000 0.0000 0.0000 23.2386 0.0000
# 6 0.0000 0.0000 0.0000 0.0000 0.0000 16.3495
#
#
#
# Elastic Compliance Matrix: (Units=1/GPa)
#
#
# Indices 1 2 3 4 5 6 
#
# 1 0.030208 -0.003134 -0.010743 0.000000 0.000000 0.000000
# 2 -0.003134 0.009867 -0.005656 0.000000 0.000000 0.000000
# 3 -0.010743 -0.005656 0.020411 0.000000 0.000000 0.000000
# 4 0.000000 0.000000 0.000000 0.097029 0.000000 0.000000
# 5 0.000000 0.000000 0.000000 0.000000 0.043032 0.000000
# 6 0.000000 0.000000 0.000000 0.000000 0.000000 0.061164
#
#
# Mechanical properties :
#
#
# Convention : Reuss Voigt Hill
#
# Bulk Modulus (GPa) = 46.68646 60.99038 53.83842
# Shear Modulus (GPa) = 16.23820 19.90520 18.07170
#
# Velocity S-wave (km/s) = 3.26866 3.61897 3.44827
# Velocity P-wave (km/s) = 6.70549 7.58895 7.16086
#
# Compressibility (1/GPa) = 0.02141949
#
# Stress axis : x y z
#
# Youngs Moduli (GPa) = 33.10429 101.35219 48.99230
#
# Poissons Ratio (x) = 0.31762 0.52634
# Poissons Ratio (y) = 0.10374 0.27709
# Poissons Ratio (z) = 0.35565 0.57323
#
# Static dielectric constant tensor:
#      x y z
#    x 2.904250 0.000000 0.000000 
#    y 0.000000 3.417190 0.000000 
#    z 0.000000 0.000000 2.736520 
# 
# 
# High freq. dielectric constant tensor:
#      x y z
#    x 1.591620 0.000000 0.000000 
#    y 0.000000 1.588900 0.000000 
#    z 0.000000 0.000000 1.546110 
# 
# From -- ./inp_files/22521.got.cif
#   From: 2010.03.12/outbox.cif.g09.slc.cpg/sg51_12_cif.got.tgz:22521.got - 2010.04.16 13:43:02.
