data_PCOD8207266
_publ_section_title
;
Structure prediction by ZEFSAII (Michael W. Deem and Ramdas Pophale) SiO2 
 PCOD8207266
Probable space group: P M M A
;
_chemical_formula_sum "Si O2"
_cell_formula_units_Z 40
_cell_length_a 23.427266
_cell_length_b 13.040877
_cell_length_c 7.762326
_cell_angle_alpha 90.000000
_cell_angle_beta 90.000000
_cell_angle_gamma 90.000000
_cell_volume 2371.484473
_symmetry_space_group_name_H-M "P M M A"
_symmetry_group_IT_number 51
_symmetry_cell_setting 'orthorhombic'
loop_
_space_group_symop_operation_xyz
x,y,z
1/2-x,-y,z
1/2+x,-y,-z
-x,y,-z
-x,-y,-z
1/2+x,y,-z
1/2-x,y,z
x,-y,z
loop_
_atom_site_type_symbol
_atom_site_label
_atom_site_fract_x
_atom_site_fract_y
_atom_site_fract_z
Si Si1 0.185926 0.205921 0.989078
Si Si2 0.877459 0.801342 0.681775
Si Si3 0.882300 0.882999 0.315542
Si Si4 0.185341 0.615815 0.218052
Si Si5 0.992546 0.118379 0.800631
O O1 0.250000 0.163332 0.968150
O O2 0.156212 0.149131 0.153997
O O3 0.185545 0.328590 0.029952
O O4 0.151775 0.188901 0.814537
O O5 0.861327 0.861693 0.508822
O O6 0.857219 0.682107 0.659094
O O7 0.944903 0.808265 0.718429
O O8 0.949390 0.859326 0.301674
O O9 0.869349 0.000000 0.265394
O O10 0.250000 0.617626 0.293381
O O11 0.162434 0.500000 0.200884
O O12 0.973568 0.000000 0.778125
O O13 0.000000 0.146265 0.000000
#
# Coordination Sequence:
#
# PCOD8207266 Si02
#       5
#     8   8   8   8   8
#     4   9  20  36  53  75 105 139 178 219 263 312
#     4  10  19  33  55  79 107 135 177 222 266 306
#     4  11  22  34  52  79 111 147 179 211 257 319
#     4   8  16  35  59  77 100 137 178 222 269 313
#     4  10  18  32  54  76 103 144 184 216 257 310
#
# _framework density 16.867073000000001
#
# number of rings (size 3 to 8) (size 9 to 14) (size 15 to 20)
#    1.200    1.200    2.000    1.200    0.000    4.400 
#    0.000    1.000    0.000   12.000    0.000    0.000 
#    0.000    0.000    0.000    0.000    0.000    0.000 
#
# Total GULP energy -495630.416482 kJ/mol
# GULP energy per Si atom -12390.760412 kJ/mol
# Density = 1.682868 g / cm^3
# Si number density = 16.867073 Si / 1000 Ang^3
#
#
#
# Elastic Constant Matrix: (Units=GPa)
#
#
# Indices 1 2 3 4 5 6 
#
# 1 92.3716 48.5600 35.8559 0.0000 0.0000 0.0000
# 2 48.5600 72.7757 19.8432 0.0000 0.0000 0.0000
# 3 35.8559 19.8432 93.8031 0.0000 0.0000 0.0000
# 4 0.0000 0.0000 0.0000 17.7444 0.0000 0.0000
# 5 0.0000 0.0000 0.0000 0.0000 14.7799 0.0000
# 6 0.0000 0.0000 0.0000 0.0000 0.0000 27.2035
#
#
#
# Elastic Compliance Matrix: (Units=1/GPa)
#
#
# Indices 1 2 3 4 5 6 
#
# 1 0.018456 -0.011027 -0.004722 0.000000 0.000000 0.000000
# 2 -0.011027 0.021171 -0.000263 0.000000 0.000000 0.000000
# 3 -0.004722 -0.000263 0.012521 0.000000 0.000000 0.000000
# 4 0.000000 0.000000 0.000000 0.056356 0.000000 0.000000
# 5 0.000000 0.000000 0.000000 0.000000 0.067659 0.000000
# 6 0.000000 0.000000 0.000000 0.000000 0.000000 0.036760
#
#
# Mechanical properties :
#
#
# Convention : Reuss Voigt Hill
#
# Bulk Modulus (GPa) = 49.69515 51.94093 50.81804
# Shear Modulus (GPa) = 19.86842 22.25831 21.06336
#
# Velocity S-wave (km/s) = 3.43584 3.63661 3.53765
# Velocity P-wave (km/s) = 6.72806 6.96379 6.84694
#
# Compressibility (1/GPa) = 0.02012269
#
# Stress axis : x y z
#
# Youngs Moduli (GPa) = 54.18347 47.23521 79.86404
#
# Poissons Ratio (x) = 0.52087 0.37711
# Poissons Ratio (y) = 0.59749 0.02103
# Poissons Ratio (z) = 0.25585 0.01244
#
# Static dielectric constant tensor:
#      x y z
#    x 3.190380 0.000000 0.000000 
#    y 0.000000 2.905700 0.000000 
#    z 0.000000 0.000000 3.003610 
# 
# 
# High freq. dielectric constant tensor:
#      x y z
#    x 1.656390 0.000000 0.000000 
#    y 0.000000 1.616520 0.000000 
#    z 0.000000 0.000000 1.642380 
# 
# From -- ./inp_files/10665.got.cif
#   From: 2010.03.12/outbox.cif.g09.slc.cpg/sg51_6_cif.got.tgz:10665.got - 2010.04.16 13:43:02.
