data_PCOD8207432
_publ_section_title
;
Structure prediction by ZEFSAII (Michael W. Deem and Ramdas Pophale) SiO2 
 PCOD8207432
Probable space group: P M M A
;
_chemical_formula_sum "Si O2"
_cell_formula_units_Z 64
_cell_length_a 30.826267
_cell_length_b 9.069477
_cell_length_c 11.857037
_cell_angle_alpha 90.000000
_cell_angle_beta 90.000000
_cell_angle_gamma 90.000000
_cell_volume 3314.968108
_symmetry_space_group_name_H-M "P M M A"
_symmetry_group_IT_number 51
_symmetry_cell_setting 'orthorhombic'
loop_
_space_group_symop_operation_xyz
x,y,z
1/2-x,-y,z
1/2+x,-y,-z
-x,y,-z
-x,-y,-z
1/2+x,y,-z
1/2-x,y,z
x,-y,z
loop_
_atom_site_type_symbol
_atom_site_label
_atom_site_fract_x
_atom_site_fract_y
_atom_site_fract_z
Si Si1 0.373793 0.325843 0.865341
Si Si2 0.571217 0.172357 0.497152
Si Si3 0.041107 0.829366 0.252351
Si Si4 0.668780 0.825625 0.507067
Si Si5 0.623269 0.174312 0.896773
Si Si6 0.299422 0.170689 0.733044
Si Si7 0.701829 0.824632 0.743466
Si Si8 0.956721 0.673733 0.279542
O O1 0.370827 0.500000 0.876701
O O2 0.329112 0.267256 0.813868
O O3 0.413747 0.276403 0.786962
O O4 0.381435 0.257048 0.986601
O O5 0.551044 0.205065 0.618021
O O6 0.620084 0.234731 0.495254
O O7 0.543652 0.258611 0.404441
O O8 0.569470 0.000000 0.467360
O O9 0.082198 0.780759 0.178692
O O10 0.999012 0.736259 0.214783
O O11 0.030664 0.000000 0.232904
O O12 0.695732 0.778025 0.396870
O O13 0.690886 0.759081 0.619410
O O14 0.667184 0.000000 0.520389
O O15 0.666845 0.231376 0.834369
O O16 0.625350 0.000000 0.917546
O O17 0.250000 0.195355 0.770931
O O18 0.313100 0.000000 0.745329
O O19 0.750000 0.770835 0.779046
O O20 0.699896 0.000000 0.737559
O O21 0.960434 0.500000 0.287502
#
# Coordination Sequence:
#
# PCOD8207432 Si02
#       8
#     8   8   8   8   8   8   8   8
#     4  11  25  42  57  77 110 154 195 234 283 332
#     4  10  18  33  59  87 116 147 179 223 282 342
#     4  10  21  37  59  87 115 145 183 231 290 343
#     4   9  15  28  54  87 119 145 172 217 276 333
#     4  10  21  38  59  84 112 145 190 239 282 332
#     4  10  20  35  60  91 116 144 186 231 275 329
#     4   9  16  29  54  88 120 144 172 220 279 333
#     4  11  24  39  56  81 113 150 192 233 279 337
#
# _framework density 19.306370000000001
#
# number of rings (size 3 to 8) (size 9 to 14) (size 15 to 20)
#    0.000    2.000    2.500    1.500    0.000    6.750 
#    0.000    3.750    0.000    0.750    0.000    0.000 
#    0.000    0.000    0.000    0.000    0.000    0.000 
#
# Total GULP energy -793702.300062 kJ/mol
# GULP energy per Si atom -12401.598438 kJ/mol
# Density = 1.926243 g / cm^3
# Si number density = 19.306370 Si / 1000 Ang^3
#
#
#
# Elastic Constant Matrix: (Units=GPa)
#
#
# Indices 1 2 3 4 5 6 
#
# 1 140.1186 45.0038 51.2167 0.0000 0.0000 0.0000
# 2 45.0038 48.1878 47.2588 0.0000 0.0000 0.0000
# 3 51.2167 47.2588 113.7994 0.0000 0.0000 0.0000
# 4 0.0000 0.0000 0.0000 6.3003 0.0000 0.0000
# 5 0.0000 0.0000 0.0000 0.0000 10.6852 0.0000
# 6 0.0000 0.0000 0.0000 0.0000 0.0000 18.5021
#
#
#
# Elastic Compliance Matrix: (Units=1/GPa)
#
#
# Indices 1 2 3 4 5 6 
#
# 1 0.010273 -0.008536 -0.001078 0.000000 0.000000 0.000000
# 2 -0.008536 0.042105 -0.013644 0.000000 0.000000 0.000000
# 3 -0.001078 -0.013644 0.014939 0.000000 0.000000 0.000000
# 4 0.000000 0.000000 0.000000 0.158723 0.000000 0.000000
# 5 0.000000 0.000000 0.000000 0.000000 0.093587 0.000000
# 6 0.000000 0.000000 0.000000 0.000000 0.000000 0.054048
#
#
# Mechanical properties :
#
#
# Convention : Reuss Voigt Hill
#
# Bulk Modulus (GPa) = 48.07737 65.45160 56.76449
# Shear Modulus (GPa) = 11.70620 17.67263 14.68941
#
# Velocity S-wave (km/s) = 2.46507 3.02880 2.76136
# Velocity P-wave (km/s) = 5.74965 6.79755 6.29544
#
# Compressibility (1/GPa) = 0.02079981
#
# Stress axis : x y z
#
# Youngs Moduli (GPa) = 97.34520 23.75012 66.94057
#
# Poissons Ratio (x) = 0.20274 0.07218
# Poissons Ratio (y) = 0.83098 0.91331
# Poissons Ratio (z) = 0.10497 0.32404
#
# Static dielectric constant tensor:
#      x y z
#    x 3.792090 0.000000 0.000000 
#    y 0.000000 3.131510 0.000000 
#    z 0.000000 0.000000 3.526230 
# 
# 
# High freq. dielectric constant tensor:
#      x y z
#    x 1.770480 0.000000 0.000000 
#    y 0.000000 1.710120 0.000000 
#    z 0.000000 0.000000 1.751380 
# 
# From -- ./inp_files/19611.got.cif
#   From: 2010.03.12/outbox.cif.g09.slc.cpg/sg51_10_cif.got.tgz:19611.got - 2010.04.16 13:43:02.
