data_PCOD8207682
_publ_section_title
;
Structure prediction by ZEFSAII (Michael W. Deem and Ramdas Pophale) SiO2 
 PCOD8207682
Probable space group: P M M A
;
_chemical_formula_sum "Si O2"
_cell_formula_units_Z 64
_cell_length_a 14.398467
_cell_length_b 14.301171
_cell_length_c 18.484470
_cell_angle_alpha 90.000000
_cell_angle_beta 90.000000
_cell_angle_gamma 90.000000
_cell_volume 3806.228507
_symmetry_space_group_name_H-M "P M M A"
_symmetry_group_IT_number 51
_symmetry_cell_setting 'orthorhombic'
loop_
_space_group_symop_operation_xyz
x,y,z
1/2-x,-y,z
1/2+x,-y,-z
-x,y,-z
-x,-y,-z
1/2+x,y,-z
1/2-x,y,z
x,-y,z
loop_
_atom_site_type_symbol
_atom_site_label
_atom_site_fract_x
_atom_site_fract_y
_atom_site_fract_z
Si Si1 0.357841 0.106519 0.951010
Si Si2 0.533185 0.110607 0.184484
Si Si3 0.953837 0.209181 0.330513
Si Si4 0.640298 0.393601 0.362704
Si Si5 0.351632 0.110839 0.109470
Si Si6 0.359762 0.600250 0.474202
Si Si7 0.646577 0.781679 0.603602
Si Si8 0.897601 0.895741 0.469888
O O1 0.250000 0.115173 0.933811
O O2 0.412322 0.153992 0.884477
O O3 0.391972 0.000000 0.952267
O O4 0.380309 0.151586 0.029918
O O5 0.571963 0.158340 0.256316
O O6 0.425175 0.137727 0.171152
O O7 0.547498 0.000000 0.193200
O O8 0.922108 0.317227 0.320069
O O9 0.894280 0.163708 0.395854
O O10 0.064724 0.187933 0.341999
O O11 0.750000 0.370284 0.355726
O O12 0.622211 0.500000 0.334437
O O13 0.602849 0.384785 0.444871
O O14 0.250000 0.149650 0.132519
O O15 0.345566 0.000000 0.099832
O O16 0.250000 0.601194 0.479516
O O17 0.395045 0.500000 0.443952
O O18 0.393250 0.681017 0.421112
O O19 0.750000 0.777010 0.640388
O O20 0.661322 0.846200 0.532840
O O21 0.000000 0.902503 0.500000
O O22 0.857946 0.000000 0.455253
#
# Coordination Sequence:
#
# PCOD8207682 Si02
#       8
#     8   8   8   8   8   8   8   8
#     4   8  14  26  44  65  88 116 151 187 223 263
#     4  10  19  29  42  64  96 128 154 183 220 262
#     4  11  21  31  46  67  91 121 151 186 231 277
#     4   9  18  33  52  71  89 110 142 188 240 289
#     4   8  14  26  45  66  89 121 157 188 219 258
#     4   8  14  27  48  69  84  99 130 184 240 282
#     4  10  20  33  46  63  87 116 154 195 231 272
#     4   9  18  32  45  57  79 115 159 198 225 254
#
# _framework density 16.814544999999999
#
# number of rings (size 3 to 8) (size 9 to 14) (size 15 to 20)
#    0.000    2.875    1.250    2.250    0.000    3.750 
#    0.000    1.250    0.000    2.250    0.000    0.000 
#    0.000    2.000    0.000    2.750    0.000    0.875 
#
# Total GULP energy -792878.941612 kJ/mol
# GULP energy per Si atom -12388.733463 kJ/mol
# Density = 1.677627 g / cm^3
# Si number density = 16.814545 Si / 1000 Ang^3
#
#
#
# Elastic Constant Matrix: (Units=GPa)
#
#
# Indices 1 2 3 4 5 6 
#
# 1 37.3929 9.3352 8.3288 0.0000 0.0000 0.0000
# 2 9.3352 69.9974 17.4866 0.0000 0.0000 0.0000
# 3 8.3288 17.4866 55.1762 0.0000 0.0000 0.0000
# 4 0.0000 0.0000 0.0000 5.2083 0.0000 0.0000
# 5 0.0000 0.0000 0.0000 0.0000 15.8726 0.0000
# 6 0.0000 0.0000 0.0000 0.0000 0.0000 15.2099
#
#
#
# Elastic Compliance Matrix: (Units=1/GPa)
#
#
# Indices 1 2 3 4 5 6 
#
# 1 0.028217 -0.002931 -0.003330 0.000000 0.000000 0.000000
# 2 -0.002931 0.015819 -0.004571 0.000000 0.000000 0.000000
# 3 -0.003330 -0.004571 0.020075 0.000000 0.000000 0.000000
# 4 0.000000 0.000000 0.000000 0.192001 0.000000 0.000000
# 5 0.000000 0.000000 0.000000 0.000000 0.063002 0.000000
# 6 0.000000 0.000000 0.000000 0.000000 0.000000 0.065747
#
#
# Mechanical properties :
#
#
# Convention : Reuss Voigt Hill
#
# Bulk Modulus (GPa) = 23.55941 25.87419 24.71680
# Shear Modulus (GPa) = 11.88570 15.75255 13.81912
#
# Velocity S-wave (km/s) = 2.66159 3.06411 2.86991
# Velocity P-wave (km/s) = 4.84635 5.28580 5.07084
#
# Compressibility (1/GPa) = 0.04244589
#
# Stress axis : x y z
#
# Youngs Moduli (GPa) = 35.44018 63.21484 49.81294
#
# Poissons Ratio (x) = 0.18529 0.16589
# Poissons Ratio (y) = 0.10388 0.22769
# Poissons Ratio (z) = 0.11803 0.28895
#
# Static dielectric constant tensor:
#      x y z
#    x 3.166510 0.000000 0.000000 
#    y 0.000000 4.954750 0.000000 
#    z 0.000000 0.000000 2.945380 
# 
# 
# High freq. dielectric constant tensor:
#      x y z
#    x 1.658660 0.000000 0.000000 
#    y 0.000000 1.609350 0.000000 
#    z 0.000000 0.000000 1.613670 
# 
# From -- ./inp_files/29962.got.cif
#   From: 2010.03.12/outbox.cif.g09.slc.cpg/sg51_15_cif.got.tgz:29962.got - 2010.04.16 13:43:02.
