data_PCOD8207319
_publ_section_title
;
Structure prediction by ZEFSAII (Michael W. Deem and Ramdas Pophale) SiO2 
 PCOD8207319
Probable space group: P M M A
;
_chemical_formula_sum "Si O2"
_cell_formula_units_Z 56
_cell_length_a 20.829332
_cell_length_b 9.253632
_cell_length_c 16.717284
_cell_angle_alpha 90.000000
_cell_angle_beta 90.000000
_cell_angle_gamma 90.000000
_cell_volume 3222.205890
_symmetry_space_group_name_H-M "P M M A"
_symmetry_group_IT_number 51
_symmetry_cell_setting 'orthorhombic'
loop_
_space_group_symop_operation_xyz
x,y,z
1/2-x,-y,z
1/2+x,-y,-z
-x,y,-z
-x,-y,-z
1/2+x,y,-z
1/2-x,y,z
x,-y,z
loop_
_atom_site_type_symbol
_atom_site_label
_atom_site_fract_x
_atom_site_fract_y
_atom_site_fract_z
Si Si1 0.972135 0.829580 0.122391
Si Si2 0.524484 0.833710 0.300683
Si Si3 0.064064 0.671389 0.547799
Si Si4 0.901917 0.829757 0.969008
Si Si5 0.376706 0.162495 0.291068
Si Si6 0.823798 0.334077 0.853321
Si Si7 0.176621 0.832960 0.459721
O O1 0.960300 0.770124 0.211789
O O2 0.038679 0.772970 0.084947
O O3 0.979497 0.000000 0.128429
O O4 0.914111 0.788159 0.062157
O O5 0.562921 0.736317 0.363208
O O6 0.449453 0.819685 0.320334
O O7 0.547148 0.000000 0.308708
O O8 0.068876 0.500000 0.552796
O O9 0.128306 0.730364 0.506898
O O10 0.000000 0.719690 0.500000
O O11 0.839605 0.747050 0.936551
O O12 0.891690 0.000000 0.960313
O O13 0.364431 0.272053 0.219761
O O14 0.330515 0.197298 0.365255
O O15 0.364914 0.000000 0.258799
O O16 0.750000 0.309814 0.833252
O O17 0.841884 0.500000 0.864029
O O18 0.250000 0.797072 0.484212
O O19 0.159834 0.000000 0.478375
#
# Coordination Sequence:
#
# PCOD8207319 Si02
#       7
#     8   8   8   8   8   8   8
#     4   8  15  29  52  79 101 124 160 212 262 298
#     4  10  18  32  56  81 106 136 171 217 267 310
#     4  11  23  36  52  78 111 146 180 216 263 321
#     4   9  16  31  53  74  98 129 169 209 248 300
#     4  10  19  33  55  79 104 137 176 215 260 314
#     4  11  23  34  45  69 108 146 175 207 251 305
#     4  10  21  37  57  80 105 137 181 228 268 314
#
# _framework density 17.379398999999999
#
# number of rings (size 3 to 8) (size 9 to 14) (size 15 to 20)
#    0.000    2.143    2.857    2.143    0.000    3.714 
#    0.000    2.143    0.000    0.857    0.000    2.000 
#    0.000    0.000    0.000    0.000    0.000    0.000 
#
# Total GULP energy -694308.262932 kJ/mol
# GULP energy per Si atom -12398.361838 kJ/mol
# Density = 1.733984 g / cm^3
# Si number density = 17.379399 Si / 1000 Ang^3
#
#
#
# Elastic Constant Matrix: (Units=GPa)
#
#
# Indices 1 2 3 4 5 6 
#
# 1 65.5693 39.6386 40.2892 0.0000 0.0000 0.0000
# 2 39.6386 70.0572 46.9203 0.0000 0.0000 0.0000
# 3 40.2892 46.9203 114.2890 0.0000 0.0000 0.0000
# 4 0.0000 0.0000 0.0000 10.9525 0.0000 0.0000
# 5 0.0000 0.0000 0.0000 0.0000 26.8933 0.0000
# 6 0.0000 0.0000 0.0000 0.0000 0.0000 24.1510
#
#
#
# Elastic Compliance Matrix: (Units=1/GPa)
#
#
# Indices 1 2 3 4 5 6 
#
# 1 0.024472 -0.011128 -0.004058 0.000000 0.000000 0.000000
# 2 -0.011128 0.024748 -0.006237 0.000000 0.000000 0.000000
# 3 -0.004058 -0.006237 0.012741 0.000000 0.000000 0.000000
# 4 0.000000 0.000000 0.000000 0.091304 0.000000 0.000000
# 5 0.000000 0.000000 0.000000 0.000000 0.037184 0.000000
# 6 0.000000 0.000000 0.000000 0.000000 0.000000 0.041406
#
#
# Mechanical properties :
#
#
# Convention : Reuss Voigt Hill
#
# Bulk Modulus (GPa) = 52.31912 55.95683 54.13798
# Shear Modulus (GPa) = 17.78899 20.60385 19.19642
#
# Velocity S-wave (km/s) = 3.20280 3.44689 3.32708
# Velocity P-wave (km/s) = 6.62168 6.93603 6.78068
#
# Compressibility (1/GPa) = 0.01911347
#
# Stress axis : x y z
#
# Youngs Moduli (GPa) = 40.86287 40.40781 78.48751
#
# Poissons Ratio (x) = 0.44967 0.31852
# Poissons Ratio (y) = 0.45474 0.48952
# Poissons Ratio (z) = 0.16583 0.25202
#
# Static dielectric constant tensor:
#      x y z
#    x 3.098720 0.000000 0.000000 
#    y 0.000000 3.059170 0.000000 
#    z 0.000000 0.000000 3.401390 
# 
# 
# High freq. dielectric constant tensor:
#      x y z
#    x 1.649250 0.000000 0.000000 
#    y 0.000000 1.654420 0.000000 
#    z 0.000000 0.000000 1.674190 
# 
# From -- ./inp_files/30376.got.cif
#   From: 2010.03.12/outbox.cif.g09.slc.cpg/sg51_16_cif.got.tgz:30376.got - 2010.04.16 13:43:02.
