data_PCOD8207847
_publ_section_title
;
Structure prediction by ZEFSAII (Michael W. Deem and Ramdas Pophale) SiO2 
 PCOD8207847
Probable space group: P M M A
;
_chemical_formula_sum "Si O2"
_cell_formula_units_Z 64
_cell_length_a 8.856636
_cell_length_b 15.196358
_cell_length_c 30.438613
_cell_angle_alpha 90.000000
_cell_angle_beta 90.000000
_cell_angle_gamma 90.000000
_cell_volume 4096.690655
_symmetry_space_group_name_H-M "P M M A"
_symmetry_group_IT_number 51
_symmetry_cell_setting 'orthorhombic'
loop_
_space_group_symop_operation_xyz
x,y,z
1/2-x,-y,z
1/2+x,-y,-z
-x,y,-z
-x,-y,-z
1/2+x,y,-z
1/2-x,y,z
x,-y,z
loop_
_atom_site_type_symbol
_atom_site_label
_atom_site_fract_x
_atom_site_fract_y
_atom_site_fract_z
Si Si1 0.571748 0.783341 0.047827
Si Si2 0.924262 0.896302 0.385508
Si Si3 0.073619 0.592738 0.953040
Si Si4 0.071024 0.231944 0.451900
Si Si5 0.420207 0.104847 0.790452
Si Si6 0.077520 0.895849 0.121199
Si Si7 0.573167 0.595551 0.452479
Si Si8 0.419753 0.895390 0.296611
O O1 0.750000 0.796158 0.043440
O O2 0.528620 0.686517 0.068809
O O3 0.508270 0.857034 0.079698
O O4 0.500000 0.795849 0.000000
O O5 0.750000 0.869417 0.389923
O O6 0.021675 0.850987 0.423254
O O7 0.983397 0.863627 0.338241
O O8 0.947730 0.000000 0.391027
O O9 0.250000 0.594264 0.961081
O O10 0.029236 0.500000 0.927676
O O11 0.000000 0.589812 0.000000
O O12 0.250000 0.234966 0.455487
O O13 0.000000 0.221313 0.500000
O O14 0.009037 0.322179 0.428562
O O15 0.250000 0.141191 0.790672
O O16 0.503848 0.139738 0.833852
O O17 0.504726 0.142840 0.747584
O O18 0.421514 0.000000 0.789273
O O19 0.250000 0.864986 0.120556
O O20 0.062309 0.000000 0.118146
O O21 0.500000 0.589433 0.500000
O O22 0.750000 0.616351 0.456764
O O23 0.547978 0.500000 0.428732
O O24 0.250000 0.858208 0.300626
O O25 0.417504 0.000000 0.294349
#
# Coordination Sequence:
#
# PCOD8207847 Si02
#       8
#     8   8   8   8   8   8   8   8
#     4  10  19  30  44  61  83 112 144 177 211 249
#     4  10  20  33  47  63  86 117 152 187 220 256
#     4   8  14  25  41  60  80 102 130 166 209 253
#     4  11  21  32  46  63  87 118 151 186 221 260
#     4   9  16  27  44  64  84 107 137 174 216 258
#     4  10  20  32  44  59  82 113 147 181 214 248
#     4   9  16  27  44  64  85 109 139 177 220 263
#     4   9  16  27  44  65  87 110 138 174 217 261
#
# _framework density 15.622366
#
# number of rings (size 3 to 8) (size 9 to 14) (size 15 to 20)
#    0.000    2.500    0.000    4.125    0.000    6.250 
#    0.000    0.000    0.000    0.000    0.000    0.000 
#    0.000    1.000    0.000    6.000    0.000    4.875 
#
# Total GULP energy -792967.549103 kJ/mol
# GULP energy per Si atom -12390.117955 kJ/mol
# Density = 1.558681 g / cm^3
# Si number density = 15.622366 Si / 1000 Ang^3
#
#
#
# Elastic Constant Matrix: (Units=GPa)
#
#
# Indices 1 2 3 4 5 6 
#
# 1 118.9616 36.5145 46.8780 0.0000 0.0000 0.0000
# 2 36.5145 43.9125 33.9761 0.0000 0.0000 0.0000
# 3 46.8780 33.9761 85.5485 0.0000 0.0000 0.0000
# 4 0.0000 0.0000 0.0000 0.6020 0.0000 0.0000
# 5 0.0000 0.0000 0.0000 0.0000 27.6753 0.0000
# 6 0.0000 0.0000 0.0000 0.0000 0.0000 18.2985
#
#
#
# Elastic Compliance Matrix: (Units=1/GPa)
#
#
# Indices 1 2 3 4 5 6 
#
# 1 0.012085 -0.007110 -0.003799 0.000000 0.000000 0.000000
# 2 -0.007110 0.037058 -0.010822 0.000000 0.000000 0.000000
# 3 -0.003799 -0.010822 0.018069 0.000000 0.000000 0.000000
# 4 0.000000 0.000000 0.000000 1.661135 0.000000 0.000000
# 5 0.000000 0.000000 0.000000 0.000000 0.036133 0.000000
# 6 0.000000 0.000000 0.000000 0.000000 0.000000 0.054649
#
#
# Mechanical properties :
#
#
# Convention : Reuss Voigt Hill
#
# Bulk Modulus (GPa) = 42.10329 53.68443 47.89386
# Shear Modulus (GPa) = 2.67307 18.05208 10.36257
#
# Velocity S-wave (km/s) = 1.30949 3.40299 2.57829
# Velocity P-wave (km/s) = 5.41253 7.06250 6.29184
#
# Compressibility (1/GPa) = 0.02375111
#
# Stress axis : x y z
#
# Youngs Moduli (GPa) = 82.74455 26.98479 55.34466
#
# Poissons Ratio (x) = 0.19187 0.21023
# Poissons Ratio (y) = 0.58834 0.59891
# Poissons Ratio (z) = 0.31431 0.29202
#
# Static dielectric constant tensor:
#      x y z
#    x 3.226680 0.000000 0.000000 
#    y 0.000000 3.329170 0.000000 
#    z 0.000000 0.000000 2.786510 
# 
# 
# High freq. dielectric constant tensor:
#      x y z
#    x 1.622130 0.000000 0.000000 
#    y 0.000000 1.577390 0.000000 
#    z 0.000000 0.000000 1.565880 
# 
# From -- ./inp_files/37637.got.cif
#   From: 2010.03.12/outbox.cif.g09.slc.cpg/sg51_19_cif.got.tgz:37637.got - 2010.04.16 13:43:02.
