data_PCOD8207904
_publ_section_title
;
Structure prediction by ZEFSAII (Michael W. Deem and Ramdas Pophale) SiO2 
 PCOD8207904
Probable space group: P M M A
;
_chemical_formula_sum "Si O2"
_cell_formula_units_Z 56
_cell_length_a 9.065610
_cell_length_b 25.265210
_cell_length_c 15.243539
_cell_angle_alpha 90.000000
_cell_angle_beta 90.000000
_cell_angle_gamma 90.000000
_cell_volume 3491.449385
_symmetry_space_group_name_H-M "P M M A"
_symmetry_group_IT_number 51
_symmetry_cell_setting 'orthorhombic'
loop_
_space_group_symop_operation_xyz
x,y,z
1/2-x,-y,z
1/2+x,-y,-z
-x,y,-z
-x,-y,-z
1/2+x,y,-z
1/2-x,y,z
x,-y,z
loop_
_atom_site_type_symbol
_atom_site_label
_atom_site_fract_x
_atom_site_fract_y
_atom_site_fract_z
Si Si1 0.578765 0.861032 0.407883
Si Si2 0.577382 0.744260 0.406848
Si Si3 0.923218 0.060776 0.258759
Si Si4 0.424477 0.356860 0.405865
Si Si5 0.921498 0.439571 0.741565
Si Si6 0.915623 0.937011 0.915599
Si Si7 0.916399 0.563033 0.085168
O O1 0.500000 0.869329 0.500000
O O2 0.750000 0.870035 0.426655
O O3 0.552580 0.802522 0.365128
O O4 0.518393 0.904269 0.339638
O O5 0.500000 0.746676 0.500000
O O6 0.750000 0.730979 0.415538
O O7 0.494015 0.695693 0.358298
O O8 0.750000 0.067912 0.243661
O O9 0.002825 0.082183 0.171943
O O10 0.964469 0.000000 0.278733
O O11 0.500000 0.367022 0.500000
O O12 0.250000 0.349687 0.418044
O O13 0.463390 0.406251 0.344238
O O14 0.750000 0.435043 0.764309
O O15 0.967249 0.500000 0.721619
O O16 0.007299 0.416620 0.825770
O O17 0.750000 0.914570 0.915515
O O18 0.915837 0.000000 0.919931
O O19 0.000000 0.913569 0.000000
O O20 0.750000 0.584390 0.083174
O O21 0.921988 0.500000 0.082931
O O22 0.000000 0.586161 0.000000
#
# Coordination Sequence:
#
# PCOD8207904 Si02
#       7
#     8   8   8   8   8   8   8
#     4   9  18  30  44  63  86 114 146 179 215 252
#     4   9  16  28  45  62  81 106 141 183 220 252
#     4   9  17  29  43  61  88 118 145 174 210 254
#     4  10  19  30  45  64  86 113 145 180 216 253
#     4   9  18  31  44  61  88 118 145 174 210 254
#     4   9  16  26  41  61  84 111 143 177 212 250
#     4   9  16  26  42  63  86 113 144 177 211 248
#
# _framework density 16.039183999999999
#
# number of rings (size 3 to 8) (size 9 to 14) (size 15 to 20)
#    0.000    2.857    0.000    2.571    0.000    6.286 
#    0.000    0.000    0.000    0.000    0.000    1.000 
#    0.000    6.857    0.000    0.000    0.000    0.000 
#
# Total GULP energy -694076.496844 kJ/mol
# GULP energy per Si atom -12394.223158 kJ/mol
# Density = 1.600268 g / cm^3
# Si number density = 16.039184 Si / 1000 Ang^3
#
#
#
# Elastic Constant Matrix: (Units=GPa)
#
#
# Indices 1 2 3 4 5 6 
#
# 1 91.1620 40.3514 60.2934 0.0000 0.0000 0.0000
# 2 40.3514 76.0010 58.4244 0.0000 0.0000 0.0000
# 3 60.2934 58.4244 120.9099 0.0000 0.0000 0.0000
# 4 0.0000 0.0000 0.0000 2.4553 0.0000 0.0000
# 5 0.0000 0.0000 0.0000 0.0000 28.5781 0.0000
# 6 0.0000 0.0000 0.0000 0.0000 0.0000 17.1192
#
#
#
# Elastic Compliance Matrix: (Units=1/GPa)
#
#
# Indices 1 2 3 4 5 6 
#
# 1 0.017105 -0.004017 -0.006589 0.000000 0.000000 0.000000
# 2 -0.004017 0.021877 -0.008568 0.000000 0.000000 0.000000
# 3 -0.006589 -0.008568 0.015696 0.000000 0.000000 0.000000
# 4 0.000000 0.000000 0.000000 0.407278 0.000000 0.000000
# 5 0.000000 0.000000 0.000000 0.000000 0.034992 0.000000
# 6 0.000000 0.000000 0.000000 0.000000 0.000000 0.058414
#
#
# Mechanical properties :
#
#
# Convention : Reuss Voigt Hill
#
# Bulk Modulus (GPa) = 61.23224 67.35682 64.29453
# Shear Modulus (GPa) = 8.34512 18.23078 13.28795
#
# Velocity S-wave (km/s) = 2.28347 3.37507 2.88143
# Velocity P-wave (km/s) = 6.72398 7.56799 7.15843
#
# Compressibility (1/GPa) = 0.01633127
#
# Stress axis : x y z
#
# Youngs Moduli (GPa) = 58.46193 45.71044 63.70890
#
# Poissons Ratio (x) = 0.18360 0.41977
# Poissons Ratio (y) = 0.23482 0.54586
# Poissons Ratio (z) = 0.38520 0.39165
#
# Static dielectric constant tensor:
#      x y z
#    x 3.345200 0.000000 0.000000 
#    y 0.000000 3.277190 0.000000 
#    z 0.000000 0.000000 2.976640 
# 
# 
# High freq. dielectric constant tensor:
#      x y z
#    x 1.628630 0.000000 0.000000 
#    y 0.000000 1.584500 0.000000 
#    z 0.000000 0.000000 1.602320 
# 
# From -- ./inp_files/22523.got.cif
#   From: 2010.03.12/outbox.cif.g09.slc.cpg/sg51_12_cif.got.tgz:22523.got - 2010.04.16 13:43:02.
