data_PCOD8207021
_publ_section_title
;
Structure prediction by ZEFSAII (Michael W. Deem and Ramdas Pophale) SiO2 
 PCOD8207021
Probable space group: P M M A
;
_chemical_formula_sum "Si O2"
_cell_formula_units_Z 24
_cell_length_a 13.610496
_cell_length_b 10.384235
_cell_length_c 9.049929
_cell_angle_alpha 90.000000
_cell_angle_beta 90.000000
_cell_angle_gamma 90.000000
_cell_volume 1279.067995
_symmetry_space_group_name_H-M "P M M A"
_symmetry_group_IT_number 51
_symmetry_cell_setting 'orthorhombic'
loop_
_space_group_symop_operation_xyz
x,y,z
1/2-x,-y,z
1/2+x,-y,-z
-x,y,-z
-x,-y,-z
1/2+x,y,-z
1/2-x,y,z
x,-y,z
loop_
_atom_site_type_symbol
_atom_site_label
_atom_site_fract_x
_atom_site_fract_y
_atom_site_fract_z
Si Si1 0.029396 0.000000 0.828720
Si Si2 0.750000 0.725029 0.960450
Si Si3 0.041526 0.500000 0.663683
Si Si4 0.750000 0.500000 0.202785
Si Si5 0.455551 0.266059 0.162160
Si Si6 0.750000 0.000000 0.109944
O O1 0.980600 0.128600 0.760199
O O2 0.147650 0.000000 0.798044
O O3 0.000000 0.000000 0.000000
O O4 0.840949 0.703975 0.851698
O O5 0.750000 0.626814 0.098685
O O6 0.750000 0.872151 0.012386
O O7 0.158938 0.500000 0.683924
O O8 0.000000 0.500000 0.500000
O O9 0.002735 0.627157 0.738508
O O10 0.500000 0.271374 0.000000
#
# Coordination Sequence:
#
# PCOD8207021 Si02
#       6
#     4   4   4   2   8   2
#     4  10  18  30  55  86 121 136 187 234 291 336
#     4  12  20  31  64  88 116 142 190 235 290 338
#     4  12  26  41  57  80 120 155 194 234 279 339
#     4  12  22  38  60  82 106 158 192 232 284 336
#     4  11  20  37  58  89 112 147 188 240 282 335
#     4  12  16  28  50  92 116 144 166 244 298 332
#
# _framework density 18.763663999999999
#
# number of rings (size 3 to 8) (size 9 to 14) (size 15 to 20)
#    0.000    0.667   10.000    1.500    0.000    1.333 
#    0.000    0.833    0.000    0.000    0.000    0.000 
#    0.000    0.000    0.000    0.000    0.000    0.000 
#
# Total GULP energy -297464.318763 kJ/mol
# GULP energy per Si atom -12394.346615 kJ/mol
# Density = 1.872096 g / cm^3
# Si number density = 18.763664 Si / 1000 Ang^3
#
#
#
# Elastic Constant Matrix: (Units=GPa)
#
#
# Indices 1 2 3 4 5 6 
#
# 1 193.9742 46.2456 41.2693 0.0000 0.0000 0.0000
# 2 46.2456 170.8210 55.9504 0.0000 0.0000 0.0000
# 3 41.2693 55.9504 59.9309 0.0000 0.0000 0.0000
# 4 0.0000 0.0000 0.0000 -84.8739 0.0000 0.0000
# 5 0.0000 0.0000 0.0000 0.0000 13.3651 0.0000
# 6 0.0000 0.0000 0.0000 0.0000 0.0000 35.6537
#
#
#
# Elastic Compliance Matrix: (Units=1/GPa)
#
#
# Indices 1 2 3 4 5 6 
#
# 1 0.006059 -0.000394 -0.003804 0.000000 0.000000 0.000000
# 2 -0.000394 0.008458 -0.007625 0.000000 0.000000 0.000000
# 3 -0.003804 -0.007625 0.026424 0.000000 0.000000 0.000000
# 4 0.000000 0.000000 0.000000 -0.011782 0.000000 0.000000
# 5 0.000000 0.000000 0.000000 0.000000 0.074822 0.000000
# 6 0.000000 0.000000 0.000000 0.000000 0.000000 0.028048
#
#
# Mechanical properties :
#
#
# Convention : Reuss Voigt Hill
#
# Bulk Modulus (GPa) = 57.82241 79.07295 68.44768
# Shear Modulus (GPa) = 30.97135 11.57970 21.27552
#
# Velocity S-wave (km/s) = 4.06717 2.48691 3.37095
# Velocity P-wave (km/s) = 7.27591 7.10488 7.19090
#
# Compressibility (1/GPa) = 0.01729433
#
# Stress axis : x y z
#
# Youngs Moduli (GPa) = 165.05333 118.22707 37.84452
#
# Poissons Ratio (x) = 0.04661 0.14396
# Poissons Ratio (y) = 0.06508 0.28856
# Poissons Ratio (z) = 0.62786 0.90148
#
# Static dielectric constant tensor:
#      x y z
#    x 4.332180 0.000000 0.000000 
#    y 0.000000 3.326730 0.000000 
#    z 0.000000 0.000000 2.576850 
# 
# 
# High freq. dielectric constant tensor:
#      x y z
#    x 1.755770 0.000000 0.000000 
#    y 0.000000 1.763880 0.000000 
#    z 0.000000 0.000000 1.654100 
# 
# From -- ./inp_files/6578.got.cif
#   From: 2010.03.12/outbox.cif.g09.slc.cpg/sg51_4_cif.got.tgz:6578.got - 2010.04.16 13:43:02.
