data_PCOD8207966
_publ_section_title
;
Structure prediction by ZEFSAII (Michael W. Deem and Ramdas Pophale) SiO2 
 PCOD8207966
Probable space group: P M M A
;
_chemical_formula_sum "Si O2"
_cell_formula_units_Z 56
_cell_length_a 9.100300
_cell_length_b 25.219756
_cell_length_c 15.209601
_cell_angle_alpha 90.000000
_cell_angle_beta 90.000000
_cell_angle_gamma 90.000000
_cell_volume 3490.715152
_symmetry_space_group_name_H-M "P M M A"
_symmetry_group_IT_number 51
_symmetry_cell_setting 'orthorhombic'
loop_
_space_group_symop_operation_xyz
x,y,z
1/2-x,-y,z
1/2+x,-y,-z
-x,y,-z
-x,-y,-z
1/2+x,y,-z
1/2-x,y,z
x,-y,z
loop_
_atom_site_type_symbol
_atom_site_label
_atom_site_fract_x
_atom_site_fract_y
_atom_site_fract_z
Si Si1 0.584190 0.936852 0.914930
Si Si2 0.920576 0.939409 0.258109
Si Si3 0.922347 0.438696 0.275324
Si Si4 0.588889 0.437281 0.080830
Si Si5 0.420678 0.361417 0.407209
Si Si6 0.921508 0.244347 0.592952
Si Si7 0.423849 0.143555 0.594116
O O1 0.750000 0.915363 0.917093
O O2 0.508039 0.916575 0.825649
O O3 0.579277 0.000000 0.917298
O O4 0.500000 0.913722 0.000000
O O5 0.750000 0.934584 0.234306
O O6 0.961363 0.906111 0.344314
O O7 0.964991 0.000000 0.278421
O O8 0.750000 0.425922 0.283892
O O9 0.952059 0.500000 0.297311
O O10 0.979263 0.424866 0.176698
O O11 0.015326 0.404030 0.341336
O O12 0.750000 0.411981 0.075806
O O13 0.599211 0.500000 0.068842
O O14 0.500000 0.411456 0.000000
O O15 0.500000 0.367035 0.500000
O O16 0.250000 0.373152 0.423221
O O17 0.442580 0.302619 0.364226
O O18 0.750000 0.230335 0.582907
O O19 0.000000 0.247237 0.500000
O O20 0.005750 0.196003 0.641877
O O21 0.500000 0.133373 0.500000
O O22 0.250000 0.151119 0.581767
#
# Coordination Sequence:
#
# PCOD8207966 Si02
#       7
#     8   8   8   8   8   8   8
#     4   9  16  26  42  63  86 114 147 182 219 258
#     4   9  18  31  44  62  91 122 150 180 215 260
#     4   9  18  31  45  64  92 122 149 178 215 261
#     4   8  14  25  41  61  85 113 144 177 212 249
#     4  10  20  32  47  66  87 115 149 184 222 261
#     4   9  17  30  47  65  84 107 142 187 227 260
#     4  10  19  30  46  66  88 117 150 183 220 259
#
# _framework density 16.042558
#
# number of rings (size 3 to 8) (size 9 to 14) (size 15 to 20)
#    0.000    2.857    0.000    3.429    0.000    6.000 
#    0.000    1.429    0.000    0.000    0.000    1.000 
#    0.000    4.571    0.000    0.000    0.000    0.000 
#
# Total GULP energy -693942.317948 kJ/mol
# GULP energy per Si atom -12391.827106 kJ/mol
# Density = 1.600604 g / cm^3
# Si number density = 16.042558 Si / 1000 Ang^3
#
#
#
# Elastic Constant Matrix: (Units=GPa)
#
#
# Indices 1 2 3 4 5 6 
#
# 1 105.8998 50.3090 64.2026 0.0000 0.0000 0.0000
# 2 50.3090 74.5120 54.2142 0.0000 0.0000 0.0000
# 3 64.2026 54.2142 109.3174 0.0000 0.0000 0.0000
# 4 0.0000 0.0000 0.0000 -0.5289 0.0000 0.0000
# 5 0.0000 0.0000 0.0000 0.0000 30.7416 0.0000
# 6 0.0000 0.0000 0.0000 0.0000 0.0000 21.3914
#
#
#
# Elastic Compliance Matrix: (Units=1/GPa)
#
#
# Indices 1 2 3 4 5 6 
#
# 1 0.016385 -0.006354 -0.006472 0.000000 0.000000 0.000000
# 2 -0.006354 0.023461 -0.007904 0.000000 0.000000 0.000000
# 3 -0.006472 -0.007904 0.016868 0.000000 0.000000 0.000000
# 4 0.000000 0.000000 0.000000 -1.890786 0.000000 0.000000
# 5 0.000000 0.000000 0.000000 0.000000 0.032529 0.000000
# 6 0.000000 0.000000 0.000000 0.000000 0.000000 0.046748
#
#
# Mechanical properties :
#
#
# Convention : Reuss Voigt Hill
#
# Bulk Modulus (GPa) = 65.54866 69.68676 67.61771
# Shear Modulus (GPa) = -2.92697 18.38772 7.73038
#
# Velocity S-wave (km/s) = -1.35221 3.38921 2.19753
# Velocity P-wave (km/s) = 6.20564 7.67128 6.97705
#
# Compressibility (1/GPa) = 0.01525584
#
# Stress axis : x y z
#
# Youngs Moduli (GPa) = 61.03137 42.62345 59.28300
#
# Poissons Ratio (x) = 0.27083 0.38367
# Poissons Ratio (y) = 0.38779 0.46854
# Poissons Ratio (z) = 0.39498 0.33688
#
# Static dielectric constant tensor:
#      x y z
#    x 3.244540 0.000000 0.000000 
#    y 0.000000 3.176730 0.000000 
#    z 0.000000 0.000000 2.993900 
# 
# 
# High freq. dielectric constant tensor:
#      x y z
#    x 1.628900 0.000000 0.000000 
#    y 0.000000 1.585090 0.000000 
#    z 0.000000 0.000000 1.602980 
# 
# From -- ./inp_files/22540.got.cif
#   From: 2010.03.12/outbox.cif.g09.slc.cpg/sg51_12_cif.got.tgz:22540.got - 2010.04.16 13:43:02.
