data_PCOD8207606
_publ_section_title
;
Structure prediction by ZEFSAII (Michael W. Deem and Ramdas Pophale) SiO2 
 PCOD8207606
Probable space group: P M M A
;
_chemical_formula_sum "Si O2"
_cell_formula_units_Z 48
_cell_length_a 9.578611
_cell_length_b 17.875164
_cell_length_c 17.412782
_cell_angle_alpha 90.000000
_cell_angle_beta 90.000000
_cell_angle_gamma 90.000000
_cell_volume 2981.403344
_symmetry_space_group_name_H-M "P M M A"
_symmetry_group_IT_number 51
_symmetry_cell_setting 'orthorhombic'
loop_
_space_group_symop_operation_xyz
x,y,z
1/2-x,-y,z
1/2+x,-y,-z
-x,y,-z
-x,-y,-z
1/2+x,y,-z
1/2-x,y,z
x,-y,z
loop_
_atom_site_type_symbol
_atom_site_label
_atom_site_fract_x
_atom_site_fract_y
_atom_site_fract_z
Si Si1 0.904086 0.181500 0.563720
Si Si2 0.595574 0.702932 0.698947
Si Si3 0.092221 0.194776 0.789897
Si Si4 0.094725 0.082925 0.649804
Si Si5 0.086252 0.914815 0.923956
Si Si6 0.412800 0.413204 0.424826
O O1 0.750000 0.164434 0.530997
O O2 0.892673 0.231074 0.638422
O O3 0.000000 0.223142 0.500000
O O4 0.983599 0.104528 0.584405
O O5 0.750000 0.684800 0.732257
O O6 0.498497 0.730624 0.769831
O O7 0.535902 0.631186 0.651672
O O8 0.250000 0.222556 0.804003
O O9 0.083925 0.137599 0.720814
O O10 0.036134 0.147919 0.862939
O O11 0.250000 0.087271 0.614143
O O12 0.060452 0.000000 0.679585
O O13 0.250000 0.905841 0.941217
O O14 0.055852 0.000000 0.894842
O O15 0.000000 0.897607 0.000000
O O16 0.500000 0.388798 0.500000
O O17 0.250000 0.394252 0.441016
O O18 0.436521 0.500000 0.406903
#
# Coordination Sequence:
#
# PCOD8207606 Si02
#       6
#     8   8   8   8   8   8
#     4  10  19  29  40  54  73  98 130 168 207 245
#     4   9  18  30  43  61  84 109 138 172 209 250
#     4   9  17  29  45  63  83 109 140 172 206 247
#     4   9  17  29  43  56  71  96 131 169 207 243
#     4   9  17  29  45  66  91 117 145 177 213 254
#     4   9  17  29  45  65  89 116 145 178 216 258
#
# _framework density 16.099800999999999
#
# number of rings (size 3 to 8) (size 9 to 14) (size 15 to 20)
#    0.000    2.833    0.000    1.500    0.000    4.667 
#    0.000    0.000    0.000    3.000    0.000    0.000 
#    0.000    0.667    0.000    1.500    0.000    2.333 
#
# Total GULP energy -594745.212342 kJ/mol
# GULP energy per Si atom -12390.525257 kJ/mol
# Density = 1.606316 g / cm^3
# Si number density = 16.099801 Si / 1000 Ang^3
#
#
#
# Elastic Constant Matrix: (Units=GPa)
#
#
# Indices 1 2 3 4 5 6 
#
# 1 84.3285 33.6409 39.2154 0.0000 0.0000 0.0000
# 2 33.6409 75.7445 33.3968 0.0000 0.0000 0.0000
# 3 39.2154 33.3968 68.9093 0.0000 0.0000 0.0000
# 4 0.0000 0.0000 0.0000 30.5167 0.0000 0.0000
# 5 0.0000 0.0000 0.0000 0.0000 25.9302 0.0000
# 6 0.0000 0.0000 0.0000 0.0000 0.0000 18.9873
#
#
#
# Elastic Compliance Matrix: (Units=1/GPa)
#
#
# Indices 1 2 3 4 5 6 
#
# 1 0.017119 -0.004207 -0.007703 0.000000 0.000000 0.000000
# 2 -0.004207 0.017824 -0.006244 0.000000 0.000000 0.000000
# 3 -0.007703 -0.006244 0.021922 0.000000 0.000000 0.000000
# 4 0.000000 0.000000 0.000000 0.032769 0.000000 0.000000
# 5 0.000000 0.000000 0.000000 0.000000 0.038565 0.000000
# 6 0.000000 0.000000 0.000000 0.000000 0.000000 0.052667
#
#
# Mechanical properties :
#
#
# Convention : Reuss Voigt Hill
#
# Bulk Modulus (GPa) = 48.64757 49.05427 48.85092
# Shear Modulus (GPa) = 22.31883 23.26879 22.79381
#
# Velocity S-wave (km/s) = 3.72732 3.80581 3.76677
# Velocity P-wave (km/s) = 6.98611 7.06026 7.02328
#
# Compressibility (1/GPa) = 0.02055601
#
# Stress axis : x y z
#
# Youngs Moduli (GPa) = 58.41520 56.10476 45.61613
#
# Poissons Ratio (x) = 0.23601 0.35140
# Poissons Ratio (y) = 0.24573 0.28484
# Poissons Ratio (z) = 0.45000 0.35034
#
# Static dielectric constant tensor:
#      x y z
#    x 3.422740 0.000000 0.000000 
#    y 0.000000 3.030710 0.000000 
#    z 0.000000 0.000000 2.894230 
# 
# 
# High freq. dielectric constant tensor:
#      x y z
#    x 1.623800 0.000000 0.000000 
#    y 0.000000 1.599260 0.000000 
#    z 0.000000 0.000000 1.587550 
# 
# From -- ./inp_files/27810.got.cif
#   From: 2010.03.12/outbox.cif.g09.slc.cpg/sg51_14_cif.got.tgz:27810.got - 2010.04.16 13:43:02.
