data_PCOD8207983
_publ_section_title
;
Structure prediction by ZEFSAII (Michael W. Deem and Ramdas Pophale) SiO2 
 PCOD8207983
Probable space group: P M M A
;
_chemical_formula_sum "Si O2"
_cell_formula_units_Z 64
_cell_length_a 9.165977
_cell_length_b 19.312814
_cell_length_c 20.701820
_cell_angle_alpha 90.000000
_cell_angle_beta 90.000000
_cell_angle_gamma 90.000000
_cell_volume 3664.652923
_symmetry_space_group_name_H-M "P M M A"
_symmetry_group_IT_number 51
_symmetry_cell_setting 'orthorhombic'
loop_
_space_group_symop_operation_xyz
x,y,z
1/2-x,-y,z
1/2+x,-y,-z
-x,y,-z
-x,-y,-z
1/2+x,y,-z
1/2-x,y,z
x,-y,z
loop_
_atom_site_type_symbol
_atom_site_label
_atom_site_fract_x
_atom_site_fract_y
_atom_site_fract_z
Si Si1 0.415867 0.161697 0.936857
Si Si2 0.576921 0.825422 0.317053
Si Si3 0.585208 0.163807 0.811998
Si Si4 0.087245 0.673067 0.938320
Si Si5 0.920667 0.578734 0.563984
Si Si6 0.410784 0.328288 0.182183
Si Si7 0.078034 0.318020 0.323905
Si Si8 0.579965 0.920940 0.436393
O O1 0.250000 0.133668 0.937172
O O2 0.499533 0.132800 0.873725
O O3 0.415597 0.244391 0.936862
O O4 0.500000 0.133739 0.000000
O O5 0.750000 0.820663 0.305797
O O6 0.502269 0.856139 0.252705
O O7 0.515328 0.750522 0.335966
O O8 0.533384 0.876479 0.374721
O O9 0.750000 0.133508 0.809541
O O10 0.591842 0.245751 0.818635
O O11 0.250000 0.644205 0.943567
O O12 0.019110 0.642655 0.872259
O O13 0.000000 0.644705 0.000000
O O14 0.750000 0.584628 0.551483
O O15 0.967442 0.500000 0.579531
O O16 0.969961 0.625913 0.623529
O O17 0.000000 0.606278 0.500000
O O18 0.250000 0.357125 0.166040
O O19 0.459915 0.351456 0.253941
O O20 0.250000 0.299324 0.326968
O O21 0.500000 0.891912 0.500000
O O22 0.750000 0.914184 0.449980
O O23 0.533416 0.000000 0.422708
#
# Coordination Sequence:
#
# PCOD8207983 Si02
#       8
#     8   8   8   8   8   8   8   8
#     4   9  15  22  33  51  77 111 150 187 223 265
#     4  10  19  30  46  68  92 118 149 186 227 271
#     4   9  16  26  39  56  82 115 148 183 224 268
#     4   9  15  21  31  48  72 104 140 175 210 252
#     4   9  18  33  51  69  90 118 151 185 222 265
#     4   8  14  24  36  51  75 107 140 174 213 255
#     4   9  18  31  46  65  91 121 150 183 224 269
#     4   9  19  35  52  69  90 117 149 185 225 269
#
# _framework density 17.464137999999998
#
# number of rings (size 3 to 8) (size 9 to 14) (size 15 to 20)
#    0.000    3.000    0.000    2.250    0.000    8.000 
#    0.000    2.500    0.000    0.000    0.000    0.000 
#    0.000    1.000    0.000    2.250    0.000    5.750 
#
# Total GULP energy -793428.235410 kJ/mol
# GULP energy per Si atom -12397.316178 kJ/mol
# Density = 1.742439 g / cm^3
# Si number density = 17.464138 Si / 1000 Ang^3
#
#
#
# Elastic Constant Matrix: (Units=GPa)
#
#
# Indices 1 2 3 4 5 6 
#
# 1 116.6298 29.4111 90.5229 0.0000 0.0000 0.0000
# 2 29.4111 30.5297 48.1549 0.0000 0.0000 0.0000
# 3 90.5229 48.1549 192.7905 0.0000 0.0000 0.0000
# 4 0.0000 0.0000 0.0000 0.7343 0.0000 0.0000
# 5 0.0000 0.0000 0.0000 0.0000 38.1366 0.0000
# 6 0.0000 0.0000 0.0000 0.0000 0.0000 11.5876
#
#
#
# Elastic Compliance Matrix: (Units=1/GPa)
#
#
# Indices 1 2 3 4 5 6 
#
# 1 0.013961 -0.005132 -0.005274 0.000000 0.000000 0.000000
# 2 -0.005132 0.055935 -0.011562 0.000000 0.000000 0.000000
# 3 -0.005274 -0.011562 0.010551 0.000000 0.000000 0.000000
# 4 0.000000 0.000000 0.000000 1.361878 0.000000 0.000000
# 5 0.000000 0.000000 0.000000 0.000000 0.026222 0.000000
# 6 0.000000 0.000000 0.000000 0.000000 0.000000 0.086299
#
#
# Mechanical properties :
#
#
# Convention : Reuss Voigt Hill
#
# Bulk Modulus (GPa) = 27.38720 75.12532 51.25626
# Shear Modulus (GPa) = 3.10375 21.54909 12.32642
#
# Velocity S-wave (km/s) = 1.33457 3.51651 2.65960
# Velocity P-wave (km/s) = 4.25333 7.71998 6.23253
#
# Compressibility (1/GPa) = 0.03651341
#
# Stress axis : x y z
#
# Youngs Moduli (GPa) = 71.62610 17.87776 94.77692
#
# Poissons Ratio (x) = 0.09174 0.49982
# Poissons Ratio (y) = 0.36756 1.09580
# Poissons Ratio (z) = 0.37773 0.20670
#
# Static dielectric constant tensor:
#      x y z
#    x 3.385990 0.000000 0.000000 
#    y 0.000000 2.690500 0.000000 
#    z 0.000000 0.000000 3.567100 
# 
# 
# High freq. dielectric constant tensor:
#      x y z
#    x 1.683690 0.000000 0.000000 
#    y 0.000000 1.603410 0.000000 
#    z 0.000000 0.000000 1.693430 
# 
# From -- ./inp_files/32614.got.cif
#   From: 2010.03.12/outbox.cif.g09.slc.cpg/sg51_17_cif.got.tgz:32614.got - 2010.04.16 13:43:02.
