data_PCOD8207346
_publ_section_title
;
Structure prediction by ZEFSAII (Michael W. Deem and Ramdas Pophale) SiO2 
 PCOD8207346
Probable space group: P M M A
;
_chemical_formula_sum "Si O2"
_cell_formula_units_Z 56
_cell_length_a 19.607299
_cell_length_b 8.644202
_cell_length_c 16.347860
_cell_angle_alpha 90.000000
_cell_angle_beta 90.000000
_cell_angle_gamma 90.000000
_cell_volume 2770.789853
_symmetry_space_group_name_H-M "P M M A"
_symmetry_group_IT_number 51
_symmetry_cell_setting 'orthorhombic'
loop_
_space_group_symop_operation_xyz
x,y,z
1/2-x,-y,z
1/2+x,-y,-z
-x,y,-z
-x,-y,-z
1/2+x,y,-z
1/2-x,y,z
x,-y,z
loop_
_atom_site_type_symbol
_atom_site_label
_atom_site_fract_x
_atom_site_fract_y
_atom_site_fract_z
Si Si1 0.575827 0.178325 0.497617
Si Si2 0.431121 0.179135 0.321776
Si Si3 0.824133 0.183352 0.988414
Si Si4 0.328278 0.815974 0.646195
Si Si5 0.174200 0.816007 0.192599
Si Si6 0.558553 0.318501 0.249808
Si Si7 0.545108 0.817145 0.076669
O O1 0.500000 0.255128 0.500000
O O2 0.604423 0.197797 0.589614
O O3 0.630250 0.250518 0.433363
O O4 0.566933 0.000000 0.471893
O O5 0.379119 0.254660 0.256766
O O6 0.503244 0.268165 0.317882
O O7 0.446574 0.000000 0.302745
O O8 0.750000 0.252132 0.011773
O O9 0.846936 0.240394 0.898222
O O10 0.820027 0.000000 0.984322
O O11 0.877707 0.234822 0.056436
O O12 0.250000 0.753031 0.645547
O O13 0.368380 0.757600 0.727177
O O14 0.326424 0.000000 0.646726
O O15 0.250000 0.755153 0.213199
O O16 0.172794 0.000000 0.199045
O O17 0.568248 0.500000 0.248817
O O18 0.528307 0.262486 0.162516
O O19 0.535281 0.000000 0.087320
O O20 0.500000 0.758395 0.000000
#
# Coordination Sequence:
#
# PCOD8207346 Si02
#       7
#     8   8   8   8   8   8   8
#     4   9  16  30  55  84 111 138 176 232 285 329
#     4  10  18  32  57  82 111 147 186 226 276 341
#     4   8  14  26  45  71 102 131 163 209 265 323
#     4  10  21  39  62  86 113 149 194 240 289 346
#     4   8  14  25  46  80 113 136 166 217 275 326
#     4  12  25  38  54  79 114 152 190 235 286 339
#     4  10  20  35  57  82 106 138 187 236 282 336
#
# _framework density 20.210844000000002
#
# number of rings (size 3 to 8) (size 9 to 14) (size 15 to 20)
#    0.000    2.429    1.429    3.000    0.000    4.000 
#    0.000    5.714    0.000    0.429    0.000    2.000 
#    0.000    0.000    0.000    0.000    0.000    0.000 
#
# Total GULP energy -694002.624617 kJ/mol
# GULP energy per Si atom -12392.904011 kJ/mol
# Density = 2.016484 g / cm^3
# Si number density = 20.210844 Si / 1000 Ang^3
#
#
#
# Elastic Constant Matrix: (Units=GPa)
#
#
# Indices 1 2 3 4 5 6 
#
# 1 98.4848 19.8234 40.0844 0.0000 0.0000 0.0000
# 2 19.8234 31.8376 17.8261 0.0000 0.0000 0.0000
# 3 40.0844 17.8261 93.8191 0.0000 0.0000 0.0000
# 4 0.0000 0.0000 0.0000 6.3993 0.0000 0.0000
# 5 0.0000 0.0000 0.0000 0.0000 38.0028 0.0000
# 6 0.0000 0.0000 0.0000 0.0000 0.0000 7.2012
#
#
#
# Elastic Compliance Matrix: (Units=1/GPa)
#
#
# Indices 1 2 3 4 5 6 
#
# 1 0.013137 -0.005637 -0.004542 0.000000 0.000000 0.000000
# 2 -0.005637 0.037567 -0.004730 0.000000 0.000000 0.000000
# 3 -0.004542 -0.004730 0.013498 0.000000 0.000000 0.000000
# 4 0.000000 0.000000 0.000000 0.156267 0.000000 0.000000
# 5 0.000000 0.000000 0.000000 0.000000 0.026314 0.000000
# 6 0.000000 0.000000 0.000000 0.000000 0.000000 0.138865
#
#
# Mechanical properties :
#
#
# Convention : Reuss Voigt Hill
#
# Bulk Modulus (GPa) = 29.08173 42.17883 35.63028
# Shear Modulus (GPa) = 11.71161 20.08117 15.89639
#
# Velocity S-wave (km/s) = 2.40983 3.15554 2.80755
# Velocity P-wave (km/s) = 4.70781 5.84733 5.30824
#
# Compressibility (1/GPa) = 0.03438585
#
# Stress axis : x y z
#
# Youngs Moduli (GPa) = 76.12104 26.61896 74.08520
#
# Poissons Ratio (x) = 0.15004 0.33648
# Poissons Ratio (y) = 0.42907 0.35040
# Poissons Ratio (z) = 0.34573 0.12590
#
# Static dielectric constant tensor:
#      x y z
#    x 4.203770 0.000000 0.000000 
#    y 0.000000 2.969830 0.000000 
#    z 0.000000 0.000000 3.817440 
# 
# 
# High freq. dielectric constant tensor:
#      x y z
#    x 1.796320 0.000000 0.000000 
#    y 0.000000 1.716280 0.000000 
#    z 0.000000 0.000000 1.798180 
# 
# From -- ./inp_files/25737.got.cif
#   From: 2010.03.12/outbox.cif.g09.slc.cpg/sg51_13_cif.got.tgz:25737.got - 2010.04.16 13:43:02.
