data_PCOD8207927
_publ_section_title
;
Structure prediction by ZEFSAII (Michael W. Deem and Ramdas Pophale) SiO2 
 PCOD8207927
Probable space group: P M M A
;
_chemical_formula_sum "Si O2"
_cell_formula_units_Z 64
_cell_length_a 26.573078
_cell_length_b 9.527901
_cell_length_c 14.153127
_cell_angle_alpha 90.000000
_cell_angle_beta 90.000000
_cell_angle_gamma 90.000000
_cell_volume 3583.368750
_symmetry_space_group_name_H-M "P M M A"
_symmetry_group_IT_number 51
_symmetry_cell_setting 'orthorhombic'
loop_
_space_group_symop_operation_xyz
x,y,z
1/2-x,-y,z
1/2+x,-y,-z
-x,y,-z
-x,-y,-z
1/2+x,y,-z
1/2-x,y,z
x,-y,z
loop_
_atom_site_type_symbol
_atom_site_label
_atom_site_fract_x
_atom_site_fract_y
_atom_site_fract_z
Si Si1 0.431434 0.844830 0.657292
Si Si2 0.360651 0.841082 0.210454
Si Si3 0.585220 0.163585 0.132861
Si Si4 0.610432 0.660897 0.967110
Si Si5 0.493594 0.650492 0.124087
Si Si6 0.601430 0.341001 0.514561
Si Si7 0.692778 0.338443 0.640045
Si Si8 0.957868 0.243936 0.690706
O O1 0.403372 0.809960 0.756472
O O2 0.410580 0.743008 0.578989
O O3 0.491819 0.842433 0.667951
O O4 0.416711 0.000000 0.624527
O O5 0.363718 0.750591 0.114988
O O6 0.318487 0.763584 0.272631
O O7 0.413226 0.852942 0.267635
O O8 0.343432 0.000000 0.186881
O O9 0.528015 0.212987 0.115280
O O10 0.590039 0.000000 0.105472
O O11 0.621548 0.259100 0.066725
O O12 0.630873 0.500000 0.968404
O O13 0.549911 0.662353 0.954589
O O14 0.522195 0.500000 0.110932
O O15 0.468845 0.641370 0.228473
O O16 0.599970 0.500000 0.481611
O O17 0.656669 0.298771 0.552561
O O18 0.559709 0.318706 0.595065
O O19 0.750000 0.316742 0.606817
O O20 0.682447 0.500000 0.671027
#
# Coordination Sequence:
#
# PCOD8207927 Si02
#       8
#     8   8   8   8   8   8   8   8
#     4  10  21  33  44  63  95 134 171 206 245 286
#     4  10  19  31  50  76 102 127 159 197 237 287
#     4  10  20  31  42  59  87 125 167 207 244 280
#     4  10  19  30  45  65  91 124 160 197 239 284
#     4   9  17  28  42  61  87 121 162 204 242 283
#     4  10  20  32  49  72  94 123 164 204 244 289
#     4   9  19  37  57  76 101 128 153 189 239 293
#     4   9  18  30  46  66  96 133 168 200 239 287
#
# _framework density 17.860289000000002
#
# number of rings (size 3 to 8) (size 9 to 14) (size 15 to 20)
#    0.000    2.375    0.000    2.625    0.000   14.750 
#    0.000    0.000    0.000    0.000    0.000    0.875 
#    0.000    3.000    0.000    0.000    0.000    0.000 
#
# Total GULP energy -793188.215062 kJ/mol
# GULP energy per Si atom -12393.565860 kJ/mol
# Density = 1.781964 g / cm^3
# Si number density = 17.860289 Si / 1000 Ang^3
#
#
#
# Elastic Constant Matrix: (Units=GPa)
#
#
# Indices 1 2 3 4 5 6 
#
# 1 43.2798 25.7603 31.4493 0.0000 0.0000 0.0000
# 2 25.7603 120.1560 70.1679 0.0000 0.0000 0.0000
# 3 31.4493 70.1679 130.1809 0.0000 0.0000 0.0000
# 4 0.0000 0.0000 0.0000 28.0310 0.0000 0.0000
# 5 0.0000 0.0000 0.0000 0.0000 10.3285 0.0000
# 6 0.0000 0.0000 0.0000 0.0000 0.0000 14.3055
#
#
#
# Elastic Compliance Matrix: (Units=1/GPa)
#
#
# Indices 1 2 3 4 5 6 
#
# 1 0.028785 -0.003080 -0.005294 0.000000 0.000000 0.000000
# 2 -0.003080 0.012475 -0.005980 0.000000 0.000000 0.000000
# 3 -0.005294 -0.005980 0.012184 0.000000 0.000000 0.000000
# 4 0.000000 0.000000 0.000000 0.035675 0.000000 0.000000
# 5 0.000000 0.000000 0.000000 0.000000 0.096819 0.000000
# 6 0.000000 0.000000 0.000000 0.000000 0.000000 0.069903
#
#
# Mechanical properties :
#
#
# Convention : Reuss Voigt Hill
#
# Bulk Modulus (GPa) = 40.42595 60.93022 50.67809
# Shear Modulus (GPa) = 17.07679 21.61560 19.34620
#
# Velocity S-wave (km/s) = 3.09549 3.48265 3.29477
# Velocity P-wave (km/s) = 5.95481 7.09654 6.55060
#
# Compressibility (1/GPa) = 0.02473658
#
# Stress axis : x y z
#
# Youngs Moduli (GPa) = 34.73974 80.16057 82.07607
#
# Poissons Ratio (x) = 0.24688 0.43451
# Poissons Ratio (y) = 0.10699 0.49082
# Poissons Ratio (z) = 0.18391 0.47936
#
# Static dielectric constant tensor:
#      x y z
#    x 2.891940 0.000000 0.000000 
#    y 0.000000 3.339760 0.000000 
#    z 0.000000 0.000000 3.440000 
# 
# 
# High freq. dielectric constant tensor:
#      x y z
#    x 1.630320 0.000000 0.000000 
#    y 0.000000 1.701400 0.000000 
#    z 0.000000 0.000000 1.700870 
# 
# From -- ./inp_files/26663.got.cif
#   From: 2010.03.12/outbox.cif.g09.slc.cpg/sg51_14_cif.got.tgz:26663.got - 2010.04.16 13:43:02.
