data_PCOD8207514
_publ_section_title
;
Structure prediction by ZEFSAII (Michael W. Deem and Ramdas Pophale) SiO2 
 PCOD8207514
Probable space group: P M M A
;
_chemical_formula_sum "Si O2"
_cell_formula_units_Z 48
_cell_length_a 14.440790
_cell_length_b 9.026470
_cell_length_c 19.917348
_cell_angle_alpha 90.000000
_cell_angle_beta 90.000000
_cell_angle_gamma 90.000000
_cell_volume 2596.213519
_symmetry_space_group_name_H-M "P M M A"
_symmetry_group_IT_number 51
_symmetry_cell_setting 'orthorhombic'
loop_
_space_group_symop_operation_xyz
x,y,z
1/2-x,-y,z
1/2+x,-y,-z
-x,y,-z
-x,-y,-z
1/2+x,y,-z
1/2-x,y,z
x,-y,z
loop_
_atom_site_type_symbol
_atom_site_label
_atom_site_fract_x
_atom_site_fract_y
_atom_site_fract_z
Si Si1 0.443903 0.675348 0.684976
Si Si2 0.566948 0.673651 0.562262
Si Si3 0.750000 0.176251 0.517406
Si Si4 0.250000 0.324226 0.626830
Si Si5 0.354501 0.671991 0.074553
Si Si6 0.480111 0.326258 0.833020
Si Si7 0.640878 0.830799 0.059275
O O1 0.447088 0.500000 0.684936
O O2 0.515337 0.732612 0.628924
O O3 0.339707 0.727609 0.668483
O O4 0.473889 0.738046 0.757576
O O5 0.500000 0.705824 0.500000
O O6 0.591938 0.500000 0.565964
O O7 0.660072 0.767716 0.556970
O O8 0.750000 0.242786 0.443552
O O9 0.750000 0.000000 0.514080
O O10 0.250000 0.500000 0.612752
O O11 0.250000 0.720775 0.092836
O O12 0.359340 0.500000 0.055732
O O13 0.417817 0.709864 0.138574
O O14 0.393724 0.759446 0.010394
O O15 0.459358 0.500000 0.833889
O O16 0.402270 0.250147 0.877385
O O17 0.750000 0.811595 0.065599
O O18 0.609133 0.000000 0.059360
#
# Coordination Sequence:
#
# PCOD8207514 Si02
#       7
#     8   8   4   4   8   8   8
#     4   9  19  34  57  86 111 139 180 226 270 321
#     4  10  19  37  62  84 108 143 190 232 266 319
#     4  12  24  36  56  86 116 145 180 227 282 329
#     4  10  18  36  60  82 110 145 184 221 266 327
#     4   9  18  34  54  76 105 139 177 223 270 315
#     4  10  20  34  54  82 110 138 174 220 276 325
#     4  10  21  35  52  77 107 141 182 221 261 317
#
# _framework density 18.488464
#
# number of rings (size 3 to 8) (size 9 to 14) (size 15 to 20)
#    0.000    2.167    1.667    1.750    1.167    4.000 
#    1.500    1.667    0.000    0.000    0.000    0.000 
#    0.000    0.000    0.000    0.000    0.000    0.000 
#
# Total GULP energy -595283.830428 kJ/mol
# GULP energy per Si atom -12401.746467 kJ/mol
# Density = 1.844638 g / cm^3
# Si number density = 18.488464 Si / 1000 Ang^3
#
#
#
# Elastic Constant Matrix: (Units=GPa)
#
#
# Indices 1 2 3 4 5 6 
#
# 1 116.8915 45.0065 84.8707 0.0000 0.0000 0.0000
# 2 45.0065 56.1876 46.3957 0.0000 0.0000 0.0000
# 3 84.8707 46.3957 182.5736 0.0000 0.0000 0.0000
# 4 0.0000 0.0000 0.0000 3.5957 0.0000 0.0000
# 5 0.0000 0.0000 0.0000 0.0000 27.8214 0.0000
# 6 0.0000 0.0000 0.0000 0.0000 0.0000 16.1365
#
#
#
# Elastic Compliance Matrix: (Units=1/GPa)
#
#
# Indices 1 2 3 4 5 6 
#
# 1 0.015369 -0.008114 -0.005083 0.000000 0.000000 0.000000
# 2 -0.008114 0.026808 -0.003040 0.000000 0.000000 0.000000
# 3 -0.005083 -0.003040 0.008613 0.000000 0.000000 0.000000
# 4 0.000000 0.000000 0.000000 0.278109 0.000000 0.000000
# 5 0.000000 0.000000 0.000000 0.000000 0.035944 0.000000
# 6 0.000000 0.000000 0.000000 0.000000 0.000000 0.061971
#
#
# Mechanical properties :
#
#
# Convention : Reuss Voigt Hill
#
# Bulk Modulus (GPa) = 54.59952 78.68872 66.64412
# Shear Modulus (GPa) = 10.74363 21.46939 16.10651
#
# Velocity S-wave (km/s) = 2.41321 3.41138 2.95475
# Velocity P-wave (km/s) = 6.11233 7.62693 6.91125
#
# Compressibility (1/GPa) = 0.01831518
#
# Stress axis : x y z
#
# Youngs Moduli (GPa) = 65.06441 37.30299 116.10929
#
# Poissons Ratio (x) = 0.30268 0.59014
# Poissons Ratio (y) = 0.52794 0.35302
# Poissons Ratio (z) = 0.33070 0.11342
#
# Static dielectric constant tensor:
#      x y z
#    x 3.680460 0.000000 0.000000 
#    y 0.000000 3.186670 0.000000 
#    z 0.000000 0.000000 3.620630 
# 
# 
# High freq. dielectric constant tensor:
#      x y z
#    x 1.729420 0.000000 0.000000 
#    y 0.000000 1.690610 0.000000 
#    z 0.000000 0.000000 1.717290 
# 
# From -- ./inp_files/29604.got.cif
#   From: 2010.03.12/outbox.cif.g09.slc.cpg/sg51_15_cif.got.tgz:29604.got - 2010.04.16 13:43:02.
