data_PCOD8207187
_publ_section_title
;
Structure prediction by ZEFSAII (Michael W. Deem and Ramdas Pophale) SiO2 
 PCOD8207187
Probable space group: P M M A
;
_chemical_formula_sum "Si O2"
_cell_formula_units_Z 36
_cell_length_a 14.454601
_cell_length_b 9.523891
_cell_length_c 14.707491
_cell_angle_alpha 90.000000
_cell_angle_beta 90.000000
_cell_angle_gamma 90.000000
_cell_volume 2024.692694
_symmetry_space_group_name_H-M "P M M A"
_symmetry_group_IT_number 51
_symmetry_cell_setting 'orthorhombic'
loop_
_space_group_symop_operation_xyz
x,y,z
1/2-x,-y,z
1/2+x,-y,-z
-x,y,-z
-x,-y,-z
1/2+x,y,-z
1/2-x,y,z
x,-y,z
loop_
_atom_site_type_symbol
_atom_site_label
_atom_site_fract_x
_atom_site_fract_y
_atom_site_fract_z
Si Si1 0.250000 0.653972 0.617848
Si Si2 0.941787 0.343153 0.909703
Si Si3 0.955221 0.841752 0.235450
Si Si4 0.052132 0.667431 0.591252
Si Si5 0.250000 0.231305 0.804076
Si Si6 0.750000 0.334791 0.990372
O O1 0.250000 0.500000 0.576967
O O2 0.157233 0.725322 0.579474
O O3 0.250000 0.644555 0.728698
O O4 0.936276 0.500000 0.865064
O O5 0.839694 0.284897 0.934300
O O6 0.992030 0.231389 0.846910
O O7 0.000000 0.356527 0.000000
O O8 0.987468 0.752191 0.323223
O O9 0.844889 0.852597 0.216276
O O10 0.992061 0.000000 0.246973
O O11 0.047571 0.500000 0.610966
O O12 0.000000 0.709543 0.500000
O O13 0.250000 0.277328 0.907665
O O14 0.750000 0.500000 0.001813
#
# Coordination Sequence:
#
# PCOD8207187 Si02
#       6
#     4   8   8   8   4   4
#     4   8  15  27  50  79 103 124 161 216 269 312
#     4  10  20  35  55  78 104 138 179 220 261 309
#     4  11  22  35  52  78 111 144 176 215 267 320
#     4   9  18  34  56  79 102 132 173 220 266 312
#     4  10  18  32  50  78 105 138 174 220 264 313
#     4  10  19  33  54  79 105 138 180 224 266 307
#
# _framework density 17.780476
#
# number of rings (size 3 to 8) (size 9 to 14) (size 15 to 20)
#    0.000    2.222    2.222    1.333    0.000    2.667 
#    0.000    1.667    0.000    4.000    0.000    0.000 
#    0.000    0.000    0.000    0.000    0.000    0.000 
#
# Total GULP energy -445985.267527 kJ/mol
# GULP energy per Si atom -12388.479654 kJ/mol
# Density = 1.774001 g / cm^3
# Si number density = 17.780476 Si / 1000 Ang^3
#
#
#
# Elastic Constant Matrix: (Units=GPa)
#
#
# Indices 1 2 3 4 5 6 
#
# 1 104.2181 38.0613 52.5805 0.0000 0.0000 0.0000
# 2 38.0613 83.0745 55.1441 0.0000 0.0000 0.0000
# 3 52.5805 55.1441 110.8791 0.0000 0.0000 0.0000
# 4 0.0000 0.0000 0.0000 9.3100 0.0000 0.0000
# 5 0.0000 0.0000 0.0000 0.0000 31.4233 0.0000
# 6 0.0000 0.0000 0.0000 0.0000 0.0000 14.2271
#
#
#
# Elastic Compliance Matrix: (Units=1/GPa)
#
#
# Indices 1 2 3 4 5 6 
#
# 1 0.013032 -0.002789 -0.004793 0.000000 0.000000 0.000000
# 2 -0.002789 0.018567 -0.007911 0.000000 0.000000 0.000000
# 3 -0.004793 -0.007911 0.015226 0.000000 0.000000 0.000000
# 4 0.000000 0.000000 0.000000 0.107411 0.000000 0.000000
# 5 0.000000 0.000000 0.000000 0.000000 0.031823 0.000000
# 6 0.000000 0.000000 0.000000 0.000000 0.000000 0.070288
#
#
# Mechanical properties :
#
#
# Convention : Reuss Voigt Hill
#
# Bulk Modulus (GPa) = 63.13775 65.52707 64.33241
# Shear Modulus (GPa) = 17.08738 21.15114 19.11926
#
# Velocity S-wave (km/s) = 3.10339 3.45276 3.28273
# Velocity P-wave (km/s) = 6.95903 7.26834 7.11537
#
# Compressibility (1/GPa) = 0.01583838
#
# Stress axis : x y z
#
# Youngs Moduli (GPa) = 76.73417 53.85987 65.67674
#
# Poissons Ratio (x) = 0.15023 0.31477
# Poissons Ratio (y) = 0.21404 0.51958
# Poissons Ratio (z) = 0.36777 0.42609
#
# Static dielectric constant tensor:
#      x y z
#    x 3.604450 0.000000 0.000000 
#    y 0.000000 3.077570 0.000000 
#    z 0.000000 0.000000 3.147040 
# 
# 
# High freq. dielectric constant tensor:
#      x y z
#    x 1.692350 0.000000 0.000000 
#    y 0.000000 1.666380 0.000000 
#    z 0.000000 0.000000 1.674980 
# 
# From -- ./inp_files/23644.got.cif
#   From: 2010.03.12/outbox.cif.g09.slc.cpg/sg51_12_cif.got.tgz:23644.got - 2010.04.16 13:43:02.
