data_PCOD8207597
_publ_section_title
;
Structure prediction by ZEFSAII (Michael W. Deem and Ramdas Pophale) SiO2 
 PCOD8207597
Probable space group: P M M A
;
_chemical_formula_sum "Si O2"
_cell_formula_units_Z 48
_cell_length_a 17.973106
_cell_length_b 14.935126
_cell_length_c 9.814817
_cell_angle_alpha 90.000000
_cell_angle_beta 90.000000
_cell_angle_gamma 90.000000
_cell_volume 2634.597243
_symmetry_space_group_name_H-M "P M M A"
_symmetry_group_IT_number 51
_symmetry_cell_setting 'orthorhombic'
loop_
_space_group_symop_operation_xyz
x,y,z
1/2-x,-y,z
1/2+x,-y,-z
-x,y,-z
-x,-y,-z
1/2+x,y,-z
1/2-x,y,z
x,-y,z
loop_
_atom_site_type_symbol
_atom_site_label
_atom_site_fract_x
_atom_site_fract_y
_atom_site_fract_z
Si Si1 0.167828 0.725127 0.566217
Si Si2 0.662195 0.739976 0.753722
Si Si3 0.097106 0.098608 0.616948
Si Si4 0.937508 0.901051 0.699966
Si Si5 0.455304 0.599602 0.624601
Si Si6 0.556444 0.601160 0.884678
O O1 0.250000 0.692483 0.597273
O O2 0.151346 0.715422 0.404908
O O3 0.159223 0.824759 0.629157
O O4 0.116078 0.659816 0.653275
O O5 0.750000 0.752972 0.787659
O O6 0.615768 0.831572 0.779749
O O7 0.627977 0.664405 0.855066
O O8 0.077655 0.095878 0.459105
O O9 0.025324 0.124273 0.710348
O O10 0.127397 0.000000 0.660734
O O11 0.923165 0.000000 0.762989
O O12 0.500000 0.644219 0.500000
O O13 0.428355 0.500000 0.584686
O O14 0.508638 0.597794 0.750555
O O15 0.584071 0.500000 0.922615
O O16 0.500000 0.638710 0.000000
#
# Coordination Sequence:
#
# PCOD8207597 Si02
#       6
#     8   8   8   8   8   8
#     4  10  19  28  45  75 106 134 165 210 260 303
#     4  10  19  30  48  75 104 132 164 209 261 305
#     4   8  14  24  40  64  99 140 171 198 240 294
#     4   8  14  25  43  68  97 132 170 204 241 291
#     4  10  19  33  53  73  97 130 165 205 252 304
#     4  10  21  37  55  74  96 130 174 212 250 303
#
# _framework density 18.219103
#
# number of rings (size 3 to 8) (size 9 to 14) (size 15 to 20)
#    0.000    2.667    1.667    2.000    2.333    1.333 
#    0.000    5.833    0.000    3.500    0.000    0.000 
#    0.000    2.667    0.000    0.000    0.000    0.000 
#
# Total GULP energy -594676.019107 kJ/mol
# GULP energy per Si atom -12389.083731 kJ/mol
# Density = 1.817764 g / cm^3
# Si number density = 18.219103 Si / 1000 Ang^3
#
#
#
# Elastic Constant Matrix: (Units=GPa)
#
#
# Indices 1 2 3 4 5 6 
#
# 1 92.6159 53.2392 19.3627 0.0000 0.0000 0.0000
# 2 53.2392 95.0284 15.3755 0.0000 0.0000 0.0000
# 3 19.3627 15.3755 31.7455 0.0000 0.0000 0.0000
# 4 0.0000 0.0000 0.0000 15.0991 0.0000 0.0000
# 5 0.0000 0.0000 0.0000 0.0000 19.2471 0.0000
# 6 0.0000 0.0000 0.0000 0.0000 0.0000 14.0349
#
#
#
# Elastic Compliance Matrix: (Units=1/GPa)
#
#
# Indices 1 2 3 4 5 6 
#
# 1 0.016995 -0.008511 -0.006244 0.000000 0.000000 0.000000
# 2 -0.008511 0.015680 -0.002403 0.000000 0.000000 0.000000
# 3 -0.006244 -0.002403 0.036473 0.000000 0.000000 0.000000
# 4 0.000000 0.000000 0.000000 0.066229 0.000000 0.000000
# 5 0.000000 0.000000 0.000000 0.000000 0.051956 0.000000
# 6 0.000000 0.000000 0.000000 0.000000 0.000000 0.071251
#
#
# Mechanical properties :
#
#
# Convention : Reuss Voigt Hill
#
# Bulk Modulus (GPa) = 28.70926 43.92717 36.31822
# Shear Modulus (GPa) = 16.41976 18.43706 17.42841
#
# Velocity S-wave (km/s) = 3.00532 3.18459 3.09625
# Velocity P-wave (km/s) = 5.27585 6.13881 5.72362
#
# Compressibility (1/GPa) = 0.03483196
#
# Stress axis : x y z
#
# Youngs Moduli (GPa) = 58.84017 63.77388 27.41775
#
# Poissons Ratio (x) = 0.54280 0.17119
# Poissons Ratio (y) = 0.50080 0.06589
# Poissons Ratio (z) = 0.36738 0.15327
#
# Static dielectric constant tensor:
#      x y z
#    x 3.309330 0.000000 0.000000 
#    y 0.000000 3.913030 0.000000 
#    z 0.000000 0.000000 2.781620 
# 
# 
# High freq. dielectric constant tensor:
#      x y z
#    x 1.696520 0.000000 0.000000 
#    y 0.000000 1.717530 0.000000 
#    z 0.000000 0.000000 1.644690 
# 
# From -- ./inp_files/9590.got.cif
#   From: 2010.03.12/outbox.cif.g09.slc.cpg/sg51_5_cif.got.tgz:9590.got - 2010.04.16 13:43:02.
