data_PCOD8207521
_publ_section_title
;
Structure prediction by ZEFSAII (Michael W. Deem and Ramdas Pophale) SiO2 
 PCOD8207521
Probable space group: P M M A
;
_chemical_formula_sum "Si O2"
_cell_formula_units_Z 48
_cell_length_a 14.672533
_cell_length_b 8.531930
_cell_length_c 19.544154
_cell_angle_alpha 90.000000
_cell_angle_beta 90.000000
_cell_angle_gamma 90.000000
_cell_volume 2446.635397
_symmetry_space_group_name_H-M "P M M A"
_symmetry_group_IT_number 51
_symmetry_cell_setting 'orthorhombic'
loop_
_space_group_symop_operation_xyz
x,y,z
1/2-x,-y,z
1/2+x,-y,-z
-x,y,-z
-x,-y,-z
1/2+x,y,-z
1/2-x,y,z
x,-y,z
loop_
_atom_site_type_symbol
_atom_site_label
_atom_site_fract_x
_atom_site_fract_y
_atom_site_fract_z
Si Si1 0.069615 0.683225 0.185977
Si Si2 0.145472 0.818537 0.449324
Si Si3 0.645189 0.318070 0.406975
Si Si4 0.943409 0.686252 0.064207
Si Si5 0.750000 0.818027 0.872201
Si Si6 0.750000 0.314982 0.022256
Si Si7 0.014384 0.817646 0.327782
O O1 0.088959 0.500000 0.175465
O O2 0.162147 0.776857 0.172903
O O3 0.034216 0.715003 0.261590
O O4 0.991325 0.742862 0.133793
O O5 0.250000 0.785822 0.429622
O O6 0.115405 0.720657 0.515590
O O7 0.085084 0.762471 0.385847
O O8 0.128078 0.000000 0.466393
O O9 0.750000 0.270082 0.395887
O O10 0.628362 0.500000 0.392753
O O11 0.587536 0.216975 0.353334
O O12 0.940482 0.500000 0.060435
O O13 0.840258 0.754045 0.059304
O O14 0.000000 0.753392 0.000000
O O15 0.750000 0.000000 0.889956
O O16 0.750000 0.722105 0.942142
O O17 0.750000 0.500000 0.029187
O O18 0.025630 0.000000 0.310221
#
# Coordination Sequence:
#
# PCOD8207521 Si02
#       7
#     8   8   8   8   4   4   8
#     4  11  23  40  60  86 118 156 197 240 289 349
#     4   9  19  36  58  84 115 152 189 232 292 358
#     4  10  21  38  60  85 113 149 198 250 290 338
#     4   9  17  33  60  89 114 145 192 239 285 342
#     4  12  24  38  58  88 120 153 188 235 296 352
#     4  10  18  36  64  88 112 149 194 241 290 348
#     4  11  23  38  58  85 119 158 193 236 296 358
#
# _framework density 19.618780000000001
#
# number of rings (size 3 to 8) (size 9 to 14) (size 15 to 20)
#    0.000    1.833    1.667    2.750    1.167    4.333 
#    1.500    2.500    0.000    0.000    0.000    0.000 
#    0.000    0.000    0.000    0.000    0.000    0.000 
#
# Total GULP energy -595375.746476 kJ/mol
# GULP energy per Si atom -12403.661385 kJ/mol
# Density = 1.957413 g / cm^3
# Si number density = 19.618780 Si / 1000 Ang^3
#
#
#
# Elastic Constant Matrix: (Units=GPa)
#
#
# Indices 1 2 3 4 5 6 
#
# 1 146.4103 20.1715 68.9309 0.0000 0.0000 0.0000
# 2 20.1715 29.1770 6.6772 0.0000 0.0000 0.0000
# 3 68.9309 6.6772 104.1314 0.0000 0.0000 0.0000
# 4 0.0000 0.0000 0.0000 18.8621 0.0000 0.0000
# 5 0.0000 0.0000 0.0000 0.0000 25.6557 0.0000
# 6 0.0000 0.0000 0.0000 0.0000 0.0000 21.3934
#
#
#
# Elastic Compliance Matrix: (Units=1/GPa)
#
#
# Indices 1 2 3 4 5 6 
#
# 1 0.010852 -0.005946 -0.006802 0.000000 0.000000 0.000000
# 2 -0.005946 0.038042 0.001496 0.000000 0.000000 0.000000
# 3 -0.006802 0.001496 0.014010 0.000000 0.000000 0.000000
# 4 0.000000 0.000000 0.000000 0.053016 0.000000 0.000000
# 5 0.000000 0.000000 0.000000 0.000000 0.038978 0.000000
# 6 0.000000 0.000000 0.000000 0.000000 0.000000 0.046743
#
#
# Mechanical properties :
#
#
# Convention : Reuss Voigt Hill
#
# Bulk Modulus (GPa) = 24.75205 52.36420 38.55812
# Shear Modulus (GPa) = 21.04283 25.44486 23.24385
#
# Velocity S-wave (km/s) = 3.27859 3.60525 3.44579
# Velocity P-wave (km/s) = 5.19385 6.63922 5.96051
#
# Compressibility (1/GPa) = 0.04040070
#
# Stress axis : x y z
#
# Youngs Moduli (GPa) = 92.15059 26.28696 71.37715
#
# Poissons Ratio (x) = 0.15629 0.48552
# Poissons Ratio (y) = 0.54790 -0.10681
# Poissons Ratio (z) = 0.62683 -0.03934
#
# Static dielectric constant tensor:
#      x y z
#    x 3.942540 0.000000 0.000000 
#    y 0.000000 3.329030 0.000000 
#    z 0.000000 0.000000 3.474330 
# 
# 
# High freq. dielectric constant tensor:
#      x y z
#    x 1.779840 0.000000 0.000000 
#    y 0.000000 1.746360 0.000000 
#    z 0.000000 0.000000 1.757740 
# 
# From -- ./inp_files/29653.got.cif
#   From: 2010.03.12/outbox.cif.g09.slc.cpg/sg51_15_cif.got.tgz:29653.got - 2010.04.16 13:43:02.
