data_PCOD8207196
_publ_section_title
;
Structure prediction by ZEFSAII (Michael W. Deem and Ramdas Pophale) SiO2 
 PCOD8207196
Probable space group: P M M A
;
_chemical_formula_sum "Si O2"
_cell_formula_units_Z 40
_cell_length_a 20.093470
_cell_length_b 7.828691
_cell_length_c 14.146271
_cell_angle_alpha 90.000000
_cell_angle_beta 90.000000
_cell_angle_gamma 90.000000
_cell_volume 2225.287191
_symmetry_space_group_name_H-M "P M M A"
_symmetry_group_IT_number 51
_symmetry_cell_setting 'orthorhombic'
loop_
_space_group_symop_operation_xyz
x,y,z
1/2-x,-y,z
1/2+x,-y,-z
-x,y,-z
-x,-y,-z
1/2+x,y,-z
1/2-x,y,z
x,-y,z
loop_
_atom_site_type_symbol
_atom_site_label
_atom_site_fract_x
_atom_site_fract_y
_atom_site_fract_z
Si Si1 0.070581 0.698294 0.465163
Si Si2 0.175144 0.805734 0.611219
Si Si3 0.946637 0.693842 0.750174
Si Si4 0.099347 0.311103 0.786471
Si Si5 0.088669 0.000000 0.912023
Si Si6 0.067850 0.000000 0.121217
O O1 0.072665 0.500000 0.491750
O O2 0.131243 0.789780 0.517209
O O3 0.080832 0.730219 0.354151
O O4 0.000000 0.775534 0.500000
O O5 0.250000 0.746204 0.586895
O O6 0.147898 0.692535 0.696951
O O7 0.173468 0.000000 0.646178
O O8 0.929585 0.500000 0.782697
O O9 0.025618 0.723404 0.747272
O O10 0.912485 0.828744 0.821241
O O11 0.104334 0.500000 0.832813
O O12 0.119279 0.170307 0.864523
O O13 0.009907 0.000000 0.900306
O O14 0.108142 0.000000 0.022652
#
# Coordination Sequence:
#
# PCOD8207196 Si02
#       6
#     8   8   8   8   4   4
#     4  10  19  32  51  76 104 140 183 219 258 316
#     4  11  23  35  49  76 111 142 179 221 261 318
#     4   9  18  30  48  77 105 134 178 214 252 316
#     4  10  18  32  52  72 101 139 171 211 264 312
#     4   9  18  32  46  73 101 130 174 208 252 322
#     4   9  18  30  48  70 104 137 162 212 270 297
#
# _framework density 17.975207999999999
#
# number of rings (size 3 to 8) (size 9 to 14) (size 15 to 20)
#    0.000    2.200    3.000    0.600    1.400    2.800 
#    0.000    4.000    0.000    0.000    0.000    2.800 
#    0.000    3.200    0.000    0.000    0.000    0.000 
#
# Total GULP energy -495995.847095 kJ/mol
# GULP energy per Si atom -12399.896177 kJ/mol
# Density = 1.793430 g / cm^3
# Si number density = 17.975208 Si / 1000 Ang^3
#
#
#
# Elastic Constant Matrix: (Units=GPa)
#
#
# Indices 1 2 3 4 5 6 
#
# 1 65.9223 26.8179 39.4717 0.0000 0.0000 0.0000
# 2 26.8179 117.9103 65.5459 0.0000 0.0000 0.0000
# 3 39.4717 65.5459 126.5815 0.0000 0.0000 0.0000
# 4 0.0000 0.0000 0.0000 26.0400 0.0000 0.0000
# 5 0.0000 0.0000 0.0000 0.0000 14.1173 0.0000
# 6 0.0000 0.0000 0.0000 0.0000 0.0000 15.3616
#
#
#
# Elastic Compliance Matrix: (Units=1/GPa)
#
#
# Indices 1 2 3 4 5 6 
#
# 1 0.018822 -0.001430 -0.005129 0.000000 0.000000 0.000000
# 2 -0.001430 0.012018 -0.005777 0.000000 0.000000 0.000000
# 3 -0.005129 -0.005777 0.012491 0.000000 0.000000 0.000000
# 4 0.000000 0.000000 0.000000 0.038402 0.000000 0.000000
# 5 0.000000 0.000000 0.000000 0.000000 0.070835 0.000000
# 6 0.000000 0.000000 0.000000 0.000000 0.000000 0.065097
#
#
# Mechanical properties :
#
#
# Convention : Reuss Voigt Hill
#
# Bulk Modulus (GPa) = 53.59344 63.78724 58.69034
# Shear Modulus (GPa) = 20.11614 23.00902 21.56258
#
# Velocity S-wave (km/s) = 3.34893 3.58165 3.46724
# Velocity P-wave (km/s) = 6.69580 7.25724 6.98217
#
# Compressibility (1/GPa) = 0.01865900
#
# Stress axis : x y z
#
# Youngs Moduli (GPa) = 53.12932 83.21066 80.05871
#
# Poissons Ratio (x) = 0.11898 0.41061
# Poissons Ratio (y) = 0.07597 0.46251
# Poissons Ratio (z) = 0.27249 0.48072
#
# Static dielectric constant tensor:
#      x y z
#    x 2.940960 0.000000 0.000000 
#    y 0.000000 3.467810 0.000000 
#    z 0.000000 0.000000 3.319360 
# 
# 
# High freq. dielectric constant tensor:
#      x y z
#    x 1.643020 0.000000 0.000000 
#    y 0.000000 1.709980 0.000000 
#    z 0.000000 0.000000 1.687560 
# 
# From -- ./inp_files/17918.got.cif
#   From: 2010.03.12/outbox.cif.g09.slc.cpg/sg51_9_cif.got.tgz:17918.got - 2010.04.16 13:43:02.
