data_PCOD8207235
_publ_section_title
;
Structure prediction by ZEFSAII (Michael W. Deem and Ramdas Pophale) SiO2 
 PCOD8207235
Probable space group: P M M A
;
_chemical_formula_sum "Si O2"
_cell_formula_units_Z 56
_cell_length_a 9.092223
_cell_length_b 18.836960
_cell_length_c 18.700880
_cell_angle_alpha 90.000000
_cell_angle_beta 90.000000
_cell_angle_gamma 90.000000
_cell_volume 3202.896743
_symmetry_space_group_name_H-M "P M M A"
_symmetry_group_IT_number 51
_symmetry_cell_setting 'orthorhombic'
loop_
_space_group_symop_operation_xyz
x,y,z
1/2-x,-y,z
1/2+x,-y,-z
-x,y,-z
-x,-y,-z
1/2+x,y,-z
1/2-x,y,z
x,-y,z
loop_
_atom_site_type_symbol
_atom_site_label
_atom_site_fract_x
_atom_site_fract_y
_atom_site_fract_z
Si Si1 0.421721 0.782294 0.927589
Si Si2 0.582100 0.920740 0.151722
Si Si3 0.420303 0.301429 0.789259
Si Si4 0.076236 0.332191 0.428247
Si Si5 0.420232 0.080515 0.298880
Si Si6 0.077480 0.580092 0.289440
Si Si7 0.078589 0.210847 0.649967
O O1 0.250000 0.772743 0.939399
O O2 0.461255 0.864036 0.908922
O O3 0.477100 0.731325 0.863724
O O4 0.500000 0.758947 0.000000
O O5 0.750000 0.906379 0.177990
O O6 0.474835 0.911131 0.218083
O O7 0.566770 0.000000 0.119197
O O8 0.250000 0.320649 0.792921
O O9 0.505444 0.374246 0.773803
O O10 0.451069 0.243526 0.728082
O O11 0.250000 0.324578 0.439090
O O12 0.035489 0.388293 0.366636
O O13 0.000000 0.361143 0.500000
O O14 0.007367 0.255848 0.409485
O O15 0.250000 0.102525 0.301200
O O16 0.513016 0.131489 0.350968
O O17 0.443997 0.000000 0.325723
O O18 0.250000 0.582507 0.277271
O O19 0.016805 0.500000 0.285506
O O20 0.250000 0.209190 0.630154
#
# Coordination Sequence:
#
# PCOD8207235 Si02
#       7
#     8   8   8   8   8   8   8
#     4  10  20  33  47  70  99 132 171 214 258 307
#     4   9  17  31  48  65  93 133 171 210 257 306
#     4   9  18  33  51  73 100 128 167 211 250 298
#     4  10  20  34  52  78 110 141 169 200 239 289
#     4  10  19  29  45  72 101 128 166 216 262 303
#     4   9  19  35  55  80 107 134 165 201 243 291
#     4  10  18  32  53  73  97 133 173 213 254 298
#
# _framework density 17.484172999999998
#
# number of rings (size 3 to 8) (size 9 to 14) (size 15 to 20)
#    0.000    2.429    1.429    1.286    0.000    4.000 
#    0.000    0.000    0.000    0.857    0.000    0.000 
#    0.000    0.000    0.000    0.000    0.000    0.000 
#
# Total GULP energy -694458.815744 kJ/mol
# GULP energy per Si atom -12401.050281 kJ/mol
# Density = 1.744438 g / cm^3
# Si number density = 17.484173 Si / 1000 Ang^3
#
#
#
# Elastic Constant Matrix: (Units=GPa)
#
#
# Indices 1 2 3 4 5 6 
#
# 1 68.3738 48.8218 32.9612 0.0000 0.0000 0.0000
# 2 48.8218 123.6842 52.4155 0.0000 0.0000 0.0000
# 3 32.9612 52.4155 82.5260 0.0000 0.0000 0.0000
# 4 0.0000 0.0000 0.0000 17.7427 0.0000 0.0000
# 5 0.0000 0.0000 0.0000 0.0000 30.2959 0.0000
# 6 0.0000 0.0000 0.0000 0.0000 0.0000 28.2682
#
#
#
# Elastic Compliance Matrix: (Units=1/GPa)
#
#
# Indices 1 2 3 4 5 6 
#
# 1 0.021457 -0.006620 -0.004366 0.000000 0.000000 0.000000
# 2 -0.006620 0.013105 -0.005680 0.000000 0.000000 0.000000
# 3 -0.004366 -0.005680 0.017468 0.000000 0.000000 0.000000
# 4 0.000000 0.000000 0.000000 0.056361 0.000000 0.000000
# 5 0.000000 0.000000 0.000000 0.000000 0.033008 0.000000
# 6 0.000000 0.000000 0.000000 0.000000 0.000000 0.035375
#
#
# Mechanical properties :
#
#
# Convention : Reuss Voigt Hill
#
# Bulk Modulus (GPa) = 53.47427 60.33124 56.90276
# Shear Modulus (GPa) = 23.11206 24.62039 23.86622
#
# Velocity S-wave (km/s) = 3.63972 3.75661 3.69862
# Velocity P-wave (km/s) = 6.95084 7.30734 7.13132
#
# Compressibility (1/GPa) = 0.01870058
#
# Stress axis : x y z
#
# Youngs Moduli (GPa) = 46.60568 76.30701 57.24639
#
# Poissons Ratio (x) = 0.50511 0.24991
# Poissons Ratio (y) = 0.30851 0.32514
# Poissons Ratio (z) = 0.20346 0.43339
#
# Static dielectric constant tensor:
#      x y z
#    x 3.242110 0.000000 0.000000 
#    y 0.000000 3.384630 0.000000 
#    z 0.000000 0.000000 3.030090 
# 
# 
# High freq. dielectric constant tensor:
#      x y z
#    x 1.679740 0.000000 0.000000 
#    y 0.000000 1.673300 0.000000 
#    z 0.000000 0.000000 1.647940 
# 
# From -- ./inp_files/28203.got.cif
#   From: 2010.03.12/outbox.cif.g09.slc.cpg/sg51_15_cif.got.tgz:28203.got - 2010.04.16 13:43:02.
