data_PCOD8207949
_publ_section_title
;
Structure prediction by ZEFSAII (Michael W. Deem and Ramdas Pophale) SiO2 
 PCOD8207949
Probable space group: P M M A
;
_chemical_formula_sum "Si O2"
_cell_formula_units_Z 36
_cell_length_a 14.677336
_cell_length_b 12.786641
_cell_length_c 11.288288
_cell_angle_alpha 90.000000
_cell_angle_beta 90.000000
_cell_angle_gamma 90.000000
_cell_volume 2118.516201
_symmetry_space_group_name_H-M "P M M A"
_symmetry_group_IT_number 51
_symmetry_cell_setting 'orthorhombic'
loop_
_space_group_symop_operation_xyz
x,y,z
1/2-x,-y,z
1/2+x,-y,-z
-x,y,-z
-x,-y,-z
1/2+x,y,-z
1/2-x,y,z
x,-y,z
loop_
_atom_site_type_symbol
_atom_site_label
_atom_site_fract_x
_atom_site_fract_y
_atom_site_fract_z
Si Si1 0.000000 0.267511 0.500000
Si Si2 0.646346 0.619116 0.653907
Si Si3 0.146732 0.196461 0.179246
Si Si4 0.024826 0.881615 0.707735
Si Si5 0.145625 0.879468 0.926246
O O1 0.920323 0.339630 0.551811
O O2 0.953612 0.193654 0.401729
O O3 0.750000 0.629200 0.606715
O O4 0.621407 0.500000 0.684585
O O5 0.634472 0.684508 0.775534
O O6 0.250000 0.155894 0.198065
O O7 0.081621 0.122293 0.256881
O O8 0.120990 0.190366 0.040667
O O9 0.084402 0.840290 0.817804
O O10 0.051365 0.000000 0.673128
O O11 0.250000 0.864937 0.888281
O O12 0.123914 0.000000 0.957938
#
# Coordination Sequence:
#
# PCOD8207949 Si02
#       5
#     4   8   8   8   8
#     4  10  20  32  48  68  94 124 158 194 226 264
#     4   9  18  33  52  70  88 116 154 195 238 277
#     4   9  17  29  47  70  91 115 151 192 232 276
#     4  10  19  30  45  67  96 128 157 185 221 268
#     4   9  17  29  46  68  94 123 152 183 223 272
#
# _framework density 16.993027000000001
#
# number of rings (size 3 to 8) (size 9 to 14) (size 15 to 20)
#    0.000    2.667    0.000    2.000    0.000    4.000 
#    0.000    0.000    0.000   16.000    0.000    3.111 
#    0.000    0.000    0.000    0.000    0.000    0.000 
#
# Total GULP energy -446378.365936 kJ/mol
# GULP energy per Si atom -12399.399054 kJ/mol
# Density = 1.695435 g / cm^3
# Si number density = 16.993027 Si / 1000 Ang^3
#
#
#
# Elastic Constant Matrix: (Units=GPa)
#
#
# Indices 1 2 3 4 5 6 
#
# 1 68.1479 42.8408 52.6554 0.0000 0.0000 0.0000
# 2 42.8408 96.1328 62.7682 0.0000 0.0000 0.0000
# 3 52.6554 62.7682 119.7928 0.0000 0.0000 0.0000
# 4 0.0000 0.0000 0.0000 23.8392 0.0000 0.0000
# 5 0.0000 0.0000 0.0000 0.0000 28.8531 0.0000
# 6 0.0000 0.0000 0.0000 0.0000 0.0000 21.2250
#
#
#
# Elastic Compliance Matrix: (Units=1/GPa)
#
#
# Indices 1 2 3 4 5 6 
#
# 1 0.024198 -0.005835 -0.007579 0.000000 0.000000 0.000000
# 2 -0.005835 0.017219 -0.006457 0.000000 0.000000 0.000000
# 3 -0.007579 -0.006457 0.015063 0.000000 0.000000 0.000000
# 4 0.000000 0.000000 0.000000 0.041948 0.000000 0.000000
# 5 0.000000 0.000000 0.000000 0.000000 0.034658 0.000000
# 6 0.000000 0.000000 0.000000 0.000000 0.000000 0.047114
#
#
# Mechanical properties :
#
#
# Convention : Reuss Voigt Hill
#
# Bulk Modulus (GPa) = 59.74888 66.73357 63.24122
# Shear Modulus (GPa) = 22.17080 23.17073 22.67077
#
# Velocity S-wave (km/s) = 3.61598 3.69663 3.65653
# Velocity P-wave (km/s) = 7.25747 7.58791 7.42453
#
# Compressibility (1/GPa) = 0.01673671
#
# Stress axis : x y z
#
# Youngs Moduli (GPa) = 41.32537 58.07574 66.38971
#
# Poissons Ratio (x) = 0.33888 0.50316
# Poissons Ratio (y) = 0.24114 0.42870
# Poissons Ratio (z) = 0.31320 0.37502
#
# Static dielectric constant tensor:
#      x y z
#    x 3.289860 0.000000 0.000000 
#    y 0.000000 3.089240 0.000000 
#    z 0.000000 0.000000 3.144960 
# 
# 
# High freq. dielectric constant tensor:
#      x y z
#    x 1.663680 0.000000 0.000000 
#    y 0.000000 1.637600 0.000000 
#    z 0.000000 0.000000 1.648750 
# 
# From -- ./inp_files/7812.got.cif
#   From: 2010.03.12/outbox.cif.g09.slc.cpg/sg51_4_cif.got.tgz:7812.got - 2010.04.16 13:43:02.
