data_PCOD8207265
_publ_section_title
;
Structure prediction by ZEFSAII (Michael W. Deem and Ramdas Pophale) SiO2 
 PCOD8207265
Probable space group: P M M A
;
_chemical_formula_sum "Si O2"
_cell_formula_units_Z 64
_cell_length_a 21.620465
_cell_length_b 17.114792
_cell_length_c 9.637394
_cell_angle_alpha 90.000000
_cell_angle_beta 90.000000
_cell_angle_gamma 90.000000
_cell_volume 3566.122603
_symmetry_space_group_name_H-M "P M M A"
_symmetry_group_IT_number 51
_symmetry_cell_setting 'orthorhombic'
loop_
_space_group_symop_operation_xyz
x,y,z
1/2-x,-y,z
1/2+x,-y,-z
-x,y,-z
-x,-y,-z
1/2+x,y,-z
1/2-x,y,z
x,-y,z
loop_
_atom_site_type_symbol
_atom_site_label
_atom_site_fract_x
_atom_site_fract_y
_atom_site_fract_z
Si Si1 0.615412 0.284805 0.765750
Si Si2 0.177936 0.741290 0.512166
Si Si3 0.493361 0.783519 0.843059
Si Si4 0.626300 0.695721 0.205494
Si Si5 0.678898 0.912956 0.389346
Si Si6 0.681167 0.805527 0.986265
Si Si7 0.926665 0.410528 0.982155
Si Si8 0.093073 0.913720 0.877421
O O1 0.638927 0.299032 0.610784
O O2 0.556215 0.227205 0.758844
O O3 0.671093 0.241852 0.845051
O O4 0.595883 0.363870 0.845423
O O5 0.250000 0.728774 0.484398
O O6 0.158857 0.688805 0.645477
O O7 0.162868 0.835424 0.519724
O O8 0.438556 0.738285 0.766771
O O9 0.473407 0.874236 0.848551
O O10 0.500000 0.749466 0.000000
O O11 0.672981 0.748073 0.116070
O O12 0.610601 0.616306 0.121318
O O13 0.750000 0.906243 0.341405
O O14 0.637048 0.908985 0.254743
O O15 0.668493 0.000000 0.461380
O O16 0.750000 0.841197 0.986434
O O17 0.628997 0.872505 0.995318
O O18 0.909058 0.500000 0.956528
O O19 0.000000 0.399752 0.000000
O O20 0.077884 0.000000 0.925103
#
# Coordination Sequence:
#
# PCOD8207265 Si02
#       8
#     8   8   8   8   8   8   8   8
#     4  11  21  36  55  82 119 145 178 229 283 346
#     4  11  22  36  57  84 111 153 195 231 276 327
#     4  11  17  35  53  79 110 144 182 226 287 334
#     4  10  18  34  58  83 111 139 183 233 267 331
#     4   9  17  32  52  76 106 142 192 244 281 312
#     4  10  18  32  54  76 102 144 193 236 273 323
#     4  10  19  37  64  90 115 142 178 228 282 337
#     4  10  19  30  51  78 106 143 188 243 288 326
#
# _framework density 17.946663999999998
#
# number of rings (size 3 to 8) (size 9 to 14) (size 15 to 20)
#    0.000    1.750    7.500    1.125    0.000    1.500 
#    0.000    1.875    0.000   18.750    0.000    0.000 
#    0.000    0.000    0.000    0.000    0.000    0.000 
#
# Total GULP energy -793038.086336 kJ/mol
# GULP energy per Si atom -12391.220099 kJ/mol
# Density = 1.790582 g / cm^3
# Si number density = 17.946664 Si / 1000 Ang^3
#
#
#
# Elastic Constant Matrix: (Units=GPa)
#
#
# Indices 1 2 3 4 5 6 
#
# 1 78.7572 31.7141 23.4773 0.0000 0.0000 0.0000
# 2 31.7141 121.7652 31.0537 0.0000 0.0000 0.0000
# 3 23.4773 31.0537 84.8706 0.0000 0.0000 0.0000
# 4 0.0000 0.0000 0.0000 16.0530 0.0000 0.0000
# 5 0.0000 0.0000 0.0000 0.0000 25.9070 0.0000
# 6 0.0000 0.0000 0.0000 0.0000 0.0000 20.0033
#
#
#
# Elastic Compliance Matrix: (Units=1/GPa)
#
#
# Indices 1 2 3 4 5 6 
#
# 1 0.014832 -0.003107 -0.002966 0.000000 0.000000 0.000000
# 2 -0.003107 0.009708 -0.002693 0.000000 0.000000 0.000000
# 3 -0.002966 -0.002693 0.013589 0.000000 0.000000 0.000000
# 4 0.000000 0.000000 0.000000 0.062294 0.000000 0.000000
# 5 0.000000 0.000000 0.000000 0.000000 0.038600 0.000000
# 6 0.000000 0.000000 0.000000 0.000000 0.000000 0.049992
#
#
# Mechanical properties :
#
#
# Convention : Reuss Voigt Hill
#
# Bulk Modulus (GPa) = 48.54912 50.87592 49.71252
# Shear Modulus (GPa) = 23.42884 25.66919 24.54902
#
# Velocity S-wave (km/s) = 3.61705 3.78604 3.70251
# Velocity P-wave (km/s) = 6.67493 6.89363 6.78516
#
# Compressibility (1/GPa) = 0.02059770
#
# Stress axis : x y z
#
# Youngs Moduli (GPa) = 67.41952 103.00331 73.59153
#
# Poissons Ratio (x) = 0.32000 0.21830
# Poissons Ratio (y) = 0.20945 0.19817
# Poissons Ratio (z) = 0.19999 0.27738
#
# Static dielectric constant tensor:
#      x y z
#    x 3.382560 0.000000 0.000000 
#    y 0.000000 3.432280 0.000000 
#    z 0.000000 0.000000 3.061530 
# 
# 
# High freq. dielectric constant tensor:
#      x y z
#    x 1.703050 0.000000 0.000000 
#    y 0.000000 1.676400 0.000000 
#    z 0.000000 0.000000 1.666130 
# 
# From -- ./inp_files/11955.got.cif
#   From: 2010.03.12/outbox.cif.g09.slc.cpg/sg51_6_cif.got.tgz:11955.got - 2010.04.16 13:43:02.
