data_PCOD8207616
_publ_section_title
;
Structure prediction by ZEFSAII (Michael W. Deem and Ramdas Pophale) SiO2 
 PCOD8207616
Probable space group: P M M A
;
_chemical_formula_sum "Si O2"
_cell_formula_units_Z 44
_cell_length_a 9.223761
_cell_length_b 18.359900
_cell_length_c 19.404355
_cell_angle_alpha 90.000000
_cell_angle_beta 90.000000
_cell_angle_gamma 90.000000
_cell_volume 3286.075702
_symmetry_space_group_name_H-M "P M M A"
_symmetry_group_IT_number 51
_symmetry_cell_setting 'orthorhombic'
loop_
_space_group_symop_operation_xyz
x,y,z
1/2-x,-y,z
1/2+x,-y,-z
-x,y,-z
-x,-y,-z
1/2+x,y,-z
1/2-x,y,z
x,-y,z
loop_
_atom_site_type_symbol
_atom_site_label
_atom_site_fract_x
_atom_site_fract_y
_atom_site_fract_z
Si Si1 0.583124 0.423153 0.570441
Si Si2 0.078847 0.735387 0.426660
Si Si3 0.080339 0.000000 0.571603
Si Si4 0.413572 0.913212 0.065654
Si Si5 0.581450 0.856930 0.345874
Si Si6 0.083122 0.916284 0.801513
O O1 0.500000 0.426287 0.500000
O O2 0.750000 0.421434 0.550319
O O3 0.548824 0.500000 0.612030
O O4 0.545985 0.345538 0.606059
O O5 0.250000 0.749177 0.437069
O O6 0.000000 0.746380 0.500000
O O7 0.016533 0.790786 0.371087
O O8 0.033296 0.070721 0.614118
O O9 0.000000 0.000000 0.500000
O O10 0.250000 0.000000 0.557245
O O11 0.250000 0.883563 0.062821
O O12 0.487523 0.885229 0.135867
O O13 0.417666 0.000000 0.064058
O O14 0.500000 0.881619 0.000000
O O15 0.750000 0.839621 0.359148
O O16 0.549992 0.867747 0.265173
O O17 0.250000 0.910220 0.823866
O O18 0.044545 0.000000 0.784234
#
# Coordination Sequence:
#
# PCOD8207616 Si02
#       6
#     8   8   4   8   8   8
#     4   8  14  25  40  56  73  92 114 143 182 228
#     4  10  19  29  41  57  75  95 122 157 195 233
#     4  10  20  32  42  52  65  90 127 164 199 232
#     4   9  16  25  38  57  77  95 117 148 184 224
#     4  10  19  31  43  54  72  97 127 160 197 233
#     4   9  16  28  43  55  70  95 124 156 191 226
#
# _framework density 13.389832
#
# number of rings (size 3 to 8) (size 9 to 14) (size 15 to 20)
#    0.000    2.727    0.909    1.636    0.000    5.818 
#    0.000    0.000    0.000    0.000    0.000    0.000 
#    0.000    0.000    0.000    0.000    0.000    0.909 
#
# Total GULP energy -545151.997307 kJ/mol
# GULP energy per Si atom -12389.818121 kJ/mol
# Density = 1.335936 g / cm^3
# Si number density = 13.389832 Si / 1000 Ang^3
#
#
#
# Elastic Constant Matrix: (Units=GPa)
#
#
# Indices 1 2 3 4 5 6 
#
# 1 68.6765 40.3303 46.4118 0.0000 0.0000 0.0000
# 2 40.3303 94.0235 38.2044 0.0000 0.0000 0.0000
# 3 46.4118 38.2044 82.5909 0.0000 0.0000 0.0000
# 4 0.0000 0.0000 0.0000 1.8587 0.0000 0.0000
# 5 0.0000 0.0000 0.0000 0.0000 23.9704 0.0000
# 6 0.0000 0.0000 0.0000 0.0000 0.0000 13.5218
#
#
#
# Elastic Compliance Matrix: (Units=1/GPa)
#
#
# Indices 1 2 3 4 5 6 
#
# 1 0.026360 -0.006512 -0.011801 0.000000 0.000000 0.000000
# 2 -0.006512 0.014706 -0.003143 0.000000 0.000000 0.000000
# 3 -0.011801 -0.003143 0.020193 0.000000 0.000000 0.000000
# 4 0.000000 0.000000 0.000000 0.538018 0.000000 0.000000
# 5 0.000000 0.000000 0.000000 0.000000 0.041718 0.000000
# 6 0.000000 0.000000 0.000000 0.000000 0.000000 0.073955
#
#
# Mechanical properties :
#
#
# Convention : Reuss Voigt Hill
#
# Bulk Modulus (GPa) = 54.50317 55.02040 54.76179
# Shear Modulus (GPa) = 6.54469 15.89314 11.21892
#
# Velocity S-wave (km/s) = 2.21324 3.44896 2.89774
# Velocity P-wave (km/s) = 6.87928 7.55254 7.22376
#
# Compressibility (1/GPa) = 0.01834756
#
# Stress axis : x y z
#
# Youngs Moduli (GPa) = 37.93609 67.99925 49.52139
#
# Poissons Ratio (x) = 0.44280 0.58439
# Poissons Ratio (y) = 0.24704 0.15566
# Poissons Ratio (z) = 0.44768 0.21374
#
# Static dielectric constant tensor:
#      x y z
#    x 2.762340 0.000000 0.000000 
#    y 0.000000 2.881450 0.000000 
#    z 0.000000 0.000000 2.425930 
# 
# 
# High freq. dielectric constant tensor:
#      x y z
#    x 1.521640 0.000000 0.000000 
#    y 0.000000 1.484580 0.000000 
#    z 0.000000 0.000000 1.482230 
# 
# From -- ./inp_files/27844.got.cif
#   From: 2010.03.12/outbox.cif.g09.slc.cpg/sg51_14_cif.got.tgz:27844.got - 2010.04.16 13:43:02.
