data_PCOD8207356
_publ_section_title
;
Structure prediction by ZEFSAII (Michael W. Deem and Ramdas Pophale) SiO2 
 PCOD8207356
Probable space group: P M M A
;
_chemical_formula_sum "Si O2"
_cell_formula_units_Z 64
_cell_length_a 30.730601
_cell_length_b 9.299324
_cell_length_c 11.841199
_cell_angle_alpha 90.000000
_cell_angle_beta 90.000000
_cell_angle_gamma 90.000000
_cell_volume 3383.904617
_symmetry_space_group_name_H-M "P M M A"
_symmetry_group_IT_number 51
_symmetry_cell_setting 'orthorhombic'
loop_
_space_group_symop_operation_xyz
x,y,z
1/2-x,-y,z
1/2+x,-y,-z
-x,y,-z
-x,-y,-z
1/2+x,y,-z
1/2-x,y,z
x,-y,z
loop_
_atom_site_type_symbol
_atom_site_label
_atom_site_fract_x
_atom_site_fract_y
_atom_site_fract_z
Si Si1 0.672642 0.331389 0.000322
Si Si2 0.540503 0.831364 0.217003
Si Si3 0.071927 0.333896 0.992840
Si Si4 0.375964 0.330235 0.399359
Si Si5 0.201412 0.835835 0.788647
Si Si6 0.701264 0.670721 0.756529
Si Si7 0.542836 0.666816 0.754809
Si Si8 0.876219 0.832165 0.367708
O O1 0.681767 0.500000 0.008428
O O2 0.622327 0.294438 0.016874
O O3 0.688622 0.269734 0.880028
O O4 0.699880 0.255003 0.097329
O O5 0.498953 0.761401 0.279183
O O6 0.582805 0.794599 0.289921
O O7 0.533114 0.000000 0.204046
O O8 0.544809 0.762922 0.093149
O O9 0.063348 0.500000 0.962636
O O10 0.056223 0.297943 0.117775
O O11 0.373123 0.500000 0.417665
O O12 0.332655 0.271197 0.336525
O O13 0.417610 0.287739 0.325294
O O14 0.380560 0.255504 0.518568
O O15 0.250000 0.822275 0.737657
O O16 0.167297 0.778629 0.696059
O O17 0.189716 0.000000 0.819253
O O18 0.750000 0.721599 0.724115
O O19 0.697734 0.500000 0.760941
O O20 0.531212 0.500000 0.739141
O O21 0.873977 0.000000 0.396943
#
# Coordination Sequence:
#
# PCOD8207356 Si02
#       8
#     8   8   8   8   8   8   8   8
#     4  10  18  32  58  88 115 144 179 221 273 331
#     4  11  23  38  57  82 112 146 186 227 274 328
#     4  10  19  34  58  85 115 147 177 219 276 333
#     4  10  21  38  59  82 108 144 188 230 273 326
#     4  10  21  38  58  80 112 152 187 223 274 330
#     4   9  17  32  56  86 117 144 174 221 278 327
#     4  10  21  38  58  83 115 145 179 224 278 333
#     4  10  23  41  56  76 109 147 186 232 279 320
#
# _framework density 18.913063000000001
#
# number of rings (size 3 to 8) (size 9 to 14) (size 15 to 20)
#    0.000    2.000    2.500    1.125    0.000    5.750 
#    0.000    3.125    0.000    0.750    0.000    0.000 
#    0.000    0.000    0.000    0.000    0.000    0.000 
#
# Total GULP energy -793786.512307 kJ/mol
# GULP energy per Si atom -12402.914255 kJ/mol
# Density = 1.887002 g / cm^3
# Si number density = 18.913063 Si / 1000 Ang^3
#
#
#
# Elastic Constant Matrix: (Units=GPa)
#
#
# Indices 1 2 3 4 5 6 
#
# 1 130.7381 48.4013 58.2397 0.0000 0.0000 0.0000
# 2 48.4013 48.9083 44.2529 0.0000 0.0000 0.0000
# 3 58.2397 44.2529 112.4498 0.0000 0.0000 0.0000
# 4 0.0000 0.0000 0.0000 -35.1082 0.0000 0.0000
# 5 0.0000 0.0000 0.0000 0.0000 6.0098 0.0000
# 6 0.0000 0.0000 0.0000 0.0000 0.0000 22.9723
#
#
#
# Elastic Compliance Matrix: (Units=1/GPa)
#
#
# Indices 1 2 3 4 5 6 
#
# 1 0.012507 -0.010120 -0.002495 0.000000 0.000000 0.000000
# 2 -0.010120 0.039941 -0.010477 0.000000 0.000000 0.000000
# 3 -0.002495 -0.010477 0.014308 0.000000 0.000000 0.000000
# 4 0.000000 0.000000 0.000000 -0.028483 0.000000 0.000000
# 5 0.000000 0.000000 0.000000 0.000000 0.166395 0.000000
# 6 0.000000 0.000000 0.000000 0.000000 0.000000 0.043531
#
#
# Mechanical properties :
#
#
# Convention : Reuss Voigt Hill
#
# Bulk Modulus (GPa) = 48.60858 65.98710 57.29784
# Shear Modulus (GPa) = 16.59809 8.18825 12.39317
#
# Velocity S-wave (km/s) = 2.96564 2.08298 2.56260
# Velocity P-wave (km/s) = 6.12238 6.38361 6.25436
#
# Compressibility (1/GPa) = 0.02057250
#
# Stress axis : x y z
#
# Youngs Moduli (GPa) = 79.95668 25.03700 69.89010
#
# Poissons Ratio (x) = 0.25336 0.17438
# Poissons Ratio (y) = 0.80913 0.73224
# Poissons Ratio (z) = 0.19950 0.26231
#
# Static dielectric constant tensor:
#      x y z
#    x 3.763730 0.000000 0.000000 
#    y 0.000000 3.232040 0.000000 
#    z 0.000000 0.000000 3.352430 
# 
# 
# High freq. dielectric constant tensor:
#      x y z
#    x 1.755720 0.000000 0.000000 
#    y 0.000000 1.711570 0.000000 
#    z 0.000000 0.000000 1.729750 
# 
# From -- ./inp_files/19430.got.cif
#   From: 2010.03.12/outbox.cif.g09.slc.cpg/sg51_10_cif.got.tgz:19430.got - 2010.04.16 13:43:02.
