data_PCOD8207079
_publ_section_title
;
Structure prediction by ZEFSAII (Michael W. Deem and Ramdas Pophale) SiO2 
 PCOD8207079
Probable space group: P M M A
;
_chemical_formula_sum "Si O2"
_cell_formula_units_Z 64
_cell_length_a 19.837338
_cell_length_b 9.305165
_cell_length_c 19.558223
_cell_angle_alpha 90.000000
_cell_angle_beta 90.000000
_cell_angle_gamma 90.000000
_cell_volume 3610.246580
_symmetry_space_group_name_H-M "P M M A"
_symmetry_group_IT_number 51
_symmetry_cell_setting 'orthorhombic'
loop_
_space_group_symop_operation_xyz
x,y,z
1/2-x,-y,z
1/2+x,-y,-z
-x,y,-z
-x,-y,-z
1/2+x,y,-z
1/2-x,y,z
x,-y,z
loop_
_atom_site_type_symbol
_atom_site_label
_atom_site_fract_x
_atom_site_fract_y
_atom_site_fract_z
Si Si1 0.326278 0.667415 0.116111
Si Si2 0.574826 0.340737 0.530209
Si Si3 0.470138 0.832085 0.350612
Si Si4 0.586093 0.830331 0.148797
Si Si5 0.939472 0.833396 0.804787
Si Si6 0.393977 0.669341 0.615405
Si Si7 0.826588 0.668107 0.041163
Si Si8 0.174030 0.837142 0.724102
O O1 0.250000 0.711334 0.135530
O O2 0.337489 0.500000 0.128258
O O3 0.376686 0.750544 0.164750
O O4 0.340367 0.706782 0.037494
O O5 0.500000 0.340369 0.500000
O O6 0.592967 0.500000 0.557777
O O7 0.582385 0.228156 0.592379
O O8 0.621303 0.299072 0.464970
O O9 0.440552 0.802451 0.275956
O O10 0.539869 0.748902 0.357242
O O11 0.482468 0.000000 0.363589
O O12 0.508645 0.782613 0.158750
O O13 0.617744 0.753778 0.083438
O O14 0.626133 0.780094 0.215953
O O15 0.593082 0.000000 0.138451
O O16 0.928586 0.000000 0.819325
O O17 0.402724 0.500000 0.627929
O O18 0.332235 0.733588 0.658493
O O19 0.750000 0.713192 0.061136
O O20 0.836400 0.500000 0.054707
O O21 0.250000 0.829422 0.751351
O O22 0.154153 0.000000 0.703454
#
# Coordination Sequence:
#
# PCOD8207079 Si02
#       8
#     8   8   8   8   8   8   8   8
#     4   9  20  39  59  78 102 133 170 213 263 318
#     4   8  16  29  45  70 100 129 165 209 255 300
#     4  10  18  31  50  74 104 135 168 209 258 306
#     4  10  20  35  52  75 108 140 173 214 260 309
#     4  10  21  35  53  79 110 138 169 214 261 309
#     4  10  19  31  48  71 102 135 171 217 260 303
#     4   9  19  36  55  76 104 137 176 219 257 303
#     4  10  20  34  51  71 102 144 183 219 259 307
#
# _framework density 17.727319999999999
#
# number of rings (size 3 to 8) (size 9 to 14) (size 15 to 20)
#    0.000    2.500    1.250    2.625    0.000    7.000 
#    0.000    3.750    0.000    0.750    0.000    0.000 
#    0.000    0.000    0.000    0.000    0.000    0.000 
#
# Total GULP energy -793448.399262 kJ/mol
# GULP energy per Si atom -12397.631238 kJ/mol
# Density = 1.768697 g / cm^3
# Si number density = 17.727320 Si / 1000 Ang^3
#
#
#
# Elastic Constant Matrix: (Units=GPa)
#
#
# Indices 1 2 3 4 5 6 
#
# 1 94.2370 48.4548 63.7307 0.0000 0.0000 0.0000
# 2 48.4548 81.6073 64.6789 0.0000 0.0000 0.0000
# 3 63.7307 64.6789 109.9859 0.0000 0.0000 0.0000
# 4 0.0000 0.0000 0.0000 35.4261 0.0000 0.0000
# 5 0.0000 0.0000 0.0000 0.0000 22.4826 0.0000
# 6 0.0000 0.0000 0.0000 0.0000 0.0000 28.5580
#
#
#
# Elastic Compliance Matrix: (Units=1/GPa)
#
#
# Indices 1 2 3 4 5 6 
#
# 1 0.018334 -0.004619 -0.007907 0.000000 0.000000 0.000000
# 2 -0.004619 0.024114 -0.011504 0.000000 0.000000 0.000000
# 3 -0.007907 -0.011504 0.020439 0.000000 0.000000 0.000000
# 4 0.000000 0.000000 0.000000 0.028228 0.000000 0.000000
# 5 0.000000 0.000000 0.000000 0.000000 0.044479 0.000000
# 6 0.000000 0.000000 0.000000 0.000000 0.000000 0.035016
#
#
# Mechanical properties :
#
#
# Convention : Reuss Voigt Hill
#
# Bulk Modulus (GPa) = 67.44747 71.06211 69.25479
# Shear Modulus (GPa) = 22.35997 24.55773 23.45885
#
# Velocity S-wave (km/s) = 3.55537 3.72601 3.64169
# Velocity P-wave (km/s) = 7.41512 7.66055 7.53883
#
# Compressibility (1/GPa) = 0.01482635
#
# Stress axis : x y z
#
# Youngs Moduli (GPa) = 54.54321 41.46933 48.92547
#
# Poissons Ratio (x) = 0.19154 0.38687
# Poissons Ratio (y) = 0.25193 0.56286
# Poissons Ratio (z) = 0.43129 0.47708
#
# Static dielectric constant tensor:
#      x y z
#    x 3.119780 0.000000 0.000000 
#    y 0.000000 3.299450 0.000000 
#    z 0.000000 0.000000 3.492410 
# 
# 
# High freq. dielectric constant tensor:
#      x y z
#    x 1.660650 0.000000 0.000000 
#    y 0.000000 1.685860 0.000000 
#    z 0.000000 0.000000 1.690370 
# 
# From -- ./inp_files/30690.got.cif
#   From: 2010.03.12/outbox.cif.g09.slc.cpg/sg51_16_cif.got.tgz:30690.got - 2010.04.16 13:43:02.
