data_PCOD8207804
_publ_section_title
;
Structure prediction by ZEFSAII (Michael W. Deem and Ramdas Pophale) SiO2 
 PCOD8207804
Probable space group: P M M A
;
_chemical_formula_sum "Si O2"
_cell_formula_units_Z 52
_cell_length_a 9.165960
_cell_length_b 18.366032
_cell_length_c 24.673350
_cell_angle_alpha 90.000000
_cell_angle_beta 90.000000
_cell_angle_gamma 90.000000
_cell_volume 4153.568850
_symmetry_space_group_name_H-M "P M M A"
_symmetry_group_IT_number 51
_symmetry_cell_setting 'orthorhombic'
loop_
_space_group_symop_operation_xyz
x,y,z
1/2-x,-y,z
1/2+x,-y,-z
-x,y,-z
-x,-y,-z
1/2+x,y,-z
1/2-x,y,z
x,-y,z
loop_
_atom_site_type_symbol
_atom_site_label
_atom_site_fract_x
_atom_site_fract_y
_atom_site_fract_z
Si Si1 0.079218 0.415443 0.774745
Si Si2 0.411711 0.586596 0.653865
Si Si3 0.922929 0.235316 0.058146
Si Si4 0.579947 0.500000 0.943366
Si Si5 0.082096 0.076834 0.944275
Si Si6 0.913316 0.586888 0.551940
Si Si7 0.077395 0.641532 0.124515
O O1 0.250000 0.401916 0.786250
O O2 0.040546 0.500000 0.782577
O O3 0.037550 0.389449 0.713904
O O4 0.979450 0.368211 0.814484
O O5 0.250000 0.616918 0.641923
O O6 0.407829 0.500000 0.651796
O O7 0.517878 0.617943 0.607572
O O8 0.750000 0.250932 0.051839
O O9 0.954307 0.154344 0.084009
O O10 0.994613 0.289944 0.100084
O O11 0.000000 0.244591 0.000000
O O12 0.750000 0.500000 0.955580
O O13 0.533009 0.429169 0.909940
O O14 0.500000 0.500000 0.000000
O O15 0.250000 0.078197 0.959865
O O16 0.046375 0.000000 0.911778
O O17 0.000000 0.074264 0.000000
O O18 0.750000 0.616888 0.548018
O O19 0.916663 0.500000 0.552299
O O20 0.000000 0.617073 0.500000
O O21 0.250000 0.654899 0.124803
#
# Coordination Sequence:
#
# PCOD8207804 Si02
#       7
#     8   8   8   4   8   8   8
#     4   9  17  29  43  55  66  85 113 145 181 215
#     4   8  14  24  36  49  64  81 104 134 168 207
#     4  10  19  30  43  59  76  93 113 137 170 210
#     4  10  22  34  42  52  64  84 111 142 177 214
#     4   8  14  25  41  59  77  94 110 129 156 196
#     4   9  15  21  30  45  64  85 106 129 162 202
#     4  11  21  32  42  54  71  91 117 146 179 213
#
# _framework density 12.519354
#
# number of rings (size 3 to 8) (size 9 to 14) (size 15 to 20)
#    0.000    2.769    0.769    2.769    0.000    5.538 
#    0.000    1.538    0.000    0.000    0.000    0.000 
#    0.000    0.000    0.000    0.000    0.000    0.000 
#
# Total GULP energy -644235.658966 kJ/mol
# GULP energy per Si atom -12389.147288 kJ/mol
# Density = 1.249086 g / cm^3
# Si number density = 12.519354 Si / 1000 Ang^3
#
#
#
# Elastic Constant Matrix: (Units=GPa)
#
#
# Indices 1 2 3 4 5 6 
#
# 1 72.9731 33.9052 49.9876 0.0000 0.0000 0.0000
# 2 33.9052 72.0994 32.8271 0.0000 0.0000 0.0000
# 3 49.9876 32.8271 93.8660 0.0000 0.0000 0.0000
# 4 0.0000 0.0000 0.0000 6.9201 0.0000 0.0000
# 5 0.0000 0.0000 0.0000 0.0000 23.4618 0.0000
# 6 0.0000 0.0000 0.0000 0.0000 0.0000 10.5581
#
#
#
# Elastic Compliance Matrix: (Units=1/GPa)
#
#
# Indices 1 2 3 4 5 6 
#
# 1 0.023865 -0.006466 -0.010448 0.000000 0.000000 0.000000
# 2 -0.006466 0.018248 -0.002939 0.000000 0.000000 0.000000
# 3 -0.010448 -0.002939 0.017245 0.000000 0.000000 0.000000
# 4 0.000000 0.000000 0.000000 0.144507 0.000000 0.000000
# 5 0.000000 0.000000 0.000000 0.000000 0.042623 0.000000
# 6 0.000000 0.000000 0.000000 0.000000 0.000000 0.094714
#
#
# Mechanical properties :
#
#
# Convention : Reuss Voigt Hill
#
# Bulk Modulus (GPa) = 50.88038 52.48651 51.68345
# Shear Modulus (GPa) = 12.90467 16.33589 14.62028
#
# Velocity S-wave (km/s) = 3.21406 3.61619 3.42104
# Velocity P-wave (km/s) = 7.38262 7.71045 7.54832
#
# Compressibility (1/GPa) = 0.01965394
#
# Stress axis : x y z
#
# Youngs Moduli (GPa) = 41.90302 54.79993 57.98765
#
# Poissons Ratio (x) = 0.35431 0.60584
# Poissons Ratio (y) = 0.27093 0.17040
# Poissons Ratio (z) = 0.43779 0.16104
#
# Static dielectric constant tensor:
#      x y z
#    x 2.696990 0.000000 0.000000 
#    y 0.000000 2.592780 0.000000 
#    z 0.000000 0.000000 2.519980 
# 
# 
# High freq. dielectric constant tensor:
#      x y z
#    x 1.489830 0.000000 0.000000 
#    y 0.000000 1.431700 0.000000 
#    z 0.000000 0.000000 1.457510 
# 
# From -- ./inp_files/35059.got.cif
#   From: 2010.03.12/outbox.cif.g09.slc.cpg/sg51_18_cif.got.tgz:35059.got - 2010.04.16 13:43:02.
