data_PCOD8207967
_publ_section_title
;
Structure prediction by ZEFSAII (Michael W. Deem and Ramdas Pophale) SiO2 
 PCOD8207967
Probable space group: P M M A
;
_chemical_formula_sum "Si O2"
_cell_formula_units_Z 64
_cell_length_a 8.770298
_cell_length_b 26.933536
_cell_length_c 18.202352
_cell_angle_alpha 90.000000
_cell_angle_beta 90.000000
_cell_angle_gamma 90.000000
_cell_volume 4299.671070
_symmetry_space_group_name_H-M "P M M A"
_symmetry_group_IT_number 51
_symmetry_cell_setting 'orthorhombic'
loop_
_space_group_symop_operation_xyz
x,y,z
1/2-x,-y,z
1/2+x,-y,-z
-x,y,-z
-x,-y,-z
1/2+x,y,-z
1/2-x,y,z
x,-y,z
loop_
_atom_site_type_symbol
_atom_site_label
_atom_site_fract_x
_atom_site_fract_y
_atom_site_fract_z
Si Si1 0.571645 0.446199 0.920345
Si Si2 0.569034 0.347737 0.081328
Si Si3 0.427315 0.944616 0.668997
Si Si4 0.068597 0.253836 0.155683
Si Si5 0.081849 0.201678 0.297934
Si Si6 0.430480 0.840670 0.921955
Si Si7 0.572114 0.148584 0.421912
Si Si8 0.080355 0.896645 0.202088
O O1 0.750000 0.433524 0.926766
O O2 0.547719 0.500000 0.880039
O O3 0.485190 0.400096 0.881711
O O4 0.500000 0.450815 0.000000
O O5 0.750000 0.344974 0.076797
O O6 0.505893 0.305618 0.134458
O O7 0.500000 0.341372 0.000000
O O8 0.250000 0.934639 0.682946
O O9 0.489109 0.904175 0.610248
O O10 0.509540 0.939937 0.747700
O O11 0.458009 0.000000 0.637920
O O12 0.250000 0.254447 0.144233
O O13 0.026692 0.244765 0.241876
O O14 0.000348 0.211314 0.104145
O O15 0.250000 0.213901 0.329193
O O16 0.087959 0.152458 0.250105
O O17 0.969325 0.193786 0.366701
O O18 0.250000 0.835376 0.926346
O O19 0.475075 0.886098 0.868335
O O20 0.500000 0.854523 0.000000
O O21 0.500000 0.159283 0.500000
O O22 0.750000 0.146978 0.433069
O O23 0.250000 0.912240 0.176456
#
# Coordination Sequence:
#
# PCOD8207967 Si02
#       8
#     8   8   8   8   8   8   8   8
#     4   9  16  26  39  53  71  99 137 180 223 263
#     4  11  20  28  39  56  80 109 142 181 222 260
#     4   9  18  32  48  66  87 111 137 164 196 233
#     4  10  19  31  44  60  83 108 136 171 210 251
#     4   8  16  30  46  61  80 106 134 164 197 237
#     4  11  20  30  44  62  83 106 133 166 205 246
#     4  10  19  30  46  66  89 113 137 165 193 228
#     4   9  17  30  46  64  83 105 134 164 197 239
#
# _framework density 14.88486
#
# number of rings (size 3 to 8) (size 9 to 14) (size 15 to 20)
#    0.000    2.375    0.000    5.625    0.000    5.250 
#    0.000    0.000    0.000    0.375    0.000    0.000 
#    0.000    0.000    0.000    0.000    0.000    0.625 
#
# Total GULP energy -793208.482341 kJ/mol
# GULP energy per Si atom -12393.882537 kJ/mol
# Density = 1.485098 g / cm^3
# Si number density = 14.884860 Si / 1000 Ang^3
#
#
#
# Elastic Constant Matrix: (Units=GPa)
#
#
# Indices 1 2 3 4 5 6 
#
# 1 96.7902 29.5488 39.6444 0.0000 0.0000 0.0000
# 2 29.5488 63.7962 36.0776 0.0000 0.0000 0.0000
# 3 39.6444 36.0776 84.5461 0.0000 0.0000 0.0000
# 4 0.0000 0.0000 0.0000 11.5360 0.0000 0.0000
# 5 0.0000 0.0000 0.0000 0.0000 21.5144 0.0000
# 6 0.0000 0.0000 0.0000 0.0000 0.0000 21.3530
#
#
#
# Elastic Compliance Matrix: (Units=1/GPa)
#
#
# Indices 1 2 3 4 5 6 
#
# 1 0.013350 -0.003484 -0.004773 0.000000 0.000000 0.000000
# 2 -0.003484 0.021570 -0.007571 0.000000 0.000000 0.000000
# 3 -0.004773 -0.007571 0.017297 0.000000 0.000000 0.000000
# 4 0.000000 0.000000 0.000000 0.086685 0.000000 0.000000
# 5 0.000000 0.000000 0.000000 0.000000 0.046480 0.000000
# 6 0.000000 0.000000 0.000000 0.000000 0.000000 0.046832
#
#
# Mechanical properties :
#
#
# Convention : Reuss Voigt Hill
#
# Bulk Modulus (GPa) = 48.63627 50.63047 49.63337
# Shear Modulus (GPa) = 18.46895 20.20479 19.33687
#
# Velocity S-wave (km/s) = 3.52630 3.68830 3.60821
# Velocity P-wave (km/s) = 7.02322 7.22680 7.12574
#
# Compressibility (1/GPa) = 0.02056079
#
# Stress axis : x y z
#
# Youngs Moduli (GPa) = 74.90391 46.36067 57.81452
#
# Poissons Ratio (x) = 0.16153 0.27597
# Poissons Ratio (y) = 0.26098 0.43769
# Poissons Ratio (z) = 0.35754 0.35098
#
# Static dielectric constant tensor:
#      x y z
#    x 3.086440 0.000000 0.000000 
#    y 0.000000 3.124630 0.000000 
#    z 0.000000 0.000000 2.784840 
# 
# 
# High freq. dielectric constant tensor:
#      x y z
#    x 1.587530 0.000000 0.000000 
#    y 0.000000 1.548100 0.000000 
#    z 0.000000 0.000000 1.535340 
# 
# From -- ./inp_files/28679.got.cif
#   From: 2010.03.12/outbox.cif.g09.slc.cpg/sg51_15_cif.got.tgz:28679.got - 2010.04.16 13:43:02.
