data_PCOD8207278
_publ_section_title
;
Structure prediction by ZEFSAII (Michael W. Deem and Ramdas Pophale) SiO2 
 PCOD8207278
Probable space group: P M M A
;
_chemical_formula_sum "Si O2"
_cell_formula_units_Z 64
_cell_length_a 18.797150
_cell_length_b 8.619980
_cell_length_c 19.841108
_cell_angle_alpha 90.000000
_cell_angle_beta 90.000000
_cell_angle_gamma 90.000000
_cell_volume 3214.875702
_symmetry_space_group_name_H-M "P M M A"
_symmetry_group_IT_number 51
_symmetry_cell_setting 'orthorhombic'
loop_
_space_group_symop_operation_xyz
x,y,z
1/2-x,-y,z
1/2+x,-y,-z
-x,y,-z
-x,-y,-z
1/2+x,y,-z
1/2-x,y,z
x,-y,z
loop_
_atom_site_type_symbol
_atom_site_label
_atom_site_fract_x
_atom_site_fract_y
_atom_site_fract_z
Si Si1 0.585360 0.181733 0.849864
Si Si2 0.902527 0.317985 0.593031
Si Si3 0.830536 0.314964 0.457873
Si Si4 0.668850 0.680829 0.972416
Si Si5 0.167187 0.821227 0.887133
Si Si6 0.168173 0.177463 0.281896
Si Si7 0.447774 0.315459 0.644646
Si Si8 0.553813 0.681696 0.202213
O O1 0.617849 0.275017 0.911599
O O2 0.624201 0.237354 0.781983
O O3 0.503034 0.224911 0.842427
O O4 0.595697 0.000000 0.862877
O O5 0.909230 0.500000 0.583737
O O6 0.868135 0.247240 0.525197
O O7 0.850229 0.282545 0.654505
O O8 0.981379 0.249409 0.607626
O O9 0.750000 0.249321 0.451559
O O10 0.828229 0.500000 0.460731
O O11 0.877389 0.256509 0.394457
O O12 0.750000 0.726463 0.953963
O O13 0.661995 0.500000 0.988105
O O14 0.642541 0.772850 0.038172
O O15 0.250000 0.787609 0.878410
O O16 0.129781 0.716155 0.830756
O O17 0.147712 0.000000 0.875549
O O18 0.250000 0.198330 0.263266
O O19 0.149152 0.000000 0.299126
O O20 0.449659 0.500000 0.644307
O O21 0.445841 0.254302 0.721217
O O22 0.536374 0.500000 0.200501
#
# Coordination Sequence:
#
# PCOD8207278 Si02
#       8
#     8   8   8   8   8   8   8   8
#     4  11  22  37  57  81 115 155 193 232 280 342
#     4  10  18  32  54  80 108 142 185 232 281 334
#     4   9  17  29  49  80 112 143 184 234 286 339
#     4  10  21  38  61  89 119 150 188 237 288 337
#     4  10  22  41  63  86 114 150 191 234 283 342
#     4  10  21  35  52  77 111 150 187 225 275 334
#     4   9  18  32  51  77 112 148 183 231 289 341
#     4  11  22  37  58  85 115 149 192 241 290 338
#
# _framework density 19.907457999999998
#
# number of rings (size 3 to 8) (size 9 to 14) (size 15 to 20)
#    0.000    2.000    1.250    2.625    0.000    5.750 
#    0.000    3.750    0.000    3.000    0.000    1.750 
#    0.000    0.000    0.000    0.000    0.000    0.000 
#
# Total GULP energy -793783.601900 kJ/mol
# GULP energy per Si atom -12402.868780 kJ/mol
# Density = 1.986215 g / cm^3
# Si number density = 19.907458 Si / 1000 Ang^3
#
#
#
# Elastic Constant Matrix: (Units=GPa)
#
#
# Indices 1 2 3 4 5 6 
#
# 1 114.9388 17.5312 65.3143 0.0000 0.0000 0.0000
# 2 17.5312 24.6701 14.3942 0.0000 0.0000 0.0000
# 3 65.3143 14.3942 111.5114 0.0000 0.0000 0.0000
# 4 0.0000 0.0000 0.0000 16.8200 0.0000 0.0000
# 5 0.0000 0.0000 0.0000 0.0000 42.0727 0.0000
# 6 0.0000 0.0000 0.0000 0.0000 0.0000 24.7919
#
#
#
# Elastic Compliance Matrix: (Units=1/GPa)
#
#
# Indices 1 2 3 4 5 6 
#
# 1 0.013689 -0.005461 -0.007313 0.000000 0.000000 0.000000
# 2 -0.005461 0.046015 -0.002741 0.000000 0.000000 0.000000
# 3 -0.007313 -0.002741 0.013605 0.000000 0.000000 0.000000
# 4 0.000000 0.000000 0.000000 0.059453 0.000000 0.000000
# 5 0.000000 0.000000 0.000000 0.000000 0.023768 0.000000
# 6 0.000000 0.000000 0.000000 0.000000 0.000000 0.040336
#
#
# Mechanical properties :
#
#
# Convention : Reuss Voigt Hill
#
# Bulk Modulus (GPa) = 23.65254 49.51107 36.58181
# Shear Modulus (GPa) = 20.66214 26.99561 23.82887
#
# Velocity S-wave (km/s) = 3.22516 3.68646 3.46350
# Velocity P-wave (km/s) = 5.07699 6.56084 5.86602
#
# Compressibility (1/GPa) = 0.04227875
#
# Stress axis : x y z
#
# Youngs Moduli (GPa) = 73.05260 21.73206 73.50332
#
# Poissons Ratio (x) = 0.11867 0.53752
# Poissons Ratio (y) = 0.39893 0.20149
# Poissons Ratio (z) = 0.53422 0.05957
#
# Static dielectric constant tensor:
#      x y z
#    x 3.736180 0.000000 0.000000 
#    y 0.000000 3.280580 0.000000 
#    z 0.000000 0.000000 3.697400 
# 
# 
# High freq. dielectric constant tensor:
#      x y z
#    x 1.784480 0.000000 0.000000 
#    y 0.000000 1.747040 0.000000 
#    z 0.000000 0.000000 1.783070 
# 
# From -- ./inp_files/33981.got.cif
#   From: 2010.03.12/outbox.cif.g09.slc.cpg/sg51_17_cif.got.tgz:33981.got - 2010.04.16 13:43:02.
