data_PCOD8207467
_publ_section_title
;
Structure prediction by ZEFSAII (Michael W. Deem and Ramdas Pophale) SiO2 
 PCOD8207467
Probable space group: P M M A
;
_chemical_formula_sum "Si O2"
_cell_formula_units_Z 64
_cell_length_a 14.585627
_cell_length_b 8.879710
_cell_length_c 26.125865
_cell_angle_alpha 90.000000
_cell_angle_beta 90.000000
_cell_angle_gamma 90.000000
_cell_volume 3383.721135
_symmetry_space_group_name_H-M "P M M A"
_symmetry_group_IT_number 51
_symmetry_cell_setting 'orthorhombic'
loop_
_space_group_symop_operation_xyz
x,y,z
1/2-x,-y,z
1/2+x,-y,-z
-x,y,-z
-x,-y,-z
1/2+x,y,-z
1/2-x,y,z
x,-y,z
loop_
_atom_site_type_symbol
_atom_site_label
_atom_site_fract_x
_atom_site_fract_y
_atom_site_fract_z
Si Si1 0.005560 0.177442 0.788301
Si Si2 0.144553 0.322241 0.861806
Si Si3 0.854210 0.168640 0.606952
Si Si4 0.107675 0.331170 0.496530
Si Si5 0.492505 0.677445 0.057840
Si Si6 0.854439 0.822634 0.869313
Si Si7 0.350550 0.675473 0.606952
Si Si8 0.991463 0.677852 0.678732
O O1 0.098101 0.247560 0.812119
O O2 0.915156 0.224459 0.820298
O O3 0.988878 0.238728 0.732189
O O4 0.018591 0.000000 0.786922
O O5 0.250000 0.266228 0.868131
O O6 0.142352 0.500000 0.853655
O O7 0.084955 0.274604 0.911630
O O8 0.750000 0.164693 0.624804
O O9 0.860014 0.225180 0.548938
O O10 0.902581 0.282814 0.645732
O O11 0.896411 0.000000 0.610258
O O12 0.147794 0.500000 0.488130
O O13 0.142907 0.256866 0.549695
O O14 0.000000 0.339236 0.500000
O O15 0.479206 0.500000 0.059772
O O16 0.400756 0.749889 0.080919
O O17 0.500000 0.736830 0.000000
O O18 0.750000 0.763070 0.862559
O O19 0.854679 0.000000 0.877052
O O20 0.250000 0.705501 0.629829
O O21 0.373704 0.500000 0.601049
O O22 0.422295 0.744252 0.646908
O O23 0.997251 0.500000 0.688103
#
# Coordination Sequence:
#
# PCOD8207467 Si02
#       8
#     8   8   8   8   8   8   8   8
#     4  10  21  37  56  79 107 139 178 228 283 329
#     4   9  18  34  55  78 107 147 191 229 269 322
#     4  11  24  39  55  79 111 145 179 219 270 322
#     4  10  18  34  59  83 105 136 177 219 263 317
#     4   9  18  32  52  82 117 148 181 226 274 316
#     4   9  19  36  56  77 105 144 185 223 268 325
#     4   9  18  33  54  79 106 136 170 211 262 319
#     4  11  22  38  58  81 108 139 180 224 271 326
#
# _framework density 18.914089000000001
#
# number of rings (size 3 to 8) (size 9 to 14) (size 15 to 20)
#    0.000    2.250    1.250    1.500    0.000    4.500 
#    0.000    3.750    0.000    1.875    0.000    0.000 
#    0.000    0.000    0.000    0.000    0.000    0.000 
#
# Total GULP energy -793538.627862 kJ/mol
# GULP energy per Si atom -12399.041060 kJ/mol
# Density = 1.887104 g / cm^3
# Si number density = 18.914089 Si / 1000 Ang^3
#
#
#
# Elastic Constant Matrix: (Units=GPa)
#
#
# Indices 1 2 3 4 5 6 
#
# 1 140.0623 26.7706 57.2792 0.0000 0.0000 0.0000
# 2 26.7706 26.7668 18.7357 0.0000 0.0000 0.0000
# 3 57.2792 18.7357 135.9095 0.0000 0.0000 0.0000
# 4 0.0000 0.0000 0.0000 27.1898 0.0000 0.0000
# 5 0.0000 0.0000 0.0000 0.0000 -514.2501 0.0000
# 6 0.0000 0.0000 0.0000 0.0000 0.0000 29.1792
#
#
#
# Elastic Compliance Matrix: (Units=1/GPa)
#
#
# Indices 1 2 3 4 5 6 
#
# 1 0.009882 -0.007713 -0.003102 0.000000 0.000000 0.000000
# 2 -0.007713 0.047369 -0.003280 0.000000 0.000000 0.000000
# 3 -0.003102 -0.003280 0.009117 0.000000 0.000000 0.000000
# 4 0.000000 0.000000 0.000000 0.036779 0.000000 0.000000
# 5 0.000000 0.000000 0.000000 0.000000 -0.001945 0.000000
# 6 0.000000 0.000000 0.000000 0.000000 0.000000 0.034271
#
#
# Mechanical properties :
#
#
# Convention : Reuss Voigt Hill
#
# Bulk Modulus (GPa) = 26.19119 56.47884 41.33501
# Shear Modulus (GPa) = 28.34660 -78.24601 -24.94970
#
# Velocity S-wave (km/s) = 3.87551 -6.43886 -3.63589
# Velocity P-wave (km/s) = 5.82268 5.03519 2.06767
#
# Compressibility (1/GPa) = 0.03818078
#
# Stress axis : x y z
#
# Youngs Moduli (GPa) = 101.19141 21.11083 109.68358
#
# Poissons Ratio (x) = 0.16282 0.34020
# Poissons Ratio (y) = 0.78045 0.35971
# Poissons Ratio (z) = 0.31386 0.06923
#
# Static dielectric constant tensor:
#      x y z
#    x 3.636390 0.000000 0.000000 
#    y 0.000000 3.334900 0.000000 
#    z 0.000000 0.000000 3.538960 
# 
# 
# High freq. dielectric constant tensor:
#      x y z
#    x 1.743430 0.000000 0.000000 
#    y 0.000000 1.718300 0.000000 
#    z 0.000000 0.000000 1.734400 
# 
# From -- ./inp_files/35636.got.cif
#   From: 2010.03.12/outbox.cif.g09.slc.cpg/sg51_18_cif.got.tgz:35636.got - 2010.04.16 13:43:02.
