data_PCOD8207610
_publ_section_title
;
Structure prediction by ZEFSAII (Michael W. Deem and Ramdas Pophale) SiO2 
 PCOD8207610
Probable space group: P M M A
;
_chemical_formula_sum "Si O2"
_cell_formula_units_Z 56
_cell_length_a 28.356120
_cell_length_b 8.925419
_cell_length_c 13.781499
_cell_angle_alpha 90.000000
_cell_angle_beta 90.000000
_cell_angle_gamma 90.000000
_cell_volume 3487.963058
_symmetry_space_group_name_H-M "P M M A"
_symmetry_group_IT_number 51
_symmetry_cell_setting 'orthorhombic'
loop_
_space_group_symop_operation_xyz
x,y,z
1/2-x,-y,z
1/2+x,-y,-z
-x,y,-z
-x,-y,-z
1/2+x,y,-z
1/2-x,y,z
x,-y,z
loop_
_atom_site_type_symbol
_atom_site_label
_atom_site_fract_x
_atom_site_fract_y
_atom_site_fract_z
Si Si1 0.944883 0.172523 0.102882
Si Si2 0.990520 0.325293 0.392755
Si Si3 0.699625 0.676417 0.239078
Si Si4 0.600039 0.326153 0.280817
Si Si5 0.801915 0.677613 0.020628
Si Si6 0.102952 0.677279 0.072527
Si Si7 0.460863 0.827173 0.214660
O O1 0.912361 0.220793 0.191670
O O2 0.999023 0.196585 0.133399
O O3 0.935003 0.000000 0.076518
O O4 0.933503 0.274183 0.010836
O O5 0.002652 0.500000 0.387212
O O6 0.935183 0.294384 0.369956
O O7 0.000000 0.261098 0.500000
O O8 0.024344 0.243928 0.316838
O O9 0.750000 0.741119 0.279529
O O10 0.704697 0.500000 0.231642
O O11 0.654587 0.715620 0.307681
O O12 0.690730 0.738672 0.130165
O O13 0.596023 0.500000 0.248115
O O14 0.750000 0.729118 0.981984
O O15 0.804945 0.500000 0.021465
O O16 0.844282 0.738216 0.952527
O O17 0.101703 0.500000 0.082962
O O18 0.086523 0.748969 0.174524
O O19 0.450456 0.000000 0.233829
#
# Coordination Sequence:
#
# PCOD8207610 Si02
#       7
#     8   8   8   8   8   8   8
#     4  10  19  29  40  58  89 122 148 176 211 250
#     4   9  18  32  49  68  88 109 141 186 229 268
#     4   8  12  20  37  61  86 111 142 177 210 250
#     4   9  15  26  44  64  85 113 146 177 214 261
#     4   8  14  24  39  61  87 114 146 180 213 251
#     4  11  19  28  45  65  86 117 152 182 213 251
#     4  10  21  33  44  62  88 117 147 179 217 262
#
# _framework density 16.055215
#
# number of rings (size 3 to 8) (size 9 to 14) (size 15 to 20)
#    0.000    2.714    1.429    2.571    0.000    3.714 
#    0.000    0.000    0.000    3.000    0.000    1.000 
#    0.000    5.714    0.000    0.000    0.000    0.000 
#
# Total GULP energy -693862.435255 kJ/mol
# GULP energy per Si atom -12390.400630 kJ/mol
# Density = 1.601867 g / cm^3
# Si number density = 16.055215 Si / 1000 Ang^3
#
#
#
# Elastic Constant Matrix: (Units=GPa)
#
#
# Indices 1 2 3 4 5 6 
#
# 1 119.5493 27.5003 63.0547 0.0000 0.0000 0.0000
# 2 27.5003 42.6739 28.6405 0.0000 0.0000 0.0000
# 3 63.0547 28.6405 82.2690 0.0000 0.0000 0.0000
# 4 0.0000 0.0000 0.0000 12.4516 0.0000 0.0000
# 5 0.0000 0.0000 0.0000 0.0000 16.5029 0.0000
# 6 0.0000 0.0000 0.0000 0.0000 0.0000 6.6587
#
#
#
# Elastic Compliance Matrix: (Units=1/GPa)
#
#
# Indices 1 2 3 4 5 6 
#
# 1 0.014229 -0.002414 -0.010065 0.000000 0.000000 0.000000
# 2 -0.002414 0.030988 -0.008937 0.000000 0.000000 0.000000
# 3 -0.010065 -0.008937 0.022981 0.000000 0.000000 0.000000
# 4 0.000000 0.000000 0.000000 0.080311 0.000000 0.000000
# 5 0.000000 0.000000 0.000000 0.000000 0.060595 0.000000
# 6 0.000000 0.000000 0.000000 0.000000 0.000000 0.150179
#
#
# Mechanical properties :
#
#
# Convention : Reuss Voigt Hill
#
# Bulk Modulus (GPa) = 39.42611 53.65369 46.53990
# Shear Modulus (GPa) = 12.17817 15.47577 13.82697
#
# Velocity S-wave (km/s) = 2.75711 3.10806 2.93783
# Velocity P-wave (km/s) = 5.89452 6.80961 6.36853
#
# Compressibility (1/GPa) = 0.02536390
#
# Stress axis : x y z
#
# Youngs Moduli (GPa) = 70.27981 32.27089 43.51415
#
# Poissons Ratio (x) = 0.07791 0.43798
# Poissons Ratio (y) = 0.16967 0.38890
# Poissons Ratio (z) = 0.70738 0.28842
#
# Static dielectric constant tensor:
#      x y z
#    x 3.498190 0.000000 0.000000 
#    y 0.000000 2.847570 0.000000 
#    z 0.000000 0.000000 2.781730 
# 
# 
# High freq. dielectric constant tensor:
#      x y z
#    x 1.625180 0.000000 0.000000 
#    y 0.000000 1.597750 0.000000 
#    z 0.000000 0.000000 1.569900 
# 
# From -- ./inp_files/26474.got.cif
#   From: 2010.03.12/outbox.cif.g09.slc.cpg/sg51_14_cif.got.tgz:26474.got - 2010.04.16 13:43:02.
