data_PCOD8207198
_publ_section_title
;
Structure prediction by ZEFSAII (Michael W. Deem and Ramdas Pophale) SiO2 
 PCOD8207198
Probable space group: P M M A
;
_chemical_formula_sum "Si O2"
_cell_formula_units_Z 56
_cell_length_a 8.822694
_cell_length_b 15.456181
_cell_length_c 30.102911
_cell_angle_alpha 90.000000
_cell_angle_beta 90.000000
_cell_angle_gamma 90.000000
_cell_volume 4104.988136
_symmetry_space_group_name_H-M "P M M A"
_symmetry_group_IT_number 51
_symmetry_cell_setting 'orthorhombic'
loop_
_space_group_symop_operation_xyz
x,y,z
1/2-x,-y,z
1/2+x,-y,-z
-x,y,-z
-x,-y,-z
1/2+x,y,-z
1/2-x,y,z
x,-y,z
loop_
_atom_site_type_symbol
_atom_site_label
_atom_site_fract_x
_atom_site_fract_y
_atom_site_fract_z
Si Si1 0.571505 0.664132 0.096297
Si Si2 0.420415 0.603125 0.632307
Si Si3 0.431717 0.174716 0.048882
Si Si4 0.424749 0.597632 0.808292
Si Si5 0.579161 0.397044 0.720252
Si Si6 0.931637 0.500000 0.951453
Si Si7 0.432249 0.000000 0.951008
Si Si8 0.579698 0.396862 0.544104
O O1 0.750000 0.666358 0.084221
O O2 0.485666 0.749426 0.080843
O O3 0.545970 0.657205 0.149049
O O4 0.492687 0.583815 0.073100
O O5 0.250000 0.636660 0.630856
O O6 0.430161 0.500000 0.632519
O O7 0.495178 0.640989 0.677040
O O8 0.502037 0.640198 0.588514
O O9 0.250000 0.170212 0.045986
O O10 0.500682 0.087125 0.071100
O O11 0.500000 0.190717 0.000000
O O12 0.250000 0.594722 0.795388
O O13 0.482581 0.500000 0.818631
O O14 0.509942 0.639263 0.766095
O O15 0.750000 0.364982 0.717151
O O16 0.564554 0.500000 0.720630
O O17 0.750000 0.500000 0.952827
O O18 0.000000 0.500000 0.000000
O O19 0.250000 0.000000 0.950651
O O20 0.500000 0.000000 0.000000
O O21 0.500000 0.359837 0.500000
O O22 0.750000 0.362768 0.543730
O O23 0.571868 0.500000 0.544116
#
# Coordination Sequence:
#
# PCOD8207198 Si02
#       8
#     8   8   8   8   8   4   4   8
#     4  11  21  35  49  64  84 108 135 163 193 230
#     4   9  15  22  31  42  56  75 100 130 165 207
#     4  11  21  34  50  70  90 110 132 159 190 227
#     4   9  17  30  44  56  72  97 124 153 187 223
#     4   9  16  24  35  50  65  82 107 142 177 212
#     4  12  24  36  48  62  82 108 136 164 193 226
#     4  10  18  32  52  72  90 110 130 156 188 224
#     4   9  15  21  28  38  53  72  94 122 159 205
#
# _framework density 13.64194
#
# number of rings (size 3 to 8) (size 9 to 14) (size 15 to 20)
#    0.000    2.143    0.714    5.571    0.000    6.286 
#    0.000    0.000    0.000    0.000    0.000    0.000 
#    0.000    0.000    0.000    0.000    0.000    0.000 
#
# Total GULP energy -694215.620889 kJ/mol
# GULP energy per Si atom -12396.707516 kJ/mol
# Density = 1.361089 g / cm^3
# Si number density = 13.641940 Si / 1000 Ang^3
#
#
#
# Elastic Constant Matrix: (Units=GPa)
#
#
# Indices 1 2 3 4 5 6 
#
# 1 132.6062 31.8426 64.8409 0.0000 0.0000 0.0000
# 2 31.8426 59.1073 27.8289 0.0000 0.0000 0.0000
# 3 64.8409 27.8289 109.3209 0.0000 0.0000 0.0000
# 4 0.0000 0.0000 0.0000 1.9376 0.0000 0.0000
# 5 0.0000 0.0000 0.0000 0.0000 28.0404 0.0000
# 6 0.0000 0.0000 0.0000 0.0000 0.0000 14.4559
#
#
#
# Elastic Compliance Matrix: (Units=1/GPa)
#
#
# Indices 1 2 3 4 5 6 
#
# 1 0.011157 -0.003289 -0.005780 0.000000 0.000000 0.000000
# 2 -0.003289 0.020192 -0.003189 0.000000 0.000000 0.000000
# 3 -0.005780 -0.003189 0.013388 0.000000 0.000000 0.000000
# 4 0.000000 0.000000 0.000000 0.516106 0.000000 0.000000
# 5 0.000000 0.000000 0.000000 0.000000 0.035663 0.000000
# 6 0.000000 0.000000 0.000000 0.000000 0.000000 0.069176
#
#
# Mechanical properties :
#
#
# Convention : Reuss Voigt Hill
#
# Bulk Modulus (GPa) = 49.45742 61.11767 55.28755
# Shear Modulus (GPa) = 7.17423 20.65491 13.91457
#
# Velocity S-wave (km/s) = 2.29573 3.89533 3.19718
# Velocity P-wave (km/s) = 6.58482 8.07032 7.36512
#
# Compressibility (1/GPa) = 0.02021941
#
# Stress axis : x y z
#
# Youngs Moduli (GPa) = 89.62621 49.52483 74.69524
#
# Poissons Ratio (x) = 0.16290 0.43177
# Poissons Ratio (y) = 0.29480 0.23821
# Poissons Ratio (z) = 0.51808 0.15794
#
# Static dielectric constant tensor:
#      x y z
#    x 2.908740 0.000000 0.000000 
#    y 0.000000 2.195530 0.000000 
#    z 0.000000 0.000000 2.810130 
# 
# 
# High freq. dielectric constant tensor:
#      x y z
#    x 1.542570 0.000000 0.000000 
#    y 0.000000 1.448290 0.000000 
#    z 0.000000 0.000000 1.520980 
# 
# From -- ./inp_files/37515.got.cif
#   From: 2010.03.12/outbox.cif.g09.slc.cpg/sg51_19_cif.got.tgz:37515.got - 2010.04.16 13:43:02.
