data_PCOD8207564
_publ_section_title
;
Structure prediction by ZEFSAII (Michael W. Deem and Ramdas Pophale) SiO2 
 PCOD8207564
Probable space group: P M M A
;
_chemical_formula_sum "Si O2"
_cell_formula_units_Z 64
_cell_length_a 9.186822
_cell_length_b 25.647986
_cell_length_c 18.199439
_cell_angle_alpha 90.000000
_cell_angle_beta 90.000000
_cell_angle_gamma 90.000000
_cell_volume 4288.215188
_symmetry_space_group_name_H-M "P M M A"
_symmetry_group_IT_number 51
_symmetry_cell_setting 'orthorhombic'
loop_
_space_group_symop_operation_xyz
x,y,z
1/2-x,-y,z
1/2+x,-y,-z
-x,y,-z
-x,-y,-z
1/2+x,y,-z
1/2-x,y,z
x,-y,z
loop_
_atom_site_type_symbol
_atom_site_label
_atom_site_fract_x
_atom_site_fract_y
_atom_site_fract_z
Si Si1 0.410939 0.298175 0.304447
Si Si2 0.918223 0.060767 0.574212
Si Si3 0.418259 0.755436 0.576504
Si Si4 0.081782 0.140646 0.668560
Si Si5 0.418923 0.560649 0.925652
Si Si6 0.920959 0.255855 0.924320
Si Si7 0.421707 0.642730 0.163956
Si Si8 0.911183 0.193111 0.787688
O O1 0.250000 0.310436 0.336253
O O2 0.521896 0.291236 0.372007
O O3 0.461293 0.344043 0.248925
O O4 0.402803 0.246204 0.257166
O O5 0.750000 0.076592 0.565428
O O6 0.000000 0.076913 0.500000
O O7 0.989650 0.091535 0.641208
O O8 0.936949 0.000000 0.591297
O O9 0.500000 0.755297 0.500000
O O10 0.250000 0.744645 0.562270
O O11 0.445368 0.811046 0.614315
O O12 0.250000 0.125110 0.672856
O O13 0.026176 0.154000 0.750517
O O14 0.250000 0.574937 0.934355
O O15 0.442353 0.500000 0.909017
O O16 0.488567 0.591458 0.857555
O O17 0.500000 0.577611 0.000000
O O18 0.750000 0.257535 0.938018
O O19 0.972752 0.310482 0.889411
O O20 0.961498 0.207815 0.870067
O O21 0.000000 0.245038 0.000000
O O22 0.250000 0.632575 0.156075
O O23 0.750000 0.167348 0.788081
#
# Coordination Sequence:
#
# PCOD8207564 Si02
#       8
#     8   8   8   8   8   8   8   8
#     4   8  15  28  43  58  79 106 135 168 204 242
#     4  10  20  32  45  61  82 109 140 173 207 241
#     4  10  19  28  40  60  84 110 140 170 202 241
#     4  10  19  29  43  62  82 108 141 173 206 242
#     4  10  20  31  42  58  81 109 141 176 210 242
#     4   9  17  27  40  60  84 110 139 170 205 244
#     4   9  17  29  44  61  81 108 140 171 207 247
#     4   8  15  28  42  56  79 109 137 167 203 242
#
# _framework density 14.924624
#
# number of rings (size 3 to 8) (size 9 to 14) (size 15 to 20)
#    0.000    2.750    0.000    3.750    0.000    6.500 
#    0.000    2.500    0.000    0.000    0.000    0.000 
#    0.000    1.000    0.000    3.250    0.000    4.375 
#
# Total GULP energy -793490.415705 kJ/mol
# GULP energy per Si atom -12398.287745 kJ/mol
# Density = 1.489066 g / cm^3
# Si number density = 14.924624 Si / 1000 Ang^3
#
#
#
# Elastic Constant Matrix: (Units=GPa)
#
#
# Indices 1 2 3 4 5 6 
#
# 1 98.4171 40.8423 55.2582 0.0000 0.0000 0.0000
# 2 40.8423 48.3085 31.2930 0.0000 0.0000 0.0000
# 3 55.2582 31.2930 87.6426 0.0000 0.0000 0.0000
# 4 0.0000 0.0000 0.0000 24.7389 0.0000 0.0000
# 5 0.0000 0.0000 0.0000 0.0000 28.9453 0.0000
# 6 0.0000 0.0000 0.0000 0.0000 0.0000 22.1743
#
#
#
# Elastic Compliance Matrix: (Units=1/GPa)
#
#
# Indices 1 2 3 4 5 6 
#
# 1 0.019389 -0.011023 -0.008289 0.000000 0.000000 0.000000
# 2 -0.011023 0.033196 -0.004902 0.000000 0.000000 0.000000
# 3 -0.008289 -0.004902 0.018387 0.000000 0.000000 0.000000
# 4 0.000000 0.000000 0.000000 0.040422 0.000000 0.000000
# 5 0.000000 0.000000 0.000000 0.000000 0.034548 0.000000
# 6 0.000000 0.000000 0.000000 0.000000 0.000000 0.045097
#
#
# Mechanical properties :
#
#
# Convention : Reuss Voigt Hill
#
# Bulk Modulus (GPa) = 44.36153 54.35058 49.35606
# Shear Modulus (GPa) = 20.24433 22.30334 21.27384
#
# Velocity S-wave (km/s) = 3.68698 3.86994 3.77957
# Velocity P-wave (km/s) = 6.92195 7.51428 7.22419
#
# Compressibility (1/GPa) = 0.02254205
#
# Stress axis : x y z
#
# Youngs Moduli (GPa) = 51.57433 30.12451 54.38737
#
# Poissons Ratio (x) = 0.33207 0.45082
# Poissons Ratio (y) = 0.56852 0.26663
# Poissons Ratio (z) = 0.42750 0.14768
#
# Static dielectric constant tensor:
#      x y z
#    x 3.035250 0.000000 0.000000 
#    y 0.000000 2.680650 0.000000 
#    z 0.000000 0.000000 2.912660 
# 
# 
# High freq. dielectric constant tensor:
#      x y z
#    x 1.582050 0.000000 0.000000 
#    y 0.000000 1.535360 0.000000 
#    z 0.000000 0.000000 1.559530 
# 
# From -- ./inp_files/28611.got.cif
#   From: 2010.03.12/outbox.cif.g09.slc.cpg/sg51_15_cif.got.tgz:28611.got - 2010.04.16 13:43:02.
