data_PCOD8207704
_publ_section_title
;
Structure prediction by ZEFSAII (Michael W. Deem and Ramdas Pophale) SiO2 
 PCOD8207704
Probable space group: P M M A
;
_chemical_formula_sum "Si O2"
_cell_formula_units_Z 64
_cell_length_a 9.022960
_cell_length_b 24.821963
_cell_length_c 14.847421
_cell_angle_alpha 90.000000
_cell_angle_beta 90.000000
_cell_angle_gamma 90.000000
_cell_volume 3325.340940
_symmetry_space_group_name_H-M "P M M A"
_symmetry_group_IT_number 51
_symmetry_cell_setting 'orthorhombic'
loop_
_space_group_symop_operation_xyz
x,y,z
1/2-x,-y,z
1/2+x,-y,-z
-x,y,-z
-x,-y,-z
1/2+x,y,-z
1/2-x,y,z
x,-y,z
loop_
_atom_site_type_symbol
_atom_site_label
_atom_site_fract_x
_atom_site_fract_y
_atom_site_fract_z
Si Si1 0.918554 0.303331 0.867100
Si Si2 0.416016 0.339844 0.333364
Si Si3 0.424587 0.440678 0.719346
Si Si4 0.424805 0.770427 0.409379
Si Si5 0.577200 0.060857 0.409608
Si Si6 0.923519 0.406257 0.085935
Si Si7 0.074260 0.152385 0.728115
Si Si8 0.574564 0.180626 0.907469
O O1 0.750000 0.317072 0.895995
O O2 0.938968 0.309765 0.760841
O O3 0.962912 0.243364 0.894584
O O4 0.031846 0.343335 0.916420
O O5 0.250000 0.360954 0.344892
O O6 0.515066 0.393455 0.345101
O O7 0.454194 0.294078 0.406501
O O8 0.250000 0.435734 0.718583
O O9 0.475619 0.500000 0.685566
O O10 0.483191 0.432804 0.821658
O O11 0.500000 0.793056 0.500000
O O12 0.250000 0.783488 0.408197
O O13 0.502164 0.797611 0.324049
O O14 0.500000 0.082904 0.500000
O O15 0.750000 0.063425 0.429034
O O16 0.534224 0.097652 0.324830
O O17 0.524567 0.000000 0.387805
O O18 0.750000 0.413487 0.076594
O O19 0.000000 0.435183 0.000000
O O20 0.250000 0.161438 0.736745
O O21 0.000685 0.147437 0.826352
O O22 0.750000 0.169658 0.908707
O O23 0.500000 0.160425 0.000000
#
# Coordination Sequence:
#
# PCOD8207704 Si02
#       8
#     8   8   8   8   8   8   8   8
#     4   9  17  32  50  69  96 133 173 216 265 314
#     4   9  18  34  53  74 102 134 170 213 263 320
#     4   9  19  34  50  69  93 124 166 215 267 322
#     4  11  22  37  56  84 118 149 180 222 274 335
#     4   9  19  36  58  86 119 154 193 235 279 331
#     4  10  19  29  43  65  92 125 163 209 261 317
#     4  11  22  36  57  85 117 155 193 232 281 332
#     4  11  22  36  53  77 111 151 193 239 282 331
#
# _framework density 19.246147000000001
#
# number of rings (size 3 to 8) (size 9 to 14) (size 15 to 20)
#    0.000    2.125    1.250    2.250    0.000    6.000 
#    0.000    0.000    0.000    0.750    0.000    0.000 
#    0.000    0.000    0.000    0.000    0.000    0.000 
#
# Total GULP energy -793529.130563 kJ/mol
# GULP energy per Si atom -12398.892665 kJ/mol
# Density = 1.920234 g / cm^3
# Si number density = 19.246147 Si / 1000 Ang^3
#
#
#
# Elastic Constant Matrix: (Units=GPa)
#
#
# Indices 1 2 3 4 5 6 
#
# 1 83.7790 42.6048 45.0748 0.0000 0.0000 0.0000
# 2 42.6048 87.7051 38.7881 0.0000 0.0000 0.0000
# 3 45.0748 38.7881 99.6116 0.0000 0.0000 0.0000
# 4 0.0000 0.0000 0.0000 14.5950 0.0000 0.0000
# 5 0.0000 0.0000 0.0000 0.0000 31.0537 0.0000
# 6 0.0000 0.0000 0.0000 0.0000 0.0000 23.0907
#
#
#
# Elastic Compliance Matrix: (Units=1/GPa)
#
#
# Indices 1 2 3 4 5 6 
#
# 1 0.018269 -0.006304 -0.005812 0.000000 0.000000 0.000000
# 2 -0.006304 0.015949 -0.003358 0.000000 0.000000 0.000000
# 3 -0.005812 -0.003358 0.013977 0.000000 0.000000 0.000000
# 4 0.000000 0.000000 0.000000 0.068517 0.000000 0.000000
# 5 0.000000 0.000000 0.000000 0.000000 0.032202 0.000000
# 6 0.000000 0.000000 0.000000 0.000000 0.000000 0.043307
#
#
# Mechanical properties :
#
#
# Convention : Reuss Voigt Hill
#
# Bulk Modulus (GPa) = 57.98229 58.22568 58.10399
# Shear Modulus (GPa) = 21.84183 23.38974 22.61579
#
# Velocity S-wave (km/s) = 3.37243 3.48989 3.43166
# Velocity P-wave (km/s) = 6.73473 6.82334 6.77918
#
# Compressibility (1/GPa) = 0.01724665
#
# Stress axis : x y z
#
# Youngs Moduli (GPa) = 54.73715 62.69867 71.54860
#
# Poissons Ratio (x) = 0.39527 0.41584
# Poissons Ratio (y) = 0.34508 0.24025
# Poissons Ratio (z) = 0.31814 0.21053
#
# Static dielectric constant tensor:
#      x y z
#    x 3.471400 0.000000 0.000000 
#    y 0.000000 3.486140 0.000000 
#    z 0.000000 0.000000 3.549560 
# 
# 
# High freq. dielectric constant tensor:
#      x y z
#    x 1.749750 0.000000 0.000000 
#    y 0.000000 1.730690 0.000000 
#    z 0.000000 0.000000 1.738650 
# 
# From -- ./inp_files/22219.got.cif
#   From: 2010.03.12/outbox.cif.g09.slc.cpg/sg51_12_cif.got.tgz:22219.got - 2010.04.16 13:43:02.
