data_PCOD8207113
_publ_section_title
;
Structure prediction by ZEFSAII (Michael W. Deem and Ramdas Pophale) SiO2 
 PCOD8207113
Probable space group: P M M A
;
_chemical_formula_sum "Si O2"
_cell_formula_units_Z 64
_cell_length_a 21.664855
_cell_length_b 8.957590
_cell_length_c 19.181916
_cell_angle_alpha 90.000000
_cell_angle_beta 90.000000
_cell_angle_gamma 90.000000
_cell_volume 3722.536390
_symmetry_space_group_name_H-M "P M M A"
_symmetry_group_IT_number 51
_symmetry_cell_setting 'orthorhombic'
loop_
_space_group_symop_operation_xyz
x,y,z
1/2-x,-y,z
1/2+x,-y,-z
-x,y,-z
-x,-y,-z
1/2+x,y,-z
1/2-x,y,z
x,-y,z
loop_
_atom_site_type_symbol
_atom_site_label
_atom_site_fract_x
_atom_site_fract_y
_atom_site_fract_z
Si Si1 0.431900 0.835651 0.468545
Si Si2 0.319031 0.823650 0.962588
Si Si3 0.439690 0.826334 0.039376
Si Si4 0.125004 0.323809 0.833786
Si Si5 0.179411 0.830823 0.704259
Si Si6 0.111930 0.675035 0.594770
Si Si7 0.000321 0.827534 0.177809
Si Si8 0.004080 0.825326 0.335662
O O1 0.500000 0.839217 0.500000
O O2 0.391871 0.718716 0.513008
O O3 0.437768 0.788576 0.386809
O O4 0.401630 0.000000 0.474928
O O5 0.250000 0.782775 0.990989
O O6 0.326988 0.748152 0.887460
O O7 0.324537 0.000000 0.952604
O O8 0.373652 0.760310 0.013181
O O9 0.444298 0.798120 0.122812
O O10 0.438718 0.000000 0.021341
O O11 0.500000 0.756362 0.000000
O O12 0.130599 0.500000 0.837533
O O13 0.139693 0.267581 0.756701
O O14 0.055686 0.272404 0.850275
O O15 0.250000 0.825547 0.726339
O O16 0.170968 0.758499 0.627743
O O17 0.154240 0.000000 0.704761
O O18 0.120075 0.500000 0.600556
O O19 0.053350 0.726724 0.640126
O O20 0.022113 0.784528 0.256033
O O21 0.979236 0.000000 0.175049
O O22 0.986648 0.000000 0.343523
#
# Coordination Sequence:
#
# PCOD8207113 Si02
#       8
#     8   8   8   8   8   8   8   8
#     4   8  15  28  44  64  90 122 160 194 228 277
#     4  10  20  35  54  73  95 129 170 209 250 298
#     4   9  16  29  51  76  97 124 168 212 248 294
#     4  12  23  33  48  72 101 130 164 206 249 294
#     4  11  23  37  51  66  90 130 173 206 241 293
#     4  11  20  29  45  69  96 125 156 199 248 288
#     4  10  18  31  52  72  98 134 169 203 248 299
#     4   9  17  29  47  68  92 127 165 198 235 288
#
# _framework density 17.192578999999999
#
# number of rings (size 3 to 8) (size 9 to 14) (size 15 to 20)
#    0.000    2.000    2.500    3.750    0.000    5.000 
#    0.000    1.250    0.000    0.000    0.000    0.875 
#    0.000    5.000    0.000    0.000    0.000    0.000 
#
# Total GULP energy -793226.867053 kJ/mol
# GULP energy per Si atom -12394.169798 kJ/mol
# Density = 1.715345 g / cm^3
# Si number density = 17.192579 Si / 1000 Ang^3
#
#
#
# Elastic Constant Matrix: (Units=GPa)
#
#
# Indices 1 2 3 4 5 6 
#
# 1 81.6459 28.5280 45.6388 0.0000 0.0000 0.0000
# 2 28.5280 65.3365 26.1454 0.0000 0.0000 0.0000
# 3 45.6388 26.1454 109.5736 0.0000 0.0000 0.0000
# 4 0.0000 0.0000 0.0000 11.5157 0.0000 0.0000
# 5 0.0000 0.0000 0.0000 0.0000 23.0953 0.0000
# 6 0.0000 0.0000 0.0000 0.0000 0.0000 4.8580
#
#
#
# Elastic Compliance Matrix: (Units=1/GPa)
#
#
# Indices 1 2 3 4 5 6 
#
# 1 0.017430 -0.005202 -0.006019 0.000000 0.000000 0.000000
# 2 -0.005202 0.018474 -0.002241 0.000000 0.000000 0.000000
# 3 -0.006019 -0.002241 0.012168 0.000000 0.000000 0.000000
# 4 0.000000 0.000000 0.000000 0.086838 0.000000 0.000000
# 5 0.000000 0.000000 0.000000 0.000000 0.043299 0.000000
# 6 0.000000 0.000000 0.000000 0.000000 0.000000 0.205844
#
#
# Mechanical properties :
#
#
# Convention : Reuss Voigt Hill
#
# Bulk Modulus (GPa) = 47.28641 50.79782 49.04211
# Shear Modulus (GPa) = 11.96099 18.31005 15.13552
#
# Velocity S-wave (km/s) = 2.64049 3.26697 2.97029
# Velocity P-wave (km/s) = 6.07124 6.62128 6.35221
#
# Compressibility (1/GPa) = 0.02114773
#
# Stress axis : x y z
#
# Youngs Moduli (GPa) = 57.37253 54.13109 82.18362
#
# Poissons Ratio (x) = 0.28159 0.49462
# Poissons Ratio (y) = 0.29846 0.18420
# Poissons Ratio (z) = 0.34530 0.12132
#
# Static dielectric constant tensor:
#      x y z
#    x 3.075310 0.000000 0.000000 
#    y 0.000000 3.032570 0.000000 
#    z 0.000000 0.000000 3.508900 
# 
# 
# High freq. dielectric constant tensor:
#      x y z
#    x 1.623570 0.000000 0.000000 
#    y 0.000000 1.647150 0.000000 
#    z 0.000000 0.000000 1.667380 
# 
# From -- ./inp_files/34102.got.cif
#   From: 2010.03.12/outbox.cif.g09.slc.cpg/sg51_18_cif.got.tgz:34102.got - 2010.04.16 13:43:02.
