data_PCOD8207703
_publ_section_title
;
Structure prediction by ZEFSAII (Michael W. Deem and Ramdas Pophale) SiO2 
 PCOD8207703
Probable space group: P M M A
;
_chemical_formula_sum "Si O2"
_cell_formula_units_Z 64
_cell_length_a 20.362001
_cell_length_b 9.224400
_cell_length_c 20.096477
_cell_angle_alpha 90.000000
_cell_angle_beta 90.000000
_cell_angle_gamma 90.000000
_cell_volume 3774.665849
_symmetry_space_group_name_H-M "P M M A"
_symmetry_group_IT_number 51
_symmetry_cell_setting 'orthorhombic'
loop_
_space_group_symop_operation_xyz
x,y,z
1/2-x,-y,z
1/2+x,-y,-z
-x,y,-z
-x,-y,-z
1/2+x,y,-z
1/2-x,y,z
x,-y,z
loop_
_atom_site_type_symbol
_atom_site_label
_atom_site_fract_x
_atom_site_fract_y
_atom_site_fract_z
Si Si1 0.856859 0.837555 0.341225
Si Si2 0.658420 0.342442 0.221096
Si Si3 0.947567 0.668407 0.555497
Si Si4 0.547762 0.167772 0.061958
Si Si5 0.488964 0.834552 0.316304
Si Si6 0.509094 0.338063 0.191552
Si Si7 0.676318 0.664183 0.471243
Si Si8 0.822315 0.329643 0.073681
O O1 0.818699 0.762627 0.280011
O O2 0.836889 0.765354 0.409423
O O3 0.934179 0.828368 0.330634
O O4 0.831176 0.000000 0.343936
O O5 0.689856 0.500000 0.234165
O O6 0.580723 0.356530 0.221131
O O7 0.683153 0.281625 0.150624
O O8 0.960132 0.500000 0.572053
O O9 0.952555 0.759275 0.622569
O O10 0.874186 0.699666 0.530029
O O11 0.000000 0.721060 0.500000
O O12 0.512373 0.250897 0.122371
O O13 0.618485 0.237358 0.041284
O O14 0.558676 0.000000 0.081763
O O15 0.500000 0.183270 0.000000
O O16 0.469103 0.752208 0.247539
O O17 0.464762 0.000000 0.309814
O O18 0.478555 0.500000 0.180334
O O19 0.750000 0.688167 0.498783
O O20 0.665410 0.500000 0.446523
O O21 0.750000 0.298796 0.040957
O O22 0.840415 0.500000 0.068311
#
# Coordination Sequence:
#
# PCOD8207703 Si02
#       8
#     8   8   8   8   8   8   8   8
#     4  10  19  29  43  65  92 122 157 195 234 278
#     4   8  15  27  43  63  90 124 160 195 231 272
#     4  10  19  32  51  71  90 119 161 203 243 291
#     4  10  20  33  50  75 107 139 169 204 249 300
#     4  10  19  30  48  73  99 124 155 201 249 290
#     4   9  17  30  49  72  98 128 164 203 241 286
#     4  10  21  35  48  63  87 120 157 198 244 292
#     4   9  18  32  49  70  96 130 173 213 245 286
#
# _framework density 16.955143
#
# number of rings (size 3 to 8) (size 9 to 14) (size 15 to 20)
#    0.000    2.500    1.250    2.250    0.000    6.750 
#    0.000    1.250    0.000    0.000    0.000    0.875 
#    0.000    5.000    0.000    0.000    0.000    0.000 
#
# Total GULP energy -793248.567284 kJ/mol
# GULP energy per Si atom -12394.508864 kJ/mol
# Density = 1.691655 g / cm^3
# Si number density = 16.955143 Si / 1000 Ang^3
#
#
#
# Elastic Constant Matrix: (Units=GPa)
#
#
# Indices 1 2 3 4 5 6 
#
# 1 52.2503 49.4183 32.2674 0.0000 0.0000 0.0000
# 2 49.4183 115.9924 59.2059 0.0000 0.0000 0.0000
# 3 32.2674 59.2059 81.2934 0.0000 0.0000 0.0000
# 4 0.0000 0.0000 0.0000 29.1175 0.0000 0.0000
# 5 0.0000 0.0000 0.0000 0.0000 4.2366 0.0000
# 6 0.0000 0.0000 0.0000 0.0000 0.0000 2.7616
#
#
#
# Elastic Compliance Matrix: (Units=1/GPa)
#
#
# Indices 1 2 3 4 5 6 
#
# 1 0.033086 -0.011767 -0.004562 0.000000 0.000000 0.000000
# 2 -0.011767 0.017908 -0.008371 0.000000 0.000000 0.000000
# 3 -0.004562 -0.008371 0.020209 0.000000 0.000000 0.000000
# 4 0.000000 0.000000 0.000000 0.034344 0.000000 0.000000
# 5 0.000000 0.000000 0.000000 0.000000 0.236041 0.000000
# 6 0.000000 0.000000 0.000000 0.000000 0.000000 0.362111
#
#
# Mechanical properties :
#
#
# Convention : Reuss Voigt Hill
#
# Bulk Modulus (GPa) = 45.87144 59.03548 52.45346
# Shear Modulus (GPa) = 6.57577 14.46608 10.52093
#
# Velocity S-wave (km/s) = 1.97149 2.92412 2.49372
# Velocity P-wave (km/s) = 5.68293 6.80403 6.26859
#
# Compressibility (1/GPa) = 0.02180006
#
# Stress axis : x y z
#
# Youngs Moduli (GPa) = 30.22449 55.84193 49.48294
#
# Poissons Ratio (x) = 0.65711 0.22577
# Poissons Ratio (y) = 0.35566 0.41424
# Poissons Ratio (z) = 0.13790 0.46748
#
# Static dielectric constant tensor:
#      x y z
#    x 3.247030 0.000000 0.000000 
#    y 0.000000 3.441700 0.000000 
#    z 0.000000 0.000000 2.998920 
# 
# 
# High freq. dielectric constant tensor:
#      x y z
#    x 1.625910 0.000000 0.000000 
#    y 0.000000 1.663920 0.000000 
#    z 0.000000 0.000000 1.632610 
# 
# From -- ./inp_files/30630.got.cif
#   From: 2010.03.12/outbox.cif.g09.slc.cpg/sg51_16_cif.got.tgz:30630.got - 2010.04.16 13:43:02.
