data_PCOD8207909
_publ_section_title
;
Structure prediction by ZEFSAII (Michael W. Deem and Ramdas Pophale) SiO2 
 PCOD8207909
Probable space group: P M M A
;
_chemical_formula_sum "Si O2"
_cell_formula_units_Z 56
_cell_length_a 9.066482
_cell_length_b 21.226696
_cell_length_c 18.339609
_cell_angle_alpha 90.000000
_cell_angle_beta 90.000000
_cell_angle_gamma 90.000000
_cell_volume 3529.484477
_symmetry_space_group_name_H-M "P M M A"
_symmetry_group_IT_number 51
_symmetry_cell_setting 'orthorhombic'
loop_
_space_group_symop_operation_xyz
x,y,z
1/2-x,-y,z
1/2+x,-y,-z
-x,y,-z
-x,-y,-z
1/2+x,y,-z
1/2-x,y,z
x,-y,z
loop_
_atom_site_type_symbol
_atom_site_label
_atom_site_fract_x
_atom_site_fract_y
_atom_site_fract_z
Si Si1 0.416186 0.850150 0.216102
Si Si2 0.423442 0.328552 0.169323
Si Si3 0.916523 0.207909 0.926123
Si Si4 0.919693 0.740878 0.286737
Si Si5 0.577261 0.815189 0.425021
Si Si6 0.919558 0.070444 0.652865
Si Si7 0.921064 0.426429 0.074203
O O1 0.250000 0.821582 0.230268
O O2 0.437151 0.852704 0.128185
O O3 0.543269 0.805693 0.246502
O O4 0.431501 0.915882 0.259519
O O5 0.250000 0.340673 0.171240
O O6 0.469233 0.270674 0.116514
O O7 0.480075 0.314440 0.251890
O O8 0.505006 0.390895 0.141744
O O9 0.750000 0.217331 0.950305
O O10 0.000000 0.194694 0.000000
O O11 0.750000 0.723221 0.273759
O O12 0.952388 0.755162 0.371971
O O13 0.500000 0.797020 0.500000
O O14 0.750000 0.826022 0.436859
O O15 0.512454 0.880442 0.394121
O O16 0.750000 0.075742 0.627774
O O17 0.980257 0.000000 0.639357
O O18 0.750000 0.408442 0.067779
O O19 0.944581 0.500000 0.088457
O O20 0.000000 0.404673 0.000000
#
# Coordination Sequence:
#
# PCOD8207909 Si02
#       7
#     8   8   8   8   8   8   8
#     4   8  15  28  42  58  81 106 136 175 218 263
#     4  10  19  30  45  64  87 117 151 186 223 263
#     4   9  17  26  38  58  81 105 135 174 218 260
#     4   9  17  29  45  65  86 110 142 178 217 259
#     4  10  20  32  47  67  92 119 142 171 213 260
#     4   9  17  30  48  65  81 108 145 180 214 256
#     4  10  20  32  45  63  91 127 163 197 230 262
#
# _framework density 15.866339999999999
#
# number of rings (size 3 to 8) (size 9 to 14) (size 15 to 20)
#    0.000    2.714    0.000    3.000    0.000    7.143 
#    0.000    0.000    0.000    0.429    0.000    0.000 
#    0.000    0.571    0.000    1.857    0.000    3.143 
#
# Total GULP energy -693905.780704 kJ/mol
# GULP energy per Si atom -12391.174655 kJ/mol
# Density = 1.583023 g / cm^3
# Si number density = 15.866340 Si / 1000 Ang^3
#
#
#
# Elastic Constant Matrix: (Units=GPa)
#
#
# Indices 1 2 3 4 5 6 
#
# 1 88.1345 38.4868 56.6390 0.0000 0.0000 0.0000
# 2 38.4868 51.9528 39.7728 0.0000 0.0000 0.0000
# 3 56.6390 39.7728 112.6664 0.0000 0.0000 0.0000
# 4 0.0000 0.0000 0.0000 21.0564 0.0000 0.0000
# 5 0.0000 0.0000 0.0000 0.0000 27.8713 0.0000
# 6 0.0000 0.0000 0.0000 0.0000 0.0000 20.8923
#
#
#
# Elastic Compliance Matrix: (Units=1/GPa)
#
#
# Indices 1 2 3 4 5 6 
#
# 1 0.019747 -0.009632 -0.006527 0.000000 0.000000 0.000000
# 2 -0.009632 0.031075 -0.006128 0.000000 0.000000 0.000000
# 3 -0.006527 -0.006128 0.014320 0.000000 0.000000 0.000000
# 4 0.000000 0.000000 0.000000 0.047491 0.000000 0.000000
# 5 0.000000 0.000000 0.000000 0.000000 0.035879 0.000000
# 6 0.000000 0.000000 0.000000 0.000000 0.000000 0.047864
#
#
# Mechanical properties :
#
#
# Convention : Reuss Voigt Hill
#
# Bulk Modulus (GPa) = 48.61743 58.06120 53.33932
# Shear Modulus (GPa) = 20.17712 21.82102 20.99907
#
# Velocity S-wave (km/s) = 3.56995 3.71253 3.64194
# Velocity P-wave (km/s) = 6.90660 7.41961 7.16769
#
# Compressibility (1/GPa) = 0.02056875
#
# Stress axis : x y z
#
# Youngs Moduli (GPa) = 50.64131 32.18055 69.83218
#
# Poissons Ratio (x) = 0.30996 0.45578
# Poissons Ratio (y) = 0.48777 0.42791
# Poissons Ratio (z) = 0.33053 0.19719
#
# Static dielectric constant tensor:
#      x y z
#    x 3.104860 0.000000 0.000000 
#    y 0.000000 2.818130 0.000000 
#    z 0.000000 0.000000 3.144310 
# 
# 
# High freq. dielectric constant tensor:
#      x y z
#    x 1.621840 0.000000 0.000000 
#    y 0.000000 1.569770 0.000000 
#    z 0.000000 0.000000 1.602560 
# 
# From -- ./inp_files/28177.got.cif
#   From: 2010.03.12/outbox.cif.g09.slc.cpg/sg51_15_cif.got.tgz:28177.got - 2010.04.16 13:43:02.
