data_PCOD8207558
_publ_section_title
;
Structure prediction by ZEFSAII (Michael W. Deem and Ramdas Pophale) SiO2 
 PCOD8207558
Probable space group: P M M A
;
_chemical_formula_sum "Si O2"
_cell_formula_units_Z 64
_cell_length_a 8.917445
_cell_length_b 26.266265
_cell_length_c 18.203561
_cell_angle_alpha 90.000000
_cell_angle_beta 90.000000
_cell_angle_gamma 90.000000
_cell_volume 4263.783203
_symmetry_space_group_name_H-M "P M M A"
_symmetry_group_IT_number 51
_symmetry_cell_setting 'orthorhombic'
loop_
_space_group_symop_operation_xyz
x,y,z
1/2-x,-y,z
1/2+x,-y,-z
-x,y,-z
-x,-y,-z
1/2+x,y,-z
1/2-x,y,z
x,-y,z
loop_
_atom_site_type_symbol
_atom_site_label
_atom_site_fract_x
_atom_site_fract_y
_atom_site_fract_z
Si Si1 0.918913 0.694547 0.297830
Si Si2 0.924284 0.738203 0.921853
Si Si3 0.073556 0.154114 0.661356
Si Si4 0.915716 0.793657 0.197709
Si Si5 0.927025 0.359735 0.827360
Si Si6 0.574607 0.943334 0.424559
Si Si7 0.928615 0.753595 0.579071
Si Si8 0.076308 0.440532 0.924084
O O1 0.750000 0.677106 0.318123
O O2 0.914184 0.744273 0.248286
O O3 0.002217 0.650030 0.252724
O O4 0.012569 0.706944 0.370978
O O5 0.750000 0.742170 0.934463
O O6 0.970946 0.685468 0.883370
O O7 0.973627 0.785869 0.870869
O O8 0.000000 0.741984 0.000000
O O9 0.250000 0.166285 0.649370
O O10 0.032141 0.160564 0.747998
O O11 0.031792 0.096388 0.639422
O O12 0.978567 0.192048 0.611000
O O13 0.750000 0.804296 0.165766
O O14 0.750000 0.365113 0.818917
O O15 0.996574 0.411788 0.857441
O O16 0.500000 0.925253 0.500000
O O17 0.750000 0.943319 0.438988
O O18 0.518928 0.000000 0.401616
O O19 0.750000 0.751782 0.574593
O O20 0.000000 0.745802 0.500000
O O21 0.250000 0.425206 0.928291
O O22 0.053701 0.500000 0.909382
O O23 0.000000 0.423669 0.000000
#
# Coordination Sequence:
#
# PCOD8207558 Si02
#       8
#     8   8   8   8   8   8   8   8
#     4   9  17  30  45  61  83 110 139 172 209 248
#     4  10  19  28  40  59  82 107 136 167 200 242
#     4   9  17  29  43  59  80 109 142 173 209 249
#     4   8  15  27  41  56  77 104 133 166 202 241
#     4  10  19  30  45  64  85 112 144 175 210 252
#     4   9  17  28  41  58  81 108 139 174 208 243
#     4  11  20  29  42  61  85 112 143 176 210 249
#     4  10  20  32  45  62  85 114 148 185 221 254
#
# _framework density 15.010144
#
# number of rings (size 3 to 8) (size 9 to 14) (size 15 to 20)
#    0.000    2.500    0.000    4.125    0.000    7.750 
#    0.000    0.000    0.000    0.000    0.000    0.000 
#    0.000    1.000    0.000    2.750    0.000    4.125 
#
# Total GULP energy -793472.461964 kJ/mol
# GULP energy per Si atom -12398.007218 kJ/mol
# Density = 1.497598 g / cm^3
# Si number density = 15.010144 Si / 1000 Ang^3
#
#
#
# Elastic Constant Matrix: (Units=GPa)
#
#
# Indices 1 2 3 4 5 6 
#
# 1 86.4533 34.5450 54.0577 0.0000 0.0000 0.0000
# 2 34.5450 60.5360 40.6762 0.0000 0.0000 0.0000
# 3 54.0577 40.6762 94.6350 0.0000 0.0000 0.0000
# 4 0.0000 0.0000 0.0000 27.0142 0.0000 0.0000
# 5 0.0000 0.0000 0.0000 0.0000 27.8981 0.0000
# 6 0.0000 0.0000 0.0000 0.0000 0.0000 17.4227
#
#
#
# Elastic Compliance Matrix: (Units=1/GPa)
#
#
# Indices 1 2 3 4 5 6 
#
# 1 0.019010 -0.004994 -0.008713 0.000000 0.000000 0.000000
# 2 -0.004994 0.024539 -0.007695 0.000000 0.000000 0.000000
# 3 -0.008713 -0.007695 0.018851 0.000000 0.000000 0.000000
# 4 0.000000 0.000000 0.000000 0.037018 0.000000 0.000000
# 5 0.000000 0.000000 0.000000 0.000000 0.035845 0.000000
# 6 0.000000 0.000000 0.000000 0.000000 0.000000 0.057396
#
#
# Mechanical properties :
#
#
# Convention : Reuss Voigt Hill
#
# Bulk Modulus (GPa) = 51.02583 55.57580 53.30082
# Shear Modulus (GPa) = 20.66159 21.95669 21.30914
#
# Velocity S-wave (km/s) = 3.71416 3.82879 3.77191
# Velocity P-wave (km/s) = 7.24302 7.52676 7.38625
#
# Compressibility (1/GPa) = 0.01959792
#
# Stress axis : x y z
#
# Youngs Moduli (GPa) = 52.60318 40.75090 53.04709
#
# Poissons Ratio (x) = 0.20351 0.46218
# Poissons Ratio (y) = 0.26270 0.40819
# Poissons Ratio (z) = 0.45831 0.31357
#
# Static dielectric constant tensor:
#      x y z
#    x 3.040630 0.000000 0.000000 
#    y 0.000000 2.858200 0.000000 
#    z 0.000000 0.000000 2.974970 
# 
# 
# High freq. dielectric constant tensor:
#      x y z
#    x 1.588310 0.000000 0.000000 
#    y 0.000000 1.540790 0.000000 
#    z 0.000000 0.000000 1.563160 
# 
# From -- ./inp_files/28686.got.cif
#   From: 2010.03.12/outbox.cif.g09.slc.cpg/sg51_15_cif.got.tgz:28686.got - 2010.04.16 13:43:02.
