data_PCOD8207136
_publ_section_title
;
Structure prediction by ZEFSAII (Michael W. Deem and Ramdas Pophale) SiO2 
 PCOD8207136
Probable space group: P M M A
;
_chemical_formula_sum "Si O2"
_cell_formula_units_Z 64
_cell_length_a 16.545411
_cell_length_b 14.240655
_cell_length_c 12.651584
_cell_angle_alpha 90.000000
_cell_angle_beta 90.000000
_cell_angle_gamma 90.000000
_cell_volume 2980.934465
_symmetry_space_group_name_H-M "P M M A"
_symmetry_group_IT_number 51
_symmetry_cell_setting 'orthorhombic'
loop_
_space_group_symop_operation_xyz
x,y,z
1/2-x,-y,z
1/2+x,-y,-z
-x,y,-z
-x,-y,-z
1/2+x,y,-z
1/2-x,y,z
x,-y,z
loop_
_atom_site_type_symbol
_atom_site_label
_atom_site_fract_x
_atom_site_fract_y
_atom_site_fract_z
Si Si1 0.659294 0.341397 0.110814
Si Si2 0.657787 0.755925 0.464412
Si Si3 0.414260 0.101307 0.041581
Si Si4 0.089286 0.605607 0.680478
Si Si5 0.338338 0.128471 0.831063
Si Si6 0.154431 0.283083 0.119058
Si Si7 0.957941 0.105748 0.350971
Si Si8 0.068185 0.279521 0.328675
O O1 0.750000 0.383519 0.109180
O O2 0.603326 0.399778 0.191560
O O3 0.658393 0.239487 0.161338
O O4 0.626278 0.336699 0.989117
O O5 0.750000 0.792732 0.467843
O O6 0.654278 0.673153 0.376677
O O7 0.597121 0.842766 0.439629
O O8 0.633111 0.714113 0.577708
O O9 0.372324 0.174314 0.119333
O O10 0.426747 0.000000 0.098987
O O11 0.500000 0.141629 0.000000
O O12 0.354176 0.084051 0.944452
O O13 0.096047 0.500000 0.636161
O O14 0.002846 0.647307 0.648805
O O15 0.250000 0.096367 0.791131
O O16 0.405512 0.090863 0.753028
O O17 0.250000 0.291127 0.130344
O O18 0.110516 0.320948 0.223079
O O19 0.034118 0.172346 0.321543
O O20 0.984615 0.000000 0.388387
#
# Coordination Sequence:
#
# PCOD8207136 Si02
#       8
#     8   8   8   8   8   8   8   8
#     4   9  18  35  59  89 123 155 194 247 305 362
#     4  11  24  42  65  92 122 159 204 255 308 365
#     4  10  20  31  48  79 116 156 205 257 303 351
#     4  11  23  41  68  98 122 149 193 253 319 376
#     4  10  18  31  52  79 115 152 191 246 305 354
#     4  10  22  38  59  84 120 171 210 247 303 363
#     4  11  22  37  59  89 123 164 208 255 308 356
#     4  11  24  42  62  86 126 166 207 251 295 369
#
# _framework density 21.469778000000002
#
# number of rings (size 3 to 8) (size 9 to 14) (size 15 to 20)
#    0.000    1.625    2.500    4.875    1.750    7.000 
#    0.000    1.250    0.000    4.125    0.000    0.000 
#    0.000    0.000    0.000    0.000    0.000    0.000 
#
# Total GULP energy -793125.740502 kJ/mol
# GULP energy per Si atom -12392.589695 kJ/mol
# Density = 2.142091 g / cm^3
# Si number density = 21.469778 Si / 1000 Ang^3
#
#
#
# Elastic Constant Matrix: (Units=GPa)
#
#
# Indices 1 2 3 4 5 6 
#
# 1 76.5607 7.2581 19.3340 0.0000 0.0000 0.0000
# 2 7.2581 85.2309 10.5037 0.0000 0.0000 0.0000
# 3 19.3340 10.5037 106.1956 0.0000 0.0000 0.0000
# 4 0.0000 0.0000 0.0000 29.8019 0.0000 0.0000
# 5 0.0000 0.0000 0.0000 0.0000 41.8037 0.0000
# 6 0.0000 0.0000 0.0000 0.0000 0.0000 6.5360
#
#
#
# Elastic Compliance Matrix: (Units=1/GPa)
#
#
# Indices 1 2 3 4 5 6 
#
# 1 0.013755 -0.000873 -0.002418 0.000000 0.000000 0.000000
# 2 -0.000873 0.011933 -0.001021 0.000000 0.000000 0.000000
# 3 -0.002418 -0.001021 0.009958 0.000000 0.000000 0.000000
# 4 0.000000 0.000000 0.000000 0.033555 0.000000 0.000000
# 5 0.000000 0.000000 0.000000 0.000000 0.023921 0.000000
# 6 0.000000 0.000000 0.000000 0.000000 0.000000 0.152998
#
#
# Mechanical properties :
#
#
# Convention : Reuss Voigt Hill
#
# Bulk Modulus (GPa) = 37.00854 38.01986 37.51420
# Shear Modulus (GPa) = 18.95719 31.02107 24.98913
#
# Velocity S-wave (km/s) = 2.97471 3.80527 3.41533
# Velocity P-wave (km/s) = 5.39198 6.08718 5.75010
#
# Compressibility (1/GPa) = 0.02702079
#
# Stress axis : x y z
#
# Youngs Moduli (GPa) = 72.70128 83.80078 100.42386
#
# Poissons Ratio (x) = 0.07319 0.24281
# Poissons Ratio (y) = 0.06350 0.10256
# Poissons Ratio (z) = 0.17578 0.08558
#
# Static dielectric constant tensor:
#      x y z
#    x 3.825160 0.000000 0.000000 
#    y 0.000000 4.175900 0.000000 
#    z 0.000000 0.000000 3.948290 
# 
# 
# High freq. dielectric constant tensor:
#      x y z
#    x 1.836400 0.000000 0.000000 
#    y 0.000000 1.819770 0.000000 
#    z 0.000000 0.000000 1.839000 
# 
# From -- ./inp_files/17581.got.cif
#   From: 2010.03.12/outbox.cif.g09.slc.cpg/sg51_9_cif.got.tgz:17581.got - 2010.04.16 13:43:02.
