data_PCOD8207529
_publ_section_title
;
Structure prediction by ZEFSAII (Michael W. Deem and Ramdas Pophale) SiO2 
 PCOD8207529
Probable space group: P M M A
;
_chemical_formula_sum "Si O2"
_cell_formula_units_Z 48
_cell_length_a 27.938631
_cell_length_b 13.339045
_cell_length_c 5.849147
_cell_angle_alpha 90.000000
_cell_angle_beta 90.000000
_cell_angle_gamma 90.000000
_cell_volume 2179.828847
_symmetry_space_group_name_H-M "P M M A"
_symmetry_group_IT_number 51
_symmetry_cell_setting 'orthorhombic'
loop_
_space_group_symop_operation_xyz
x,y,z
1/2-x,-y,z
1/2+x,-y,-z
-x,y,-z
-x,-y,-z
1/2+x,y,-z
1/2-x,y,z
x,-y,z
loop_
_atom_site_type_symbol
_atom_site_label
_atom_site_fract_x
_atom_site_fract_y
_atom_site_fract_z
Si Si1 0.631460 0.765152 0.187479
Si Si2 0.071680 0.112542 0.160640
Si Si3 0.696327 0.700547 0.808445
Si Si4 0.977742 0.698551 0.751097
Si Si5 0.888273 0.385461 0.554317
Si Si6 0.167543 0.888917 0.430547
O O1 0.600961 0.688649 0.343021
O O2 0.666432 0.842771 0.317241
O O3 0.592109 0.831491 0.061073
O O4 0.667461 0.695898 0.043563
O O5 0.027304 0.179898 0.249863
O O6 0.112579 0.108859 0.350980
O O7 0.053933 0.000000 0.101429
O O8 0.750000 0.657801 0.834508
O O9 0.666780 0.632645 0.629666
O O10 0.698779 0.817167 0.731254
O O11 0.924970 0.646796 0.755603
O O12 0.000000 0.665253 0.500000
O O13 0.000000 0.664125 0.000000
O O14 0.895675 0.500000 0.481531
O O15 0.190318 0.000000 0.430774
#
# Coordination Sequence:
#
# PCOD8207529 Si02
#       6
#     8   8   8   8   8   8
#     4  10  18  39  64  95 130 175 223 280 335 413
#     4  10  20  38  64  97 136 179 220 271 337 408
#     4  10  22  40  64  94 131 169 217 281 345 415
#     4  12  26  45  70 104 143 181 237 291 342 416
#     4  11  25  46  69  92 129 177 224 288 356 408
#     4   9  18  34  62  92 129 177 220 265 330 407
#
# _framework density 22.020076
#
# number of rings (size 3 to 8) (size 9 to 14) (size 15 to 20)
#    0.000    1.667    5.000    1.500    0.000    6.000 
#    0.000    0.000    0.000    0.000    0.000    0.000 
#    0.000    0.000    0.000    0.000    0.000    0.000 
#
# Total GULP energy -594768.505919 kJ/mol
# GULP energy per Si atom -12391.010540 kJ/mol
# Density = 2.196996 g / cm^3
# Si number density = 22.020076 Si / 1000 Ang^3
#
#
#
# Elastic Constant Matrix: (Units=GPa)
#
#
# Indices 1 2 3 4 5 6 
#
# 1 74.6657 7.8420 19.5120 0.0000 0.0000 0.0000
# 2 7.8420 120.7102 20.7536 0.0000 0.0000 0.0000
# 3 19.5120 20.7536 107.0632 0.0000 0.0000 0.0000
# 4 0.0000 0.0000 0.0000 16.6614 0.0000 0.0000
# 5 0.0000 0.0000 0.0000 0.0000 14.5331 0.0000
# 6 0.0000 0.0000 0.0000 0.0000 0.0000 13.3495
#
#
#
# Elastic Compliance Matrix: (Units=1/GPa)
#
#
# Indices 1 2 3 4 5 6 
#
# 1 0.014091 -0.000490 -0.002473 0.000000 0.000000 0.000000
# 2 -0.000490 0.008587 -0.001575 0.000000 0.000000 0.000000
# 3 -0.002473 -0.001575 0.010096 0.000000 0.000000 0.000000
# 4 0.000000 0.000000 0.000000 0.060019 0.000000 0.000000
# 5 0.000000 0.000000 0.000000 0.000000 0.068809 0.000000
# 6 0.000000 0.000000 0.000000 0.000000 0.000000 0.074909
#
#
# Mechanical properties :
#
#
# Convention : Reuss Voigt Hill
#
# Bulk Modulus (GPa) = 42.19903 44.29495 43.24699
# Shear Modulus (GPa) = 19.72492 25.86423 22.79457
#
# Velocity S-wave (km/s) = 2.99619 3.43093 3.22090
# Velocity P-wave (km/s) = 5.58346 5.98785 5.78919
#
# Compressibility (1/GPa) = 0.02369723
#
# Stress axis : x y z
#
# Youngs Moduli (GPa) = 70.96845 116.45548 99.04601
#
# Poissons Ratio (x) = 0.05709 0.24494
# Poissons Ratio (y) = 0.03479 0.15602
# Poissons Ratio (z) = 0.17550 0.18344
#
# Static dielectric constant tensor:
#      x y z
#    x 3.720720 0.000000 0.000000 
#    y 0.000000 3.963350 0.000000 
#    z 0.000000 0.000000 4.050350 
# 
# 
# High freq. dielectric constant tensor:
#      x y z
#    x 1.847640 0.000000 0.000000 
#    y 0.000000 1.851630 0.000000 
#    z 0.000000 0.000000 1.867140 
# 
# From -- ./inp_files/3515.got.cif
#   From: 2010.03.12/outbox.cif.g09.slc.cpg/sg51_2_cif.got.tgz:3515.got - 2010.04.16 13:43:02.
