data_PCOD8207179
_publ_section_title
;
Structure prediction by ZEFSAII (Michael W. Deem and Ramdas Pophale) SiO2 
 PCOD8207179
Probable space group: P M M A
;
_chemical_formula_sum "Si O2"
_cell_formula_units_Z 64
_cell_length_a 27.657091
_cell_length_b 18.511013
_cell_length_c 5.518352
_cell_angle_alpha 90.000000
_cell_angle_beta 90.000000
_cell_angle_gamma 90.000000
_cell_volume 2825.179745
_symmetry_space_group_name_H-M "P M M A"
_symmetry_group_IT_number 51
_symmetry_cell_setting 'orthorhombic'
loop_
_space_group_symop_operation_xyz
x,y,z
1/2-x,-y,z
1/2+x,-y,-z
-x,y,-z
-x,-y,-z
1/2+x,y,-z
1/2-x,y,z
x,-y,z
loop_
_atom_site_type_symbol
_atom_site_label
_atom_site_fract_x
_atom_site_fract_y
_atom_site_fract_z
Si Si1 0.447753 0.635011 0.961590
Si Si2 0.192706 0.083433 0.203109
Si Si3 0.970203 0.922559 0.248915
Si Si4 0.693779 0.848186 0.298713
Si Si5 0.805124 0.294675 0.052045
Si Si6 0.377817 0.308755 0.334025
Si Si7 0.050051 0.228302 0.644330
Si Si8 0.356886 0.417651 0.711815
O O1 0.421665 0.646652 0.214703
O O2 0.500000 0.596605 0.000000
O O3 0.456653 0.714581 0.856577
O O4 0.413392 0.586453 0.790322
O O5 0.250000 0.093854 0.202192
O O6 0.171865 0.116408 0.949647
O O7 0.177256 0.000000 0.216496
O O8 0.171165 0.122426 0.447621
O O9 0.936747 0.851159 0.249607
O O10 0.000000 0.920727 0.500000
O O11 0.941901 0.000000 0.243624
O O12 0.000000 0.917213 0.000000
O O13 0.750000 0.868471 0.303265
O O14 0.686943 0.760326 0.278461
O O15 0.750000 0.292894 0.961892
O O16 0.840340 0.267023 0.838980
O O17 0.821518 0.377229 0.099547
O O18 0.401864 0.247545 0.497575
O O19 0.348765 0.372314 0.469091
O O20 0.000000 0.226872 0.500000
O O21 0.340415 0.500000 0.680185
#
# Coordination Sequence:
#
# PCOD8207179 Si02
#       8
#     8   8   8   8   8   8   8   8
#     4  10  19  36  62  92 126 162 208 251 314 392
#     4   9  16  28  50  84 122 155 193 250 317 382
#     4   9  18  30  49  85 130 180 232 279 330 392
#     4   9  18  31  54  85 117 154 203 257 313 381
#     4  10  23  42  65  89 119 163 219 280 339 399
#     4  10  22  38  61  94 124 164 215 270 329 404
#     4  10  18  31  60  91 129 172 217 270 323 395
#     4  10  24  42  60  89 125 159 207 268 330 405
#
# _framework density 22.653426
#
# number of rings (size 3 to 8) (size 9 to 14) (size 15 to 20)
#    0.000    2.375    1.250    0.750    3.500    4.500 
#    0.000    0.625    0.000    1.500    0.000    0.000 
#    0.000    0.000    0.000    0.000    0.000    0.000 
#
# Total GULP energy -792855.866875 kJ/mol
# GULP energy per Si atom -12388.372920 kJ/mol
# Density = 2.260187 g / cm^3
# Si number density = 22.653426 Si / 1000 Ang^3
#
#
#
# Elastic Constant Matrix: (Units=GPa)
#
#
# Indices 1 2 3 4 5 6 
#
# 1 71.5265 6.9752 8.6970 0.0000 0.0000 0.0000
# 2 6.9752 159.6866 33.3125 0.0000 0.0000 0.0000
# 3 8.6970 33.3125 113.5897 0.0000 0.0000 0.0000
# 4 0.0000 0.0000 0.0000 0.5739 0.0000 0.0000
# 5 0.0000 0.0000 0.0000 0.0000 14.8984 0.0000
# 6 0.0000 0.0000 0.0000 0.0000 0.0000 16.9775
#
#
#
# Elastic Compliance Matrix: (Units=1/GPa)
#
#
# Indices 1 2 3 4 5 6 
#
# 1 0.014138 -0.000417 -0.000960 0.000000 0.000000 0.000000
# 2 -0.000417 0.006683 -0.001928 0.000000 0.000000 0.000000
# 3 -0.000960 -0.001928 0.009443 0.000000 0.000000 0.000000
# 4 0.000000 0.000000 0.000000 1.742582 0.000000 0.000000
# 5 0.000000 0.000000 0.000000 0.000000 0.067121 0.000000
# 6 0.000000 0.000000 0.000000 0.000000 0.000000 0.058902
#
#
# Mechanical properties :
#
#
# Convention : Reuss Voigt Hill
#
# Bulk Modulus (GPa) = 42.27810 49.19689 45.73750
# Shear Modulus (GPa) = 2.61320 26.21116 14.41218
#
# Velocity S-wave (km/s) = 1.07520 3.40524 2.52504
# Velocity P-wave (km/s) = 4.49944 6.10124 5.36051
#
# Compressibility (1/GPa) = 0.02365291
#
# Stress axis : x y z
#
# Youngs Moduli (GPa) = 70.73005 149.64072 105.90394
#
# Poissons Ratio (x) = 0.06244 0.10168
# Poissons Ratio (y) = 0.02951 0.20417
# Poissons Ratio (z) = 0.06791 0.28849
#
# Static dielectric constant tensor:
#      x y z
#    x 3.512900 0.000000 0.000000 
#    y 0.000000 4.120680 0.000000 
#    z 0.000000 0.000000 4.332160 
# 
# 
# High freq. dielectric constant tensor:
#      x y z
#    x 1.860040 0.000000 0.000000 
#    y 0.000000 1.888210 0.000000 
#    z 0.000000 0.000000 1.903840 
# 
# From -- ./inp_files/4108.got.cif
#   From: 2010.03.12/outbox.cif.g09.slc.cpg/sg51_3_cif.got.tgz:4108.got - 2010.04.16 13:43:02.
