data_PCOD8207735
_publ_section_title
;
Structure prediction by ZEFSAII (Michael W. Deem and Ramdas Pophale) SiO2 
 PCOD8207735
Probable space group: P M M A
;
_chemical_formula_sum "Si O2"
_cell_formula_units_Z 56
_cell_length_a 9.041172
_cell_length_b 18.859247
_cell_length_c 19.091648
_cell_angle_alpha 90.000000
_cell_angle_beta 90.000000
_cell_angle_gamma 90.000000
_cell_volume 3255.311095
_symmetry_space_group_name_H-M "P M M A"
_symmetry_group_IT_number 51
_symmetry_cell_setting 'orthorhombic'
loop_
_space_group_symop_operation_xyz
x,y,z
1/2-x,-y,z
1/2+x,-y,-z
-x,y,-z
-x,-y,-z
1/2+x,y,-z
1/2-x,y,z
x,-y,z
loop_
_atom_site_type_symbol
_atom_site_label
_atom_site_fract_x
_atom_site_fract_y
_atom_site_fract_z
Si Si1 0.074995 0.922002 0.842058
Si Si2 0.077013 0.808999 0.429345
Si Si3 0.925745 0.212371 0.073168
Si Si4 0.923309 0.355533 0.570834
Si Si5 0.424185 0.292222 0.793865
Si Si6 0.924146 0.840200 0.293340
Si Si7 0.422049 0.419394 0.702671
O O1 0.250000 0.923798 0.847495
O O2 0.017379 0.864124 0.898080
O O3 0.032193 0.900568 0.762742
O O4 0.007764 0.000000 0.858682
O O5 0.250000 0.822641 0.435871
O O6 0.038209 0.726630 0.416558
O O7 0.000000 0.836301 0.500000
O O8 0.011714 0.854405 0.365074
O O9 0.750000 0.212769 0.064107
O O10 0.981372 0.272915 0.128086
O O11 0.000000 0.230045 0.000000
O O12 0.750000 0.368619 0.563872
O O13 0.000000 0.382896 0.500000
O O14 0.984506 0.402012 0.634234
O O15 0.250000 0.284419 0.797335
O O16 0.480606 0.234869 0.737589
O O17 0.474030 0.370181 0.768079
O O18 0.750000 0.839681 0.309402
O O19 0.250000 0.405468 0.685561
O O20 0.451285 0.500000 0.725683
#
# Coordination Sequence:
#
# PCOD8207735 Si02
#       7
#     8   8   8   8   8   8   8
#     4   8  15  28  47  72  99 127 156 182 219 274
#     4  10  19  29  44  67  92 119 154 196 238 276
#     4   9  17  30  49  72  97 126 154 186 223 264
#     4  10  20  32  46  65  92 125 156 192 236 281
#     4   8  15  29  47  66  90 118 152 188 227 275
#     4   9  15  27  49  68  87 119 154 193 232 269
#     4  10  19  31  49  69  89 118 156 198 238 276
#
# _framework density 17.202656000000001
#
# number of rings (size 3 to 8) (size 9 to 14) (size 15 to 20)
#    0.000    2.857    1.429    2.571    0.000    2.000 
#    0.000    3.571    0.000    2.143    0.000    0.000 
#    0.000    0.000    0.000    0.000    0.000    0.000 
#
# Total GULP energy -694138.092934 kJ/mol
# GULP energy per Si atom -12395.323088 kJ/mol
# Density = 1.716350 g / cm^3
# Si number density = 17.202656 Si / 1000 Ang^3
#
#
#
# Elastic Constant Matrix: (Units=GPa)
#
#
# Indices 1 2 3 4 5 6 
#
# 1 45.6496 19.9515 39.2288 0.0000 0.0000 0.0000
# 2 19.9515 75.9779 48.8074 0.0000 0.0000 0.0000
# 3 39.2288 48.8074 147.3045 0.0000 0.0000 0.0000
# 4 0.0000 0.0000 0.0000 20.7179 0.0000 0.0000
# 5 0.0000 0.0000 0.0000 0.0000 30.4698 0.0000
# 6 0.0000 0.0000 0.0000 0.0000 0.0000 12.3938
#
#
#
# Elastic Compliance Matrix: (Units=1/GPa)
#
#
# Indices 1 2 3 4 5 6 
#
# 1 0.029075 -0.003380 -0.006623 0.000000 0.000000 0.000000
# 2 -0.003380 0.017114 -0.004770 0.000000 0.000000 0.000000
# 3 -0.006623 -0.004770 0.010133 0.000000 0.000000 0.000000
# 4 0.000000 0.000000 0.000000 0.048267 0.000000 0.000000
# 5 0.000000 0.000000 0.000000 0.000000 0.032819 0.000000
# 6 0.000000 0.000000 0.000000 0.000000 0.000000 0.080686
#
#
# Mechanical properties :
#
#
# Convention : Reuss Voigt Hill
#
# Bulk Modulus (GPa) = 37.34899 53.87858 45.61379
# Shear Modulus (GPa) = 19.48818 23.44592 21.46705
#
# Velocity S-wave (km/s) = 3.36945 3.69579 3.53638
# Velocity P-wave (km/s) = 6.07420 7.04270 6.57631
#
# Compressibility (1/GPa) = 0.02677449
#
# Stress axis : x y z
#
# Youngs Moduli (GPa) = 34.39407 58.43269 98.68816
#
# Poissons Ratio (x) = 0.19753 0.65360
# Poissons Ratio (y) = 0.11627 0.47076
# Poissons Ratio (z) = 0.22779 0.27873
#
# Static dielectric constant tensor:
#      x y z
#    x 2.901730 0.000000 0.000000 
#    y 0.000000 3.306610 0.000000 
#    z 0.000000 0.000000 3.275020 
# 
# 
# High freq. dielectric constant tensor:
#      x y z
#    x 1.636860 0.000000 0.000000 
#    y 0.000000 1.641560 0.000000 
#    z 0.000000 0.000000 1.663990 
# 
# From -- ./inp_files/28199.got.cif
#   From: 2010.03.12/outbox.cif.g09.slc.cpg/sg51_15_cif.got.tgz:28199.got - 2010.04.16 13:43:02.
