data_PCOD8207132
_publ_section_title
;
Structure prediction by ZEFSAII (Michael W. Deem and Ramdas Pophale) SiO2 
 PCOD8207132
Probable space group: P M M A
;
_chemical_formula_sum "Si O2"
_cell_formula_units_Z 56
_cell_length_a 18.502322
_cell_length_b 9.212446
_cell_length_c 17.236747
_cell_angle_alpha 90.000000
_cell_angle_beta 90.000000
_cell_angle_gamma 90.000000
_cell_volume 2938.031834
_symmetry_space_group_name_H-M "P M M A"
_symmetry_group_IT_number 51
_symmetry_cell_setting 'orthorhombic'
loop_
_space_group_symop_operation_xyz
x,y,z
1/2-x,-y,z
1/2+x,-y,-z
-x,y,-z
-x,-y,-z
1/2+x,y,-z
1/2-x,y,z
x,-y,z
loop_
_atom_site_type_symbol
_atom_site_label
_atom_site_fract_x
_atom_site_fract_y
_atom_site_fract_z
Si Si1 0.332218 0.664723 0.751607
Si Si2 0.332737 0.165741 0.470298
Si Si3 0.081154 0.328609 0.600654
Si Si4 0.446271 0.172520 0.170464
Si Si5 0.899391 0.827953 0.111659
Si Si6 0.668321 0.172919 0.951370
Si Si7 0.446846 0.833175 0.345643
O O1 0.250000 0.679385 0.724046
O O2 0.351027 0.500000 0.775094
O O3 0.381104 0.717396 0.680674
O O4 0.344896 0.766980 0.824651
O O5 0.250000 0.214422 0.461824
O O6 0.371868 0.270259 0.530195
O O7 0.368644 0.181299 0.385414
O O8 0.339266 0.000000 0.499875
O O9 0.073605 0.500000 0.591150
O O10 0.002216 0.257149 0.601269
O O11 0.519398 0.228130 0.128710
O O12 0.377192 0.231091 0.122415
O O13 0.442266 0.231715 0.258506
O O14 0.444729 0.000000 0.170984
O O15 0.896042 0.000000 0.115652
O O16 0.872486 0.770862 0.028377
O O17 0.750000 0.235413 0.947451
O O18 0.670577 0.000000 0.951885
O O19 0.473068 0.000000 0.343357
#
# Coordination Sequence:
#
# PCOD8207132 Si02
#       7
#     8   8   8   8   8   8   8
#     4  10  21  35  51  74 106 140 171 210 262 317
#     4  10  22  38  56  80 110 142 178 223 271 319
#     4  11  22  37  57  80 108 141 180 222 268 323
#     4   9  17  30  50  75 106 142 176 215 264 313
#     4  10  18  31  52  78 106 136 176 219 263 314
#     4   9  17  28  46  77 111 140 175 221 266 309
#     4  10  20  36  57  81 108 142 182 222 267 320
#
# _framework density 19.060378
#
# number of rings (size 3 to 8) (size 9 to 14) (size 15 to 20)
#    0.000    2.143    1.429    2.143    0.000    6.857 
#    0.000    2.857    0.000    2.571    0.000    0.000 
#    0.000    0.000    0.000    0.000    0.000    0.000 
#
# Total GULP energy -694483.403960 kJ/mol
# GULP energy per Si atom -12401.489356 kJ/mol
# Density = 1.901700 g / cm^3
# Si number density = 19.060378 Si / 1000 Ang^3
#
#
#
# Elastic Constant Matrix: (Units=GPa)
#
#
# Indices 1 2 3 4 5 6 
#
# 1 138.2565 30.5315 73.3532 0.0000 0.0000 0.0000
# 2 30.5315 37.6894 35.2637 0.0000 0.0000 0.0000
# 3 73.3532 35.2637 110.0809 0.0000 0.0000 0.0000
# 4 0.0000 0.0000 0.0000 13.9246 0.0000 0.0000
# 5 0.0000 0.0000 0.0000 0.0000 32.1322 0.0000
# 6 0.0000 0.0000 0.0000 0.0000 0.0000 12.9786
#
#
#
# Elastic Compliance Matrix: (Units=1/GPa)
#
#
# Indices 1 2 3 4 5 6 
#
# 1 0.011428 -0.003045 -0.006640 0.000000 0.000000 0.000000
# 2 -0.003045 0.038701 -0.010368 0.000000 0.000000 0.000000
# 3 -0.006640 -0.010368 0.016830 0.000000 0.000000 0.000000
# 4 0.000000 0.000000 0.000000 0.071815 0.000000 0.000000
# 5 0.000000 0.000000 0.000000 0.000000 0.031121 0.000000
# 6 0.000000 0.000000 0.000000 0.000000 0.000000 0.077050
#
#
# Mechanical properties :
#
#
# Convention : Reuss Voigt Hill
#
# Bulk Modulus (GPa) = 37.24083 62.70263 49.97173
# Shear Modulus (GPa) = 16.89176 21.59898 19.24537
#
# Velocity S-wave (km/s) = 2.98018 3.36994 3.18103
# Velocity P-wave (km/s) = 5.60560 6.93615 6.30607
#
# Compressibility (1/GPa) = 0.02685225
#
# Stress axis : x y z
#
# Youngs Moduli (GPa) = 87.50286 25.83943 59.41778
#
# Poissons Ratio (x) = 0.07869 0.39451
# Poissons Ratio (y) = 0.26649 0.61605
# Poissons Ratio (z) = 0.58099 0.26791
#
# Static dielectric constant tensor:
#      x y z
#    x 3.667550 0.000000 0.000000 
#    y 0.000000 3.104520 0.000000 
#    z 0.000000 0.000000 3.618130 
# 
# 
# High freq. dielectric constant tensor:
#      x y z
#    x 1.751550 0.000000 0.000000 
#    y 0.000000 1.699220 0.000000 
#    z 0.000000 0.000000 1.748850 
# 
# From -- ./inp_files/25720.got.cif
#   From: 2010.03.12/outbox.cif.g09.slc.cpg/sg51_13_cif.got.tgz:25720.got - 2010.04.16 13:43:02.
