data_PCOD8207786
_publ_section_title
;
Structure prediction by ZEFSAII (Michael W. Deem and Ramdas Pophale) SiO2 
 PCOD8207786
Probable space group: P M M A
;
_chemical_formula_sum "Si O2"
_cell_formula_units_Z 64
_cell_length_a 17.874509
_cell_length_b 10.193394
_cell_length_c 20.013213
_cell_angle_alpha 90.000000
_cell_angle_beta 90.000000
_cell_angle_gamma 90.000000
_cell_volume 3646.445690
_symmetry_space_group_name_H-M "P M M A"
_symmetry_group_IT_number 51
_symmetry_cell_setting 'orthorhombic'
loop_
_space_group_symop_operation_xyz
x,y,z
1/2-x,-y,z
1/2+x,-y,-z
-x,y,-z
-x,-y,-z
1/2+x,y,-z
1/2-x,y,z
x,-y,z
loop_
_atom_site_type_symbol
_atom_site_label
_atom_site_fract_x
_atom_site_fract_y
_atom_site_fract_z
Si Si1 0.663618 0.640256 0.646376
Si Si2 0.907909 0.844467 0.145478
Si Si3 0.076904 0.845177 0.115692
Si Si4 0.167076 0.844935 0.986941
Si Si5 0.664149 0.156686 0.283262
Si Si6 0.905905 0.846659 0.558797
Si Si7 0.428988 0.846965 0.591092
Si Si8 0.338044 0.353025 0.206508
O O1 0.750000 0.622660 0.659798
O O2 0.632407 0.500000 0.617748
O O3 0.654399 0.761249 0.596878
O O4 0.628161 0.667021 0.719086
O O5 0.856782 0.788254 0.085427
O O6 0.877091 0.789880 0.216383
O O7 0.992243 0.799985 0.129461
O O8 0.903644 0.000000 0.147305
O O9 0.128337 0.763752 0.164323
O O10 0.087728 0.000000 0.129244
O O11 0.103802 0.807028 0.041003
O O12 0.250000 0.789429 0.005449
O O13 0.171439 0.000000 0.981867
O O14 0.750000 0.207474 0.285255
O O15 0.619267 0.214718 0.347976
O O16 0.663692 0.000000 0.284755
O O17 0.891463 0.818983 0.480540
O O18 0.986086 0.794649 0.585861
O O19 0.895079 0.000000 0.574409
O O20 0.434243 0.000000 0.604021
O O21 0.250000 0.333840 0.203697
O O22 0.359395 0.500000 0.180742
#
# Coordination Sequence:
#
# PCOD8207786 Si02
#       8
#     8   8   8   8   8   8   8   8
#     4   9  19  34  49  67  95 129 162 199 241 287
#     4   9  17  27  41  66  98 129 159 196 243 286
#     4  10  19  29  47  75 100 122 155 204 247 282
#     4   9  16  27  43  64  96 133 162 192 237 291
#     4   9  16  26  41  62  92 131 168 195 229 287
#     4   9  17  30  49  71  98 127 157 197 247 294
#     4   8  16  29  43  66  99 129 155 196 247 288
#     4   9  19  35  50  66  95 132 164 195 237 292
#
# _framework density 17.551338000000001
#
# number of rings (size 3 to 8) (size 9 to 14) (size 15 to 20)
#    0.000    3.000    0.000    2.625    1.750    5.000 
#    0.000    3.750    0.000    1.500    0.000    0.000 
#    0.000    2.500    0.000    0.250    0.000    0.000 
#
# Total GULP energy -792921.316548 kJ/mol
# GULP energy per Si atom -12389.395571 kJ/mol
# Density = 1.751139 g / cm^3
# Si number density = 17.551338 Si / 1000 Ang^3
#
#
#
# Elastic Constant Matrix: (Units=GPa)
#
#
# Indices 1 2 3 4 5 6 
#
# 1 91.4270 17.5386 63.3676 0.0000 0.0000 0.0000
# 2 17.5386 40.5046 35.4623 0.0000 0.0000 0.0000
# 3 63.3676 35.4623 136.8271 0.0000 0.0000 0.0000
# 4 0.0000 0.0000 0.0000 2.3253 0.0000 0.0000
# 5 0.0000 0.0000 0.0000 0.0000 36.3186 0.0000
# 6 0.0000 0.0000 0.0000 0.0000 0.0000 9.6487
#
#
#
# Elastic Compliance Matrix: (Units=1/GPa)
#
#
# Indices 1 2 3 4 5 6 
#
# 1 0.016119 -0.000574 -0.007316 0.000000 0.000000 0.000000
# 2 -0.000574 0.031955 -0.008016 0.000000 0.000000 0.000000
# 3 -0.007316 -0.008016 0.012774 0.000000 0.000000 0.000000
# 4 0.000000 0.000000 0.000000 0.430059 0.000000 0.000000
# 5 0.000000 0.000000 0.000000 0.000000 0.027534 0.000000
# 6 0.000000 0.000000 0.000000 0.000000 0.000000 0.103641
#
#
# Mechanical properties :
#
#
# Convention : Reuss Voigt Hill
#
# Bulk Modulus (GPa) = 34.44050 55.72177 45.08114
# Shear Modulus (GPa) = 7.53496 19.81784 13.67640
#
# Velocity S-wave (km/s) = 2.07423 3.36391 2.79448
# Velocity P-wave (km/s) = 5.04003 6.84870 6.01276
#
# Compressibility (1/GPa) = 0.02903558
#
# Stress axis : x y z
#
# Youngs Moduli (GPa) = 62.04033 31.29362 78.28199
#
# Poissons Ratio (x) = 0.01796 0.57272
# Poissons Ratio (y) = 0.03562 0.62753
# Poissons Ratio (z) = 0.45389 0.25086
#
# Static dielectric constant tensor:
#      x y z
#    x 3.394400 0.000000 0.000000 
#    y 0.000000 2.753010 0.000000 
#    z 0.000000 0.000000 3.534600 
# 
# 
# High freq. dielectric constant tensor:
#      x y z
#    x 1.677870 0.000000 0.000000 
#    y 0.000000 1.617210 0.000000 
#    z 0.000000 0.000000 1.689600 
# 
# From -- ./inp_files/30255.got.cif
#   From: 2010.03.12/outbox.cif.g09.slc.cpg/sg51_16_cif.got.tgz:30255.got - 2010.04.16 13:43:02.
