data_PCOD8207695
_publ_section_title
;
Structure prediction by ZEFSAII (Michael W. Deem and Ramdas Pophale) SiO2 
 PCOD8207695
Probable space group: P M M A
;
_chemical_formula_sum "Si O2"
_cell_formula_units_Z 64
_cell_length_a 8.764563
_cell_length_b 31.050730
_cell_length_c 14.318650
_cell_angle_alpha 90.000000
_cell_angle_beta 90.000000
_cell_angle_gamma 90.000000
_cell_volume 3896.764458
_symmetry_space_group_name_H-M "P M M A"
_symmetry_group_IT_number 51
_symmetry_cell_setting 'orthorhombic'
loop_
_space_group_symop_operation_xyz
x,y,z
1/2-x,-y,z
1/2+x,-y,-z
-x,y,-z
-x,-y,-z
1/2+x,y,-z
1/2-x,y,z
x,-y,z
loop_
_atom_site_type_symbol
_atom_site_label
_atom_site_fract_x
_atom_site_fract_y
_atom_site_fract_z
Si Si1 0.429524 0.861238 0.898244
Si Si2 0.926853 0.550305 0.097892
Si Si3 0.928456 0.747290 0.594663
Si Si4 0.427054 0.215015 0.209895
Si Si5 0.068953 0.654827 0.597223
Si Si6 0.429156 0.045388 0.899207
Si Si7 0.569454 0.380548 0.776656
Si Si8 0.069699 0.700524 0.101755
O O1 0.250000 0.857459 0.910545
O O2 0.483188 0.826647 0.823457
O O3 0.478771 0.908466 0.855402
O O4 0.500000 0.852496 0.000000
O O5 0.750000 0.563521 0.096784
O O6 0.949548 0.500000 0.116729
O O7 0.016028 0.574672 0.179295
O O8 0.000000 0.564232 0.000000
O O9 0.750000 0.738080 0.579940
O O10 0.956654 0.780142 0.679452
O O11 0.000000 0.767289 0.500000
O O12 0.008471 0.702499 0.619663
O O13 0.250000 0.208262 0.188171
O O14 0.488438 0.257095 0.155903
O O15 0.250000 0.655234 0.591649
O O16 0.000000 0.637946 0.500000
O O17 0.012283 0.622664 0.677055
O O18 0.250000 0.046131 0.911713
O O19 0.476343 0.000000 0.845856
O O20 0.500000 0.043515 0.000000
O O21 0.750000 0.379995 0.762486
O O22 0.513834 0.341296 0.842004
O O23 0.250000 0.700723 0.093316
O O24 0.000000 0.699598 0.000000
#
# Coordination Sequence:
#
# PCOD8207695 Si02
#       8
#     8   8   8   8   8   8   8   8
#     4  10  19  29  43  64  90 124 165 199 235 285
#     4  10  21  37  56  80 108 137 170 206 247 294
#     4  10  19  34  52  71  95 123 160 202 245 287
#     4  10  20  34  47  63  94 130 160 194 237 282
#     4  11  21  34  54  78 103 130 163 202 247 293
#     4   8  14  25  40  58  82 113 151 197 241 279
#     4  11  21  36  55  76 103 132 168 208 246 290
#     4  10  21  34  46  65  95 129 163 198 232 274
#
# _framework density 16.423881000000002
#
# number of rings (size 3 to 8) (size 9 to 14) (size 15 to 20)
#    0.000    2.000    1.250    4.125    0.000    5.750 
#    0.000    0.000    0.000    0.375    0.000    0.000 
#    0.000    0.500    0.000    1.125    0.000    2.000 
#
# Total GULP energy -793318.629549 kJ/mol
# GULP energy per Si atom -12395.603587 kJ/mol
# Density = 1.638650 g / cm^3
# Si number density = 16.423881 Si / 1000 Ang^3
#
#
#
# Elastic Constant Matrix: (Units=GPa)
#
#
# Indices 1 2 3 4 5 6 
#
# 1 80.9908 38.5999 45.2047 0.0000 0.0000 0.0000
# 2 38.5999 93.9449 52.3598 0.0000 0.0000 0.0000
# 3 45.2047 52.3598 107.8528 0.0000 0.0000 0.0000
# 4 0.0000 0.0000 0.0000 7.3870 0.0000 0.0000
# 5 0.0000 0.0000 0.0000 0.0000 28.7920 0.0000
# 6 0.0000 0.0000 0.0000 0.0000 0.0000 17.0644
#
#
#
# Elastic Compliance Matrix: (Units=1/GPa)
#
#
# Indices 1 2 3 4 5 6 
#
# 1 0.017242 -0.004191 -0.005192 0.000000 0.000000 0.000000
# 2 -0.004191 0.015612 -0.005823 0.000000 0.000000 0.000000
# 3 -0.005192 -0.005823 0.014275 0.000000 0.000000 0.000000
# 4 0.000000 0.000000 0.000000 0.135374 0.000000 0.000000
# 5 0.000000 0.000000 0.000000 0.000000 0.034732 0.000000
# 6 0.000000 0.000000 0.000000 0.000000 0.000000 0.058602
#
#
# Mechanical properties :
#
#
# Convention : Reuss Voigt Hill
#
# Bulk Modulus (GPa) = 59.81689 61.67971 60.74830
# Shear Modulus (GPa) = 16.03490 20.42361 18.22925
#
# Velocity S-wave (km/s) = 3.12800 3.53020 3.33517
# Velocity P-wave (km/s) = 7.03886 7.36565 7.20411
#
# Compressibility (1/GPa) = 0.01671769
#
# Stress axis : x y z
#
# Youngs Moduli (GPa) = 57.99644 64.05519 70.05272
#
# Poissons Ratio (x) = 0.26843 0.36375
# Poissons Ratio (y) = 0.24304 0.40789
# Poissons Ratio (z) = 0.30115 0.37297
#
# Static dielectric constant tensor:
#      x y z
#    x 3.184240 0.000000 0.000000 
#    y 0.000000 3.384820 0.000000 
#    z 0.000000 0.000000 3.112410 
# 
# 
# High freq. dielectric constant tensor:
#      x y z
#    x 1.644230 0.000000 0.000000 
#    y 0.000000 1.626180 0.000000 
#    z 0.000000 0.000000 1.611710 
# 
# From -- ./inp_files/22606.got.cif
#   From: 2010.03.12/outbox.cif.g09.slc.cpg/sg51_12_cif.got.tgz:22606.got - 2010.04.16 13:43:02.
