data_PCOD8207856
_publ_section_title
;
Structure prediction by ZEFSAII (Michael W. Deem and Ramdas Pophale) SiO2 
 PCOD8207856
Probable space group: P M M A
;
_chemical_formula_sum "Si O2"
_cell_formula_units_Z 52
_cell_length_a 8.958788
_cell_length_b 12.394017
_cell_length_c 30.124168
_cell_angle_alpha 90.000000
_cell_angle_beta 90.000000
_cell_angle_gamma 90.000000
_cell_volume 3344.848163
_symmetry_space_group_name_H-M "P M M A"
_symmetry_group_IT_number 51
_symmetry_cell_setting 'orthorhombic'
loop_
_space_group_symop_operation_xyz
x,y,z
1/2-x,-y,z
1/2+x,-y,-z
-x,y,-z
-x,-y,-z
1/2+x,y,-z
1/2-x,y,z
x,-y,z
loop_
_atom_site_type_symbol
_atom_site_label
_atom_site_fract_x
_atom_site_fract_y
_atom_site_fract_z
Si Si1 0.581509 0.128704 0.368457
Si Si2 0.424050 0.126449 0.808107
Si Si3 0.418360 0.871367 0.456187
Si Si4 0.925692 0.000000 0.952389
Si Si5 0.418152 0.128301 0.281101
Si Si6 0.076980 0.373860 0.954423
Si Si7 0.926997 0.795265 0.895023
O O1 0.750000 0.172633 0.367285
O O2 0.502341 0.173149 0.412731
O O3 0.494437 0.174321 0.325627
O O4 0.580224 0.000000 0.368228
O O5 0.250000 0.153681 0.810727
O O6 0.486645 0.167661 0.761052
O O7 0.511929 0.190636 0.845674
O O8 0.455137 0.000000 0.814347
O O9 0.500000 0.826528 0.500000
O O10 0.250000 0.827299 0.455786
O O11 0.419890 0.000000 0.456264
O O12 0.978983 0.895271 0.925381
O O13 0.750000 0.000000 0.959084
O O14 0.000000 0.000000 0.000000
O O15 0.250000 0.173563 0.277680
O O16 0.416463 0.000000 0.282996
O O17 0.250000 0.341888 0.957107
O O18 0.054019 0.500000 0.945978
O O19 0.997960 0.313593 0.914012
O O20 0.000000 0.336770 0.000000
O O21 0.750000 0.784794 0.893331
#
# Coordination Sequence:
#
# PCOD8207856 Si02
#       7
#     8   8   8   4   8   8   8
#     4   9  15  22  31  43  59  80 110 147 187 234
#     4  10  19  30  44  62  84 111 139 168 204 248
#     4   9  15  21  28  38  53  74 102 139 186 236
#     4  10  22  34  46  66  92 118 142 170 203 244
#     4   9  16  25  37  51  69  94 123 157 194 236
#     4  10  21  37  55  74  94 116 145 178 211 248
#     4  11  21  34  50  69  93 119 146 175 210 252
#
# _framework density 15.546296999999999
#
# number of rings (size 3 to 8) (size 9 to 14) (size 15 to 20)
#    0.000    2.308    0.769    3.231    0.000    9.538 
#    0.000    0.000    0.000    0.000    0.000    0.000 
#    0.000    0.000    0.000    0.000    0.000    0.000 
#
# Total GULP energy -644885.710906 kJ/mol
# GULP energy per Si atom -12401.648287 kJ/mol
# Density = 1.551091 g / cm^3
# Si number density = 15.546297 Si / 1000 Ang^3
#
#
#
# Elastic Constant Matrix: (Units=GPa)
#
#
# Indices 1 2 3 4 5 6 
#
# 1 124.6709 24.6448 68.5383 0.0000 0.0000 0.0000
# 2 24.6448 24.4212 26.9113 0.0000 0.0000 0.0000
# 3 68.5383 26.9113 150.0271 0.0000 0.0000 0.0000
# 4 0.0000 0.0000 0.0000 5.6593 0.0000 0.0000
# 5 0.0000 0.0000 0.0000 0.0000 37.6900 0.0000
# 6 0.0000 0.0000 0.0000 0.0000 0.0000 13.5730
#
#
#
# Elastic Compliance Matrix: (Units=1/GPa)
#
#
# Indices 1 2 3 4 5 6 
#
# 1 0.011686 -0.007366 -0.004017 0.000000 0.000000 0.000000
# 2 -0.007366 0.055679 -0.006622 0.000000 0.000000 0.000000
# 3 -0.004017 -0.006622 0.009689 0.000000 0.000000 0.000000
# 4 0.000000 0.000000 0.000000 0.176701 0.000000 0.000000
# 5 0.000000 0.000000 0.000000 0.000000 0.026532 0.000000
# 6 0.000000 0.000000 0.000000 0.000000 0.000000 0.073676
#
#
# Mechanical properties :
#
#
# Convention : Reuss Voigt Hill
#
# Bulk Modulus (GPa) = 24.36517 59.92312 42.14414
# Shear Modulus (GPa) = 12.38684 23.31943 17.85313
#
# Velocity S-wave (km/s) = 2.82578 3.87718 3.39246
# Velocity P-wave (km/s) = 5.13355 7.65977 6.52018
#
# Compressibility (1/GPa) = 0.04104220
#
# Stress axis : x y z
#
# Youngs Moduli (GPa) = 85.57484 17.96009 103.21401
#
# Poissons Ratio (x) = 0.13229 0.41463
# Poissons Ratio (y) = 0.63033 0.68353
# Poissons Ratio (z) = 0.34377 0.11894
#
# Static dielectric constant tensor:
#      x y z
#    x 3.172780 0.000000 0.000000 
#    y 0.000000 2.402590 0.000000 
#    z 0.000000 0.000000 3.134550 
# 
# 
# High freq. dielectric constant tensor:
#      x y z
#    x 1.619250 0.000000 0.000000 
#    y 0.000000 1.511710 0.000000 
#    z 0.000000 0.000000 1.611410 
# 
# From -- ./inp_files/36230.got.cif
#   From: 2010.03.12/outbox.cif.g09.slc.cpg/sg51_19_cif.got.tgz:36230.got - 2010.04.16 13:43:02.
