data_PCOD8207124
_publ_section_title
;
Structure prediction by ZEFSAII (Michael W. Deem and Ramdas Pophale) SiO2 
 PCOD8207124
Probable space group: P M M A
;
_chemical_formula_sum "Si O2"
_cell_formula_units_Z 64
_cell_length_a 20.054476
_cell_length_b 8.795483
_cell_length_c 19.710249
_cell_angle_alpha 90.000000
_cell_angle_beta 90.000000
_cell_angle_gamma 90.000000
_cell_volume 3476.667223
_symmetry_space_group_name_H-M "P M M A"
_symmetry_group_IT_number 51
_symmetry_cell_setting 'orthorhombic'
loop_
_space_group_symop_operation_xyz
x,y,z
1/2-x,-y,z
1/2+x,-y,-z
-x,y,-z
-x,-y,-z
1/2+x,y,-z
1/2-x,y,z
x,-y,z
loop_
_atom_site_type_symbol
_atom_site_label
_atom_site_fract_x
_atom_site_fract_y
_atom_site_fract_z
Si Si1 0.674652 0.827848 0.663492
Si Si2 0.079500 0.175566 0.455822
Si Si3 0.173512 0.821685 0.989666
Si Si4 0.552009 0.176732 0.272318
Si Si5 0.944113 0.679578 0.409776
Si Si6 0.920147 0.328925 0.755756
Si Si7 0.067050 0.673208 0.088360
Si Si8 0.569577 0.177855 0.121125
O O1 0.750000 0.785426 0.652839
O O2 0.643723 0.802768 0.589803
O O3 0.648509 0.710528 0.719414
O O4 0.663533 0.000000 0.689418
O O5 0.098084 0.242613 0.529837
O O6 0.020351 0.269609 0.420343
O O7 0.057597 0.000000 0.462185
O O8 0.250000 0.756451 0.990940
O O9 0.125560 0.752379 0.046328
O O10 0.176303 0.000000 0.002630
O O11 0.138819 0.785280 0.917156
O O12 0.583938 0.265710 0.336213
O O13 0.473148 0.208053 0.272576
O O14 0.578920 0.236260 0.198909
O O15 0.566640 0.000000 0.282587
O O16 0.937531 0.500000 0.414504
O O17 0.943884 0.500000 0.737816
O O18 0.908314 0.311490 0.835127
O O19 0.060939 0.500000 0.064108
O O20 0.992897 0.745458 0.081713
O O21 0.553225 0.000000 0.122017
#
# Coordination Sequence:
#
# PCOD8207124 Si02
#       8
#     8   8   8   8   8   8   8   8
#     4  10  21  35  51  71  99 136 174 210 248 298
#     4  10  19  32  50  72 100 133 170 208 252 300
#     4  10  21  37  56  78 105 138 177 221 267 318
#     4  10  18  31  52  76 102 131 164 209 262 311
#     4  11  20  30  49  76 105 130 162 210 257 302
#     4  10  20  33  49  72 102 133 167 208 252 300
#     4  10  21  35  53  79 109 140 175 217 264 316
#     4   9  19  35  56  80 105 136 176 220 267 318
#
# _framework density 18.408434
#
# number of rings (size 3 to 8) (size 9 to 14) (size 15 to 20)
#    0.000    2.000    1.250    3.750    0.000    5.500 
#    0.000    2.500    0.000    0.750    0.000    3.500 
#    0.000    0.000    0.000    0.000    0.000    0.000 
#
# Total GULP energy -793366.423116 kJ/mol
# GULP energy per Si atom -12396.350361 kJ/mol
# Density = 1.836654 g / cm^3
# Si number density = 18.408434 Si / 1000 Ang^3
#
#
#
# Elastic Constant Matrix: (Units=GPa)
#
#
# Indices 1 2 3 4 5 6 
#
# 1 86.5580 25.3462 36.6514 0.0000 0.0000 0.0000
# 2 25.3462 62.7738 30.3903 0.0000 0.0000 0.0000
# 3 36.6514 30.3903 92.1243 0.0000 0.0000 0.0000
# 4 0.0000 0.0000 0.0000 28.1689 0.0000 0.0000
# 5 0.0000 0.0000 0.0000 0.0000 22.1875 0.0000
# 6 0.0000 0.0000 0.0000 0.0000 0.0000 6.4338
#
#
#
# Elastic Compliance Matrix: (Units=1/GPa)
#
#
# Indices 1 2 3 4 5 6 
#
# 1 0.014568 -0.003661 -0.004588 0.000000 0.000000 0.000000
# 2 -0.003661 0.019878 -0.005101 0.000000 0.000000 0.000000
# 3 -0.004588 -0.005101 0.014363 0.000000 0.000000 0.000000
# 4 0.000000 0.000000 0.000000 0.035500 0.000000 0.000000
# 5 0.000000 0.000000 0.000000 0.000000 0.045070 0.000000
# 6 0.000000 0.000000 0.000000 0.000000 0.000000 0.155429
#
#
# Mechanical properties :
#
#
# Convention : Reuss Voigt Hill
#
# Bulk Modulus (GPa) = 45.23076 47.35909 46.29492
# Shear Modulus (GPa) = 15.68003 21.29592 18.48798
#
# Velocity S-wave (km/s) = 2.92170 3.40495 3.17254
# Velocity P-wave (km/s) = 6.00048 6.42191 6.21477
#
# Compressibility (1/GPa) = 0.02210885
#
# Stress axis : x y z
#
# Youngs Moduli (GPa) = 68.64523 50.30737 69.62352
#
# Poissons Ratio (x) = 0.18417 0.31944
# Poissons Ratio (y) = 0.25130 0.35514
# Poissons Ratio (z) = 0.31495 0.25661
#
# Static dielectric constant tensor:
#      x y z
#    x 3.163910 0.000000 0.000000 
#    y 0.000000 3.441040 0.000000 
#    z 0.000000 0.000000 3.734280 
# 
# 
# High freq. dielectric constant tensor:
#      x y z
#    x 1.672800 0.000000 0.000000 
#    y 0.000000 1.717900 0.000000 
#    z 0.000000 0.000000 1.732220 
# 
# From -- ./inp_files/34175.got.cif
#   From: 2010.03.12/outbox.cif.g09.slc.cpg/sg51_18_cif.got.tgz:34175.got - 2010.04.16 13:43:02.
