data_PCOD8207420
_publ_section_title
;
Structure prediction by ZEFSAII (Michael W. Deem and Ramdas Pophale) SiO2 
 PCOD8207420
Probable space group: P M M A
;
_chemical_formula_sum "Si O2"
_cell_formula_units_Z 56
_cell_length_a 14.910706
_cell_length_b 8.793749
_cell_length_c 22.226022
_cell_angle_alpha 90.000000
_cell_angle_beta 90.000000
_cell_angle_gamma 90.000000
_cell_volume 2914.298364
_symmetry_space_group_name_H-M "P M M A"
_symmetry_group_IT_number 51
_symmetry_cell_setting 'orthorhombic'
loop_
_space_group_symop_operation_xyz
x,y,z
1/2-x,-y,z
1/2+x,-y,-z
-x,y,-z
-x,-y,-z
1/2+x,y,-z
1/2-x,y,z
x,-y,z
loop_
_atom_site_type_symbol
_atom_site_label
_atom_site_fract_x
_atom_site_fract_y
_atom_site_fract_z
Si Si1 0.847853 0.678697 0.114223
Si Si2 0.943348 0.319979 0.555809
Si Si3 0.568045 0.319111 0.336862
Si Si4 0.007332 0.680282 0.793924
Si Si5 0.852609 0.824110 0.862657
Si Si6 0.103808 0.329814 0.013486
Si Si7 0.750000 0.319435 0.516260
Si Si8 0.750000 0.819267 0.384419
O O1 0.750000 0.713051 0.141945
O O2 0.866984 0.500000 0.109118
O O3 0.921645 0.751090 0.158402
O O4 0.851407 0.743612 0.046217
O O5 0.946095 0.500000 0.552557
O O6 0.839165 0.266633 0.552681
O O7 0.000000 0.251690 0.500000
O O8 0.991191 0.263667 0.616655
O O9 0.582052 0.500000 0.339875
O O10 0.533702 0.262486 0.272149
O O11 0.662434 0.240737 0.350167
O O12 0.009219 0.500000 0.795636
O O13 0.909089 0.735587 0.812338
O O14 0.750000 0.788646 0.847612
O O15 0.874832 0.774519 0.930170
O O16 0.875690 0.000000 0.857285
O O17 0.140441 0.500000 0.026996
O O18 0.000000 0.336766 0.000000
O O19 0.750000 0.500000 0.505534
O O20 0.750000 0.240646 0.452003
O O21 0.750000 0.000000 0.384282
#
# Coordination Sequence:
#
# PCOD8207420 Si02
#       8
#     8   8   8   8   8   8   4   4
#     4   9  17  30  51  81 112 139 173 226 288 340
#     4   9  16  30  56  87 114 143 183 237 293 333
#     4  10  21  38  60  87 116 152 194 237 289 343
#     4  10  21  38  60  84 111 146 193 240 282 337
#     4  11  24  40  58  80 112 154 196 236 289 348
#     4  10  18  33  58  84 111 141 183 239 295 340
#     4  10  18  34  60  84 116 154 191 238 291 346
#     4  12  24  36  56  88 122 154 191 230 279 346
#
# _framework density 19.215603000000002
#
# number of rings (size 3 to 8) (size 9 to 14) (size 15 to 20)
#    0.000    2.000    2.857    1.500    1.000    2.571 
#    1.286    1.429    0.000    0.000    0.000    0.000 
#    0.000    0.000    0.000    0.000    0.000    0.000 
#
# Total GULP energy -694274.071064 kJ/mol
# GULP energy per Si atom -12397.751269 kJ/mol
# Density = 1.917187 g / cm^3
# Si number density = 19.215603 Si / 1000 Ang^3
#
#
#
# Elastic Constant Matrix: (Units=GPa)
#
#
# Indices 1 2 3 4 5 6 
#
# 1 152.8556 28.2320 85.3575 0.0000 0.0000 0.0000
# 2 28.2320 26.2860 29.4009 0.0000 0.0000 0.0000
# 3 85.3575 29.4009 154.7057 0.0000 0.0000 0.0000
# 4 0.0000 0.0000 0.0000 11.7445 0.0000 0.0000
# 5 0.0000 0.0000 0.0000 0.0000 22.5352 0.0000
# 6 0.0000 0.0000 0.0000 0.0000 0.0000 14.4421
#
#
#
# Elastic Compliance Matrix: (Units=1/GPa)
#
#
# Indices 1 2 3 4 5 6 
#
# 1 0.010122 -0.005874 -0.004469 0.000000 0.000000 0.000000
# 2 -0.005874 0.051721 -0.006589 0.000000 0.000000 0.000000
# 3 -0.004469 -0.006589 0.010182 0.000000 0.000000 0.000000
# 4 0.000000 0.000000 0.000000 0.085147 0.000000 0.000000
# 5 0.000000 0.000000 0.000000 0.000000 0.044375 0.000000
# 6 0.000000 0.000000 0.000000 0.000000 0.000000 0.069242
#
#
# Mechanical properties :
#
#
# Convention : Reuss Voigt Hill
#
# Bulk Modulus (GPa) = 26.20334 68.86979 47.53656
# Shear Modulus (GPa) = 15.75445 22.46815 19.11130
#
# Velocity S-wave (km/s) = 2.86646 3.42316 3.15710
# Velocity P-wave (km/s) = 4.96201 7.17930 6.17106
#
# Compressibility (1/GPa) = 0.03816308
#
# Stress axis : x y z
#
# Youngs Moduli (GPa) = 98.79135 19.33464 98.21679
#
# Poissons Ratio (x) = 0.11356 0.43890
# Poissons Ratio (y) = 0.58025 0.64711
# Poissons Ratio (z) = 0.44147 0.12739
#
# Static dielectric constant tensor:
#      x y z
#    x 3.799580 0.000000 0.000000 
#    y 0.000000 3.128240 0.000000 
#    z 0.000000 0.000000 3.627760 
# 
# 
# High freq. dielectric constant tensor:
#      x y z
#    x 1.765430 0.000000 0.000000 
#    y 0.000000 1.702110 0.000000 
#    z 0.000000 0.000000 1.747090 
# 
# From -- ./inp_files/33528.got.cif
#   From: 2010.03.12/outbox.cif.g09.slc.cpg/sg51_17_cif.got.tgz:33528.got - 2010.04.16 13:43:02.
