data_PCOD8207289
_publ_section_title
;
Structure prediction by ZEFSAII (Michael W. Deem and Ramdas Pophale) SiO2 
 PCOD8207289
Probable space group: P M M A
;
_chemical_formula_sum "Si O2"
_cell_formula_units_Z 52
_cell_length_a 8.573619
_cell_length_b 21.530649
_cell_length_c 14.763793
_cell_angle_alpha 90.000000
_cell_angle_beta 90.000000
_cell_angle_gamma 90.000000
_cell_volume 2725.330952
_symmetry_space_group_name_H-M "P M M A"
_symmetry_group_IT_number 51
_symmetry_cell_setting 'orthorhombic'
loop_
_space_group_symop_operation_xyz
x,y,z
1/2-x,-y,z
1/2+x,-y,-z
-x,y,-z
-x,-y,-z
1/2+x,y,-z
1/2-x,y,z
x,-y,z
loop_
_atom_site_type_symbol
_atom_site_label
_atom_site_fract_x
_atom_site_fract_y
_atom_site_fract_z
Si Si1 0.566907 0.932664 0.656387
Si Si2 0.565446 0.500000 0.899825
Si Si3 0.569404 0.731430 0.772569
Si Si4 0.071456 0.186607 0.910890
Si Si5 0.427280 0.068773 0.133436
Si Si6 0.933165 0.372984 0.100756
Si Si7 0.935334 0.800066 0.594935
O O1 0.750000 0.931988 0.639912
O O2 0.528127 0.930235 0.761613
O O3 0.494404 0.870024 0.611188
O O4 0.501555 0.000000 0.618456
O O5 0.750000 0.500000 0.896960
O O6 0.501537 0.563410 0.855391
O O7 0.500000 0.500000 0.000000
O O8 0.750000 0.712459 0.775180
O O9 0.536741 0.794587 0.826783
O O10 0.469839 0.678827 0.823725
O O11 0.513810 0.748708 0.670519
O O12 0.250000 0.207083 0.898914
O O13 0.050558 0.112411 0.918935
O O14 0.000000 0.219557 0.000000
O O15 0.250000 0.092493 0.118489
O O16 0.447816 0.000000 0.093802
O O17 0.750000 0.379286 0.088773
O O18 0.000000 0.358226 0.000000
O O19 0.750000 0.803658 0.594992
O O20 0.000000 0.774767 0.500000
#
# Coordination Sequence:
#
# PCOD8207289 Si02
#       7
#     8   4   8   8   8   8   8
#     4   8  14  29  53  76  98 129 167 212 273 337
#     4  10  18  32  54  84 121 160 195 228 262 306
#     4  11  22  39  57  77 107 145 185 225 271 323
#     4  12  24  36  52  74 102 135 174 221 267 322
#     4   9  17  33  55  73  94 128 170 215 266 323
#     4  11  21  35  56  86 121 157 192 229 269 313
#     4  10  21  36  56  79 106 138 176 224 278 336
#
# _framework density 19.080249999999999
#
# number of rings (size 3 to 8) (size 9 to 14) (size 15 to 20)
#    0.000    1.846    1.538    6.231    0.000    2.154 
#    0.000    0.000    0.000    0.000    0.000    0.538 
#    0.000    0.000    0.000    0.000    0.000    0.000 
#
# Total GULP energy -644279.148343 kJ/mol
# GULP energy per Si atom -12389.983622 kJ/mol
# Density = 1.903682 g / cm^3
# Si number density = 19.080250 Si / 1000 Ang^3
#
#
#
# Elastic Constant Matrix: (Units=GPa)
#
#
# Indices 1 2 3 4 5 6 
#
# 1 80.4092 32.9642 29.5316 0.0000 0.0000 0.0000
# 2 32.9642 113.6915 41.4650 0.0000 0.0000 0.0000
# 3 29.5316 41.4650 102.2902 0.0000 0.0000 0.0000
# 4 0.0000 0.0000 0.0000 18.3290 0.0000 0.0000
# 5 0.0000 0.0000 0.0000 0.0000 23.7477 0.0000
# 6 0.0000 0.0000 0.0000 0.0000 0.0000 28.6298
#
#
#
# Elastic Compliance Matrix: (Units=1/GPa)
#
#
# Indices 1 2 3 4 5 6 
#
# 1 0.014851 -0.003218 -0.002983 0.000000 0.000000 0.000000
# 2 -0.003218 0.011019 -0.003538 0.000000 0.000000 0.000000
# 3 -0.002983 -0.003538 0.012071 0.000000 0.000000 0.000000
# 4 0.000000 0.000000 0.000000 0.054558 0.000000 0.000000
# 5 0.000000 0.000000 0.000000 0.000000 0.042109 0.000000
# 6 0.000000 0.000000 0.000000 0.000000 0.000000 0.034929
#
#
# Mechanical properties :
#
#
# Convention : Reuss Voigt Hill
#
# Bulk Modulus (GPa) = 54.15952 56.03473 55.09713
# Shear Modulus (GPa) = 25.61866 26.96999 26.29432
#
# Velocity S-wave (km/s) = 3.66823 3.76374 3.71629
# Velocity P-wave (km/s) = 6.81087 6.95121 6.88140
#
# Compressibility (1/GPa) = 0.01846397
#
# Stress axis : x y z
#
# Youngs Moduli (GPa) = 67.33445 90.75207 82.84039
#
# Poissons Ratio (x) = 0.29204 0.24712
# Poissons Ratio (y) = 0.21669 0.29306
# Poissons Ratio (z) = 0.20087 0.32105
#
# Static dielectric constant tensor:
#      x y z
#    x 3.240860 0.000000 0.000000 
#    y 0.000000 4.012180 0.000000 
#    z 0.000000 0.000000 3.421350 
# 
# 
# High freq. dielectric constant tensor:
#      x y z
#    x 1.728180 0.000000 0.000000 
#    y 0.000000 1.738020 0.000000 
#    z 0.000000 0.000000 1.716110 
# 
# From -- ./inp_files/21546.got.cif
#   From: 2010.03.12/outbox.cif.g09.slc.cpg/sg51_11_cif.got.tgz:21546.got - 2010.04.16 13:43:02.
