data_PCOD8207410
_publ_section_title
;
Structure prediction by ZEFSAII (Michael W. Deem and Ramdas Pophale) SiO2 
 PCOD8207410
Probable space group: P M M A
;
_chemical_formula_sum "Si O2"
_cell_formula_units_Z 64
_cell_length_a 14.795058
_cell_length_b 18.351118
_cell_length_c 12.235983
_cell_angle_alpha 90.000000
_cell_angle_beta 90.000000
_cell_angle_gamma 90.000000
_cell_volume 3322.141028
_symmetry_space_group_name_H-M "P M M A"
_symmetry_group_IT_number 51
_symmetry_cell_setting 'orthorhombic'
loop_
_space_group_symop_operation_xyz
x,y,z
1/2-x,-y,z
1/2+x,-y,-z
-x,y,-z
-x,-y,-z
1/2+x,y,-z
1/2-x,y,z
x,-y,z
loop_
_atom_site_type_symbol
_atom_site_label
_atom_site_fract_x
_atom_site_fract_y
_atom_site_fract_z
Si Si1 0.074653 0.279845 0.701668
Si Si2 0.349557 0.154680 0.819116
Si Si3 0.855266 0.417270 0.710397
Si Si4 0.351639 0.311980 0.477573
Si Si5 0.460062 0.084518 0.208573
Si Si6 0.644880 0.804095 0.933903
Si Si7 0.562120 0.176215 0.598631
Si Si8 0.964123 0.341208 0.883121
O O1 0.152983 0.222605 0.734726
O O2 0.098860 0.325819 0.593160
O O3 0.986314 0.232263 0.679419
O O4 0.051259 0.331132 0.804332
O O5 0.250000 0.116145 0.812227
O O6 0.431420 0.099391 0.791984
O O7 0.365212 0.189947 0.936997
O O8 0.750000 0.401677 0.726407
O O9 0.874152 0.500000 0.674156
O O10 0.895557 0.363162 0.616678
O O11 0.901788 0.402379 0.827170
O O12 0.250000 0.337028 0.493413
O O13 0.355549 0.225101 0.448436
O O14 0.406175 0.125797 0.114111
O O15 0.414148 0.107071 0.325562
O O16 0.443422 0.000000 0.189297
O O17 0.750000 0.802233 0.896696
O O18 0.594267 0.732103 0.894385
O O19 0.500000 0.147918 0.500000
O O20 0.000000 0.369285 0.000000
#
# Coordination Sequence:
#
# PCOD8207410 Si02
#       8
#     8   8   8   8   8   8   8   8
#     4  10  18  33  56  87 115 136 184 245 296 337
#     4  10  20  35  55  81 113 147 189 242 291 342
#     4  10  22  39  58  84 119 158 197 235 283 348
#     4  10  19  34  59  85 110 147 194 245 296 346
#     4  11  22  36  52  76 113 151 190 240 291 347
#     4  11  21  35  56  83 110 147 196 240 286 340
#     4   9  18  33  55  76 102 136 180 238 288 340
#     4  12  20  36  61  86 118 152 194 241 290 341
#
# _framework density 19.264685
#
# number of rings (size 3 to 8) (size 9 to 14) (size 15 to 20)
#    0.000    1.625    5.000    1.125    0.000    3.500 
#    0.000    2.500    0.000    0.000    0.000    3.500 
#    0.000    0.000    0.000    0.000    0.000    0.000 
#
# Total GULP energy -793167.057560 kJ/mol
# GULP energy per Si atom -12393.235274 kJ/mol
# Density = 1.922084 g / cm^3
# Si number density = 19.264685 Si / 1000 Ang^3
#
#
#
# Elastic Constant Matrix: (Units=GPa)
#
#
# Indices 1 2 3 4 5 6 
#
# 1 69.7343 30.2625 33.7688 0.0000 0.0000 0.0000
# 2 30.2625 81.3180 36.1933 0.0000 0.0000 0.0000
# 3 33.7688 36.1933 130.9460 0.0000 0.0000 0.0000
# 4 0.0000 0.0000 0.0000 16.1376 0.0000 0.0000
# 5 0.0000 0.0000 0.0000 0.0000 20.2376 0.0000
# 6 0.0000 0.0000 0.0000 0.0000 0.0000 19.6471
#
#
#
# Elastic Compliance Matrix: (Units=1/GPa)
#
#
# Indices 1 2 3 4 5 6 
#
# 1 0.018220 -0.005347 -0.003221 0.000000 0.000000 0.000000
# 2 -0.005347 0.015592 -0.002931 0.000000 0.000000 0.000000
# 3 -0.003221 -0.002931 0.009277 0.000000 0.000000 0.000000
# 4 0.000000 0.000000 0.000000 0.061967 0.000000 0.000000
# 5 0.000000 0.000000 0.000000 0.000000 0.049413 0.000000
# 6 0.000000 0.000000 0.000000 0.000000 0.000000 0.050898
#
#
# Mechanical properties :
#
#
# Convention : Reuss Voigt Hill
#
# Bulk Modulus (GPa) = 49.77029 53.60526 51.68777
# Shear Modulus (GPa) = 21.27100 23.32271 22.29686
#
# Velocity S-wave (km/s) = 3.32647 3.48321 3.40574
# Velocity P-wave (km/s) = 6.37534 6.63800 6.50800
#
# Compressibility (1/GPa) = 0.02009231
#
# Stress axis : x y z
#
# Youngs Moduli (GPa) = 54.88380 64.13664 107.78965
#
# Poissons Ratio (x) = 0.34295 0.34717
# Poissons Ratio (y) = 0.29347 0.31589
# Poissons Ratio (z) = 0.17677 0.18796
#
# Static dielectric constant tensor:
#      x y z
#    x 3.515400 0.000000 0.000000 
#    y 0.000000 3.288940 0.000000 
#    z 0.000000 0.000000 3.827940 
# 
# 
# High freq. dielectric constant tensor:
#      x y z
#    x 1.743130 0.000000 0.000000 
#    y 0.000000 1.708330 0.000000 
#    z 0.000000 0.000000 1.767160 
# 
# From -- ./inp_files/16896.got.cif
#   From: 2010.03.12/outbox.cif.g09.slc.cpg/sg51_9_cif.got.tgz:16896.got - 2010.04.16 13:43:02.
