data_PCOD8207646
_publ_section_title
;
Structure prediction by ZEFSAII (Michael W. Deem and Ramdas Pophale) SiO2 
 PCOD8207646
Probable space group: P M M A
;
_chemical_formula_sum "Si O2"
_cell_formula_units_Z 56
_cell_length_a 9.072070
_cell_length_b 17.485503
_cell_length_c 22.680956
_cell_angle_alpha 90.000000
_cell_angle_beta 90.000000
_cell_angle_gamma 90.000000
_cell_volume 3597.873409
_symmetry_space_group_name_H-M "P M M A"
_symmetry_group_IT_number 51
_symmetry_cell_setting 'orthorhombic'
loop_
_space_group_symop_operation_xyz
x,y,z
1/2-x,-y,z
1/2+x,-y,-z
-x,y,-z
-x,-y,-z
1/2+x,y,-z
1/2-x,y,z
x,-y,z
loop_
_atom_site_type_symbol
_atom_site_label
_atom_site_fract_x
_atom_site_fract_y
_atom_site_fract_z
Si Si1 0.084637 0.410033 0.443613
Si Si2 0.085596 0.583433 0.120393
Si Si3 0.919408 0.909687 0.939496
Si Si4 0.084605 0.809847 0.846631
Si Si5 0.081009 0.304236 0.229152
Si Si6 0.908618 0.308932 0.050982
Si Si7 0.574902 0.588257 0.322837
O O1 0.250000 0.375021 0.438412
O O2 0.098534 0.500000 0.452197
O O3 0.000000 0.374218 0.500000
O O4 0.989014 0.390404 0.386430
O O5 0.250000 0.580065 0.095468
O O6 0.031220 0.500000 0.141442
O O7 0.076936 0.639918 0.174510
O O8 0.984693 0.610917 0.066686
O O9 0.750000 0.881366 0.943095
O O10 0.995059 0.876294 0.880377
O O11 0.928489 0.000000 0.932509
O O12 0.000000 0.883847 0.000000
O O13 0.250000 0.838299 0.828518
O O14 0.101687 0.741146 0.891480
O O15 0.997749 0.776502 0.789192
O O16 0.250000 0.287205 0.248517
O O17 0.993522 0.348477 0.279913
O O18 0.750000 0.327011 0.024470
O O19 0.000000 0.265499 0.000000
O O20 0.750000 0.597642 0.323477
O O21 0.532328 0.500000 0.305780
#
# Coordination Sequence:
#
# PCOD8207646 Si02
#       7
#     8   8   8   8   8   8   8
#     4   9  16  26  40  58  81 109 142 181 225 268
#     4   9  18  31  44  56  71  93 123 161 203 244
#     4  10  20  33  50  72  94 114 137 166 203 249
#     4  10  20  33  48  65  85 108 134 165 203 248
#     4  10  19  31  46  62  81 106 138 174 212 254
#     4  10  20  31  43  58  74  95 123 155 194 240
#     4  10  19  29  42  61  85 113 147 187 226 263
#
# _framework density 15.56475
#
# number of rings (size 3 to 8) (size 9 to 14) (size 15 to 20)
#    0.000    2.286    0.000    3.429    0.000    8.000 
#    0.000    0.000    0.000    0.000    0.000    0.000 
#    0.000    0.000    0.000    0.000    0.000    0.714 
#
# Total GULP energy -693958.809798 kJ/mol
# GULP energy per Si atom -12392.121604 kJ/mol
# Density = 1.552932 g / cm^3
# Si number density = 15.564750 Si / 1000 Ang^3
#
#
#
# Elastic Constant Matrix: (Units=GPa)
#
#
# Indices 1 2 3 4 5 6 
#
# 1 133.2100 28.7668 49.5065 0.0000 0.0000 0.0000
# 2 28.7668 40.0173 18.6998 0.0000 0.0000 0.0000
# 3 49.5065 18.6998 72.4395 0.0000 0.0000 0.0000
# 4 0.0000 0.0000 0.0000 24.5761 0.0000 0.0000
# 5 0.0000 0.0000 0.0000 0.0000 29.3228 0.0000
# 6 0.0000 0.0000 0.0000 0.0000 0.0000 35.4713
#
#
#
# Elastic Compliance Matrix: (Units=1/GPa)
#
#
# Indices 1 2 3 4 5 6 
#
# 1 0.010856 -0.004932 -0.006146 0.000000 0.000000 0.000000
# 2 -0.004932 0.030658 -0.004543 0.000000 0.000000 0.000000
# 3 -0.006146 -0.004543 0.019178 0.000000 0.000000 0.000000
# 4 0.000000 0.000000 0.000000 0.040690 0.000000 0.000000
# 5 0.000000 0.000000 0.000000 0.000000 0.034103 0.000000
# 6 0.000000 0.000000 0.000000 0.000000 0.000000 0.028192
#
#
# Mechanical properties :
#
#
# Convention : Reuss Voigt Hill
#
# Bulk Modulus (GPa) = 33.95756 48.84590 41.40173
# Shear Modulus (GPa) = 24.42166 27.78694 26.10430
#
# Velocity S-wave (km/s) = 3.96540 4.22980 4.09974
# Velocity P-wave (km/s) = 6.54448 7.43677 7.00485
#
# Compressibility (1/GPa) = 0.02944853
#
# Stress axis : x y z
#
# Youngs Moduli (GPa) = 92.11331 32.61820 52.14339
#
# Poissons Ratio (x) = 0.16087 0.32048
# Poissons Ratio (y) = 0.45431 0.23691
# Poissons Ratio (z) = 0.56614 0.14820
#
# Static dielectric constant tensor:
#      x y z
#    x 3.491400 0.000000 0.000000 
#    y 0.000000 2.737120 0.000000 
#    z 0.000000 0.000000 2.878670 
# 
# 
# High freq. dielectric constant tensor:
#      x y z
#    x 1.622400 0.000000 0.000000 
#    y 0.000000 1.554520 0.000000 
#    z 0.000000 0.000000 1.571360 
# 
# From -- ./inp_files/32223.got.cif
#   From: 2010.03.12/outbox.cif.g09.slc.cpg/sg51_17_cif.got.tgz:32223.got - 2010.04.16 13:43:02.
