data_PCOD8207702
_publ_section_title
;
Structure prediction by ZEFSAII (Michael W. Deem and Ramdas Pophale) SiO2 
 PCOD8207702
Probable space group: P M M A
;
_chemical_formula_sum "Si O2"
_cell_formula_units_Z 56
_cell_length_a 17.870268
_cell_length_b 9.495599
_cell_length_c 20.339800
_cell_angle_alpha 90.000000
_cell_angle_beta 90.000000
_cell_angle_gamma 90.000000
_cell_volume 3451.438267
_symmetry_space_group_name_H-M "P M M A"
_symmetry_group_IT_number 51
_symmetry_cell_setting 'orthorhombic'
loop_
_space_group_symop_operation_xyz
x,y,z
1/2-x,-y,z
1/2+x,-y,-z
-x,y,-z
-x,-y,-z
1/2+x,y,-z
1/2-x,y,z
x,-y,z
loop_
_atom_site_type_symbol
_atom_site_label
_atom_site_fract_x
_atom_site_fract_y
_atom_site_fract_z
Si Si1 0.564888 0.346144 0.552536
Si Si2 0.460480 0.658536 0.104038
Si Si3 0.535876 0.832803 0.361912
Si Si4 0.663236 0.334464 0.435891
Si Si5 0.526881 0.164237 0.210336
Si Si6 0.886279 0.658266 0.024363
Si Si7 0.168465 0.159450 0.868579
O O1 0.500000 0.361980 0.500000
O O2 0.576226 0.500000 0.586955
O O3 0.539716 0.226354 0.603858
O O4 0.639693 0.302900 0.511931
O O5 0.444846 0.500000 0.128160
O O6 0.462255 0.756915 0.168636
O O7 0.536909 0.666742 0.064133
O O8 0.396847 0.707229 0.051701
O O9 0.611632 0.758013 0.387258
O O10 0.524501 0.794080 0.286100
O O11 0.542402 0.000000 0.374289
O O12 0.750000 0.291489 0.426401
O O13 0.650713 0.500000 0.420244
O O14 0.607869 0.214962 0.183657
O O15 0.513366 0.000000 0.200377
O O16 0.854858 0.500000 0.025084
O O17 0.828819 0.757778 0.062373
O O18 0.250000 0.173829 0.835026
O O19 0.149401 0.000000 0.887275
#
# Coordination Sequence:
#
# PCOD8207702 Si02
#       7
#     8   8   8   8   8   8   8
#     4   8  15  29  47  64  84 112 144 180 220 257
#     4   8  14  25  41  59  78 100 129 168 209 244
#     4  10  19  29  43  65  92 120 148 178 215 258
#     4   9  18  32  48  66  88 114 146 182 218 258
#     4   9  18  29  40  58  85 115 143 171 203 242
#     4   8  14  25  40  58  78  99 128 170 213 243
#     4   9  17  28  40  55  79 112 145 171 199 243
#
# _framework density 16.225121000000001
#
# number of rings (size 3 to 8) (size 9 to 14) (size 15 to 20)
#    0.000    3.286    0.000    2.143    0.000    5.429 
#    0.000    4.286    0.000    0.000    0.000    1.000 
#    0.000    3.429    0.000    0.000    0.000    0.000 
#
# Total GULP energy -693790.845370 kJ/mol
# GULP energy per Si atom -12389.122239 kJ/mol
# Density = 1.618819 g / cm^3
# Si number density = 16.225121 Si / 1000 Ang^3
#
#
#
# Elastic Constant Matrix: (Units=GPa)
#
#
# Indices 1 2 3 4 5 6 
#
# 1 18.1447 16.2339 28.1777 0.0000 0.0000 0.0000
# 2 16.2339 67.8146 57.9048 0.0000 0.0000 0.0000
# 3 28.1777 57.9048 114.2602 0.0000 0.0000 0.0000
# 4 0.0000 0.0000 0.0000 27.3574 0.0000 0.0000
# 5 0.0000 0.0000 0.0000 0.0000 16.2764 0.0000
# 6 0.0000 0.0000 0.0000 0.0000 0.0000 16.7388
#
#
#
# Elastic Compliance Matrix: (Units=1/GPa)
#
#
# Indices 1 2 3 4 5 6 
#
# 1 0.090118 -0.004577 -0.019904 0.000000 0.000000 0.000000
# 2 -0.004577 0.026227 -0.012163 0.000000 0.000000 0.000000
# 3 -0.019904 -0.012163 0.019824 0.000000 0.000000 0.000000
# 4 0.000000 0.000000 0.000000 0.036553 0.000000 0.000000
# 5 0.000000 0.000000 0.000000 0.000000 0.061439 0.000000
# 6 0.000000 0.000000 0.000000 0.000000 0.000000 0.059742
#
#
# Mechanical properties :
#
#
# Convention : Reuss Voigt Hill
#
# Bulk Modulus (GPa) = 15.90308 44.98358 30.44333
# Shear Modulus (GPa) = 12.88159 18.60140 15.74149
#
# Velocity S-wave (km/s) = 2.82073 3.38961 3.11817
# Velocity P-wave (km/s) = 4.52012 6.56537 5.63629
#
# Compressibility (1/GPa) = 0.06288092
#
# Stress axis : x y z
#
# Youngs Moduli (GPa) = 11.09658 38.12863 50.44330
#
# Poissons Ratio (x) = 0.17453 1.00403
# Poissons Ratio (y) = 0.05079 0.61352
# Poissons Ratio (z) = 0.22087 0.46374
#
# Static dielectric constant tensor:
#      x y z
#    x 3.084230 0.000000 0.000000 
#    y 0.000000 3.144710 0.000000 
#    z 0.000000 0.000000 3.172600 
# 
# 
# High freq. dielectric constant tensor:
#      x y z
#    x 1.590820 0.000000 0.000000 
#    y 0.000000 1.625520 0.000000 
#    z 0.000000 0.000000 1.609140 
# 
# From -- ./inp_files/34024.got.cif
#   From: 2010.03.12/outbox.cif.g09.slc.cpg/sg51_18_cif.got.tgz:34024.got - 2010.04.16 13:43:02.
