data_PCOD8207673
_publ_section_title
;
Structure prediction by ZEFSAII (Michael W. Deem and Ramdas Pophale) SiO2 
 PCOD8207673
Probable space group: P M M A
;
_chemical_formula_sum "Si O2"
_cell_formula_units_Z 64
_cell_length_a 9.273010
_cell_length_b 22.865407
_cell_length_c 18.018871
_cell_angle_alpha 90.000000
_cell_angle_beta 90.000000
_cell_angle_gamma 90.000000
_cell_volume 3820.561900
_symmetry_space_group_name_H-M "P M M A"
_symmetry_group_IT_number 51
_symmetry_cell_setting 'orthorhombic'
loop_
_space_group_symop_operation_xyz
x,y,z
1/2-x,-y,z
1/2+x,-y,-z
-x,y,-z
-x,-y,-z
1/2+x,y,-z
1/2-x,y,z
x,-y,z
loop_
_atom_site_type_symbol
_atom_site_label
_atom_site_fract_x
_atom_site_fract_y
_atom_site_fract_z
Si Si1 0.919615 0.933261 0.877694
Si Si2 0.588278 0.826116 0.354115
Si Si3 0.593791 0.744878 0.562376
Si Si4 0.590805 0.657494 0.695572
Si Si5 0.414524 0.743502 0.785285
Si Si6 0.411646 0.064654 0.730830
Si Si7 0.918957 0.567789 0.575450
Si Si8 0.923079 0.819074 0.072484
O O1 0.750000 0.918997 0.884749
O O2 0.966853 0.928141 0.792596
O O3 0.013034 0.885005 0.921030
O O4 0.952021 0.000000 0.906168
O O5 0.750000 0.816602 0.382594
O O6 0.483028 0.806217 0.419445
O O7 0.562967 0.790659 0.278474
O O8 0.552570 0.893327 0.337583
O O9 0.500000 0.711218 0.500000
O O10 0.750000 0.757567 0.528842
O O11 0.603546 0.708493 0.636342
O O12 0.750000 0.641155 0.726246
O O13 0.497748 0.682526 0.764763
O O14 0.524125 0.602411 0.649126
O O15 0.250000 0.724234 0.794649
O O16 0.468605 0.775620 0.860356
O O17 0.250000 0.079733 0.763028
O O18 0.413608 0.000000 0.697465
O O19 0.750000 0.582318 0.563646
O O20 0.947138 0.500000 0.591710
O O21 0.000000 0.587181 0.500000
O O22 0.750000 0.823039 0.064420
O O23 0.000000 0.791531 0.000000
#
# Coordination Sequence:
#
# PCOD8207673 Si02
#       8
#     8   8   8   8   8   8   8   8
#     4  10  20  32  47  68  92 119 151 187 228 277
#     4   9  16  29  46  64  85 110 139 177 223 271
#     4  10  19  29  42  63  87 114 146 184 225 267
#     4   9  18  30  46  68  93 124 160 194 229 265
#     4   9  18  32  48  67  90 117 152 189 229 275
#     4   9  16  28  47  67  86 110 141 179 223 273
#     4   9  17  29  45  68 101 138 172 202 231 268
#     4  11  22  36  51  69  92 122 155 190 236 287
#
# _framework density 16.751463000000001
#
# number of rings (size 3 to 8) (size 9 to 14) (size 15 to 20)
#    0.000    2.500    1.250    1.500    0.000    3.500 
#    0.000    0.000    0.000    0.375    0.000    0.000 
#    0.000    0.500    0.000    1.125    0.000    1.750 
#
# Total GULP energy -792944.211122 kJ/mol
# GULP energy per Si atom -12389.753299 kJ/mol
# Density = 1.671334 g / cm^3
# Si number density = 16.751463 Si / 1000 Ang^3
#
#
#
# Elastic Constant Matrix: (Units=GPa)
#
#
# Indices 1 2 3 4 5 6 
#
# 1 86.8259 34.4313 35.8344 0.0000 0.0000 0.0000
# 2 34.4313 79.6535 34.5958 0.0000 0.0000 0.0000
# 3 35.8344 34.5958 56.0571 0.0000 0.0000 0.0000
# 4 0.0000 0.0000 0.0000 20.0116 0.0000 0.0000
# 5 0.0000 0.0000 0.0000 0.0000 26.5330 0.0000
# 6 0.0000 0.0000 0.0000 0.0000 0.0000 20.2127
#
#
#
# Elastic Compliance Matrix: (Units=1/GPa)
#
#
# Indices 1 2 3 4 5 6 
#
# 1 0.016309 -0.003445 -0.008299 0.000000 0.000000 0.000000
# 2 -0.003445 0.017880 -0.008832 0.000000 0.000000 0.000000
# 3 -0.008299 -0.008832 0.028595 0.000000 0.000000 0.000000
# 4 0.000000 0.000000 0.000000 0.049971 0.000000 0.000000
# 5 0.000000 0.000000 0.000000 0.000000 0.037689 0.000000
# 6 0.000000 0.000000 0.000000 0.000000 0.000000 0.049474
#
#
# Mechanical properties :
#
#
# Convention : Reuss Voigt Hill
#
# Bulk Modulus (GPa) = 46.23116 48.02881 47.12998
# Shear Modulus (GPa) = 20.13856 21.19646 20.66751
#
# Velocity S-wave (km/s) = 3.47103 3.56103 3.51632
# Velocity P-wave (km/s) = 6.61228 6.75586 6.68446
#
# Compressibility (1/GPa) = 0.02163043
#
# Stress axis : x y z
#
# Youngs Moduli (GPa) = 61.31718 55.92953 34.97123
#
# Poissons Ratio (x) = 0.19268 0.29023
# Poissons Ratio (y) = 0.21124 0.30887
# Poissons Ratio (z) = 0.50888 0.49398
#
# Static dielectric constant tensor:
#      x y z
#    x 3.427360 0.000000 0.000000 
#    y 0.000000 3.178170 0.000000 
#    z 0.000000 0.000000 3.016660 
# 
# 
# High freq. dielectric constant tensor:
#      x y z
#    x 1.650830 0.000000 0.000000 
#    y 0.000000 1.626200 0.000000 
#    z 0.000000 0.000000 1.616360 
# 
# From -- ./inp_files/28656.got.cif
#   From: 2010.03.12/outbox.cif.g09.slc.cpg/sg51_15_cif.got.tgz:28656.got - 2010.04.16 13:43:02.
