data_PCOD8207089
_publ_section_title
;
Structure prediction by ZEFSAII (Michael W. Deem and Ramdas Pophale) SiO2 
 PCOD8207089
Probable space group: P M M A
;
_chemical_formula_sum "Si O2"
_cell_formula_units_Z 64
_cell_length_a 9.000553
_cell_length_b 14.262501
_cell_length_c 31.195675
_cell_angle_alpha 90.000000
_cell_angle_beta 90.000000
_cell_angle_gamma 90.000000
_cell_volume 4004.601158
_symmetry_space_group_name_H-M "P M M A"
_symmetry_group_IT_number 51
_symmetry_cell_setting 'orthorhombic'
loop_
_space_group_symop_operation_xyz
x,y,z
1/2-x,-y,z
1/2+x,-y,-z
-x,y,-z
-x,-y,-z
1/2+x,y,-z
1/2-x,y,z
x,-y,z
loop_
_atom_site_type_symbol
_atom_site_label
_atom_site_fract_x
_atom_site_fract_y
_atom_site_fract_z
Si Si1 0.417612 0.888162 0.957797
Si Si2 0.417215 0.888494 0.126058
Si Si3 0.424648 0.107640 0.788012
Si Si4 0.426275 0.777416 0.456926
Si Si5 0.922129 0.607109 0.418639
Si Si6 0.918800 0.395478 0.669174
Si Si7 0.573789 0.894974 0.624354
Si Si8 0.922033 0.206812 0.710581
O O1 0.250000 0.849929 0.957984
O O2 0.499860 0.848140 0.915761
O O3 0.419261 0.000000 0.957484
O O4 0.500000 0.849718 0.000000
O O5 0.250000 0.849117 0.126628
O O6 0.500673 0.854005 0.168638
O O7 0.417914 0.000000 0.124171
O O8 0.250000 0.117521 0.793570
O O9 0.478714 0.171470 0.749295
O O10 0.470984 0.000000 0.779037
O O11 0.500000 0.818532 0.500000
O O12 0.250000 0.779169 0.461429
O O13 0.481528 0.671130 0.450250
O O14 0.484716 0.840280 0.417394
O O15 0.750000 0.634147 0.422742
O O16 0.951632 0.500000 0.432155
O O17 0.970957 0.623873 0.369789
O O18 0.750000 0.383800 0.651693
O O19 0.943609 0.500000 0.688340
O O20 0.947061 0.318832 0.706197
O O21 0.750000 0.897261 0.623122
O O22 0.520410 0.842559 0.667180
O O23 0.507730 0.000000 0.624159
O O24 0.750000 0.182060 0.719555
#
# Coordination Sequence:
#
# PCOD8207089 Si02
#       8
#     8   8   8   8   8   8   8   8
#     4   9  15  22  33  50  73 103 142 189 236 279
#     4   9  16  26  39  54  75 107 147 190 234 278
#     4  10  20  31  42  61  89 119 151 190 232 268
#     4  11  22  37  54  73  95 121 149 179 215 256
#     4  10  20  34  53  76  99 121 143 171 211 257
#     4   9  17  31  52  76  98 119 144 174 211 257
#     4   9  18  33  52  72  93 117 147 181 216 255
#     4  10  18  31  51  72  91 117 148 178 216 261
#
# _framework density 15.981617
#
# number of rings (size 3 to 8) (size 9 to 14) (size 15 to 20)
#    0.000    2.375    1.250    2.250    0.000    6.000 
#    0.000    0.000    0.000    1.875    0.000    0.000 
#    0.000    0.000    0.000    0.000    0.000    0.625 
#
# Total GULP energy -793606.568070 kJ/mol
# GULP energy per Si atom -12400.102626 kJ/mol
# Density = 1.594524 g / cm^3
# Si number density = 15.981617 Si / 1000 Ang^3
#
#
#
# Elastic Constant Matrix: (Units=GPa)
#
#
# Indices 1 2 3 4 5 6 
#
# 1 83.2898 25.6287 52.2861 0.0000 0.0000 0.0000
# 2 25.6287 67.3247 40.4976 0.0000 0.0000 0.0000
# 3 52.2861 40.4976 133.5931 0.0000 0.0000 0.0000
# 4 0.0000 0.0000 0.0000 7.8685 0.0000 0.0000
# 5 0.0000 0.0000 0.0000 0.0000 32.7166 0.0000
# 6 0.0000 0.0000 0.0000 0.0000 0.0000 14.2347
#
#
#
# Elastic Compliance Matrix: (Units=1/GPa)
#
#
# Indices 1 2 3 4 5 6 
#
# 1 0.016370 -0.002908 -0.005525 0.000000 0.000000 0.000000
# 2 -0.002908 0.018682 -0.004525 0.000000 0.000000 0.000000
# 3 -0.005525 -0.004525 0.011020 0.000000 0.000000 0.000000
# 4 0.000000 0.000000 0.000000 0.127089 0.000000 0.000000
# 5 0.000000 0.000000 0.000000 0.000000 0.030566 0.000000
# 6 0.000000 0.000000 0.000000 0.000000 0.000000 0.070251
#
#
# Mechanical properties :
#
#
# Convention : Reuss Voigt Hill
#
# Bulk Modulus (GPa) = 49.61596 57.89250 53.75423
# Shear Modulus (GPa) = 16.30724 22.01698 19.16211
#
# Velocity S-wave (km/s) = 3.19780 3.71569 3.46643
# Velocity P-wave (km/s) = 6.68936 7.39672 7.05192
#
# Compressibility (1/GPa) = 0.02015481
#
# Stress axis : x y z
#
# Youngs Moduli (GPa) = 61.08884 53.52620 90.74626
#
# Poissons Ratio (x) = 0.15565 0.50140
# Poissons Ratio (y) = 0.17764 0.41066
# Poissons Ratio (z) = 0.33753 0.24222
#
# Static dielectric constant tensor:
#      x y z
#    x 3.050200 0.000000 0.000000 
#    y 0.000000 2.899450 0.000000 
#    z 0.000000 0.000000 3.028080 
# 
# 
# High freq. dielectric constant tensor:
#      x y z
#    x 1.616690 0.000000 0.000000 
#    y 0.000000 1.573290 0.000000 
#    z 0.000000 0.000000 1.607400 
# 
# From -- ./inp_files/37617.got.cif
#   From: 2010.03.12/outbox.cif.g09.slc.cpg/sg51_19_cif.got.tgz:37617.got - 2010.04.16 13:43:02.
