data_PCOD8207520
_publ_section_title
;
Structure prediction by ZEFSAII (Michael W. Deem and Ramdas Pophale) SiO2 
 PCOD8207520
Probable space group: P M M A
;
_chemical_formula_sum "Si O2"
_cell_formula_units_Z 56
_cell_length_a 22.942075
_cell_length_b 9.206296
_cell_length_c 13.555222
_cell_angle_alpha 90.000000
_cell_angle_beta 90.000000
_cell_angle_gamma 90.000000
_cell_volume 2863.019223
_symmetry_space_group_name_H-M "P M M A"
_symmetry_group_IT_number 51
_symmetry_cell_setting 'orthorhombic'
loop_
_space_group_symop_operation_xyz
x,y,z
1/2-x,-y,z
1/2+x,-y,-z
-x,y,-z
-x,-y,-z
1/2+x,y,-z
1/2-x,y,z
x,-y,z
loop_
_atom_site_type_symbol
_atom_site_label
_atom_site_fract_x
_atom_site_fract_y
_atom_site_fract_z
Si Si1 0.317237 0.831322 0.425303
Si Si2 0.371804 0.333468 0.075097
Si Si3 0.250000 0.335202 0.992896
Si Si4 0.091544 0.673548 0.289798
Si Si5 0.554516 0.840130 0.070057
Si Si6 0.525471 0.827814 0.286391
Si Si7 0.750000 0.173051 0.212337
Si Si8 0.650319 0.828478 0.357537
O O1 0.250000 0.809661 0.395912
O O2 0.356019 0.731342 0.355863
O O3 0.326583 0.775472 0.536904
O O4 0.335685 0.000000 0.414452
O O5 0.389686 0.500000 0.069036
O O6 0.395813 0.270622 0.178278
O O7 0.303212 0.306347 0.067018
O O8 0.397342 0.259507 0.978235
O O9 0.250000 0.500000 0.952855
O O10 0.250000 0.232501 0.898151
O O11 0.089097 0.500000 0.297061
O O12 0.030696 0.742298 0.327902
O O13 0.534649 0.775862 0.174201
O O14 0.581987 0.000000 0.086826
O O15 0.500000 0.849566 0.000000
O O16 0.583255 0.777708 0.345110
O O17 0.513869 0.000000 0.295373
O O18 0.807469 0.231176 0.270741
O O19 0.750000 0.000000 0.206290
O O20 0.653363 0.000000 0.351813
#
# Coordination Sequence:
#
# PCOD8207520 Si02
#       8
#     8   8   4   8   8   8   4   8
#     4  10  21  40  64  87 110 143 189 239 288 343
#     4  10  22  38  56  77 111 156 194 227 274 337
#     4  10  22  38  53  78 114 150 187 230 275 328
#     4  11  24  39  57  82 114 155 197 238 282 333
#     4  10  19  33  56  85 116 146 184 234 277 321
#     4  10  20  36  58  86 119 153 186 229 286 342
#     4  10  18  36  63  90 116 144 185 234 285 344
#     4   9  18  35  63  90 113 145 184 230 288 350
#
# _framework density 19.559768999999999
#
# number of rings (size 3 to 8) (size 9 to 14) (size 15 to 20)
#    0.000    2.000    2.143    1.286    1.000    4.000 
#    0.000    5.000    0.000    0.000    0.000    0.000 
#    0.000    0.000    0.000    0.000    0.000    0.000 
#
# Total GULP energy -694362.584431 kJ/mol
# GULP energy per Si atom -12399.331865 kJ/mol
# Density = 1.951525 g / cm^3
# Si number density = 19.559769 Si / 1000 Ang^3
#
#
#
# Elastic Constant Matrix: (Units=GPa)
#
#
# Indices 1 2 3 4 5 6 
#
# 1 135.1204 44.0371 34.1592 0.0000 0.0000 0.0000
# 2 44.0371 51.8018 23.7204 0.0000 0.0000 0.0000
# 3 34.1592 23.7204 60.4987 0.0000 0.0000 0.0000
# 4 0.0000 0.0000 0.0000 -32.4795 0.0000 0.0000
# 5 0.0000 0.0000 0.0000 0.0000 32.2964 0.0000
# 6 0.0000 0.0000 0.0000 0.0000 0.0000 14.3741
#
#
#
# Elastic Compliance Matrix: (Units=1/GPa)
#
#
# Indices 1 2 3 4 5 6 
#
# 1 0.010668 -0.007692 -0.003008 0.000000 0.000000 0.000000
# 2 -0.007692 0.029074 -0.007057 0.000000 0.000000 0.000000
# 3 -0.003008 -0.007057 0.020994 0.000000 0.000000 0.000000
# 4 0.000000 0.000000 0.000000 -0.030789 0.000000 0.000000
# 5 0.000000 0.000000 0.000000 0.000000 0.030963 0.000000
# 6 0.000000 0.000000 0.000000 0.000000 0.000000 0.069570
#
#
# Mechanical properties :
#
#
# Convention : Reuss Voigt Hill
#
# Bulk Modulus (GPa) = 39.64365 50.13936 44.89150
# Shear Modulus (GPa) = 28.66956 12.53847 20.60401
#
# Velocity S-wave (km/s) = 3.83265 2.53461 3.24911
# Velocity P-wave (km/s) = 6.31645 5.85280 6.08904
#
# Compressibility (1/GPa) = 0.02522472
#
# Stress axis : x y z
#
# Youngs Moduli (GPa) = 93.73877 34.39452 47.63210
#
# Poissons Ratio (x) = 0.26455 0.14326
# Poissons Ratio (y) = 0.72101 0.33612
# Poissons Ratio (z) = 0.28193 0.24271
#
# Static dielectric constant tensor:
#      x y z
#    x 0.734110 0.000000 0.000000 
#    y 0.000000 3.364920 0.000000 
#    z 0.000000 0.000000 3.647410 
# 
# 
# High freq. dielectric constant tensor:
#      x y z
#    x 1.777730 0.000000 0.000000 
#    y 0.000000 1.733220 0.000000 
#    z 0.000000 0.000000 1.761590 
# 
# From -- ./inp_files/25797.got.cif
#   From: 2010.03.12/outbox.cif.g09.slc.cpg/sg51_13_cif.got.tgz:25797.got - 2010.04.16 13:43:02.
