data_PCOD8207216
_publ_section_title
;
Structure prediction by ZEFSAII (Michael W. Deem and Ramdas Pophale) SiO2 
 PCOD8207216
Probable space group: P M M A
;
_chemical_formula_sum "Si O2"
_cell_formula_units_Z 40
_cell_length_a 9.092788
_cell_length_b 9.737293
_cell_length_c 24.309589
_cell_angle_alpha 90.000000
_cell_angle_beta 90.000000
_cell_angle_gamma 90.000000
_cell_volume 2152.350127
_symmetry_space_group_name_H-M "P M M A"
_symmetry_group_IT_number 51
_symmetry_cell_setting 'orthorhombic'
loop_
_space_group_symop_operation_xyz
x,y,z
1/2-x,-y,z
1/2+x,-y,-z
-x,y,-z
-x,-y,-z
1/2+x,y,-z
1/2-x,y,z
x,-y,z
loop_
_atom_site_type_symbol
_atom_site_label
_atom_site_fract_x
_atom_site_fract_y
_atom_site_fract_z
Si Si1 0.075862 0.745507 0.370111
Si Si2 0.074634 0.000000 0.440143
Si Si3 0.576635 0.160334 0.158303
Si Si4 0.576277 0.500000 0.557310
Si Si5 0.921990 0.655727 0.056062
Si Si6 0.425046 0.340377 0.251030
O O1 0.250000 0.745667 0.366150
O O2 0.017533 0.878084 0.401610
O O3 0.017122 0.626784 0.408639
O O4 0.015223 0.722352 0.308587
O O5 0.000000 0.000000 0.500000
O O6 0.250000 0.000000 0.449321
O O7 0.750000 0.173654 0.168044
O O8 0.529116 0.234391 0.101799
O O9 0.494604 0.242605 0.205703
O O10 0.528342 0.000000 0.157074
O O11 0.750000 0.500000 0.549131
O O12 0.500000 0.500000 0.500000
O O13 0.750000 0.663655 0.045247
O O14 0.967381 0.500000 0.073804
O O15 0.000000 0.699551 0.000000
O O16 0.250000 0.331555 0.246966
O O17 0.475113 0.500000 0.244752
#
# Coordination Sequence:
#
# PCOD8207216 Si02
#       6
#     8   4   8   4   8   8
#     4   9  18  33  53  75 100 134 172 214 265 318
#     4  10  20  34  52  74 102 136 171 210 261 320
#     4  10  22  38  55  80 115 151 183 222 274 325
#     4  10  18  32  52  74 102 130 165 212 261 314
#     4   9  18  34  56  80 109 146 185 223 266 315
#     4  10  20  36  58  82 106 138 185 233 273 322
#
# _framework density 18.584337000000001
#
# number of rings (size 3 to 8) (size 9 to 14) (size 15 to 20)
#    0.000    2.400    1.000    1.200    1.400    2.800 
#    0.000    4.000    0.000    0.000    0.000    0.000 
#    0.000    0.000    0.000    0.000    0.000    0.000 
#
# Total GULP energy -495753.054724 kJ/mol
# GULP energy per Si atom -12393.826368 kJ/mol
# Density = 1.854204 g / cm^3
# Si number density = 18.584337 Si / 1000 Ang^3
#
#
#
# Elastic Constant Matrix: (Units=GPa)
#
#
# Indices 1 2 3 4 5 6 
#
# 1 26.6775 36.7828 45.3115 0.0000 0.0000 0.0000
# 2 36.7828 189.9423 115.0237 0.0000 0.0000 0.0000
# 3 45.3115 115.0237 193.3712 0.0000 0.0000 0.0000
# 4 0.0000 0.0000 0.0000 33.0603 0.0000 0.0000
# 5 0.0000 0.0000 0.0000 0.0000 36.0432 0.0000
# 6 0.0000 0.0000 0.0000 0.0000 0.0000 29.6871
#
#
#
# Elastic Compliance Matrix: (Units=1/GPa)
#
#
# Indices 1 2 3 4 5 6 
#
# 1 0.065510 -0.005299 -0.012199 0.000000 0.000000 0.000000
# 2 -0.005299 0.008658 -0.003908 0.000000 0.000000 0.000000
# 3 -0.012199 -0.003908 0.010355 0.000000 0.000000 0.000000
# 4 0.000000 0.000000 0.000000 0.030248 0.000000 0.000000
# 5 0.000000 0.000000 0.000000 0.000000 0.027744 0.000000
# 6 0.000000 0.000000 0.000000 0.000000 0.000000 0.033685
#
#
# Mechanical properties :
#
#
# Convention : Reuss Voigt Hill
#
# Bulk Modulus (GPa) = 23.97454 89.35855 56.66654
# Shear Modulus (GPa) = 21.46708 33.94965 27.70837
#
# Velocity S-wave (km/s) = 3.40239 4.27873 3.86547
# Velocity P-wave (km/s) = 5.32573 8.52040 7.10495
#
# Compressibility (1/GPa) = 0.04171091
#
# Stress axis : x y z
#
# Youngs Moduli (GPa) = 15.26473 115.50564 96.57635
#
# Poissons Ratio (x) = 0.61208 1.17809
# Poissons Ratio (y) = 0.08089 0.37743
# Poissons Ratio (z) = 0.18621 0.45141
#
# Static dielectric constant tensor:
#      x y z
#    x 3.085800 0.000000 0.000000 
#    y 0.000000 4.000990 0.000000 
#    z 0.000000 0.000000 3.562850 
# 
# 
# High freq. dielectric constant tensor:
#      x y z
#    x 1.688300 0.000000 0.000000 
#    y 0.000000 1.736720 0.000000 
#    z 0.000000 0.000000 1.736390 
# 
# From -- ./inp_files/32857.got.cif
#   From: 2010.03.12/outbox.cif.g09.slc.cpg/sg51_17_cif.got.tgz:32857.got - 2010.04.16 13:43:02.
