data_PCOD8207392
_publ_section_title
;
Structure prediction by ZEFSAII (Michael W. Deem and Ramdas Pophale) SiO2 
 PCOD8207392
Probable space group: P M M A
;
_chemical_formula_sum "Si O2"
_cell_formula_units_Z 48
_cell_length_a 14.893154
_cell_length_b 8.981984
_cell_length_c 19.271396
_cell_angle_alpha 90.000000
_cell_angle_beta 90.000000
_cell_angle_gamma 90.000000
_cell_volume 2577.936010
_symmetry_space_group_name_H-M "P M M A"
_symmetry_group_IT_number 51
_symmetry_cell_setting 'orthorhombic'
loop_
_space_group_symop_operation_xyz
x,y,z
1/2-x,-y,z
1/2+x,-y,-z
-x,y,-z
-x,-y,-z
1/2+x,y,-z
1/2-x,y,z
x,-y,z
loop_
_atom_site_type_symbol
_atom_site_label
_atom_site_fract_x
_atom_site_fract_y
_atom_site_fract_z
Si Si1 0.352536 0.167655 0.643663
Si Si2 0.008471 0.677394 0.738195
Si Si3 0.503158 0.322968 0.106034
Si Si4 0.851937 0.676922 0.997225
Si Si5 0.848434 0.675515 0.645382
Si Si6 0.605818 0.667719 0.495430
O O1 0.250000 0.170205 0.667164
O O2 0.403370 0.268688 0.699108
O O3 0.360682 0.229666 0.566274
O O4 0.390985 0.000000 0.644713
O O5 0.008532 0.500000 0.739148
O O6 0.006462 0.741944 0.816224
O O7 0.921829 0.742788 0.697703
O O8 0.502816 0.500000 0.106628
O O9 0.592650 0.268442 0.065186
O O10 0.410551 0.268690 0.069220
O O11 0.750000 0.744044 0.996006
O O12 0.845116 0.500000 0.997149
O O13 0.750000 0.715527 0.674749
O O14 0.864177 0.500000 0.640496
O O15 0.857987 0.738373 0.567327
O O16 0.500000 0.665154 0.500000
O O17 0.642658 0.500000 0.483514
#
# Coordination Sequence:
#
# PCOD8207392 Si02
#       6
#     8   8   8   8   8   8
#     4  11  24  38  51  71 100 134 170 209 255 302
#     4  10  19  33  51  73 101 132 169 208 248 296
#     4   8  15  25  40  65  96 128 160 195 237 290
#     4   8  13  23  39  63  97 130 157 192 241 289
#     4   9  17  29  47  72  99 125 158 205 255 297
#     4  10  18  33  56  76  95 125 167 212 256 298
#
# _framework density 18.619547000000001
#
# number of rings (size 3 to 8) (size 9 to 14) (size 15 to 20)
#    0.000    2.667    1.667    2.000    0.000    3.667 
#    0.000    5.000    0.000    0.500    0.000    2.333 
#    0.000    1.333    0.000    0.000    0.000    0.000 
#
# Total GULP energy -594943.087806 kJ/mol
# GULP energy per Si atom -12394.647663 kJ/mol
# Density = 1.857717 g / cm^3
# Si number density = 18.619547 Si / 1000 Ang^3
#
#
#
# Elastic Constant Matrix: (Units=GPa)
#
#
# Indices 1 2 3 4 5 6 
#
# 1 138.5104 12.6352 68.5092 0.0000 0.0000 0.0000
# 2 12.6352 18.3212 16.7575 0.0000 0.0000 0.0000
# 3 68.5092 16.7575 166.3442 0.0000 0.0000 0.0000
# 4 0.0000 0.0000 0.0000 9.1677 0.0000 0.0000
# 5 0.0000 0.0000 0.0000 0.0000 9.2889 0.0000
# 6 0.0000 0.0000 0.0000 0.0000 0.0000 8.8920
#
#
#
# Elastic Compliance Matrix: (Units=1/GPa)
#
#
# Indices 1 2 3 4 5 6 
#
# 1 0.009232 -0.003182 -0.003482 0.000000 0.000000 0.000000
# 2 -0.003182 0.061218 -0.004856 0.000000 0.000000 0.000000
# 3 -0.003482 -0.004856 0.007935 0.000000 0.000000 0.000000
# 4 0.000000 0.000000 0.000000 0.109079 0.000000 0.000000
# 5 0.000000 0.000000 0.000000 0.000000 0.107656 0.000000
# 6 0.000000 0.000000 0.000000 0.000000 0.000000 0.112461
#
#
# Mechanical properties :
#
#
# Convention : Reuss Voigt Hill
#
# Bulk Modulus (GPa) = 18.06874 57.66440 37.86657
# Shear Modulus (GPa) = 11.13414 20.48797 15.81106
#
# Velocity S-wave (km/s) = 2.44802 3.32075 2.91720
# Velocity P-wave (km/s) = 4.20899 6.76315 5.63275
#
# Compressibility (1/GPa) = 0.05534419
#
# Stress axis : x y z
#
# Youngs Moduli (GPa) = 108.31837 16.33497 126.02721
#
# Poissons Ratio (x) = 0.05198 0.43878
# Poissons Ratio (y) = 0.34471 0.61205
# Poissons Ratio (z) = 0.37713 0.07933
#
# Static dielectric constant tensor:
#      x y z
#    x 3.632190 0.000000 0.000000 
#    y 0.000000 2.865070 0.000000 
#    z 0.000000 0.000000 3.731350 
# 
# 
# High freq. dielectric constant tensor:
#      x y z
#    x 1.736360 0.000000 0.000000 
#    y 0.000000 1.656600 0.000000 
#    z 0.000000 0.000000 1.725010 
# 
# From -- ./inp_files/29489.got.cif
#   From: 2010.03.12/outbox.cif.g09.slc.cpg/sg51_15_cif.got.tgz:29489.got - 2010.04.16 13:43:02.
