data_PCOD8207329
_publ_section_title
;
Structure prediction by ZEFSAII (Michael W. Deem and Ramdas Pophale) SiO2 
 PCOD8207329
Probable space group: P M M A
;
_chemical_formula_sum "Si O2"
_cell_formula_units_Z 52
_cell_length_a 8.908421
_cell_length_b 13.077463
_cell_length_c 22.575087
_cell_angle_alpha 90.000000
_cell_angle_beta 90.000000
_cell_angle_gamma 90.000000
_cell_volume 2629.987387
_symmetry_space_group_name_H-M "P M M A"
_symmetry_group_IT_number 51
_symmetry_cell_setting 'orthorhombic'
loop_
_space_group_symop_operation_xyz
x,y,z
1/2-x,-y,z
1/2+x,-y,-z
-x,y,-z
-x,-y,-z
1/2+x,y,-z
1/2-x,y,z
x,-y,z
loop_
_atom_site_type_symbol
_atom_site_label
_atom_site_fract_x
_atom_site_fract_y
_atom_site_fract_z
Si Si1 0.926099 0.306363 0.768328
Si Si2 0.073952 0.886107 0.814194
Si Si3 0.422821 0.816012 0.940826
Si Si4 0.921888 0.387284 0.117799
Si Si5 0.422470 0.384104 0.652987
Si Si6 0.569356 0.000000 0.565374
Si Si7 0.572000 0.795374 0.436138
O O1 0.750000 0.296046 0.768017
O O2 0.994109 0.192074 0.769907
O O3 0.975492 0.371056 0.825123
O O4 0.976916 0.365348 0.710145
O O5 0.250000 0.862733 0.812454
O O6 0.015961 0.872361 0.881893
O O7 0.035918 0.000000 0.792339
O O8 0.250000 0.840829 0.949209
O O9 0.457073 0.694895 0.933370
O O10 0.500000 0.858081 0.000000
O O11 0.750000 0.373940 0.138973
O O12 0.952296 0.500000 0.091552
O O13 0.250000 0.368122 0.671381
O O14 0.450493 0.500000 0.630018
O O15 0.467833 0.304568 0.601949
O O16 0.500000 0.000000 0.500000
O O17 0.504472 0.104304 0.595052
O O18 0.250000 0.000000 0.434357
O O19 0.500000 0.776156 0.500000
O O20 0.750000 0.813096 0.442083
#
# Coordination Sequence:
#
# PCOD8207329 Si02
#       7
#     8   8   8   8   8   4   8
#     4  11  22  35  54  82 111 136 172 226 282 327
#     4   9  19  38  60  77 100 140 183 220 265 328
#     4   9  18  31  48  74 105 136 173 215 263 320
#     4   9  18  34  54  72  97 139 183 219 261 319
#     4  10  22  40  60  82 112 153 195 229 269 334
#     4  10  18  32  56  82 112 148 186 228 273 322
#     4  10  20  36  59  86 116 151 192 234 279 330
#
# _framework density 19.771958000000001
#
# number of rings (size 3 to 8) (size 9 to 14) (size 15 to 20)
#    0.000    2.308    0.000    4.846    0.000    7.385 
#    1.385    0.000    0.000    0.000    0.000    0.000 
#    0.000    0.000    0.000    0.000    0.000    0.000 
#
# Total GULP energy -644670.480438 kJ/mol
# GULP energy per Si atom -12397.509239 kJ/mol
# Density = 1.972696 g / cm^3
# Si number density = 19.771958 Si / 1000 Ang^3
#
#
#
# Elastic Constant Matrix: (Units=GPa)
#
#
# Indices 1 2 3 4 5 6 
#
# 1 88.3979 40.9198 26.2752 0.0000 0.0000 0.0000
# 2 40.9198 126.8398 22.9314 0.0000 0.0000 0.0000
# 3 26.2752 22.9314 55.5059 0.0000 0.0000 0.0000
# 4 0.0000 0.0000 0.0000 19.4484 0.0000 0.0000
# 5 0.0000 0.0000 0.0000 0.0000 27.6895 0.0000
# 6 0.0000 0.0000 0.0000 0.0000 0.0000 18.3690
#
#
#
# Elastic Compliance Matrix: (Units=1/GPa)
#
#
# Indices 1 2 3 4 5 6 
#
# 1 0.014650 -0.003753 -0.005385 0.000000 0.000000 0.000000
# 2 -0.003753 0.009482 -0.002141 0.000000 0.000000 0.000000
# 3 -0.005385 -0.002141 0.021449 0.000000 0.000000 0.000000
# 4 0.000000 0.000000 0.000000 0.051418 0.000000 0.000000
# 5 0.000000 0.000000 0.000000 0.000000 0.036115 0.000000
# 6 0.000000 0.000000 0.000000 0.000000 0.000000 0.054440
#
#
# Mechanical properties :
#
#
# Convention : Reuss Voigt Hill
#
# Bulk Modulus (GPa) = 43.43105 50.11070 46.77088
# Shear Modulus (GPa) = 22.95842 25.14254 24.05048
#
# Velocity S-wave (km/s) = 3.41128 3.56986 3.49147
# Velocity P-wave (km/s) = 6.12613 6.51085 6.32142
#
# Compressibility (1/GPa) = 0.02302500
#
# Stress axis : x y z
#
# Youngs Moduli (GPa) = 68.25851 105.46655 46.62126
#
# Poissons Ratio (x) = 0.39580 0.25104
# Poissons Ratio (y) = 0.25616 0.09980
# Poissons Ratio (z) = 0.36755 0.22577
#
# Static dielectric constant tensor:
#      x y z
#    x 3.494820 0.000000 0.000000 
#    y 0.000000 4.049220 0.000000 
#    z 0.000000 0.000000 3.318070 
# 
# 
# High freq. dielectric constant tensor:
#      x y z
#    x 1.762870 0.000000 0.000000 
#    y 0.000000 1.787880 0.000000 
#    z 0.000000 0.000000 1.743540 
# 
# From -- ./inp_files/31682.got.cif
#   From: 2010.03.12/outbox.cif.g09.slc.cpg/sg51_16_cif.got.tgz:31682.got - 2010.04.16 13:43:02.
