data_PCOD8207349
_publ_section_title
;
Structure prediction by ZEFSAII (Michael W. Deem and Ramdas Pophale) SiO2 
 PCOD8207349
Probable space group: P M M A
;
_chemical_formula_sum "Si O2"
_cell_formula_units_Z 64
_cell_length_a 31.041175
_cell_length_b 8.694619
_cell_length_c 11.979606
_cell_angle_alpha 90.000000
_cell_angle_beta 90.000000
_cell_angle_gamma 90.000000
_cell_volume 3233.190118
_symmetry_space_group_name_H-M "P M M A"
_symmetry_group_IT_number 51
_symmetry_cell_setting 'orthorhombic'
loop_
_space_group_symop_operation_xyz
x,y,z
1/2-x,-y,z
1/2+x,-y,-z
-x,y,-z
-x,-y,-z
1/2+x,y,-z
1/2-x,y,z
x,-y,z
loop_
_atom_site_type_symbol
_atom_site_label
_atom_site_fract_x
_atom_site_fract_y
_atom_site_fract_z
Si Si1 0.328612 0.319865 0.499731
Si Si2 0.547878 0.177094 0.745759
Si Si3 0.797522 0.682588 0.733805
Si Si4 0.080781 0.175850 0.496859
Si Si5 0.798926 0.318459 0.262707
Si Si6 0.123657 0.680845 0.118774
Si Si7 0.047006 0.818209 0.731612
Si Si8 0.374095 0.181689 0.877251
O O1 0.320438 0.500000 0.503100
O O2 0.304536 0.250215 0.391138
O O3 0.378642 0.286210 0.486302
O O4 0.310016 0.249130 0.614730
O O5 0.551831 0.192315 0.612534
O O6 0.581699 0.285188 0.807675
O O7 0.499779 0.237869 0.775294
O O8 0.555005 0.000000 0.783017
O O9 0.750000 0.733240 0.775912
O O10 0.801732 0.500000 0.729232
O O11 0.833958 0.745720 0.817627
O O12 0.053470 0.232337 0.603347
O O13 0.096589 0.000000 0.513134
O O14 0.750000 0.274991 0.232071
O O15 0.806169 0.500000 0.261287
O O16 0.829395 0.245589 0.169736
O O17 0.127076 0.500000 0.096341
O O18 0.119847 0.769779 0.003865
O O19 0.085473 0.749507 0.807417
O O20 0.047270 0.000000 0.740025
O O21 0.373069 0.000000 0.867831
#
# Coordination Sequence:
#
# PCOD8207349 Si02
#       8
#     8   8   8   8   8   8   8   8
#     4  10  18  32  57  86 115 145 180 223 275 335
#     4  10  20  36  60  85 112 147 188 231 281 341
#     4   9  18  34  57  82 109 145 184 222 270 330
#     4  10  18  32  57  86 115 145 181 227 281 339
#     4  10  21  37  59  87 117 149 185 226 276 336
#     4  11  23  39  58  82 113 147 190 240 288 335
#     4   9  19  36  58  84 112 148 188 229 279 340
#     4  11  23  40  60  81 110 148 194 240 281 328
#
# _framework density 19.794691
#
# number of rings (size 3 to 8) (size 9 to 14) (size 15 to 20)
#    0.000    2.000    2.500    1.500    0.000    4.250 
#    0.000    5.625    0.000    5.250    0.000    0.000 
#    0.000    0.000    0.000    0.000    0.000    0.000 
#
# Total GULP energy -793547.661720 kJ/mol
# GULP energy per Si atom -12399.182214 kJ/mol
# Density = 1.974964 g / cm^3
# Si number density = 19.794691 Si / 1000 Ang^3
#
#
#
# Elastic Constant Matrix: (Units=GPa)
#
#
# Indices 1 2 3 4 5 6 
#
# 1 158.5215 18.2371 55.2628 0.0000 0.0000 0.0000
# 2 18.2371 18.7792 8.6989 0.0000 0.0000 0.0000
# 3 55.2628 8.6989 110.0760 0.0000 0.0000 0.0000
# 4 0.0000 0.0000 0.0000 26.0175 0.0000 0.0000
# 5 0.0000 0.0000 0.0000 0.0000 17.0148 0.0000
# 6 0.0000 0.0000 0.0000 0.0000 0.0000 26.4964
#
#
#
# Elastic Compliance Matrix: (Units=1/GPa)
#
#
# Indices 1 2 3 4 5 6 
#
# 1 0.008323 -0.006381 -0.003674 0.000000 0.000000 0.000000
# 2 -0.006381 0.060166 -0.001551 0.000000 0.000000 0.000000
# 3 -0.003674 -0.001551 0.011052 0.000000 0.000000 0.000000
# 4 0.000000 0.000000 0.000000 0.038436 0.000000 0.000000
# 5 0.000000 0.000000 0.000000 0.000000 0.058772 0.000000
# 6 0.000000 0.000000 0.000000 0.000000 0.000000 0.037741
#
#
# Mechanical properties :
#
#
# Convention : Reuss Voigt Hill
#
# Bulk Modulus (GPa) = 17.75322 50.19713 33.97518
# Shear Modulus (GPa) = 19.49479 27.58428 23.53954
#
# Velocity S-wave (km/s) = 3.14164 3.73704 3.45220
# Velocity P-wave (km/s) = 4.70616 6.63585 5.75250
#
# Compressibility (1/GPa) = 0.05632780
#
# Stress axis : x y z
#
# Youngs Moduli (GPa) = 120.14415 16.62079 90.48206
#
# Poissons Ratio (x) = 0.10606 0.33247
# Poissons Ratio (y) = 0.76664 0.14035
# Poissons Ratio (z) = 0.44146 0.02578
#
# Static dielectric constant tensor:
#      x y z
#    x 3.802020 0.000000 0.000000 
#    y 0.000000 3.257760 0.000000 
#    z 0.000000 0.000000 3.723430 
# 
# 
# High freq. dielectric constant tensor:
#      x y z
#    x 1.784320 0.000000 0.000000 
#    y 0.000000 1.734140 0.000000 
#    z 0.000000 0.000000 1.775690 
# 
# From -- ./inp_files/19524.got.cif
#   From: 2010.03.12/outbox.cif.g09.slc.cpg/sg51_10_cif.got.tgz:19524.got - 2010.04.16 13:43:02.
