data_PCOD8207178
_publ_section_title
;
Structure prediction by ZEFSAII (Michael W. Deem and Ramdas Pophale) SiO2 
 PCOD8207178
Probable space group: P M M A
;
_chemical_formula_sum "Si O2"
_cell_formula_units_Z 32
_cell_length_a 24.333953
_cell_length_b 8.924611
_cell_length_c 7.386311
_cell_angle_alpha 90.000000
_cell_angle_beta 90.000000
_cell_angle_gamma 90.000000
_cell_volume 1604.093023
_symmetry_space_group_name_H-M "P M M A"
_symmetry_group_IT_number 51
_symmetry_cell_setting 'orthorhombic'
loop_
_space_group_symop_operation_xyz
x,y,z
1/2-x,-y,z
1/2+x,-y,-z
-x,y,-z
-x,-y,-z
1/2+x,y,-z
1/2-x,y,z
x,-y,z
loop_
_atom_site_type_symbol
_atom_site_label
_atom_site_fract_x
_atom_site_fract_y
_atom_site_fract_z
Si Si1 0.250000 0.325030 0.195106
Si Si2 0.360737 0.825050 0.206165
Si Si3 0.869294 0.830141 0.215799
Si Si4 0.936550 0.674500 0.512796
Si Si5 0.250000 0.169258 0.826603
O O1 0.250000 0.500000 0.236505
O O2 0.194834 0.253280 0.279186
O O3 0.250000 0.293630 0.981568
O O4 0.411999 0.764863 0.319158
O O5 0.354345 0.000000 0.240626
O O6 0.371736 0.788558 0.995902
O O7 0.907907 0.717962 0.324117
O O8 0.806075 0.811755 0.288221
O O9 0.889548 0.000000 0.248467
O O10 0.927840 0.500000 0.548385
O O11 0.000000 0.717995 0.500000
O O12 0.250000 0.000000 0.914704
#
# Coordination Sequence:
#
# PCOD8207178 Si02
#       5
#     4   8   8   8   4
#     4  10  18  31  56  89 121 149 181 224 280 343
#     4  10  21  39  62  86 115 150 189 234 283 338
#     4   9  19  37  61  86 113 148 188 233 284 338
#     4  11  25  41  56  80 115 153 195 242 289 339
#     4   8  16  33  56  85 117 147 183 226 278 339
#
# _framework density 19.948969000000002
#
# number of rings (size 3 to 8) (size 9 to 14) (size 15 to 20)
#    0.000    2.250    0.000    4.125    0.000    9.000 
#    0.000    8.750    0.000    0.000    0.000    0.000 
#    0.000    0.000    0.000    0.000    0.000    0.000 
#
# Total GULP energy -396757.397706 kJ/mol
# GULP energy per Si atom -12398.668678 kJ/mol
# Density = 1.990356 g / cm^3
# Si number density = 19.948969 Si / 1000 Ang^3
#
#
#
# Elastic Constant Matrix: (Units=GPa)
#
#
# Indices 1 2 3 4 5 6 
#
# 1 159.7534 75.0403 61.5007 0.0000 0.0000 0.0000
# 2 75.0403 108.7743 42.6205 0.0000 0.0000 0.0000
# 3 61.5007 42.6205 83.4729 0.0000 0.0000 0.0000
# 4 0.0000 0.0000 0.0000 29.8501 0.0000 0.0000
# 5 0.0000 0.0000 0.0000 0.0000 32.0540 0.0000
# 6 0.0000 0.0000 0.0000 0.0000 0.0000 35.6437
#
#
#
# Elastic Compliance Matrix: (Units=1/GPa)
#
#
# Indices 1 2 3 4 5 6 
#
# 1 0.010804 -0.005419 -0.005194 0.000000 0.000000 0.000000
# 2 -0.005419 0.014210 -0.003263 0.000000 0.000000 0.000000
# 3 -0.005194 -0.003263 0.017473 0.000000 0.000000 0.000000
# 4 0.000000 0.000000 0.000000 0.033501 0.000000 0.000000
# 5 0.000000 0.000000 0.000000 0.000000 0.031197 0.000000
# 6 0.000000 0.000000 0.000000 0.000000 0.000000 0.028055
#
#
# Mechanical properties :
#
#
# Convention : Reuss Voigt Hill
#
# Bulk Modulus (GPa) = 67.86071 78.92484 73.39278
# Shear Modulus (GPa) = 29.77897 31.03216 30.40556
#
# Velocity S-wave (km/s) = 3.86781 3.94836 3.90829
# Velocity P-wave (km/s) = 7.35103 7.77402 7.56548
#
# Compressibility (1/GPa) = 0.01473607
#
# Stress axis : x y z
#
# Youngs Moduli (GPa) = 92.55566 70.37248 57.23211
#
# Poissons Ratio (x) = 0.38132 0.29724
# Poissons Ratio (y) = 0.50152 0.18676
# Poissons Ratio (z) = 0.48070 0.22965
#
# Static dielectric constant tensor:
#      x y z
#    x 3.788560 0.000000 0.000000 
#    y 0.000000 3.539960 0.000000 
#    z 0.000000 0.000000 3.345070 
# 
# 
# High freq. dielectric constant tensor:
#      x y z
#    x 1.784970 0.000000 0.000000 
#    y 0.000000 1.779410 0.000000 
#    z 0.000000 0.000000 1.761350 
# 
# From -- ./inp_files/11371.got.cif
#   From: 2010.03.12/outbox.cif.g09.slc.cpg/sg51_6_cif.got.tgz:11371.got - 2010.04.16 13:43:02.
