data_PCOD8207680
_publ_section_title
;
Structure prediction by ZEFSAII (Michael W. Deem and Ramdas Pophale) SiO2 
 PCOD8207680
Probable space group: P M M A
;
_chemical_formula_sum "Si O2"
_cell_formula_units_Z 56
_cell_length_a 17.154408
_cell_length_b 13.775514
_cell_length_c 14.752768
_cell_angle_alpha 90.000000
_cell_angle_beta 90.000000
_cell_angle_gamma 90.000000
_cell_volume 3486.238225
_symmetry_space_group_name_H-M "P M M A"
_symmetry_group_IT_number 51
_symmetry_cell_setting 'orthorhombic'
loop_
_space_group_symop_operation_xyz
x,y,z
1/2-x,-y,z
1/2+x,-y,-z
-x,y,-z
-x,-y,-z
1/2+x,y,-z
1/2-x,y,z
x,-y,z
loop_
_atom_site_type_symbol
_atom_site_label
_atom_site_fract_x
_atom_site_fract_y
_atom_site_fract_z
Si Si1 0.912772 0.885144 0.996401
Si Si2 0.836440 0.884793 0.177404
Si Si3 0.839582 0.258207 0.471121
Si Si4 0.920226 0.113471 0.357147
Si Si5 0.965940 0.608386 0.399607
Si Si6 0.429674 0.770362 0.348640
Si Si7 0.657927 0.887191 0.804529
O O1 0.865869 0.841516 0.081794
O O2 0.916890 0.000000 0.005521
O O3 0.868102 0.856246 0.904897
O O4 0.000000 0.841618 0.000000
O O5 0.750000 0.843092 0.197839
O O6 0.897012 0.853720 0.255347
O O7 0.832303 0.000000 0.171979
O O8 0.750000 0.286308 0.470180
O O9 0.855457 0.153781 0.426077
O O10 0.882745 0.338980 0.409593
O O11 0.866361 0.250832 0.574742
O O12 0.005767 0.152722 0.382663
O O13 0.920524 0.000000 0.369065
O O14 0.955836 0.500000 0.359904
O O15 0.000000 0.605803 0.500000
O O16 0.023336 0.668891 0.332172
O O17 0.386387 0.813043 0.261345
O O18 0.750000 0.873004 0.794094
O O19 0.635005 0.000000 0.784178
#
# Coordination Sequence:
#
# PCOD8207680 Si02
#       7
#     8   8   8   8   8   8   8
#     4   9  16  26  40  58  82 115 155 193 226 262
#     4   9  16  26  40  57  79 110 149 193 233 260
#     4  10  20  31  44  65  90 115 145 183 224 266
#     4  10  19  30  43  60  86 122 159 189 218 257
#     4   8  16  32  51  67  83 107 140 180 226 271
#     4  10  19  31  46  63  88 119 151 184 218 265
#     4  10  19  29  42  63  93 127 158 187 221 263
#
# _framework density 16.063158999999999
#
# number of rings (size 3 to 8) (size 9 to 14) (size 15 to 20)
#    0.000    2.571    0.000    3.857    0.000    6.857 
#    0.000    0.000    0.000    1.286    0.000    0.000 
#    0.000   14.286    0.000    6.286    0.000    0.571 
#
# Total GULP energy -694095.965262 kJ/mol
# GULP energy per Si atom -12394.570808 kJ/mol
# Density = 1.602660 g / cm^3
# Si number density = 16.063159 Si / 1000 Ang^3
#
#
#
# Elastic Constant Matrix: (Units=GPa)
#
#
# Indices 1 2 3 4 5 6 
#
# 1 108.6258 33.8723 20.5089 0.0000 0.0000 0.0000
# 2 33.8723 79.1746 22.5385 0.0000 0.0000 0.0000
# 3 20.5089 22.5385 37.6060 0.0000 0.0000 0.0000
# 4 0.0000 0.0000 0.0000 6.8723 0.0000 0.0000
# 5 0.0000 0.0000 0.0000 0.0000 28.1017 0.0000
# 6 0.0000 0.0000 0.0000 0.0000 0.0000 12.9485
#
#
#
# Elastic Compliance Matrix: (Units=1/GPa)
#
#
# Indices 1 2 3 4 5 6 
#
# 1 0.011068 -0.003637 -0.003856 0.000000 0.000000 0.000000
# 2 -0.003637 0.016424 -0.007860 0.000000 0.000000 0.000000
# 3 -0.003856 -0.007860 0.033405 0.000000 0.000000 0.000000
# 4 0.000000 0.000000 0.000000 0.145512 0.000000 0.000000
# 5 0.000000 0.000000 0.000000 0.000000 0.035585 0.000000
# 6 0.000000 0.000000 0.000000 0.000000 0.000000 0.077229
#
#
# Mechanical properties :
#
#
# Convention : Reuss Voigt Hill
#
# Bulk Modulus (GPa) = 33.12283 42.13842 37.63063
# Shear Modulus (GPa) = 13.88916 19.48360 16.68638
#
# Velocity S-wave (km/s) = 2.94370 3.48650 3.22654
# Velocity P-wave (km/s) = 5.67617 6.51901 6.11214
#
# Compressibility (1/GPa) = 0.03019065
#
# Stress axis : x y z
#
# Youngs Moduli (GPa) = 90.34869 60.88694 29.93559
#
# Poissons Ratio (x) = 0.22147 0.11544
# Poissons Ratio (y) = 0.32864 0.23528
# Poissons Ratio (z) = 0.34840 0.47855
#
# Static dielectric constant tensor:
#      x y z
#    x 3.188850 0.000000 0.000000 
#    y 0.000000 2.887130 0.000000 
#    z 0.000000 0.000000 3.053300 
# 
# 
# High freq. dielectric constant tensor:
#      x y z
#    x 1.632220 0.000000 0.000000 
#    y 0.000000 1.568180 0.000000 
#    z 0.000000 0.000000 1.609000 
# 
# From -- ./inp_files/25261.got.cif
#   From: 2010.03.12/outbox.cif.g09.slc.cpg/sg51_13_cif.got.tgz:25261.got - 2010.04.16 13:43:02.
