data_PCOD8207358
_publ_section_title
;
Structure prediction by ZEFSAII (Michael W. Deem and Ramdas Pophale) SiO2 
 PCOD8207358
Probable space group: P M M A
;
_chemical_formula_sum "Si O2"
_cell_formula_units_Z 52
_cell_length_a 15.704942
_cell_length_b 13.544457
_cell_length_c 13.198768
_cell_angle_alpha 90.000000
_cell_angle_beta 90.000000
_cell_angle_gamma 90.000000
_cell_volume 2807.574768
_symmetry_space_group_name_H-M "P M M A"
_symmetry_group_IT_number 51
_symmetry_cell_setting 'orthorhombic'
loop_
_space_group_symop_operation_xyz
x,y,z
1/2-x,-y,z
1/2+x,-y,-z
-x,y,-z
-x,-y,-z
1/2+x,y,-z
1/2-x,y,z
x,-y,z
loop_
_atom_site_type_symbol
_atom_site_label
_atom_site_fract_x
_atom_site_fract_y
_atom_site_fract_z
Si Si1 0.250000 0.681338 0.291416
Si Si2 0.932482 0.383494 0.410849
Si Si3 0.344423 0.235181 0.960160
Si Si4 0.250000 0.893468 0.240019
Si Si5 0.877322 0.386198 0.872977
Si Si6 0.969576 0.718634 0.202249
Si Si7 0.250000 0.613072 0.514790
Si Si8 0.423646 0.889324 0.121356
O O1 0.250000 0.799542 0.315019
O O2 0.333991 0.650386 0.230685
O O3 0.250000 0.623238 0.394948
O O4 0.932172 0.500000 0.382874
O O5 0.960629 0.316741 0.316863
O O6 0.838265 0.343206 0.440933
O O7 0.000000 0.363472 0.500000
O O8 0.250000 0.190028 0.945237
O O9 0.377887 0.270461 0.850772
O O10 0.336811 0.329517 0.033019
O O11 0.411869 0.156397 0.007944
O O12 0.329892 0.887051 0.166756
O O13 0.250000 0.000000 0.298779
O O14 0.860212 0.500000 0.891517
O O15 0.977308 0.362862 0.861372
O O16 0.016765 0.824608 0.195009
O O17 0.250000 0.500000 0.544107
O O18 0.460689 0.000000 0.113913
#
# Coordination Sequence:
#
# PCOD8207358 Si02
#       8
#     4   8   8   4   8   8   4   8
#     4  12  18  34  59  86 113 145 189 245 292 346
#     4  10  22  41  60  83 115 153 203 252 296 346
#     4  11  22  36  51  80 117 154 189 228 281 352
#     4  10  18  32  59  85 112 142 179 232 286 338
#     4  11  20  33  52  79 112 148 186 227 281 345
#     4  11  23  35  57  81 112 151 191 239 288 343
#     4  10  22  36  58  87 113 153 202 249 298 348
#     4  10  19  37  60  86 116 148 190 235 284 345
#
# _framework density 18.521322999999999
#
# number of rings (size 3 to 8) (size 9 to 14) (size 15 to 20)
#    0.000    1.385    4.615    3.923    1.077    4.308 
#    0.000    0.000    0.000    1.385    0.000    0.000 
#    0.000    0.000    0.000    0.000    0.000    0.000 
#
# Total GULP energy -644639.050217 kJ/mol
# GULP energy per Si atom -12396.904812 kJ/mol
# Density = 1.847917 g / cm^3
# Si number density = 18.521323 Si / 1000 Ang^3
#
#
#
# Elastic Constant Matrix: (Units=GPa)
#
#
# Indices 1 2 3 4 5 6 
#
# 1 102.2982 23.1488 44.2690 0.0000 0.0000 0.0000
# 2 23.1488 115.0589 37.7121 0.0000 0.0000 0.0000
# 3 44.2690 37.7121 101.7969 0.0000 0.0000 0.0000
# 4 0.0000 0.0000 0.0000 20.5309 0.0000 0.0000
# 5 0.0000 0.0000 0.0000 0.0000 23.2886 0.0000
# 6 0.0000 0.0000 0.0000 0.0000 0.0000 15.9137
#
#
#
# Elastic Compliance Matrix: (Units=1/GPa)
#
#
# Indices 1 2 3 4 5 6 
#
# 1 0.012107 -0.000808 -0.004966 0.000000 0.000000 0.000000
# 2 -0.000808 0.009946 -0.003333 0.000000 0.000000 0.000000
# 3 -0.004966 -0.003333 0.013218 0.000000 0.000000 0.000000
# 4 0.000000 0.000000 0.000000 0.048707 0.000000 0.000000
# 5 0.000000 0.000000 0.000000 0.000000 0.042940 0.000000
# 6 0.000000 0.000000 0.000000 0.000000 0.000000 0.062839
#
#
# Mechanical properties :
#
#
# Convention : Reuss Voigt Hill
#
# Bulk Modulus (GPa) = 58.62750 58.82376 58.72563
# Shear Modulus (GPa) = 23.40202 26.21491 24.80846
#
# Velocity S-wave (km/s) = 3.55846 3.76625 3.66383
# Velocity P-wave (km/s) = 6.97182 7.12333 7.04798
#
# Compressibility (1/GPa) = 0.01705684
#
# Stress axis : x y z
#
# Youngs Moduli (GPa) = 82.59610 100.53945 75.65569
#
# Poissons Ratio (x) = 0.08126 0.37568
# Poissons Ratio (y) = 0.06676 0.25218
# Poissons Ratio (z) = 0.41014 0.33512
#
# Static dielectric constant tensor:
#      x y z
#    x 3.838840 0.000000 0.000000 
#    y 0.000000 3.584380 0.000000 
#    z 0.000000 0.000000 3.078820 
# 
# 
# High freq. dielectric constant tensor:
#      x y z
#    x 1.736950 0.000000 0.000000 
#    y 0.000000 1.708220 0.000000 
#    z 0.000000 0.000000 1.687320 
# 
# From -- ./inp_files/17442.got.cif
#   From: 2010.03.12/outbox.cif.g09.slc.cpg/sg51_9_cif.got.tgz:17442.got - 2010.04.16 13:43:02.
