data_PCOD8207257
_publ_section_title
;
Structure prediction by ZEFSAII (Michael W. Deem and Ramdas Pophale) SiO2 
 PCOD8207257
Probable space group: P M M A
;
_chemical_formula_sum "Si O2"
_cell_formula_units_Z 48
_cell_length_a 8.677470
_cell_length_b 30.460735
_cell_length_c 9.615356
_cell_angle_alpha 90.000000
_cell_angle_beta 90.000000
_cell_angle_gamma 90.000000
_cell_volume 2541.551226
_symmetry_space_group_name_H-M "P M M A"
_symmetry_group_IT_number 51
_symmetry_cell_setting 'orthorhombic'
loop_
_space_group_symop_operation_xyz
x,y,z
1/2-x,-y,z
1/2+x,-y,-z
-x,y,-z
-x,-y,-z
1/2+x,y,-z
1/2-x,y,z
x,-y,z
loop_
_atom_site_type_symbol
_atom_site_label
_atom_site_fract_x
_atom_site_fract_y
_atom_site_fract_z
Si Si1 0.070822 0.843637 0.645694
Si Si2 0.071241 0.258913 0.646406
Si Si3 0.932221 0.594806 0.653022
Si Si4 0.432025 0.088211 0.152386
Si Si5 0.567517 0.327208 0.847128
Si Si6 0.566822 0.000000 0.154661
Si Si7 0.069595 0.500000 0.350096
O O1 0.250000 0.856064 0.649982
O O2 0.043202 0.792361 0.670971
O O3 0.000000 0.858610 0.500000
O O4 0.978499 0.868788 0.763943
O O5 0.250000 0.271228 0.644817
O O6 0.000000 0.274436 0.500000
O O7 0.988007 0.282862 0.773430
O O8 0.750000 0.598796 0.638551
O O9 0.995610 0.631387 0.758534
O O10 0.980588 0.546686 0.718636
O O11 0.000000 0.602536 0.500000
O O12 0.250000 0.083458 0.143901
O O13 0.502905 0.044468 0.226697
O O14 0.500000 0.094021 0.000000
O O15 0.750000 0.327038 0.857132
O O16 0.500000 0.330209 0.000000
O O17 0.750000 0.000000 0.155383
O O18 0.500000 0.000000 0.000000
O O19 0.250000 0.500000 0.366974
O O20 0.000000 0.500000 0.500000
#
# Coordination Sequence:
#
# PCOD8207257 Si02
#       7
#     8   8   8   8   8   4   4
#     4  10  21  38  58  82 110 141 176 217 267 321
#     4  10  21  38  60  82 106 138 177 218 263 318
#     4   9  18  32  53  78 103 135 173 216 262 314
#     4  11  21  35  56  82 111 145 184 225 268 316
#     4  11  23  37  53  76 107 141 178 220 269 318
#     4  10  18  32  53  78 109 144 183 226 268 314
#     4   8  14  28  49  74 102 130 168 214 259 306
#
# _framework density 18.886104
#
# number of rings (size 3 to 8) (size 9 to 14) (size 15 to 20)
#    0.000    2.000    0.000    5.250    0.000    5.333 
#    0.000    0.833    0.000    0.000    0.000    0.000 
#    0.000    0.000    0.000    0.000    0.000    0.000 
#
# Total GULP energy -595036.002451 kJ/mol
# GULP energy per Si atom -12396.583384 kJ/mol
# Density = 1.884312 g / cm^3
# Si number density = 18.886104 Si / 1000 Ang^3
#
#
#
# Elastic Constant Matrix: (Units=GPa)
#
#
# Indices 1 2 3 4 5 6 
#
# 1 113.6949 52.1742 47.2701 0.0000 0.0000 0.0000
# 2 52.1742 105.6232 66.8123 0.0000 0.0000 0.0000
# 3 47.2701 66.8123 113.9154 0.0000 0.0000 0.0000
# 4 0.0000 0.0000 0.0000 26.3904 0.0000 0.0000
# 5 0.0000 0.0000 0.0000 0.0000 32.5211 0.0000
# 6 0.0000 0.0000 0.0000 0.0000 0.0000 34.3212
#
#
#
# Elastic Compliance Matrix: (Units=1/GPa)
#
#
# Indices 1 2 3 4 5 6 
#
# 1 0.011753 -0.004325 -0.002340 0.000000 0.000000 0.000000
# 2 -0.004325 0.016644 -0.007967 0.000000 0.000000 0.000000
# 3 -0.002340 -0.007967 0.014422 0.000000 0.000000 0.000000
# 4 0.000000 0.000000 0.000000 0.037893 0.000000 0.000000
# 5 0.000000 0.000000 0.000000 0.000000 0.030749 0.000000
# 6 0.000000 0.000000 0.000000 0.000000 0.000000 0.029137
#
#
# Mechanical properties :
#
#
# Convention : Reuss Voigt Hill
#
# Bulk Modulus (GPa) = 73.77761 73.97186 73.87474
# Shear Modulus (GPa) = 28.67295 29.77833 29.22564
#
# Velocity S-wave (km/s) = 3.90064 3.97512 3.93805
# Velocity P-wave (km/s) = 7.70947 7.76667 7.73812
#
# Compressibility (1/GPa) = 0.01355425
#
# Stress axis : x y z
#
# Youngs Moduli (GPa) = 85.08189 60.08316 69.33803
#
# Poissons Ratio (x) = 0.25988 0.16227
# Poissons Ratio (y) = 0.36801 0.55240
# Poissons Ratio (z) = 0.19911 0.47867
#
# Static dielectric constant tensor:
#      x y z
#    x 3.552990 0.000000 0.000000 
#    y 0.000000 4.141750 0.000000 
#    z 0.000000 0.000000 3.237370 
# 
# 
# High freq. dielectric constant tensor:
#      x y z
#    x 1.746300 0.000000 0.000000 
#    y 0.000000 1.755610 0.000000 
#    z 0.000000 0.000000 1.705090 
# 
# From -- ./inp_files/6235.got.cif
#   From: 2010.03.12/outbox.cif.g09.slc.cpg/sg51_4_cif.got.tgz:6235.got - 2010.04.16 13:43:02.
