data_PCOD8207254
_publ_section_title
;
Structure prediction by ZEFSAII (Michael W. Deem and Ramdas Pophale) SiO2 
 PCOD8207254
Probable space group: P M M A
;
_chemical_formula_sum "Si O2"
_cell_formula_units_Z 40
_cell_length_a 8.657148
_cell_length_b 12.637121
_cell_length_c 19.758075
_cell_angle_alpha 90.000000
_cell_angle_beta 90.000000
_cell_angle_gamma 90.000000
_cell_volume 2161.561596
_symmetry_space_group_name_H-M "P M M A"
_symmetry_group_IT_number 51
_symmetry_cell_setting 'orthorhombic'
loop_
_space_group_symop_operation_xyz
x,y,z
1/2-x,-y,z
1/2+x,-y,-z
-x,y,-z
-x,-y,-z
1/2+x,y,-z
1/2-x,y,z
x,-y,z
loop_
_atom_site_type_symbol
_atom_site_label
_atom_site_fract_x
_atom_site_fract_y
_atom_site_fract_z
Si Si1 0.571381 0.500000 0.572408
Si Si2 0.071736 0.877530 0.685621
Si Si3 0.432663 0.271186 0.424870
Si Si4 0.066787 0.500000 0.075083
Si Si5 0.571150 0.876799 0.826365
Si Si6 0.068587 0.286323 0.925962
O O1 0.750000 0.500000 0.558486
O O2 0.500000 0.500000 0.500000
O O3 0.527313 0.388067 0.607895
O O4 0.250000 0.853155 0.700390
O O5 0.015047 0.814977 0.620631
O O6 0.974277 0.841539 0.750839
O O7 0.043497 0.000000 0.669457
O O8 0.500000 0.261260 0.500000
O O9 0.250000 0.250249 0.426609
O O10 0.250000 0.500000 0.076089
O O11 0.003801 0.392061 0.109274
O O12 0.000000 0.500000 0.000000
O O13 0.750000 0.851064 0.838432
O O14 0.468972 0.813964 0.879982
O O15 0.533693 0.000000 0.837104
O O16 0.250000 0.301666 0.932820
O O17 0.000000 0.265936 0.000000
#
# Coordination Sequence:
#
# PCOD8207254 Si02
#       6
#     4   8   8   4   8   8
#     4   8  16  30  49  74 103 134 167 207 255 305
#     4  10  21  37  55  76 104 138 175 216 264 316
#     4  10  19  33  54  79 106 136 173 215 260 310
#     4  10  18  32  53  78 109 142 177 217 265 315
#     4  10  21  38  58  79 105 139 178 220 269 321
#     4  11  21  35  56  82 111 142 179 220 264 314
#
# _framework density 18.505140000000001
#
# number of rings (size 3 to 8) (size 9 to 14) (size 15 to 20)
#    0.000    2.000    0.000    5.700    0.000    4.000 
#    0.000    1.000    0.000    1.200    0.000    0.000 
#    0.000    0.000    0.000    0.000    0.000    0.000 
#
# Total GULP energy -495837.460085 kJ/mol
# GULP energy per Si atom -12395.936502 kJ/mol
# Density = 1.846302 g / cm^3
# Si number density = 18.505140 Si / 1000 Ang^3
#
#
#
# Elastic Constant Matrix: (Units=GPa)
#
#
# Indices 1 2 3 4 5 6 
#
# 1 109.9859 51.4053 31.4103 0.0000 0.0000 0.0000
# 2 51.4053 101.4232 57.2737 0.0000 0.0000 0.0000
# 3 31.4103 57.2737 75.9810 0.0000 0.0000 0.0000
# 4 0.0000 0.0000 0.0000 4.1198 0.0000 0.0000
# 5 0.0000 0.0000 0.0000 0.0000 31.8820 0.0000
# 6 0.0000 0.0000 0.0000 0.0000 0.0000 29.5709
#
#
#
# Elastic Compliance Matrix: (Units=1/GPa)
#
#
# Indices 1 2 3 4 5 6 
#
# 1 0.011933 -0.005680 -0.000651 0.000000 0.000000 0.000000
# 2 -0.005680 0.019871 -0.012630 0.000000 0.000000 0.000000
# 3 -0.000651 -0.012630 0.022951 0.000000 0.000000 0.000000
# 4 0.000000 0.000000 0.000000 0.242730 0.000000 0.000000
# 5 0.000000 0.000000 0.000000 0.000000 0.031366 0.000000
# 6 0.000000 0.000000 0.000000 0.000000 0.000000 0.033817
#
#
# Mechanical properties :
#
#
# Convention : Reuss Voigt Hill
#
# Bulk Modulus (GPa) = 59.41371 63.06320 61.23845
# Shear Modulus (GPa) = 12.30916 22.93458 17.62187
#
# Velocity S-wave (km/s) = 2.58190 3.52428 3.08923
# Velocity P-wave (km/s) = 6.40816 7.12134 6.77414
#
# Compressibility (1/GPa) = 0.01683113
#
# Stress axis : x y z
#
# Youngs Moduli (GPa) = 83.80164 50.32440 43.57090
#
# Poissons Ratio (x) = 0.28586 0.02838
# Poissons Ratio (y) = 0.47602 0.55032
# Poissons Ratio (z) = 0.05458 0.63562
#
# Static dielectric constant tensor:
#      x y z
#    x 3.562100 0.000000 0.000000 
#    y 0.000000 4.047790 0.000000 
#    z 0.000000 0.000000 3.129570 
# 
# 
# High freq. dielectric constant tensor:
#      x y z
#    x 1.737300 0.000000 0.000000 
#    y 0.000000 1.734070 0.000000 
#    z 0.000000 0.000000 1.687530 
# 
# From -- ./inp_files/31390.got.cif
#   From: 2010.03.12/outbox.cif.g09.slc.cpg/sg51_16_cif.got.tgz:31390.got - 2010.04.16 13:43:02.
