data_PCOD8207566
_publ_section_title
;
Structure prediction by ZEFSAII (Michael W. Deem and Ramdas Pophale) SiO2 
 PCOD8207566
Probable space group: P M M A
;
_chemical_formula_sum "Si O2"
_cell_formula_units_Z 56
_cell_length_a 9.230938
_cell_length_b 13.571904
_cell_length_c 29.037611
_cell_angle_alpha 90.000000
_cell_angle_beta 90.000000
_cell_angle_gamma 90.000000
_cell_volume 3637.872686
_symmetry_space_group_name_H-M "P M M A"
_symmetry_group_IT_number 51
_symmetry_cell_setting 'orthorhombic'
loop_
_space_group_symop_operation_xyz
x,y,z
1/2-x,-y,z
1/2+x,-y,-z
-x,y,-z
-x,-y,-z
1/2+x,y,-z
1/2-x,y,z
x,-y,z
loop_
_atom_site_type_symbol
_atom_site_label
_atom_site_fract_x
_atom_site_fract_y
_atom_site_fract_z
Si Si1 0.581259 0.282085 0.314375
Si Si2 0.911791 0.617157 0.143337
Si Si3 0.583069 0.386611 0.408754
Si Si4 0.081270 0.615372 0.231834
Si Si5 0.418486 0.386555 0.957194
Si Si6 0.918994 0.782156 0.544882
Si Si7 0.417362 0.113525 0.361161
O O1 0.750000 0.270124 0.303472
O O2 0.552398 0.357082 0.356111
O O3 0.502359 0.324207 0.270145
O O4 0.516383 0.175323 0.326427
O O5 0.750000 0.654705 0.155987
O O6 0.908794 0.500000 0.139855
O O7 0.959058 0.659591 0.092995
O O8 0.024238 0.652243 0.182167
O O9 0.750000 0.365826 0.421432
O O10 0.541527 0.500000 0.414978
O O11 0.481729 0.325388 0.442960
O O12 0.250000 0.639289 0.235156
O O13 0.048966 0.500000 0.238800
O O14 0.250000 0.374450 0.966389
O O15 0.466461 0.500000 0.956196
O O16 0.500000 0.333134 0.000000
O O17 0.750000 0.771636 0.534300
O O18 0.950995 0.857798 0.586115
O O19 0.000000 0.824263 0.500000
O O20 0.250000 0.135490 0.349796
O O21 0.457012 0.000000 0.354140
#
# Coordination Sequence:
#
# PCOD8207566 Si02
#       7
#     8   8   8   8   8   8   8
#     4  10  19  31  48  68  88 110 138 172 209 251
#     4   8  14  24  35  48  70 101 137 176 216 254
#     4   9  18  32  48  65  86 113 143 172 202 238
#     4  10  19  28  40  60  85 113 144 177 213 253
#     4   8  13  20  30  44  63  91 129 173 217 255
#     4  10  20  33  49  69  91 114 139 167 201 240
#     4   9  19  36  54  70  89 111 135 167 206 246
#
# _framework density 15.393613
#
# number of rings (size 3 to 8) (size 9 to 14) (size 15 to 20)
#    0.000    2.857    0.000    2.571    0.000    4.286 
#    0.000    2.857    0.000    0.000    0.000    0.000 
#    0.000    0.000    0.000    0.000    0.000    0.714 
#
# Total GULP energy -694241.039665 kJ/mol
# GULP energy per Si atom -12397.161423 kJ/mol
# Density = 1.535858 g / cm^3
# Si number density = 15.393613 Si / 1000 Ang^3
#
#
#
# Elastic Constant Matrix: (Units=GPa)
#
#
# Indices 1 2 3 4 5 6 
#
# 1 91.4750 36.8681 66.8729 0.0000 0.0000 0.0000
# 2 36.8681 51.2073 29.4292 0.0000 0.0000 0.0000
# 3 66.8729 29.4292 116.1636 0.0000 0.0000 0.0000
# 4 0.0000 0.0000 0.0000 8.3834 0.0000 0.0000
# 5 0.0000 0.0000 0.0000 0.0000 32.3417 0.0000
# 6 0.0000 0.0000 0.0000 0.0000 0.0000 17.9964
#
#
#
# Elastic Compliance Matrix: (Units=1/GPa)
#
#
# Indices 1 2 3 4 5 6 
#
# 1 0.022778 -0.010374 -0.010485 0.000000 0.000000 0.000000
# 2 -0.010374 0.027581 -0.001015 0.000000 0.000000 0.000000
# 3 -0.010485 -0.001015 0.014902 0.000000 0.000000 0.000000
# 4 0.000000 0.000000 0.000000 0.119283 0.000000 0.000000
# 5 0.000000 0.000000 0.000000 0.000000 0.030920 0.000000
# 6 0.000000 0.000000 0.000000 0.000000 0.000000 0.055567
#
#
# Mechanical properties :
#
#
# Convention : Reuss Voigt Hill
#
# Bulk Modulus (GPa) = 46.48444 58.35404 52.41924
# Shear Modulus (GPa) = 15.53042 20.12269 17.82655
#
# Velocity S-wave (km/s) = 3.17974 3.61946 3.40670
# Velocity P-wave (km/s) = 6.61391 7.44698 7.04278
#
# Compressibility (1/GPa) = 0.02151257
#
# Stress axis : x y z
#
# Youngs Moduli (GPa) = 43.90238 36.25681 67.10732
#
# Poissons Ratio (x) = 0.37613 0.70359
# Poissons Ratio (y) = 0.45544 0.06814
# Poissons Ratio (z) = 0.46030 0.03681
#
# Static dielectric constant tensor:
#      x y z
#    x 3.028280 0.000000 0.000000 
#    y 0.000000 2.571980 0.000000 
#    z 0.000000 0.000000 3.192890 
# 
# 
# High freq. dielectric constant tensor:
#      x y z
#    x 1.599870 0.000000 0.000000 
#    y 0.000000 1.534900 0.000000 
#    z 0.000000 0.000000 1.595240 
# 
# From -- ./inp_files/37450.got.cif
#   From: 2010.03.12/outbox.cif.g09.slc.cpg/sg51_19_cif.got.tgz:37450.got - 2010.04.16 13:43:02.
