data_PCOD8207725
_publ_section_title
;
Structure prediction by ZEFSAII (Michael W. Deem and Ramdas Pophale) SiO2 
 PCOD8207725
Probable space group: P M M A
;
_chemical_formula_sum "Si O2"
_cell_formula_units_Z 64
_cell_length_a 20.110167
_cell_length_b 9.255960
_cell_length_c 20.260882
_cell_angle_alpha 90.000000
_cell_angle_beta 90.000000
_cell_angle_gamma 90.000000
_cell_volume 3771.338316
_symmetry_space_group_name_H-M "P M M A"
_symmetry_group_IT_number 51
_symmetry_cell_setting 'orthorhombic'
loop_
_space_group_symop_operation_xyz
x,y,z
1/2-x,-y,z
1/2+x,-y,-z
-x,y,-z
-x,-y,-z
1/2+x,y,-z
1/2-x,y,z
x,-y,z
loop_
_atom_site_type_symbol
_atom_site_label
_atom_site_fract_x
_atom_site_fract_y
_atom_site_fract_z
Si Si1 0.600634 0.162180 0.813928
Si Si2 0.433554 0.168123 0.538467
Si Si3 0.958880 0.668838 0.331625
Si Si4 0.929580 0.337674 0.081253
Si Si5 0.326071 0.164240 0.431194
Si Si6 0.556753 0.837584 0.203831
Si Si7 0.113284 0.331583 0.313802
Si Si8 0.086757 0.662246 0.063643
O O1 0.521665 0.162159 0.807460
O O2 0.632279 0.254027 0.754596
O O3 0.622242 0.232696 0.883766
O O4 0.629111 0.000000 0.811207
O O5 0.500000 0.213400 0.500000
O O6 0.425971 0.262937 0.603816
O O7 0.370572 0.207516 0.493618
O O8 0.435841 0.000000 0.558331
O O9 0.942864 0.500000 0.328550
O O10 0.925636 0.743756 0.268114
O O11 0.037411 0.699524 0.333627
O O12 0.905058 0.500000 0.097102
O O13 0.906689 0.232247 0.140228
O O14 0.008575 0.337764 0.076032
O O15 0.898546 0.284649 0.011337
O O16 0.250000 0.180879 0.453274
O O17 0.339774 0.269294 0.370379
O O18 0.342741 0.000000 0.409358
O O19 0.583652 0.000000 0.213285
O O20 0.127437 0.500000 0.304955
O O21 0.114250 0.500000 0.073608
#
# Coordination Sequence:
#
# PCOD8207725 Si02
#       8
#     8   8   8   8   8   8   8   8
#     4   9  16  24  36  54  77 106 143 185 224 263
#     4  10  19  32  51  71  91 117 149 187 228 274
#     4  10  19  29  44  65  88 114 148 189 229 270
#     4   8  13  21  32  46  70 105 142 179 220 266
#     4  10  21  36  52  70  93 120 149 184 230 280
#     4   9  16  24  35  53  78 108 143 183 225 268
#     4  10  19  30  45  64  87 115 148 187 227 269
#     4   8  13  21  32  47  70 103 142 181 220 263
#
# _framework density 16.970103000000002
#
# number of rings (size 3 to 8) (size 9 to 14) (size 15 to 20)
#    0.000    2.750    1.250    2.250    0.000    5.500 
#    0.000    2.500    0.000    0.000    0.000    0.000 
#    0.000    0.000    0.000    1.125    0.000   18.750 
#
# Total GULP energy -793476.894932 kJ/mol
# GULP energy per Si atom -12398.076483 kJ/mol
# Density = 1.693148 g / cm^3
# Si number density = 16.970103 Si / 1000 Ang^3
#
#
#
# Elastic Constant Matrix: (Units=GPa)
#
#
# Indices 1 2 3 4 5 6 
#
# 1 36.1688 24.4620 31.8946 0.0000 0.0000 0.0000
# 2 24.4620 119.6677 88.7714 0.0000 0.0000 0.0000
# 3 31.8946 88.7714 162.8685 0.0000 0.0000 0.0000
# 4 0.0000 0.0000 0.0000 40.2008 0.0000 0.0000
# 5 0.0000 0.0000 0.0000 0.0000 9.0911 0.0000
# 6 0.0000 0.0000 0.0000 0.0000 0.0000 9.9651
#
#
#
# Elastic Compliance Matrix: (Units=1/GPa)
#
#
# Indices 1 2 3 4 5 6 
#
# 1 0.034223 -0.003398 -0.004850 0.000000 0.000000 0.000000
# 2 -0.003398 0.014366 -0.007165 0.000000 0.000000 0.000000
# 3 -0.004850 -0.007165 0.010995 0.000000 0.000000 0.000000
# 4 0.000000 0.000000 0.000000 0.024875 0.000000 0.000000
# 5 0.000000 0.000000 0.000000 0.000000 0.109997 0.000000
# 6 0.000000 0.000000 0.000000 0.000000 0.000000 0.100350
#
#
# Mechanical properties :
#
#
# Convention : Reuss Voigt Hill
#
# Bulk Modulus (GPa) = 34.77219 67.66233 51.21726
# Shear Modulus (GPa) = 14.91569 23.42321 19.16945
#
# Velocity S-wave (km/s) = 2.96791 3.71922 3.36460
# Velocity P-wave (km/s) = 5.68149 7.64209 6.73353
#
# Compressibility (1/GPa) = 0.02875862
#
# Stress axis : x y z
#
# Youngs Moduli (GPa) = 29.22009 69.60877 90.95210
#
# Poissons Ratio (x) = 0.23654 0.44110
# Poissons Ratio (y) = 0.09929 0.65165
# Poissons Ratio (z) = 0.14171 0.49873
#
# Static dielectric constant tensor:
#      x y z
#    x 2.516180 0.000000 0.000000 
#    y 0.000000 3.314430 0.000000 
#    z 0.000000 0.000000 3.390420 
# 
# 
# High freq. dielectric constant tensor:
#      x y z
#    x 1.572240 0.000000 0.000000 
#    y 0.000000 1.662840 0.000000 
#    z 0.000000 0.000000 1.669600 
# 
# From -- ./inp_files/34050.got.cif
#   From: 2010.03.12/outbox.cif.g09.slc.cpg/sg51_18_cif.got.tgz:34050.got - 2010.04.16 13:43:02.
