data_PCOD8207431
_publ_section_title
;
Structure prediction by ZEFSAII (Michael W. Deem and Ramdas Pophale) SiO2 
 PCOD8207431
Probable space group: P M M A
;
_chemical_formula_sum "Si O2"
_cell_formula_units_Z 64
_cell_length_a 23.922799
_cell_length_b 8.906892
_cell_length_c 15.440873
_cell_angle_alpha 90.000000
_cell_angle_beta 90.000000
_cell_angle_gamma 90.000000
_cell_volume 3290.107049
_symmetry_space_group_name_H-M "P M M A"
_symmetry_group_IT_number 51
_symmetry_cell_setting 'orthorhombic'
loop_
_space_group_symop_operation_xyz
x,y,z
1/2-x,-y,z
1/2+x,-y,-z
-x,y,-z
-x,-y,-z
1/2+x,y,-z
1/2-x,y,z
x,-y,z
loop_
_atom_site_type_symbol
_atom_site_label
_atom_site_fract_x
_atom_site_fract_y
_atom_site_fract_z
Si Si1 0.881533 0.178632 0.118771
Si Si2 0.605759 0.822625 0.803220
Si Si3 0.606500 0.672521 0.622034
Si Si4 0.187448 0.821458 0.716070
Si Si5 0.877281 0.175807 0.451658
Si Si6 0.010115 0.674333 0.826834
Si Si7 0.687494 0.177580 0.954092
Si Si8 0.522599 0.668684 0.372619
O O1 0.850154 0.237762 0.204835
O O2 0.943037 0.251313 0.112298
O O3 0.888228 0.000000 0.118664
O O4 0.846230 0.238116 0.037138
O O5 0.621868 0.760040 0.709222
O O6 0.549187 0.753234 0.842176
O O7 0.655979 0.775294 0.866535
O O8 0.597734 0.000000 0.797200
O O9 0.623255 0.500000 0.635451
O O10 0.640042 0.742086 0.540908
O O11 0.541283 0.690443 0.599793
O O12 0.250000 0.757502 0.726637
O O13 0.162993 0.764287 0.624622
O O14 0.187852 0.000000 0.717720
O O15 0.940826 0.212435 0.425034
O O16 0.871018 0.000000 0.466726
O O17 0.003262 0.500000 0.849467
O O18 0.029467 0.699925 0.728699
O O19 0.750000 0.246965 0.953077
O O20 0.691422 0.000000 0.961445
O O21 0.542562 0.500000 0.395848
#
# Coordination Sequence:
#
# PCOD8207431 Si02
#       8
#     8   8   8   8   8   8   8   8
#     4  10  18  33  59  86 111 143 184 227 273 333
#     4  10  20  36  58  83 111 142 185 237 280 330
#     4  10  21  36  53  75 107 147 182 219 275 333
#     4   9  18  32  51  78 111 144 180 225 274 323
#     4  11  20  30  50  80 107 138 182 228 267 315
#     4  10  20  34  53  80 118 155 182 219 276 335
#     4   9  19  36  60  88 112 139 182 236 289 331
#     4   9  18  32  49  71 104 144 178 215 267 325
#
# _framework density 19.452256999999999
#
# number of rings (size 3 to 8) (size 9 to 14) (size 15 to 20)
#    0.000    2.250    1.250    3.000    0.000    6.000 
#    0.000    4.375    0.000   11.250    0.000    0.000 
#    0.000    0.000    0.000    0.000    0.000    0.000 
#
# Total GULP energy -793656.740062 kJ/mol
# GULP energy per Si atom -12400.886563 kJ/mol
# Density = 1.940798 g / cm^3
# Si number density = 19.452257 Si / 1000 Ang^3
#
#
#
# Elastic Constant Matrix: (Units=GPa)
#
#
# Indices 1 2 3 4 5 6 
#
# 1 82.9159 34.8661 62.0124 0.0000 0.0000 0.0000
# 2 34.8661 72.5847 41.0961 0.0000 0.0000 0.0000
# 3 62.0124 41.0961 108.0651 0.0000 0.0000 0.0000
# 4 0.0000 0.0000 0.0000 16.6510 0.0000 0.0000
# 5 0.0000 0.0000 0.0000 0.0000 26.6041 0.0000
# 6 0.0000 0.0000 0.0000 0.0000 0.0000 6.8721
#
#
#
# Elastic Compliance Matrix: (Units=1/GPa)
#
#
# Indices 1 2 3 4 5 6 
#
# 1 0.022175 -0.004393 -0.011055 0.000000 0.000000 0.000000
# 2 -0.004393 0.018428 -0.004487 0.000000 0.000000 0.000000
# 3 -0.011055 -0.004487 0.017304 0.000000 0.000000 0.000000
# 4 0.000000 0.000000 0.000000 0.060057 0.000000 0.000000
# 5 0.000000 0.000000 0.000000 0.000000 0.037588 0.000000
# 6 0.000000 0.000000 0.000000 0.000000 0.000000 0.145516
#
#
# Mechanical properties :
#
#
# Convention : Reuss Voigt Hill
#
# Bulk Modulus (GPa) = 55.44001 59.94613 57.69307
# Shear Modulus (GPa) = 14.41135 18.39817 16.40476
#
# Velocity S-wave (km/s) = 2.72482 3.07874 2.90717
# Velocity P-wave (km/s) = 6.20177 6.59713 6.40250
#
# Compressibility (1/GPa) = 0.01803752
#
# Stress axis : x y z
#
# Youngs Moduli (GPa) = 45.09523 54.26631 57.79156
#
# Poissons Ratio (x) = 0.23840 0.63886
# Poissons Ratio (y) = 0.19811 0.25931
# Poissons Ratio (z) = 0.49851 0.24349
#
# Static dielectric constant tensor:
#      x y z
#    x 3.531960 0.000000 0.000000 
#    y 0.000000 3.295870 0.000000 
#    z 0.000000 0.000000 3.647100 
# 
# 
# High freq. dielectric constant tensor:
#      x y z
#    x 1.742790 0.000000 0.000000 
#    y 0.000000 1.734280 0.000000 
#    z 0.000000 0.000000 1.766230 
# 
# From -- ./inp_files/26329.got.cif
#   From: 2010.03.12/outbox.cif.g09.slc.cpg/sg51_14_cif.got.tgz:26329.got - 2010.04.16 13:43:02.
