data_PCOD8207773
_publ_section_title
;
Structure prediction by ZEFSAII (Michael W. Deem and Ramdas Pophale) SiO2 
 PCOD8207773
Probable space group: P M M A
;
_chemical_formula_sum "Si O2"
_cell_formula_units_Z 40
_cell_length_a 20.961743
_cell_length_b 9.109831
_cell_length_c 11.672501
_cell_angle_alpha 90.000000
_cell_angle_beta 90.000000
_cell_angle_gamma 90.000000
_cell_volume 2228.956701
_symmetry_space_group_name_H-M "P M M A"
_symmetry_group_IT_number 51
_symmetry_cell_setting 'orthorhombic'
loop_
_space_group_symop_operation_xyz
x,y,z
1/2-x,-y,z
1/2+x,-y,-z
-x,y,-z
-x,-y,-z
1/2+x,y,-z
1/2-x,y,z
x,-y,z
loop_
_atom_site_type_symbol
_atom_site_label
_atom_site_fract_x
_atom_site_fract_y
_atom_site_fract_z
Si Si1 0.823782 0.839832 0.871551
Si Si2 0.553765 0.827117 0.590248
Si Si3 0.598318 0.336129 0.024493
Si Si4 0.323077 0.326139 0.358225
Si Si5 0.006673 0.665256 0.191721
O O1 0.750000 0.862324 0.882451
O O2 0.840031 0.726088 0.770129
O O3 0.855135 0.000000 0.845766
O O4 0.845966 0.778261 0.994994
O O5 0.500000 0.776621 0.500000
O O6 0.622425 0.748989 0.562118
O O7 0.527563 0.782344 0.714416
O O8 0.565394 0.000000 0.585165
O O9 0.626615 0.500000 0.032483
O O10 0.564492 0.296750 0.145153
O O11 0.550392 0.323627 0.918689
O O12 0.250000 0.280253 0.392646
O O13 0.330770 0.500000 0.363957
O O14 0.008905 0.500000 0.243353
#
# Coordination Sequence:
#
# PCOD8207773 Si02
#       5
#     8   8   8   8   8
#     4  10  19  29  45  73 106 136 166 204 253 308
#     4  11  23  36  52  78 109 138 173 217 263 312
#     4   9  17  30  49  73 101 130 164 206 248 296
#     4  10  20  34  53  76 102 134 173 216 261 308
#     4   9  18  32  50  73 100 131 167 206 250 297
#
# _framework density 17.945616000000001
#
# number of rings (size 3 to 8) (size 9 to 14) (size 15 to 20)
#    0.000    2.200    2.000    3.000    0.000    4.800 
#    0.000    2.000    0.000    1.200    0.000    0.000 
#    0.000    0.000    0.000    0.000    0.000    0.000 
#
# Total GULP energy -495626.850317 kJ/mol
# GULP energy per Si atom -12390.671258 kJ/mol
# Density = 1.790477 g / cm^3
# Si number density = 17.945616 Si / 1000 Ang^3
#
#
#
# Elastic Constant Matrix: (Units=GPa)
#
#
# Indices 1 2 3 4 5 6 
#
# 1 92.6221 50.6746 39.7578 0.0000 0.0000 0.0000
# 2 50.6746 92.3811 24.3296 0.0000 0.0000 0.0000
# 3 39.7578 24.3296 41.4363 0.0000 0.0000 0.0000
# 4 0.0000 0.0000 0.0000 21.0745 0.0000 0.0000
# 5 0.0000 0.0000 0.0000 0.0000 31.0408 0.0000
# 6 0.0000 0.0000 0.0000 0.0000 0.0000 30.1006
#
#
#
# Elastic Compliance Matrix: (Units=1/GPa)
#
#
# Indices 1 2 3 4 5 6 
#
# 1 0.022267 -0.007793 -0.016789 0.000000 0.000000 0.000000
# 2 -0.007793 0.015532 -0.001643 0.000000 0.000000 0.000000
# 3 -0.016789 -0.001643 0.041207 0.000000 0.000000 0.000000
# 4 0.000000 0.000000 0.000000 0.047451 0.000000 0.000000
# 5 0.000000 0.000000 0.000000 0.000000 0.032216 0.000000
# 6 0.000000 0.000000 0.000000 0.000000 0.000000 0.033222
#
#
# Mechanical properties :
#
#
# Convention : Reuss Voigt Hill
#
# Bulk Modulus (GPa) = 37.65540 50.66261 44.15901
# Shear Modulus (GPa) = 19.74758 23.88834 21.81796
#
# Velocity S-wave (km/s) = 3.32085 3.65245 3.49059
# Velocity P-wave (km/s) = 5.97768 6.78820 6.39579
#
# Compressibility (1/GPa) = 0.02655661
#
# Stress axis : x y z
#
# Youngs Moduli (GPa) = 44.91010 64.38374 24.26756
#
# Poissons Ratio (x) = 0.50171 0.40744
# Poissons Ratio (y) = 0.34996 0.03987
# Poissons Ratio (z) = 0.75401 0.10577
#
# Static dielectric constant tensor:
#      x y z
#    x 4.257340 0.000000 0.000000 
#    y 0.000000 3.547750 0.000000 
#    z 0.000000 0.000000 -38.627380 
# 
# 
# High freq. dielectric constant tensor:
#      x y z
#    x 1.698500 0.000000 0.000000 
#    y 0.000000 1.703580 0.000000 
#    z 0.000000 0.000000 1.645100 
# 
# From -- ./inp_files/17896.got.cif
#   From: 2010.03.12/outbox.cif.g09.slc.cpg/sg51_9_cif.got.tgz:17896.got - 2010.04.16 13:43:02.
