data_PCOD8207714
_publ_section_title
;
Structure prediction by ZEFSAII (Michael W. Deem and Ramdas Pophale) SiO2 
 PCOD8207714
Probable space group: P M M A
;
_chemical_formula_sum "Si O2"
_cell_formula_units_Z 48
_cell_length_a 8.972623
_cell_length_b 22.797337
_cell_length_c 12.957115
_cell_angle_alpha 90.000000
_cell_angle_beta 90.000000
_cell_angle_gamma 90.000000
_cell_volume 2650.402625
_symmetry_space_group_name_H-M "P M M A"
_symmetry_group_IT_number 51
_symmetry_cell_setting 'orthorhombic'
loop_
_space_group_symop_operation_xyz
x,y,z
1/2-x,-y,z
1/2+x,-y,-z
-x,y,-z
-x,-y,-z
1/2+x,y,-z
1/2-x,y,z
x,-y,z
loop_
_atom_site_type_symbol
_atom_site_label
_atom_site_fract_x
_atom_site_fract_y
_atom_site_fract_z
Si Si1 0.923475 0.432333 0.108331
Si Si2 0.915307 0.850836 0.263592
Si Si3 0.926332 0.757941 0.607704
Si Si4 0.424459 0.666617 0.214966
Si Si5 0.420963 0.930850 0.106420
Si Si6 0.587862 0.243076 0.090261
O O1 0.750000 0.417629 0.098877
O O2 0.952040 0.500000 0.135246
O O3 0.993441 0.396136 0.205134
O O4 0.000000 0.415522 0.000000
O O5 0.750000 0.872050 0.301191
O O6 0.891236 0.799623 0.183756
O O7 0.009162 0.821412 0.356292
O O8 0.002544 0.903726 0.208288
O O9 0.750000 0.765315 0.597095
O O10 0.967384 0.703505 0.682668
O O11 0.000000 0.740891 0.500000
O O12 0.250000 0.656290 0.208491
O O13 0.482359 0.702320 0.116270
O O14 0.250000 0.909587 0.100287
O O15 0.432661 0.000000 0.121039
O O16 0.500000 0.911396 0.000000
O O17 0.750000 0.265459 0.053927
O O18 0.500000 0.208558 0.000000
#
# Coordination Sequence:
#
# PCOD8207714 Si02
#       6
#     8   8   8   8   8   8
#     4  10  20  33  50  73 103 139 174 207 244 290
#     4  10  20  33  51  74 100 132 169 209 253 302
#     4  10  21  37  57  79 102 129 164 209 261 312
#     4  10  20  33  50  72  98 129 164 204 249 297
#     4  10  20  33  50  74 106 143 179 213 250 296
#     4  10  19  29  43  66  97 130 162 199 243 293
#
# _framework density 18.110457
#
# number of rings (size 3 to 8) (size 9 to 14) (size 15 to 20)
#    0.000    2.000    0.000    4.000    0.000    7.333 
#    0.000    0.000    0.000    1.000    0.000    0.000 
#    0.000    0.000    0.000    0.000    0.000    0.000 
#
# Total GULP energy -594951.869461 kJ/mol
# GULP energy per Si atom -12394.830614 kJ/mol
# Density = 1.806924 g / cm^3
# Si number density = 18.110457 Si / 1000 Ang^3
#
#
#
# Elastic Constant Matrix: (Units=GPa)
#
#
# Indices 1 2 3 4 5 6 
#
# 1 140.1144 48.1429 60.3325 0.0000 0.0000 0.0000
# 2 48.1429 70.5917 30.4062 0.0000 0.0000 0.0000
# 3 60.3325 30.4062 80.1773 0.0000 0.0000 0.0000
# 4 0.0000 0.0000 0.0000 29.2605 0.0000 0.0000
# 5 0.0000 0.0000 0.0000 0.0000 31.0157 0.0000
# 6 0.0000 0.0000 0.0000 0.0000 0.0000 33.8730
#
#
#
# Elastic Compliance Matrix: (Units=1/GPa)
#
#
# Indices 1 2 3 4 5 6 
#
# 1 0.011918 -0.005098 -0.007035 0.000000 0.000000 0.000000
# 2 -0.005098 0.019112 -0.003412 0.000000 0.000000 0.000000
# 3 -0.007035 -0.003412 0.019060 0.000000 0.000000 0.000000
# 4 0.000000 0.000000 0.000000 0.034176 0.000000 0.000000
# 5 0.000000 0.000000 0.000000 0.000000 0.032242 0.000000
# 6 0.000000 0.000000 0.000000 0.000000 0.000000 0.029522
#
#
# Mechanical properties :
#
#
# Convention : Reuss Voigt Hill
#
# Bulk Modulus (GPa) = 52.62928 63.18296 57.90612
# Shear Modulus (GPa) = 27.25510 28.96329 28.10919
#
# Velocity S-wave (km/s) = 3.88356 4.00341 3.94394
# Velocity P-wave (km/s) = 7.01660 7.50553 7.26518
#
# Compressibility (1/GPa) = 0.01900083
#
# Stress axis : x y z
#
# Youngs Moduli (GPa) = 83.90901 52.32242 52.46625
#
# Poissons Ratio (x) = 0.26672 0.36908
# Poissons Ratio (y) = 0.42774 0.17902
# Poissons Ratio (z) = 0.59027 0.17853
#
# Static dielectric constant tensor:
#      x y z
#    x 3.743410 0.000000 0.000000 
#    y 0.000000 3.336290 0.000000 
#    z 0.000000 0.000000 3.150700 
# 
# 
# High freq. dielectric constant tensor:
#      x y z
#    x 1.726420 0.000000 0.000000 
#    y 0.000000 1.693230 0.000000 
#    z 0.000000 0.000000 1.670110 
# 
# From -- ./inp_files/14402.got.cif
#   From: 2010.03.12/outbox.cif.g09.slc.cpg/sg51_8_cif.got.tgz:14402.got - 2010.04.16 13:43:02.
