data_PCOD8207240
_publ_section_title
;
Structure prediction by ZEFSAII (Michael W. Deem and Ramdas Pophale) SiO2 
 PCOD8207240
Probable space group: P M M A
;
_chemical_formula_sum "Si O2"
_cell_formula_units_Z 44
_cell_length_a 8.674763
_cell_length_b 28.515585
_cell_length_c 9.807159
_cell_angle_alpha 90.000000
_cell_angle_beta 90.000000
_cell_angle_gamma 90.000000
_cell_volume 2425.957121
_symmetry_space_group_name_H-M "P M M A"
_symmetry_group_IT_number 51
_symmetry_cell_setting 'orthorhombic'
loop_
_space_group_symop_operation_xyz
x,y,z
1/2-x,-y,z
1/2+x,-y,-z
-x,y,-z
-x,-y,-z
1/2+x,y,-z
1/2-x,y,z
x,-y,z
loop_
_atom_site_type_symbol
_atom_site_label
_atom_site_fract_x
_atom_site_fract_y
_atom_site_fract_z
Si Si1 0.568011 0.625182 0.349568
Si Si2 0.067401 0.171776 0.651993
Si Si3 0.066424 0.000000 0.849024
Si Si4 0.931294 0.446649 0.858625
Si Si5 0.428072 0.726222 0.645535
Si Si6 0.067315 0.904826 0.150434
O O1 0.500000 0.621728 0.500000
O O2 0.750000 0.617024 0.354213
O O3 0.491928 0.584717 0.262861
O O4 0.524633 0.676724 0.282769
O O5 0.250000 0.161291 0.649125
O O6 0.031958 0.223928 0.716765
O O7 0.000000 0.166506 0.500000
O O8 0.979684 0.137103 0.751650
O O9 0.001406 0.047551 0.780759
O O10 0.250000 0.000000 0.846671
O O11 0.000000 0.000000 0.000000
O O12 0.750000 0.442674 0.867205
O O13 0.985246 0.500000 0.831728
O O14 0.000000 0.427769 0.000000
O O15 0.500000 0.727945 0.500000
O O16 0.250000 0.723943 0.616915
O O17 0.250000 0.908896 0.139343
O O18 0.000000 0.895956 0.000000
#
# Coordination Sequence:
#
# PCOD8207240 Si02
#       6
#     8   8   4   8   8   8
#     4  10  19  33  54  80 106 134 170 213 256 299
#     4  10  19  34  54  78 106 138 173 210 254 306
#     4  10  18  32  53  76 101 134 171 210 256 308
#     4  10  21  37  55  75 101 135 172 210 256 310
#     4   8  16  30  50  74 102 134 169 207 250 301
#     4  11  21  35  54  78 105 136 173 215 258 303
#
# _framework density 18.137170999999999
#
# number of rings (size 3 to 8) (size 9 to 14) (size 15 to 20)
#    0.000    2.182    0.000    5.182    0.000    2.909 
#    0.000    1.364    0.000    0.000    0.000    0.000 
#    0.000    0.000    0.000    0.000    0.000    0.000 
#
# Total GULP energy -545102.413849 kJ/mol
# GULP energy per Si atom -12388.691224 kJ/mol
# Density = 1.809589 g / cm^3
# Si number density = 18.137171 Si / 1000 Ang^3
#
#
#
# Elastic Constant Matrix: (Units=GPa)
#
#
# Indices 1 2 3 4 5 6 
#
# 1 103.9440 56.5661 33.6432 0.0000 0.0000 0.0000
# 2 56.5661 144.8806 60.7074 0.0000 0.0000 0.0000
# 3 33.6432 60.7074 69.6763 0.0000 0.0000 0.0000
# 4 0.0000 0.0000 0.0000 51.1690 0.0000 0.0000
# 5 0.0000 0.0000 0.0000 0.0000 30.6219 0.0000
# 6 0.0000 0.0000 0.0000 0.0000 0.0000 13.1812
#
#
#
# Elastic Compliance Matrix: (Units=1/GPa)
#
#
# Indices 1 2 3 4 5 6 
#
# 1 0.012559 -0.003721 -0.002822 0.000000 0.000000 0.000000
# 2 -0.003721 0.011973 -0.008636 0.000000 0.000000 0.000000
# 3 -0.002822 -0.008636 0.023239 0.000000 0.000000 0.000000
# 4 0.000000 0.000000 0.000000 0.019543 0.000000 0.000000
# 5 0.000000 0.000000 0.000000 0.000000 0.032656 0.000000
# 6 0.000000 0.000000 0.000000 0.000000 0.000000 0.075866
#
#
# Mechanical properties :
#
#
# Convention : Reuss Voigt Hill
#
# Bulk Modulus (GPa) = 57.42542 68.92605 63.17573
# Shear Modulus (GPa) = 23.58514 30.16671 26.87593
#
# Velocity S-wave (km/s) = 3.60998 4.08272 3.85361
# Velocity P-wave (km/s) = 7.00760 7.76595 7.39650
#
# Compressibility (1/GPa) = 0.01741389
#
# Stress axis : x y z
#
# Youngs Moduli (GPa) = 79.62484 83.51826 43.03159
#
# Poissons Ratio (x) = 0.31076 0.12144
# Poissons Ratio (y) = 0.29627 0.37160
# Poissons Ratio (z) = 0.22471 0.72123
#
# Static dielectric constant tensor:
#      x y z
#    x 3.538890 0.000000 0.000000 
#    y 0.000000 4.334510 0.000000 
#    z 0.000000 0.000000 2.992860 
# 
# 
# High freq. dielectric constant tensor:
#      x y z
#    x 1.721770 0.000000 0.000000 
#    y 0.000000 1.729920 0.000000 
#    z 0.000000 0.000000 1.660210 
# 
# From -- ./inp_files/5825.got.cif
#   From: 2010.03.12/outbox.cif.g09.slc.cpg/sg51_3_cif.got.tgz:5825.got - 2010.04.16 13:43:02.
