data_PCOD8207486
_publ_section_title
;
Structure prediction by ZEFSAII (Michael W. Deem and Ramdas Pophale) SiO2 
 PCOD8207486
Probable space group: P M M A
;
_chemical_formula_sum "Si O2"
_cell_formula_units_Z 56
_cell_length_a 15.407074
_cell_length_b 8.684863
_cell_length_c 21.458465
_cell_angle_alpha 90.000000
_cell_angle_beta 90.000000
_cell_angle_gamma 90.000000
_cell_volume 2871.321300
_symmetry_space_group_name_H-M "P M M A"
_symmetry_group_IT_number 51
_symmetry_cell_setting 'orthorhombic'
loop_
_space_group_symop_operation_xyz
x,y,z
1/2-x,-y,z
1/2+x,-y,-z
-x,y,-z
-x,-y,-z
1/2+x,y,-z
1/2-x,y,z
x,-y,z
loop_
_atom_site_type_symbol
_atom_site_label
_atom_site_fract_x
_atom_site_fract_y
_atom_site_fract_z
Si Si1 0.991786 0.682990 0.153730
Si Si2 0.602625 0.823244 0.499598
Si Si3 0.991558 0.819099 0.288383
Si Si4 0.848822 0.676764 0.373594
Si Si5 0.846540 0.317021 0.061094
Si Si6 0.653892 0.182505 0.634689
Si Si7 0.346002 0.316805 0.078369
O O1 0.990524 0.500000 0.152603
O O2 0.976005 0.738321 0.223090
O O3 0.083300 0.747335 0.127144
O O4 0.915284 0.751040 0.110181
O O5 0.500000 0.807973 0.500000
O O6 0.643929 0.720227 0.445889
O O7 0.638339 0.756297 0.564787
O O8 0.631199 0.000000 0.489186
O O9 0.910798 0.784809 0.333038
O O10 0.080569 0.752093 0.318669
O O11 0.998360 0.000000 0.278034
O O12 0.750000 0.702088 0.351321
O O13 0.876821 0.500000 0.364493
O O14 0.750000 0.261355 0.080230
O O15 0.850854 0.500000 0.061736
O O16 0.868844 0.258125 0.991338
O O17 0.750000 0.233670 0.657615
O O18 0.644624 0.000000 0.632703
O O19 0.250000 0.257675 0.098119
O O20 0.347282 0.500000 0.078204
#
# Coordination Sequence:
#
# PCOD8207486 Si02
#       7
#     8   8   8   8   8   8   8
#     4  10  19  31  50  76 104 135 173 218 268 313
#     4  10  18  34  61  88 110 137 175 220 269 323
#     4  11  23  39  55  75 106 146 189 225 263 318
#     4  11  24  40  58  82 111 142 178 224 277 324
#     4   8  14  26  47  75 103 131 167 213 262 314
#     4   9  18  34  56  79 104 138 180 221 260 311
#     4   8  14  26  47  76 106 134 168 212 262 317
#
# _framework density 19.503215999999998
#
# number of rings (size 3 to 8) (size 9 to 14) (size 15 to 20)
#    0.000    2.429    1.429    2.571    0.000    4.857 
#    0.000    1.429    0.000    3.857    0.000    2.000 
#    0.000    0.000    0.000    0.000    0.000    0.000 
#
# Total GULP energy -694283.954964 kJ/mol
# GULP energy per Si atom -12397.927767 kJ/mol
# Density = 1.945883 g / cm^3
# Si number density = 19.503216 Si / 1000 Ang^3
#
#
#
# Elastic Constant Matrix: (Units=GPa)
#
#
# Indices 1 2 3 4 5 6 
#
# 1 108.7711 15.2764 33.7377 0.0000 0.0000 0.0000
# 2 15.2764 16.3696 6.8843 0.0000 0.0000 0.0000
# 3 33.7377 6.8843 85.5032 0.0000 0.0000 0.0000
# 4 0.0000 0.0000 0.0000 -15.1373 0.0000 0.0000
# 5 0.0000 0.0000 0.0000 0.0000 17.4270 0.0000
# 6 0.0000 0.0000 0.0000 0.0000 0.0000 15.7298
#
#
#
# Elastic Compliance Matrix: (Units=1/GPa)
#
#
# Indices 1 2 3 4 5 6 
#
# 1 0.011698 -0.009290 -0.003868 0.000000 0.000000 0.000000
# 2 -0.009290 0.070608 -0.002019 0.000000 0.000000 0.000000
# 3 -0.003868 -0.002019 0.013384 0.000000 0.000000 0.000000
# 4 0.000000 0.000000 0.000000 -0.066062 0.000000 0.000000
# 5 0.000000 0.000000 0.000000 0.000000 0.057382 0.000000
# 6 0.000000 0.000000 0.000000 0.000000 0.000000 0.063574
#
#
# Mechanical properties :
#
#
# Convention : Reuss Voigt Hill
#
# Bulk Modulus (GPa) = 15.30564 35.82674 25.56619
# Shear Modulus (GPa) = 24.66495 13.92027 19.29261
#
# Velocity S-wave (km/s) = 3.56006 2.67449 3.14857
# Velocity P-wave (km/s) = 4.97630 5.28647 5.13373
#
# Compressibility (1/GPa) = 0.06533539
#
# Stress axis : x y z
#
# Youngs Moduli (GPa) = 85.48428 14.16276 74.71493
#
# Poissons Ratio (x) = 0.13157 0.28898
# Poissons Ratio (y) = 0.79416 0.15087
# Poissons Ratio (z) = 0.33064 0.02860
#
# Static dielectric constant tensor:
#      x y z
#    x 3.931480 0.000000 0.000000 
#    y 0.000000 3.045010 0.000000 
#    z 0.000000 0.000000 3.601360 
# 
# 
# High freq. dielectric constant tensor:
#      x y z
#    x 1.777720 0.000000 0.000000 
#    y 0.000000 1.707270 0.000000 
#    z 0.000000 0.000000 1.757780 
# 
# From -- ./inp_files/33396.got.cif
#   From: 2010.03.12/outbox.cif.g09.slc.cpg/sg51_17_cif.got.tgz:33396.got - 2010.04.16 13:43:02.
