data_PCOD8207423
_publ_section_title
;
Structure prediction by ZEFSAII (Michael W. Deem and Ramdas Pophale) SiO2 
 PCOD8207423
Probable space group: P M M A
;
_chemical_formula_sum "Si O2"
_cell_formula_units_Z 64
_cell_length_a 8.996884
_cell_length_b 15.489185
_cell_length_c 23.842386
_cell_angle_alpha 90.000000
_cell_angle_beta 90.000000
_cell_angle_gamma 90.000000
_cell_volume 3322.541412
_symmetry_space_group_name_H-M "P M M A"
_symmetry_group_IT_number 51
_symmetry_cell_setting 'orthorhombic'
loop_
_space_group_symop_operation_xyz
x,y,z
1/2-x,-y,z
1/2+x,-y,-z
-x,y,-z
-x,-y,-z
1/2+x,y,-z
1/2-x,y,z
x,-y,z
loop_
_atom_site_type_symbol
_atom_site_label
_atom_site_fract_x
_atom_site_fract_y
_atom_site_fract_z
Si Si1 0.579666 0.903431 0.855921
Si Si2 0.920794 0.665314 0.752321
Si Si3 0.074423 0.154569 0.746489
Si Si4 0.073512 0.756393 0.059640
Si Si5 0.080298 0.597836 0.368357
Si Si6 0.925986 0.405527 0.870687
Si Si7 0.573881 0.739979 0.440558
Si Si8 0.926419 0.904819 0.373629
O O1 0.750000 0.881558 0.841962
O O2 0.489646 0.897749 0.798556
O O3 0.519467 0.835611 0.901535
O O4 0.561529 0.000000 0.880504
O O5 0.750000 0.695867 0.759193
O O6 0.941357 0.604869 0.698431
O O7 0.974302 0.613125 0.806894
O O8 0.025289 0.747088 0.746708
O O9 0.250000 0.149730 0.749765
O O10 0.014264 0.111524 0.689207
O O11 0.250000 0.755934 0.052805
O O12 0.012581 0.667680 0.087307
O O13 0.000000 0.769037 0.000000
O O14 0.250000 0.620699 0.384775
O O15 0.041759 0.500000 0.386127
O O16 0.969772 0.662089 0.399710
O O17 0.750000 0.406068 0.874473
O O18 0.989399 0.500000 0.888011
O O19 0.500000 0.724024 0.500000
O O20 0.750000 0.740706 0.447254
O O21 0.513089 0.830766 0.415394
O O22 0.750000 0.900220 0.373125
O O23 0.981044 0.000000 0.393644
#
# Coordination Sequence:
#
# PCOD8207423 Si02
#       8
#     8   8   8   8   8   8   8   8
#     4  10  21  38  58  81 110 145 185 229 276 327
#     4  10  18  33  58  85 115 147 182 224 274 331
#     4  11  20  33  57  87 118 149 181 219 275 337
#     4  10  21  37  55  78 107 144 186 230 275 325
#     4  10  21  37  60  89 117 147 186 232 281 335
#     4   9  17  32  56  82 108 142 181 220 270 330
#     4  11  23  40  60  82 111 150 192 237 283 330
#     4   9  19  36  57  82 114 149 182 221 276 336
#
# _framework density 19.262363000000001
#
# number of rings (size 3 to 8) (size 9 to 14) (size 15 to 20)
#    0.000    2.000    2.500    1.500    0.000    4.000 
#    0.000    0.000    0.000    5.250    0.000    0.000 
#    0.000    0.000    0.000    0.000    0.000    0.000 
#
# Total GULP energy -793596.202989 kJ/mol
# GULP energy per Si atom -12399.940672 kJ/mol
# Density = 1.921852 g / cm^3
# Si number density = 19.262363 Si / 1000 Ang^3
#
#
#
# Elastic Constant Matrix: (Units=GPa)
#
#
# Indices 1 2 3 4 5 6 
#
# 1 41.7379 21.7377 25.3223 0.0000 0.0000 0.0000
# 2 21.7377 132.3806 31.7145 0.0000 0.0000 0.0000
# 3 25.3223 31.7145 95.3733 0.0000 0.0000 0.0000
# 4 0.0000 0.0000 0.0000 20.8067 0.0000 0.0000
# 5 0.0000 0.0000 0.0000 0.0000 24.8446 0.0000
# 6 0.0000 0.0000 0.0000 0.0000 0.0000 22.3862
#
#
#
# Elastic Compliance Matrix: (Units=1/GPa)
#
#
# Indices 1 2 3 4 5 6 
#
# 1 0.029798 -0.003257 -0.006829 0.000000 0.000000 0.000000
# 2 -0.003257 0.008564 -0.001983 0.000000 0.000000 0.000000
# 3 -0.006829 -0.001983 0.012958 0.000000 0.000000 0.000000
# 4 0.000000 0.000000 0.000000 0.048061 0.000000 0.000000
# 5 0.000000 0.000000 0.000000 0.000000 0.040250 0.000000
# 6 0.000000 0.000000 0.000000 0.000000 0.000000 0.044670
#
#
# Mechanical properties :
#
#
# Convention : Reuss Voigt Hill
#
# Bulk Modulus (GPa) = 36.78855 47.44900 42.11877
# Shear Modulus (GPa) = 22.98855 26.32201 24.65528
#
# Velocity S-wave (km/s) = 3.45837 3.70063 3.58155
# Velocity P-wave (km/s) = 5.92345 6.55332 6.24633
#
# Compressibility (1/GPa) = 0.02718237
#
# Stress axis : x y z
#
# Youngs Moduli (GPa) = 33.55903 116.76955 77.17518
#
# Poissons Ratio (x) = 0.38034 0.52699
# Poissons Ratio (y) = 0.10931 0.15304
# Poissons Ratio (z) = 0.22916 0.23155
#
# Static dielectric constant tensor:
#      x y z
#    x 3.213370 0.000000 0.000000 
#    y 0.000000 3.833640 0.000000 
#    z 0.000000 0.000000 3.559150 
# 
# 
# High freq. dielectric constant tensor:
#      x y z
#    x 1.717530 0.000000 0.000000 
#    y 0.000000 1.765620 0.000000 
#    z 0.000000 0.000000 1.748840 
# 
# From -- ./inp_files/34841.got.cif
#   From: 2010.03.12/outbox.cif.g09.slc.cpg/sg51_18_cif.got.tgz:34841.got - 2010.04.16 13:43:02.
