data_PCOD8207782
_publ_section_title
;
Structure prediction by ZEFSAII (Michael W. Deem and Ramdas Pophale) SiO2 
 PCOD8207782
Probable space group: P M M A
;
_chemical_formula_sum "Si O2"
_cell_formula_units_Z 64
_cell_length_a 23.814933
_cell_length_b 9.117852
_cell_length_c 16.606133
_cell_angle_alpha 90.000000
_cell_angle_beta 90.000000
_cell_angle_gamma 90.000000
_cell_volume 3605.872898
_symmetry_space_group_name_H-M "P M M A"
_symmetry_group_IT_number 51
_symmetry_cell_setting 'orthorhombic'
loop_
_space_group_symop_operation_xyz
x,y,z
1/2-x,-y,z
1/2+x,-y,-z
-x,y,-z
-x,-y,-z
1/2+x,y,-z
1/2-x,y,z
x,-y,z
loop_
_atom_site_type_symbol
_atom_site_label
_atom_site_fract_x
_atom_site_fract_y
_atom_site_fract_z
Si Si1 0.686130 0.828899 0.238401
Si Si2 0.185811 0.334118 0.387660
Si Si3 0.314801 0.172419 0.079312
Si Si4 0.084390 0.170654 0.651220
Si Si5 0.369831 0.667154 0.223326
Si Si6 0.089333 0.828109 0.465686
Si Si7 0.816603 0.664664 0.079653
Si Si8 0.975721 0.327923 0.671378
O O1 0.750000 0.781554 0.261041
O O2 0.645331 0.788587 0.312506
O O3 0.662658 0.744114 0.160523
O O4 0.684223 0.000000 0.217626
O O5 0.250000 0.307350 0.408797
O O6 0.166505 0.500000 0.409367
O O7 0.175974 0.308479 0.293088
O O8 0.151691 0.218056 0.439935
O O9 0.250000 0.216770 0.096317
O O10 0.354494 0.224640 0.151414
O O11 0.320993 0.000000 0.068635
O O12 0.338038 0.247866 0.998349
O O13 0.082802 0.216239 0.558229
O O14 0.035742 0.261382 0.696938
O O15 0.071718 0.000000 0.663347
O O16 0.368219 0.500000 0.191790
O O17 0.431311 0.707507 0.257948
O O18 0.043264 0.744510 0.412755
O O19 0.080965 0.000000 0.452065
O O20 0.750000 0.663647 0.079380
O O21 0.841055 0.500000 0.077462
O O22 0.980581 0.500000 0.657051
#
# Coordination Sequence:
#
# PCOD8207782 Si02
#       8
#     8   8   8   8   8   8   8   8
#     4   9  18  34  54  75 102 132 160 196 245 298
#     4   9  18  32  48  68  99 137 171 204 248 299
#     4  10  19  29  46  75 105 132 164 199 238 287
#     4  10  21  35  53  76  99 127 164 206 251 297
#     4   9  18  32  48  68  96 130 166 203 244 288
#     4  10  20  33  50  73 100 130 168 212 253 296
#     4   9  17  30  49  73 101 132 164 198 238 285
#     4  10  21  36  53  72  97 131 169 209 253 296
#
# _framework density 17.748823000000002
#
# number of rings (size 3 to 8) (size 9 to 14) (size 15 to 20)
#    0.000    2.500    0.000    3.000    0.000    9.000 
#    0.000    1.250    0.000    2.250    0.000    5.250 
#    0.000    0.000    0.000    0.000    0.000    0.000 
#
# Total GULP energy -793630.189783 kJ/mol
# GULP energy per Si atom -12400.471715 kJ/mol
# Density = 1.770843 g / cm^3
# Si number density = 17.748823 Si / 1000 Ang^3
#
#
#
# Elastic Constant Matrix: (Units=GPa)
#
#
# Indices 1 2 3 4 5 6 
#
# 1 90.6874 42.7077 49.0394 0.0000 0.0000 0.0000
# 2 42.7077 81.0815 53.5974 0.0000 0.0000 0.0000
# 3 49.0394 53.5974 88.8677 0.0000 0.0000 0.0000
# 4 0.0000 0.0000 0.0000 20.7085 0.0000 0.0000
# 5 0.0000 0.0000 0.0000 0.0000 14.6359 0.0000
# 6 0.0000 0.0000 0.0000 0.0000 0.0000 27.9590
#
#
#
# Elastic Compliance Matrix: (Units=1/GPa)
#
#
# Indices 1 2 3 4 5 6 
#
# 1 0.016642 -0.004482 -0.006480 0.000000 0.000000 0.000000
# 2 -0.004482 0.021717 -0.010625 0.000000 0.000000 0.000000
# 3 -0.006480 -0.010625 0.021237 0.000000 0.000000 0.000000
# 4 0.000000 0.000000 0.000000 0.048289 0.000000 0.000000
# 5 0.000000 0.000000 0.000000 0.000000 0.068325 0.000000
# 6 0.000000 0.000000 0.000000 0.000000 0.000000 0.035767
#
#
# Mechanical properties :
#
#
# Convention : Reuss Voigt Hill
#
# Bulk Modulus (GPa) = 60.89482 61.25841 61.07661
# Shear Modulus (GPa) = 19.18468 20.34683 19.76575
#
# Velocity S-wave (km/s) = 3.29127 3.38949 3.34074
# Velocity P-wave (km/s) = 6.98763 7.06450 7.02617
#
# Compressibility (1/GPa) = 0.01642176
#
# Stress axis : x y z
#
# Youngs Moduli (GPa) = 60.08967 46.04606 47.08865
#
# Poissons Ratio (x) = 0.20638 0.30514
# Poissons Ratio (y) = 0.26933 0.50031
# Poissons Ratio (z) = 0.38939 0.48923
#
# Static dielectric constant tensor:
#      x y z
#    x 3.248010 0.000000 0.000000 
#    y 0.000000 3.341140 0.000000 
#    z 0.000000 0.000000 3.210480 
# 
# 
# High freq. dielectric constant tensor:
#      x y z
#    x 1.670580 0.000000 0.000000 
#    y 0.000000 1.692570 0.000000 
#    z 0.000000 0.000000 1.675970 
# 
# From -- ./inp_files/26170.got.cif
#   From: 2010.03.12/outbox.cif.g09.slc.cpg/sg51_14_cif.got.tgz:26170.got - 2010.04.16 13:43:02.
