data_PCOD8207872
_publ_section_title
;
Structure prediction by ZEFSAII (Michael W. Deem and Ramdas Pophale) SiO2 
 PCOD8207872
Probable space group: P M M A
;
_chemical_formula_sum "Si O2"
_cell_formula_units_Z 48
_cell_length_a 17.132475
_cell_length_b 13.802869
_cell_length_c 12.306127
_cell_angle_alpha 90.000000
_cell_angle_beta 90.000000
_cell_angle_gamma 90.000000
_cell_volume 2910.119786
_symmetry_space_group_name_H-M "P M M A"
_symmetry_group_IT_number 51
_symmetry_cell_setting 'orthorhombic'
loop_
_space_group_symop_operation_xyz
x,y,z
1/2-x,-y,z
1/2+x,-y,-z
-x,y,-z
-x,-y,-z
1/2+x,y,-z
1/2-x,y,z
x,-y,z
loop_
_atom_site_type_symbol
_atom_site_label
_atom_site_fract_x
_atom_site_fract_y
_atom_site_fract_z
Si Si1 0.932060 0.772989 0.678089
Si Si2 0.084114 0.886344 0.685321
Si Si3 0.835973 0.885774 0.099714
Si Si4 0.160544 0.744559 0.539940
Si Si5 0.034248 0.392338 0.619798
Si Si6 0.657609 0.111202 0.856776
O O1 0.872372 0.761596 0.579933
O O2 0.885725 0.810665 0.782383
O O3 0.999348 0.849803 0.647695
O O4 0.975514 0.669401 0.697222
O O5 0.102612 0.851015 0.809015
O O6 0.150357 0.844427 0.605758
O O7 0.087134 0.000000 0.673977
O O8 0.750000 0.839539 0.120843
O O9 0.826580 0.000000 0.105751
O O10 0.866103 0.858667 0.979338
O O11 0.250000 0.714675 0.529682
O O12 0.117690 0.660125 0.608581
O O13 0.044304 0.500000 0.669580
O O14 0.000000 0.398026 0.500000
O O15 0.750000 0.119663 0.839682
O O16 0.631116 0.000000 0.831144
#
# Coordination Sequence:
#
# PCOD8207872 Si02
#       6
#     8   8   8   8   8   8
#     4  10  19  30  45  67  94 119 149 186 227 281
#     4  10  19  30  44  63  91 125 158 190 222 261
#     4   8  15  28  44  62  86 119 160 199 227 255
#     4  10  20  31  45  67  91 117 151 187 226 276
#     4   8  16  32  50  66  87 114 143 182 229 271
#     4   9  17  29  45  66  94 126 156 188 227 267
#
# _framework density 16.494167000000001
#
# number of rings (size 3 to 8) (size 9 to 14) (size 15 to 20)
#    0.000    2.833    0.000    4.000    0.000    4.000 
#    0.000    2.500    0.000    1.500    0.000    9.333 
#    0.000    5.333    0.000    0.000    0.000    0.000 
#
# Total GULP energy -594859.890856 kJ/mol
# GULP energy per Si atom -12392.914393 kJ/mol
# Density = 1.645663 g / cm^3
# Si number density = 16.494167 Si / 1000 Ang^3
#
#
#
# Elastic Constant Matrix: (Units=GPa)
#
#
# Indices 1 2 3 4 5 6 
#
# 1 98.9702 43.5100 37.2768 0.0000 0.0000 0.0000
# 2 43.5100 98.7561 28.0878 0.0000 0.0000 0.0000
# 3 37.2768 28.0878 38.1838 0.0000 0.0000 0.0000
# 4 0.0000 0.0000 0.0000 7.9755 0.0000 0.0000
# 5 0.0000 0.0000 0.0000 0.0000 13.1472 0.0000
# 6 0.0000 0.0000 0.0000 0.0000 0.0000 15.9558
#
#
#
# Elastic Compliance Matrix: (Units=1/GPa)
#
#
# Indices 1 2 3 4 5 6 
#
# 1 0.016874 -0.003476 -0.013916 0.000000 0.000000 0.000000
# 2 -0.003476 0.013521 -0.006552 0.000000 0.000000 0.000000
# 3 -0.013916 -0.006552 0.044594 0.000000 0.000000 0.000000
# 4 0.000000 0.000000 0.000000 0.125384 0.000000 0.000000
# 5 0.000000 0.000000 0.000000 0.000000 0.076062 0.000000
# 6 0.000000 0.000000 0.000000 0.000000 0.000000 0.062673
#
#
# Mechanical properties :
#
#
# Convention : Reuss Voigt Hill
#
# Bulk Modulus (GPa) = 36.90004 50.40660 43.65332
# Shear Modulus (GPa) = 12.62530 15.88472 14.25501
#
# Velocity S-wave (km/s) = 2.76966 3.10667 2.94299
# Velocity P-wave (km/s) = 5.71386 6.59509 6.17022
#
# Compressibility (1/GPa) = 0.02710024
#
# Stress axis : x y z
#
# Youngs Moduli (GPa) = 59.26404 73.95814 22.42449
#
# Poissons Ratio (x) = 0.25711 0.31205
# Poissons Ratio (y) = 0.20602 0.14693
# Poissons Ratio (z) = 0.82470 0.48460
#
# Static dielectric constant tensor:
#      x y z
#    x 3.187740 0.000000 0.000000 
#    y 0.000000 3.132700 0.000000 
#    z 0.000000 0.000000 3.221980 
# 
# 
# High freq. dielectric constant tensor:
#      x y z
#    x 1.639350 0.000000 0.000000 
#    y 0.000000 1.605590 0.000000 
#    z 0.000000 0.000000 1.623380 
# 
# From -- ./inp_files/16440.got.cif
#   From: 2010.03.12/outbox.cif.g09.slc.cpg/sg51_9_cif.got.tgz:16440.got - 2010.04.16 13:43:02.
