data_PCOD8207696
_publ_section_title
;
Structure prediction by ZEFSAII (Michael W. Deem and Ramdas Pophale) SiO2 
 PCOD8207696
Probable space group: P M M A
;
_chemical_formula_sum "Si O2"
_cell_formula_units_Z 56
_cell_length_a 24.395194
_cell_length_b 8.903894
_cell_length_c 16.044257
_cell_angle_alpha 90.000000
_cell_angle_beta 90.000000
_cell_angle_gamma 90.000000
_cell_volume 3485.008705
_symmetry_space_group_name_H-M "P M M A"
_symmetry_group_IT_number 51
_symmetry_cell_setting 'orthorhombic'
loop_
_space_group_symop_operation_xyz
x,y,z
1/2-x,-y,z
1/2+x,-y,-z
-x,y,-z
-x,-y,-z
1/2+x,y,-z
1/2-x,y,z
x,-y,z
loop_
_atom_site_type_symbol
_atom_site_label
_atom_site_fract_x
_atom_site_fract_y
_atom_site_fract_z
Si Si1 0.186970 0.168601 0.224966
Si Si2 0.900724 0.323459 0.878164
Si Si3 0.557752 0.666347 0.046491
Si Si4 0.082157 0.321048 0.479634
Si Si5 0.506894 0.173412 0.190629
Si Si6 0.987552 0.823363 0.381307
Si Si7 0.312336 0.824085 0.416093
O O1 0.250000 0.174285 0.199516
O O2 0.156446 0.280327 0.163006
O O3 0.179055 0.220851 0.319908
O O4 0.163826 0.000000 0.214055
O O5 0.909840 0.500000 0.875883
O O6 0.949428 0.253165 0.824693
O O7 0.900476 0.270500 0.975684
O O8 0.574882 0.500000 0.076353
O O9 0.554831 0.769835 0.128426
O O10 0.500000 0.661751 0.000000
O O11 0.076554 0.500000 0.477469
O O12 0.046256 0.248474 0.405281
O O13 0.145547 0.273263 0.470549
O O14 0.060464 0.257930 0.567460
O O15 0.525422 0.205894 0.284783
O O16 0.497569 0.000000 0.173623
O O17 0.989076 0.000000 0.402363
O O18 0.250000 0.785563 0.443558
O O19 0.323880 0.000000 0.429212
#
# Coordination Sequence:
#
# PCOD8207696 Si02
#       7
#     8   8   8   8   8   8   8
#     4   9  18  31  46  65  88 116 151 185 215 252
#     4  10  19  29  43  64  91 122 148 175 218 264
#     4   8  16  29  42  60  88 117 143 173 212 257
#     4  11  21  31  46  69  93 118 152 189 226 268
#     4  10  19  29  45  67  87 114 151 185 217 256
#     4  10  20  33  47  64  91 124 154 185 226 275
#     4   9  18  33  50  66  89 122 154 184 223 269
#
# _framework density 16.068826000000001
#
# number of rings (size 3 to 8) (size 9 to 14) (size 15 to 20)
#    0.000    2.429    0.000    6.000    0.000   10.000 
#    0.000    1.429    0.000    0.000    0.000    1.000 
#    0.000    5.714    0.000    0.000    0.000    0.000 
#
# Total GULP energy -694247.452658 kJ/mol
# GULP energy per Si atom -12397.275940 kJ/mol
# Density = 1.603225 g / cm^3
# Si number density = 16.068826 Si / 1000 Ang^3
#
#
#
# Elastic Constant Matrix: (Units=GPa)
#
#
# Indices 1 2 3 4 5 6 
#
# 1 81.5279 41.0486 44.0531 0.0000 0.0000 0.0000
# 2 41.0486 93.7320 53.3691 0.0000 0.0000 0.0000
# 3 44.0531 53.3691 99.7558 0.0000 0.0000 0.0000
# 4 0.0000 0.0000 0.0000 15.5848 0.0000 0.0000
# 5 0.0000 0.0000 0.0000 0.0000 25.0454 0.0000
# 6 0.0000 0.0000 0.0000 0.0000 0.0000 20.2759
#
#
#
# Elastic Compliance Matrix: (Units=1/GPa)
#
#
# Indices 1 2 3 4 5 6 
#
# 1 0.017426 -0.004673 -0.005195 0.000000 0.000000 0.000000
# 2 -0.004673 0.016596 -0.006815 0.000000 0.000000 0.000000
# 3 -0.005195 -0.006815 0.015965 0.000000 0.000000 0.000000
# 4 0.000000 0.000000 0.000000 0.064165 0.000000 0.000000
# 5 0.000000 0.000000 0.000000 0.000000 0.039927 0.000000
# 6 0.000000 0.000000 0.000000 0.000000 0.000000 0.049320
#
#
# Mechanical properties :
#
#
# Convention : Reuss Voigt Hill
#
# Bulk Modulus (GPa) = 60.17069 61.32856 60.74962
# Shear Modulus (GPa) = 20.63519 21.28424 20.95971
#
# Velocity S-wave (km/s) = 3.58743 3.64341 3.61553
# Velocity P-wave (km/s) = 7.39503 7.47986 7.43756
#
# Compressibility (1/GPa) = 0.01661939
#
# Stress axis : x y z
#
# Youngs Moduli (GPa) = 57.38565 60.25715 62.63864
#
# Poissons Ratio (x) = 0.28161 0.32542
# Poissons Ratio (y) = 0.26819 0.42687
# Poissons Ratio (z) = 0.29813 0.41064
#
# Static dielectric constant tensor:
#      x y z
#    x 2.933250 0.000000 0.000000 
#    y 0.000000 3.124240 0.000000 
#    z 0.000000 0.000000 3.166740 
# 
# 
# High freq. dielectric constant tensor:
#      x y z
#    x 1.589530 0.000000 0.000000 
#    y 0.000000 1.626150 0.000000 
#    z 0.000000 0.000000 1.610390 
# 
# From -- ./inp_files/30760.got.cif
#   From: 2010.03.12/outbox.cif.g09.slc.cpg/sg51_16_cif.got.tgz:30760.got - 2010.04.16 13:43:02.
