data_PCOD8207433
_publ_section_title
;
Structure prediction by ZEFSAII (Michael W. Deem and Ramdas Pophale) SiO2 
 PCOD8207433
Probable space group: P M M A
;
_chemical_formula_sum "Si O2"
_cell_formula_units_Z 64
_cell_length_a 17.900995
_cell_length_b 14.424604
_cell_length_c 12.412013
_cell_angle_alpha 90.000000
_cell_angle_beta 90.000000
_cell_angle_gamma 90.000000
_cell_volume 3204.965009
_symmetry_space_group_name_H-M "P M M A"
_symmetry_group_IT_number 51
_symmetry_cell_setting 'orthorhombic'
loop_
_space_group_symop_operation_xyz
x,y,z
1/2-x,-y,z
1/2+x,-y,-z
-x,y,-z
-x,-y,-z
1/2+x,y,-z
1/2-x,y,z
x,-y,z
loop_
_atom_site_type_symbol
_atom_site_label
_atom_site_fract_x
_atom_site_fract_y
_atom_site_fract_z
Si Si1 0.919531 0.662056 0.736487
Si Si2 0.162260 0.157539 0.196542
Si Si3 0.663813 0.898229 0.564685
Si Si4 0.166508 0.400693 0.081689
Si Si5 0.162440 0.727716 0.892053
Si Si6 0.912517 0.714207 0.503762
Si Si7 0.089709 0.388302 0.710435
Si Si8 0.914434 0.896122 0.017722
O O1 0.891119 0.753685 0.797131
O O2 0.882046 0.583705 0.809834
O O3 0.889557 0.661438 0.613846
O O4 0.007889 0.648441 0.739722
O O5 0.250000 0.182757 0.181236
O O6 0.150135 0.101280 0.306778
O O7 0.133293 0.101820 0.092968
O O8 0.750000 0.882385 0.538920
O O9 0.621818 0.817240 0.499903
O O10 0.637642 0.000000 0.522920
O O11 0.250000 0.373248 0.116590
O O12 0.165461 0.500000 0.021093
O O13 0.134743 0.324057 0.000213
O O14 0.250000 0.746801 0.893229
O O15 0.145668 0.661170 0.791910
O O16 0.120165 0.826403 0.892701
O O17 0.885769 0.647866 0.407511
O O18 0.000000 0.730120 0.500000
O O19 0.094983 0.500000 0.714572
O O20 0.910831 0.000000 0.066280
O O21 0.000000 0.866534 0.000000
#
# Coordination Sequence:
#
# PCOD8207433 Si02
#       8
#     8   8   8   8   8   8   8   8
#     4  10  19  35  59  89 121 147 187 249 305 349
#     4  10  18  33  59  89 123 159 189 229 293 362
#     4   9  18  33  57  90 120 147 187 239 297 360
#     4  10  20  34  55  85 118 150 184 235 303 356
#     4  11  24  41  59  83 119 158 199 245 289 346
#     4   9  21  38  58  85 117 153 196 247 301 349
#     4  11  24  41  61  82 112 162 213 247 290 357
#     4  11  23  38  59  89 122 155 194 239 289 351
#
# _framework density 19.969017999999998
#
# number of rings (size 3 to 8) (size 9 to 14) (size 15 to 20)
#    0.000    1.875    1.250    2.625    0.000    6.250 
#    0.000    1.875    0.000    0.000    0.000    0.000 
#    0.000    0.000    0.000    0.000    0.000    0.000 
#
# Total GULP energy -793154.065846 kJ/mol
# GULP energy per Si atom -12393.032279 kJ/mol
# Density = 1.992357 g / cm^3
# Si number density = 19.969018 Si / 1000 Ang^3
#
#
#
# Elastic Constant Matrix: (Units=GPa)
#
#
# Indices 1 2 3 4 5 6 
#
# 1 66.5109 50.4031 37.2496 0.0000 0.0000 0.0000
# 2 50.4031 138.1915 44.5565 0.0000 0.0000 0.0000
# 3 37.2496 44.5565 89.5191 0.0000 0.0000 0.0000
# 4 0.0000 0.0000 0.0000 22.7545 0.0000 0.0000
# 5 0.0000 0.0000 0.0000 0.0000 25.1017 0.0000
# 6 0.0000 0.0000 0.0000 0.0000 0.0000 30.4251
#
#
#
# Elastic Compliance Matrix: (Units=1/GPa)
#
#
# Indices 1 2 3 4 5 6 
#
# 1 0.023663 -0.006499 -0.006612 0.000000 0.000000 0.000000
# 2 -0.006499 0.010405 -0.002474 0.000000 0.000000 0.000000
# 3 -0.006612 -0.002474 0.015154 0.000000 0.000000 0.000000
# 4 0.000000 0.000000 0.000000 0.043947 0.000000 0.000000
# 5 0.000000 0.000000 0.000000 0.000000 0.039838 0.000000
# 6 0.000000 0.000000 0.000000 0.000000 0.000000 0.032868
#
#
# Mechanical properties :
#
#
# Convention : Reuss Voigt Hill
#
# Bulk Modulus (GPa) = 55.39823 62.07110 58.73467
# Shear Modulus (GPa) = 24.62314 26.45707 25.54011
#
# Velocity S-wave (km/s) = 3.51532 3.64387 3.58017
# Velocity P-wave (km/s) = 6.65424 6.98963 6.82400
#
# Compressibility (1/GPa) = 0.01805112
#
# Stress axis : x y z
#
# Youngs Moduli (GPa) = 42.26006 96.11195 65.99113
#
# Poissons Ratio (x) = 0.62463 0.43631
# Poissons Ratio (y) = 0.27465 0.16329
# Poissons Ratio (z) = 0.27941 0.23782
#
# Static dielectric constant tensor:
#      x y z
#    x 3.561240 0.000000 0.000000 
#    y 0.000000 3.761390 0.000000 
#    z 0.000000 0.000000 3.718070 
# 
# 
# High freq. dielectric constant tensor:
#      x y z
#    x 1.774000 0.000000 0.000000 
#    y 0.000000 1.790180 0.000000 
#    z 0.000000 0.000000 1.766120 
# 
# From -- ./inp_files/17604.got.cif
#   From: 2010.03.12/outbox.cif.g09.slc.cpg/sg51_9_cif.got.tgz:17604.got - 2010.04.16 13:43:02.
