data_PCOD8207150
_publ_section_title
;
Structure prediction by ZEFSAII (Michael W. Deem and Ramdas Pophale) SiO2 
 PCOD8207150
Probable space group: P M M A
;
_chemical_formula_sum "Si O2"
_cell_formula_units_Z 48
_cell_length_a 16.306829
_cell_length_b 9.203243
_cell_length_c 16.072775
_cell_angle_alpha 90.000000
_cell_angle_beta 90.000000
_cell_angle_gamma 90.000000
_cell_volume 2412.133117
_symmetry_space_group_name_H-M "P M M A"
_symmetry_group_IT_number 51
_symmetry_cell_setting 'orthorhombic'
loop_
_space_group_symop_operation_xyz
x,y,z
1/2-x,-y,z
1/2+x,-y,-z
-x,y,-z
-x,-y,-z
1/2+x,y,-z
1/2-x,y,z
x,-y,z
loop_
_atom_site_type_symbol
_atom_site_label
_atom_site_fract_x
_atom_site_fract_y
_atom_site_fract_z
Si Si1 0.250000 0.328772 0.234154
Si Si2 0.250000 0.328166 0.418934
Si Si3 0.089415 0.328676 0.139634
Si Si4 0.843441 0.331314 0.034437
Si Si5 0.068415 0.327497 0.434792
Si Si6 0.340650 0.166968 0.801584
Si Si7 0.498321 0.168115 0.275348
O O1 0.250000 0.500000 0.241742
O O2 0.250000 0.260454 0.326521
O O3 0.171771 0.275882 0.184395
O O4 0.250000 0.500000 0.415234
O O5 0.162365 0.280510 0.461589
O O6 0.072020 0.500000 0.152397
O O7 0.021232 0.230669 0.183662
O O8 0.096719 0.290226 0.042059
O O9 0.750000 0.291529 0.010086
O O10 0.851567 0.500000 0.054102
O O11 0.872450 0.250349 0.116905
O O12 0.062912 0.500000 0.424908
O O13 0.046613 0.259761 0.346019
O O14 0.000000 0.270579 0.500000
O O15 0.250000 0.222426 0.774310
O O16 0.402445 0.188008 0.723190
O O17 0.337646 0.000000 0.827910
O O18 0.472855 0.000000 0.284432
#
# Coordination Sequence:
#
# PCOD8207150 Si02
#       7
#     4   4   8   8   8   8   8
#     4   9  14  26  52  78 105 144 179 211 262 326
#     4   9  16  32  60  86 111 146 177 209 266 332
#     4  10  18  31  53  80 110 144 181 223 276 327
#     4   9  17  30  52  80 107 140 187 238 277 316
#     4  10  21  39  63  88 115 146 179 219 273 334
#     4   9  20  39  56  69  99 151 195 226 273 331
#     4  11  23  37  55  80 110 142 181 230 275 324
#
# _framework density 19.8994
#
# number of rings (size 3 to 8) (size 9 to 14) (size 15 to 20)
#    0.000    2.333    2.500    0.500    0.000    3.000 
#    1.500    5.000    0.000    0.000    0.000    0.000 
#    0.000    0.000    0.000    0.000    0.000    0.000 
#
# Total GULP energy -594715.448343 kJ/mol
# GULP energy per Si atom -12389.905174 kJ/mol
# Density = 1.985411 g / cm^3
# Si number density = 19.899400 Si / 1000 Ang^3
#
#
#
# Elastic Constant Matrix: (Units=GPa)
#
#
# Indices 1 2 3 4 5 6 
#
# 1 126.6021 21.3726 49.9756 0.0000 0.0000 0.0000
# 2 21.3726 34.6784 18.5139 0.0000 0.0000 0.0000
# 3 49.9756 18.5139 51.0549 0.0000 0.0000 0.0000
# 4 0.0000 0.0000 0.0000 15.1609 0.0000 0.0000
# 5 0.0000 0.0000 0.0000 0.0000 33.0839 0.0000
# 6 0.0000 0.0000 0.0000 0.0000 0.0000 19.9500
#
#
#
# Elastic Compliance Matrix: (Units=1/GPa)
#
#
# Indices 1 2 3 4 5 6 
#
# 1 0.012936 -0.001503 -0.012117 0.000000 0.000000 0.000000
# 2 -0.001503 0.035934 -0.011559 0.000000 0.000000 0.000000
# 3 -0.012117 -0.011559 0.035639 0.000000 0.000000 0.000000
# 4 0.000000 0.000000 0.000000 0.065959 0.000000 0.000000
# 5 0.000000 0.000000 0.000000 0.000000 0.030226 0.000000
# 6 0.000000 0.000000 0.000000 0.000000 0.000000 0.050125
#
#
# Mechanical properties :
#
#
# Convention : Reuss Voigt Hill
#
# Bulk Modulus (GPa) = 29.28260 43.56218 36.42239
# Shear Modulus (GPa) = 17.09039 21.80385 19.44712
#
# Velocity S-wave (km/s) = 2.93378 3.31373 3.12953
# Velocity P-wave (km/s) = 5.12087 6.04813 5.60371
#
# Compressibility (1/GPa) = 0.03414998
#
# Stress axis : x y z
#
# Youngs Moduli (GPa) = 77.30536 27.82881 28.05891
#
# Poissons Ratio (x) = 0.04184 0.33999
# Poissons Ratio (y) = 0.11622 0.32433
# Poissons Ratio (z) = 0.93671 0.32167
#
# Static dielectric constant tensor:
#      x y z
#    x 4.214960 0.000000 0.000000 
#    y 0.000000 3.298090 0.000000 
#    z 0.000000 0.000000 3.456860 
# 
# 
# High freq. dielectric constant tensor:
#      x y z
#    x 1.796990 0.000000 0.000000 
#    y 0.000000 1.744000 0.000000 
#    z 0.000000 0.000000 1.752060 
# 
# From -- ./inp_files/24850.got.cif
#   From: 2010.03.12/outbox.cif.g09.slc.cpg/sg51_13_cif.got.tgz:24850.got - 2010.04.16 13:43:02.
