data_PCOD8207203
_publ_section_title
;
Structure prediction by ZEFSAII (Michael W. Deem and Ramdas Pophale) SiO2 
 PCOD8207203
Probable space group: P M M A
;
_chemical_formula_sum "Si O2"
_cell_formula_units_Z 52
_cell_length_a 8.871611
_cell_length_b 10.372565
_cell_length_c 30.730334
_cell_angle_alpha 90.000000
_cell_angle_beta 90.000000
_cell_angle_gamma 90.000000
_cell_volume 2827.847182
_symmetry_space_group_name_H-M "P M M A"
_symmetry_group_IT_number 51
_symmetry_cell_setting 'orthorhombic'
loop_
_space_group_symop_operation_xyz
x,y,z
1/2-x,-y,z
1/2+x,-y,-z
-x,y,-z
-x,-y,-z
1/2+x,y,-z
1/2-x,y,z
x,-y,z
loop_
_atom_site_type_symbol
_atom_site_label
_atom_site_fract_x
_atom_site_fract_y
_atom_site_fract_z
Si Si1 0.584447 0.645725 0.374201
Si Si2 0.929202 0.743378 0.547057
Si Si3 0.570235 0.853285 0.862882
Si Si4 0.571948 0.648129 0.201779
Si Si5 0.917995 0.652655 0.708940
Si Si6 0.414358 0.848265 0.040997
Si Si7 0.569512 0.000000 0.452213
O O1 0.750000 0.710307 0.382282
O O2 0.611910 0.500000 0.360021
O O3 0.481130 0.639135 0.417754
O O4 0.498475 0.713832 0.333830
O O5 0.750000 0.751681 0.542015
O O6 0.000000 0.711732 0.500000
O O7 0.001024 0.872085 0.569303
O O8 0.750000 0.841362 0.861186
O O9 0.496527 0.746385 0.832663
O O10 0.510009 0.822920 0.911845
O O11 0.523320 0.000000 0.849471
O O12 0.750000 0.661103 0.201591
O O13 0.523055 0.500000 0.191334
O O14 0.512606 0.691898 0.248809
O O15 0.750000 0.711701 0.712507
O O16 0.906905 0.500000 0.704410
O O17 0.250000 0.784207 0.040863
O O18 0.400448 0.000000 0.033689
O O19 0.500000 0.784618 0.000000
O O20 0.500000 0.000000 0.500000
O O21 0.750000 0.000000 0.452884
#
# Coordination Sequence:
#
# PCOD8207203 Si02
#       7
#     8   8   8   8   8   8   4
#     4  10  20  34  52  75 103 132 162 199 244 293
#     4  11  21  34  52  74 100 130 165 202 243 290
#     4   9  18  32  50  74 104 136 170 211 260 309
#     4  10  20  33  51  76 103 132 170 214 256 304
#     4   9  17  31  52  75  97 126 164 202 242 291
#     4   8  14  25  42  66  96 129 166 207 250 300
#     4  10  18  32  52  72  94 122 160 200 238 280
#
# _framework density 18.388546999999999
#
# number of rings (size 3 to 8) (size 9 to 14) (size 15 to 20)
#    0.000    2.462    0.000    5.308    0.000    4.923 
#    0.000    1.538    1.692    0.462    0.000    0.000 
#    0.000    0.000    0.000    0.000    0.000    0.000 
#
# Total GULP energy -644293.695096 kJ/mol
# GULP energy per Si atom -12390.263367 kJ/mol
# Density = 1.834669 g / cm^3
# Si number density = 18.388547 Si / 1000 Ang^3
#
#
#
# Elastic Constant Matrix: (Units=GPa)
#
#
# Indices 1 2 3 4 5 6 
#
# 1 125.0362 33.5095 65.4070 0.0000 0.0000 0.0000
# 2 33.5095 48.1545 44.1698 0.0000 0.0000 0.0000
# 3 65.4070 44.1698 154.5572 0.0000 0.0000 0.0000
# 4 0.0000 0.0000 0.0000 13.6275 0.0000 0.0000
# 5 0.0000 0.0000 0.0000 0.0000 36.4197 0.0000
# 6 0.0000 0.0000 0.0000 0.0000 0.0000 23.2244
#
#
#
# Elastic Compliance Matrix: (Units=1/GPa)
#
#
# Indices 1 2 3 4 5 6 
#
# 1 0.010968 -0.004574 -0.003334 0.000000 0.000000 0.000000
# 2 -0.004574 0.030051 -0.006653 0.000000 0.000000 0.000000
# 3 -0.003334 -0.006653 0.009782 0.000000 0.000000 0.000000
# 4 0.000000 0.000000 0.000000 0.073381 0.000000 0.000000
# 5 0.000000 0.000000 0.000000 0.000000 0.027458 0.000000
# 6 0.000000 0.000000 0.000000 0.000000 0.000000 0.043058
#
#
# Mechanical properties :
#
#
# Convention : Reuss Voigt Hill
#
# Bulk Modulus (GPa) = 46.12533 68.21339 57.16936
# Shear Modulus (GPa) = 21.64072 26.96509 24.30291
#
# Velocity S-wave (km/s) = 3.43426 3.83352 3.63937
# Velocity P-wave (km/s) = 6.39247 7.53463 6.98693
#
# Compressibility (1/GPa) = 0.02168006
#
# Stress axis : x y z
#
# Youngs Moduli (GPa) = 91.17751 33.27641 102.22501
#
# Poissons Ratio (x) = 0.15220 0.34085
# Poissons Ratio (y) = 0.41702 0.68006
# Poissons Ratio (z) = 0.30401 0.22138
#
# Static dielectric constant tensor:
#      x y z
#    x 3.695620 0.000000 0.000000 
#    y 0.000000 3.623050 0.000000 
#    z 0.000000 0.000000 3.474640 
# 
# 
# High freq. dielectric constant tensor:
#      x y z
#    x 1.725130 0.000000 0.000000 
#    y 0.000000 1.665540 0.000000 
#    z 0.000000 0.000000 1.716370 
# 
# From -- ./inp_files/36258.got.cif
#   From: 2010.03.12/outbox.cif.g09.slc.cpg/sg51_19_cif.got.tgz:36258.got - 2010.04.16 13:43:02.
