data_PCOD8207985
_publ_section_title
;
Structure prediction by ZEFSAII (Michael W. Deem and Ramdas Pophale) SiO2 
 PCOD8207985
Probable space group: P M M A
;
_chemical_formula_sum "Si O2"
_cell_formula_units_Z 48
_cell_length_a 18.499067
_cell_length_b 9.186567
_cell_length_c 16.458069
_cell_angle_alpha 90.000000
_cell_angle_beta 90.000000
_cell_angle_gamma 90.000000
_cell_volume 2796.932278
_symmetry_space_group_name_H-M "P M M A"
_symmetry_group_IT_number 51
_symmetry_cell_setting 'orthorhombic'
loop_
_space_group_symop_operation_xyz
x,y,z
1/2-x,-y,z
1/2+x,-y,-z
-x,y,-z
-x,-y,-z
1/2+x,y,-z
1/2-x,y,z
x,-y,z
loop_
_atom_site_type_symbol
_atom_site_label
_atom_site_fract_x
_atom_site_fract_y
_atom_site_fract_z
Si Si1 0.098163 0.672371 0.318066
Si Si2 0.832893 0.668775 0.513607
Si Si3 0.035543 0.169604 0.749182
Si Si4 0.169054 0.830311 0.646023
Si Si5 0.831230 0.829511 0.826628
Si Si6 0.528990 0.170675 0.916764
O O1 0.098974 0.500000 0.304866
O O2 0.120393 0.715980 0.409013
O O3 0.155605 0.743064 0.256479
O O4 0.018435 0.735090 0.304746
O O5 0.750000 0.709032 0.531889
O O6 0.842443 0.500000 0.494517
O O7 0.861290 0.753678 0.434688
O O8 0.117131 0.206695 0.722011
O O9 0.026097 0.211177 0.843945
O O10 0.016819 0.000000 0.735608
O O11 0.250000 0.775000 0.667837
O O12 0.169342 0.000000 0.627421
O O13 0.750000 0.797800 0.858349
O O14 0.889649 0.776001 0.894051
O O15 0.842738 0.000000 0.808213
O O16 0.531718 0.000000 0.930916
O O17 0.500000 0.245885 0.000000
#
# Coordination Sequence:
#
# PCOD8207985 Si02
#       6
#     8   8   8   8   8   8
#     4  10  19  30  46  68  93 121 154 190 228 272
#     4   9  18  31  45  63  89 120 153 189 227 266
#     4   9  18  32  48  67  92 120 151 188 230 275
#     4   9  18  32  48  65  87 118 155 191 226 266
#     4   9  17  29  46  69  96 124 154 188 228 275
#     4   8  14  27  47  68  91 119 148 181 223 269
#
# _framework density 17.161660000000001
#
# number of rings (size 3 to 8) (size 9 to 14) (size 15 to 20)
#    0.000    3.000    0.000    2.000    0.000    3.667 
#    0.000    5.833    0.000   13.000    0.000    0.000 
#    0.000    5.333    0.000    0.000    0.000    0.000 
#
# Total GULP energy -595008.211750 kJ/mol
# GULP energy per Si atom -12396.004411 kJ/mol
# Density = 1.712260 g / cm^3
# Si number density = 17.161660 Si / 1000 Ang^3
#
#
#
# Elastic Constant Matrix: (Units=GPa)
#
#
# Indices 1 2 3 4 5 6 
#
# 1 119.3681 30.1970 85.4006 0.0000 0.0000 0.0000
# 2 30.1970 35.5086 34.3465 0.0000 0.0000 0.0000
# 3 85.4006 34.3465 136.7970 0.0000 0.0000 0.0000
# 4 0.0000 0.0000 0.0000 3.7035 0.0000 0.0000
# 5 0.0000 0.0000 0.0000 0.0000 24.1369 0.0000
# 6 0.0000 0.0000 0.0000 0.0000 0.0000 19.3314
#
#
#
# Elastic Compliance Matrix: (Units=1/GPa)
#
#
# Indices 1 2 3 4 5 6 
#
# 1 0.015822 -0.005152 -0.008584 0.000000 0.000000 0.000000
# 2 -0.005152 0.038873 -0.006544 0.000000 0.000000 0.000000
# 3 -0.008584 -0.006544 0.014312 0.000000 0.000000 0.000000
# 4 0.000000 0.000000 0.000000 0.270016 0.000000 0.000000
# 5 0.000000 0.000000 0.000000 0.000000 0.041430 0.000000
# 6 0.000000 0.000000 0.000000 0.000000 0.000000 0.051729
#
#
# Mechanical properties :
#
#
# Convention : Reuss Voigt Hill
#
# Bulk Modulus (GPa) = 35.15251 65.72910 50.44081
# Shear Modulus (GPa) = 10.36861 18.88300 14.62580
#
# Velocity S-wave (km/s) = 2.46066 3.32068 2.92248
# Velocity P-wave (km/s) = 5.34797 7.28599 6.39087
#
# Compressibility (1/GPa) = 0.02844747
#
# Stress axis : x y z
#
# Youngs Moduli (GPa) = 63.20257 25.72464 69.87210
#
# Poissons Ratio (x) = 0.13254 0.59978
# Poissons Ratio (y) = 0.32564 0.45721
# Poissons Ratio (z) = 0.54253 0.16833
#
# Static dielectric constant tensor:
#      x y z
#    x 3.375670 0.000000 0.000000 
#    y 0.000000 3.026700 0.000000 
#    z 0.000000 0.000000 3.310060 
# 
# 
# High freq. dielectric constant tensor:
#      x y z
#    x 1.663710 0.000000 0.000000 
#    y 0.000000 1.642380 0.000000 
#    z 0.000000 0.000000 1.650990 
# 
# From -- ./inp_files/25501.got.cif
#   From: 2010.03.12/outbox.cif.g09.slc.cpg/sg51_13_cif.got.tgz:25501.got - 2010.04.16 13:43:02.
