data_PCOD8207003
_publ_section_title
;
Structure prediction by ZEFSAII (Michael W. Deem and Ramdas Pophale) SiO2 
 PCOD8207003
Probable space group: P M M A
;
_chemical_formula_sum "Si O2"
_cell_formula_units_Z 64
_cell_length_a 14.555191
_cell_length_b 8.769304
_cell_length_c 25.304616
_cell_angle_alpha 90.000000
_cell_angle_beta 90.000000
_cell_angle_gamma 90.000000
_cell_volume 3229.853216
_symmetry_space_group_name_H-M "P M M A"
_symmetry_group_IT_number 51
_symmetry_cell_setting 'orthorhombic'
loop_
_space_group_symop_operation_xyz
x,y,z
1/2-x,-y,z
1/2+x,-y,-z
-x,y,-z
-x,-y,-z
1/2+x,y,-z
1/2-x,y,z
x,-y,z
loop_
_atom_site_type_symbol
_atom_site_label
_atom_site_fract_x
_atom_site_fract_y
_atom_site_fract_z
Si Si1 0.145254 0.179822 0.227149
Si Si2 0.850743 0.681085 0.088361
Si Si3 0.893749 0.326932 0.487193
Si Si4 0.854096 0.677263 0.971411
Si Si5 0.540186 0.319044 0.871038
Si Si6 0.851780 0.828587 0.590193
Si Si7 0.351618 0.319216 0.629350
Si Si8 0.463270 0.677948 0.322682
O O1 0.250000 0.244037 0.229413
O O2 0.092404 0.242790 0.176802
O O3 0.088054 0.226047 0.278434
O O4 0.147780 0.000000 0.223698
O O5 0.750000 0.740315 0.107976
O O6 0.846733 0.500000 0.083118
O O7 0.931735 0.727648 0.128986
O O8 0.872282 0.748339 0.029618
O O9 0.856592 0.500000 0.490922
O O10 0.842267 0.222448 0.529551
O O11 0.873128 0.256319 0.429355
O O12 0.000000 0.319688 0.500000
O O13 0.750000 0.708071 0.953728
O O14 0.876522 0.500000 0.974715
O O15 0.918809 0.746977 0.925967
O O16 0.553198 0.500000 0.866096
O O17 0.750000 0.826355 0.615445
O O18 0.915379 0.709341 0.621222
O O19 0.892533 0.000000 0.593981
O O20 0.250000 0.263705 0.647997
O O21 0.356155 0.500000 0.625879
O O22 0.429998 0.267747 0.671371
O O23 0.456278 0.500000 0.308592
#
# Coordination Sequence:
#
# PCOD8207003 Si02
#       8
#     8   8   8   8   8   8   8   8
#     4  11  25  43  59  77 105 138 171 216 279 337
#     4   8  14  25  44  76 116 150 179 218 267 311
#     4  10  18  33  56  83 112 145 184 221 258 307
#     4   8  13  22  41  74 113 145 176 220 269 313
#     4  10  18  30  53  82 108 140 184 227 264 312
#     4  11  23  36  52  79 115 150 180 214 264 321
#     4   9  18  34  57  84 113 141 172 218 270 313
#     4  11  22  39  62  84 104 133 180 228 269 316
#
# _framework density 19.815142000000002
#
# number of rings (size 3 to 8) (size 9 to 14) (size 15 to 20)
#    0.000    2.250    1.250    3.375    0.000    6.250 
#    0.000    0.625    0.000    7.875    0.000    1.750 
#    0.000    0.000    0.000    0.000    0.000    0.000 
#
# Total GULP energy -793179.784564 kJ/mol
# GULP energy per Si atom -12393.434134 kJ/mol
# Density = 1.977004 g / cm^3
# Si number density = 19.815142 Si / 1000 Ang^3
#
#
#
# Elastic Constant Matrix: (Units=GPa)
#
#
# Indices 1 2 3 4 5 6 
#
# 1 153.7165 24.1804 75.1075 0.0000 0.0000 0.0000
# 2 24.1804 35.3584 18.6036 0.0000 0.0000 0.0000
# 3 75.1075 18.6036 94.6499 0.0000 0.0000 0.0000
# 4 0.0000 0.0000 0.0000 -12.2776 0.0000 0.0000
# 5 0.0000 0.0000 0.0000 0.0000 32.5795 0.0000
# 6 0.0000 0.0000 0.0000 0.0000 0.0000 13.7673
#
#
#
# Elastic Compliance Matrix: (Units=1/GPa)
#
#
# Indices 1 2 3 4 5 6 
#
# 1 0.010951 -0.003253 -0.008050 0.000000 0.000000 0.000000
# 2 -0.003253 0.032510 -0.003808 0.000000 0.000000 0.000000
# 3 -0.008050 -0.003808 0.017702 0.000000 0.000000 0.000000
# 4 0.000000 0.000000 0.000000 -0.081449 0.000000 0.000000
# 5 0.000000 0.000000 0.000000 0.000000 0.030694 0.000000
# 6 0.000000 0.000000 0.000000 0.000000 0.000000 0.072636
#
#
# Mechanical properties :
#
#
# Convention : Reuss Voigt Hill
#
# Bulk Modulus (GPa) = 32.32150 57.72307 45.02228
# Shear Modulus (GPa) = 40.45946 17.86941 29.16444
#
# Velocity S-wave (km/s) = 4.52358 3.00627 3.84060
# Velocity P-wave (km/s) = 6.60535 6.42217 6.51440
#
# Compressibility (1/GPa) = 0.03093916
#
# Stress axis : x y z
#
# Youngs Moduli (GPa) = 91.31867 30.75940 56.49104
#
# Poissons Ratio (x) = 0.10007 0.45477
# Poissons Ratio (y) = 0.29708 0.21514
# Poissons Ratio (z) = 0.73514 0.11715
#
# Static dielectric constant tensor:
#      x y z
#    x 4.034750 0.000000 0.000000 
#    y 0.000000 3.147830 0.000000 
#    z 0.000000 0.000000 3.239960 
# 
# 
# High freq. dielectric constant tensor:
#      x y z
#    x 1.792950 0.000000 0.000000 
#    y 0.000000 1.722300 0.000000 
#    z 0.000000 0.000000 1.756740 
# 
# From -- ./inp_files/35760.got.cif
#   From: 2010.03.12/outbox.cif.g09.slc.cpg/sg51_18_cif.got.tgz:35760.got - 2010.04.16 13:43:02.
