data_PCOD8207383
_publ_section_title
;
Structure prediction by ZEFSAII (Michael W. Deem and Ramdas Pophale) SiO2 
 PCOD8207383
Probable space group: P M M A
;
_chemical_formula_sum "Si O2"
_cell_formula_units_Z 64
_cell_length_a 8.895223
_cell_length_b 24.573539
_cell_length_c 15.241511
_cell_angle_alpha 90.000000
_cell_angle_beta 90.000000
_cell_angle_gamma 90.000000
_cell_volume 3331.597831
_symmetry_space_group_name_H-M "P M M A"
_symmetry_group_IT_number 51
_symmetry_cell_setting 'orthorhombic'
loop_
_space_group_symop_operation_xyz
x,y,z
1/2-x,-y,z
1/2+x,-y,-z
-x,y,-z
-x,-y,-z
1/2+x,y,-z
1/2-x,y,z
x,-y,z
loop_
_atom_site_type_symbol
_atom_site_label
_atom_site_fract_x
_atom_site_fract_y
_atom_site_fract_z
Si Si1 0.072294 0.396326 0.912911
Si Si2 0.421087 0.283877 0.123637
Si Si3 0.073970 0.937211 0.410367
Si Si4 0.574622 0.142864 0.279462
Si Si5 0.080833 0.748117 0.319917
Si Si6 0.427297 0.828402 0.914918
Si Si7 0.427154 0.640416 0.409672
Si Si8 0.077798 0.562030 0.257148
O O1 0.250000 0.398172 0.919798
O O2 0.017023 0.334412 0.908417
O O3 0.020474 0.430704 0.829506
O O4 0.000000 0.423225 0.000000
O O5 0.250000 0.287703 0.088758
O O6 0.423394 0.283384 0.228335
O O7 0.498968 0.230688 0.085446
O O8 0.250000 0.928069 0.418536
O O9 0.000000 0.914897 0.500000
O O10 0.013503 0.905477 0.326121
O O11 0.030904 0.000000 0.396222
O O12 0.750000 0.134274 0.294663
O O13 0.530005 0.200605 0.322057
O O14 0.532741 0.140709 0.175923
O O15 0.250000 0.769190 0.339210
O O16 0.027840 0.703294 0.390547
O O17 0.250000 0.823666 0.926357
O O18 0.500000 0.859222 0.000000
O O19 0.500000 0.621561 0.500000
O O20 0.250000 0.634264 0.417359
O O21 0.487651 0.600468 0.333735
O O22 0.250000 0.578164 0.235177
O O23 0.065823 0.500000 0.289473
#
# Coordination Sequence:
#
# PCOD8207383 Si02
#       8
#     8   8   8   8   8   8   8   8
#     4  12  24  37  57  83 112 143 181 226 276 337
#     4  10  18  33  55  78 109 148 188 228 275 329
#     4  10  21  38  61  87 115 150 193 239 289 341
#     4  10  21  35  55  85 119 153 193 237 284 336
#     4   9  18  34  55  78 113 152 187 226 275 333
#     4  10  20  33  50  79 116 155 196 236 281 330
#     4  10  21  38  59  86 113 145 183 224 279 336
#     4  10  22  43  65  82 107 142 182 231 282 335
#
# _framework density 19.210000999999998
#
# number of rings (size 3 to 8) (size 9 to 14) (size 15 to 20)
#    0.000    1.875    1.250    3.000    0.000    5.000 
#    0.000    1.250    0.000    0.375    0.000    0.000 
#    0.000    0.000    0.000    0.000    0.000    0.000 
#
# Total GULP energy -793715.313354 kJ/mol
# GULP energy per Si atom -12401.801771 kJ/mol
# Density = 1.916628 g / cm^3
# Si number density = 19.210001 Si / 1000 Ang^3
#
#
#
# Elastic Constant Matrix: (Units=GPa)
#
#
# Indices 1 2 3 4 5 6 
#
# 1 102.6713 38.5821 55.4324 0.0000 0.0000 0.0000
# 2 38.5821 69.3428 52.3491 0.0000 0.0000 0.0000
# 3 55.4324 52.3491 133.1178 0.0000 0.0000 0.0000
# 4 0.0000 0.0000 0.0000 29.6199 0.0000 0.0000
# 5 0.0000 0.0000 0.0000 0.0000 36.2203 0.0000
# 6 0.0000 0.0000 0.0000 0.0000 0.0000 25.4613
#
#
#
# Elastic Compliance Matrix: (Units=1/GPa)
#
#
# Indices 1 2 3 4 5 6 
#
# 1 0.013548 -0.004664 -0.003808 0.000000 0.000000 0.000000
# 2 -0.004664 0.022116 -0.006755 0.000000 0.000000 0.000000
# 3 -0.003808 -0.006755 0.011754 0.000000 0.000000 0.000000
# 4 0.000000 0.000000 0.000000 0.033761 0.000000 0.000000
# 5 0.000000 0.000000 0.000000 0.000000 0.027609 0.000000
# 6 0.000000 0.000000 0.000000 0.000000 0.000000 0.039275
#
#
# Mechanical properties :
#
#
# Convention : Reuss Voigt Hill
#
# Bulk Modulus (GPa) = 58.94417 66.42878 62.68647
# Shear Modulus (GPa) = 27.14876 28.84486 27.99681
#
# Velocity S-wave (km/s) = 3.76342 3.87919 3.82174
# Velocity P-wave (km/s) = 7.04522 7.39727 7.22339
#
# Compressibility (1/GPa) = 0.01696521
#
# Stress axis : x y z
#
# Youngs Moduli (GPa) = 73.81122 45.21715 85.07633
#
# Poissons Ratio (x) = 0.21087 0.32394
# Poissons Ratio (y) = 0.34422 0.57469
# Poissons Ratio (z) = 0.28105 0.30544
#
# Static dielectric constant tensor:
#      x y z
#    x 3.498670 0.000000 0.000000 
#    y 0.000000 3.296810 0.000000 
#    z 0.000000 0.000000 3.860710 
# 
# 
# High freq. dielectric constant tensor:
#      x y z
#    x 1.751290 0.000000 0.000000 
#    y 0.000000 1.723780 0.000000 
#    z 0.000000 0.000000 1.757160 
# 
# From -- ./inp_files/22391.got.cif
#   From: 2010.03.12/outbox.cif.g09.slc.cpg/sg51_12_cif.got.tgz:22391.got - 2010.04.16 13:43:02.
