data_PCOD8207871
_publ_section_title
;
Structure prediction by ZEFSAII (Michael W. Deem and Ramdas Pophale) SiO2 
 PCOD8207871
Probable space group: P M M A
;
_chemical_formula_sum "Si O2"
_cell_formula_units_Z 64
_cell_length_a 8.971617
_cell_length_b 30.924590
_cell_length_c 14.301869
_cell_angle_alpha 90.000000
_cell_angle_beta 90.000000
_cell_angle_gamma 90.000000
_cell_volume 3967.961698
_symmetry_space_group_name_H-M "P M M A"
_symmetry_group_IT_number 51
_symmetry_cell_setting 'orthorhombic'
loop_
_space_group_symop_operation_xyz
x,y,z
1/2-x,-y,z
1/2+x,-y,-z
-x,y,-z
-x,-y,-z
1/2+x,y,-z
1/2-x,y,z
x,-y,z
loop_
_atom_site_type_symbol
_atom_site_label
_atom_site_fract_x
_atom_site_fract_y
_atom_site_fract_z
Si Si1 0.425982 0.869684 0.399144
Si Si2 0.924678 0.046948 0.399476
Si Si3 0.923727 0.451745 0.405084
Si Si4 0.575347 0.370086 0.290796
Si Si5 0.576040 0.212786 0.723071
Si Si6 0.574634 0.238101 0.094272
Si Si7 0.574069 0.294312 0.599086
Si Si8 0.076041 0.662580 0.907116
O O1 0.500000 0.862540 0.500000
O O2 0.250000 0.874710 0.411343
O O3 0.494175 0.912746 0.348118
O O4 0.468365 0.829228 0.335488
O O5 0.750000 0.056831 0.409880
O O6 0.000000 0.044552 0.500000
O O7 0.949222 0.000000 0.349101
O O8 0.750000 0.451780 0.425912
O O9 0.979289 0.500000 0.377294
O O10 0.962336 0.419144 0.320801
O O11 0.000000 0.435437 0.500000
O O12 0.750000 0.359044 0.301602
O O13 0.484006 0.338686 0.357601
O O14 0.524462 0.364741 0.183232
O O15 0.750000 0.214055 0.746744
O O16 0.485337 0.210462 0.819185
O O17 0.526930 0.254983 0.665738
O O18 0.750000 0.232432 0.086256
O O19 0.526795 0.287947 0.109315
O O20 0.500000 0.219960 0.000000
O O21 0.500000 0.285662 0.500000
O O22 0.750000 0.297162 0.585435
O O23 0.250000 0.658902 0.923666
O O24 0.000000 0.643222 0.000000
#
# Coordination Sequence:
#
# PCOD8207871 Si02
#       8
#     8   8   8   8   8   8   8   8
#     4  10  19  30  44  63  90 125 162 197 233 276
#     4   9  16  26  41  61  85 115 154 198 239 278
#     4   9  18  32  50  70  93 121 151 187 229 273
#     4  10  19  33  50  70  94 118 154 192 228 275
#     4  10  21  34  46  65  93 125 159 193 229 274
#     4  10  19  32  51  70  91 119 153 193 235 276
#     4  11  22  33  46  65  93 126 158 190 226 267
#     4   9  18  31  48  70  92 117 148 187 229 273
#
# _framework density 16.129187999999999
#
# number of rings (size 3 to 8) (size 9 to 14) (size 15 to 20)
#    0.000    2.250    1.250    3.000    0.000    4.750 
#    0.000    0.000    0.000    0.375    0.000    0.000 
#    0.000    0.500    0.000    1.625    0.000    2.625 
#
# Total GULP energy -793477.962624 kJ/mol
# GULP energy per Si atom -12398.093166 kJ/mol
# Density = 1.609248 g / cm^3
# Si number density = 16.129188 Si / 1000 Ang^3
#
#
#
# Elastic Constant Matrix: (Units=GPa)
#
#
# Indices 1 2 3 4 5 6 
#
# 1 63.5610 40.5356 45.3904 0.0000 0.0000 0.0000
# 2 40.5356 103.0139 51.4339 0.0000 0.0000 0.0000
# 3 45.3904 51.4339 110.9085 0.0000 0.0000 0.0000
# 4 0.0000 0.0000 0.0000 8.5148 0.0000 0.0000
# 5 0.0000 0.0000 0.0000 0.0000 28.1583 0.0000
# 6 0.0000 0.0000 0.0000 0.0000 0.0000 21.7989
#
#
#
# Elastic Compliance Matrix: (Units=1/GPa)
#
#
# Indices 1 2 3 4 5 6 
#
# 1 0.024883 -0.006125 -0.007343 0.000000 0.000000 0.000000
# 2 -0.006125 0.014140 -0.004051 0.000000 0.000000 0.000000
# 3 -0.007343 -0.004051 0.013900 0.000000 0.000000 0.000000
# 4 0.000000 0.000000 0.000000 0.117443 0.000000 0.000000
# 5 0.000000 0.000000 0.000000 0.000000 0.035513 0.000000
# 6 0.000000 0.000000 0.000000 0.000000 0.000000 0.045874
#
#
# Mechanical properties :
#
#
# Convention : Reuss Voigt Hill
#
# Bulk Modulus (GPa) = 55.91113 61.35591 58.63352
# Shear Modulus (GPa) = 17.07924 21.03596 19.05760
#
# Velocity S-wave (km/s) = 3.25761 3.61531 3.44111
# Velocity P-wave (km/s) = 6.99208 7.45320 7.22632
#
# Compressibility (1/GPa) = 0.01788553
#
# Stress axis : x y z
#
# Youngs Moduli (GPa) = 40.18813 70.72080 71.94124
#
# Poissons Ratio (x) = 0.43316 0.52827
# Poissons Ratio (y) = 0.24615 0.29142
# Poissons Ratio (z) = 0.29511 0.28647
#
# Static dielectric constant tensor:
#      x y z
#    x 3.100780 0.000000 0.000000 
#    y 0.000000 3.405040 0.000000 
#    z 0.000000 0.000000 2.980760 
# 
# 
# High freq. dielectric constant tensor:
#      x y z
#    x 1.629400 0.000000 0.000000 
#    y 0.000000 1.612460 0.000000 
#    z 0.000000 0.000000 1.597170 
# 
# From -- ./inp_files/22621.got.cif
#   From: 2010.03.12/outbox.cif.g09.slc.cpg/sg51_12_cif.got.tgz:22621.got - 2010.04.16 13:43:02.
