data_PCOD8207870
_publ_section_title
;
Structure prediction by ZEFSAII (Michael W. Deem and Ramdas Pophale) SiO2 
 PCOD8207870
Probable space group: P M M A
;
_chemical_formula_sum "Si O2"
_cell_formula_units_Z 64
_cell_length_a 9.079077
_cell_length_b 14.230647
_cell_length_c 31.103493
_cell_angle_alpha 90.000000
_cell_angle_beta 90.000000
_cell_angle_gamma 90.000000
_cell_volume 4018.606750
_symmetry_space_group_name_H-M "P M M A"
_symmetry_group_IT_number 51
_symmetry_cell_setting 'orthorhombic'
loop_
_space_group_symop_operation_xyz
x,y,z
1/2-x,-y,z
1/2+x,-y,-z
-x,y,-z
-x,-y,-z
1/2+x,y,-z
1/2-x,y,z
x,-y,z
loop_
_atom_site_type_symbol
_atom_site_label
_atom_site_fract_x
_atom_site_fract_y
_atom_site_fract_z
Si Si1 0.416077 0.611937 0.958339
Si Si2 0.077943 0.391695 0.455675
Si Si3 0.421951 0.609548 0.126671
Si Si4 0.075955 0.706882 0.211650
Si Si5 0.418516 0.104511 0.663354
Si Si6 0.080046 0.610936 0.298661
Si Si7 0.921594 0.294921 0.377804
Si Si8 0.923689 0.103211 0.751108
O O1 0.250000 0.650319 0.958991
O O2 0.419442 0.500000 0.959391
O O3 0.495534 0.648437 0.915351
O O4 0.500000 0.652541 0.000000
O O5 0.250000 0.370965 0.460399
O O6 0.048380 0.500000 0.443318
O O7 0.000000 0.365113 0.500000
O O8 0.011661 0.326237 0.419148
O O9 0.250000 0.629711 0.120012
O O10 0.452332 0.500000 0.134098
O O11 0.489740 0.663834 0.167853
O O12 0.250000 0.694748 0.209413
O O13 0.019383 0.650831 0.253439
O O14 0.027562 0.816528 0.215090
O O15 0.250000 0.108819 0.678626
O O16 0.448259 0.182730 0.627028
O O17 0.515428 0.129532 0.704534
O O18 0.457213 0.000000 0.645372
O O19 0.250000 0.640702 0.306582
O O20 0.063592 0.500000 0.297724
O O21 0.978948 0.651177 0.336105
O O22 0.750000 0.318864 0.384090
O O23 0.750000 0.103524 0.746234
O O24 0.980229 0.000000 0.766360
#
# Coordination Sequence:
#
# PCOD8207870 Si02
#       8
#     8   8   8   8   8   8   8   8
#     4   9  16  26  40  58  80 107 142 184 224 261
#     4  10  21  37  56  76  98 124 152 184 223 267
#     4   9  16  26  40  57  80 115 153 183 216 261
#     4   9  16  27  42  61  87 118 152 187 222 265
#     4   9  18  32  48  67  92 121 153 189 230 272
#     4  10  19  30  44  63  90 125 160 190 220 260
#     4  11  21  32  49  72  96 122 153 190 229 268
#     4   9  16  27  45  66  86 112 150 195 234 266
#
# _framework density 15.925917
#
# number of rings (size 3 to 8) (size 9 to 14) (size 15 to 20)
#    0.000    2.500    1.250    1.875    0.000    6.000 
#    0.000    1.250    0.000    1.875    0.000    0.000 
#    0.000    0.500    0.000    0.875    0.000    1.250 
#
# Total GULP energy -793444.308279 kJ/mol
# GULP energy per Si atom -12397.567317 kJ/mol
# Density = 1.588967 g / cm^3
# Si number density = 15.925917 Si / 1000 Ang^3
#
#
#
# Elastic Constant Matrix: (Units=GPa)
#
#
# Indices 1 2 3 4 5 6 
#
# 1 60.9434 34.5736 50.4536 0.0000 0.0000 0.0000
# 2 34.5736 80.8863 59.3289 0.0000 0.0000 0.0000
# 3 50.4536 59.3289 135.8342 0.0000 0.0000 0.0000
# 4 0.0000 0.0000 0.0000 8.2392 0.0000 0.0000
# 5 0.0000 0.0000 0.0000 0.0000 24.9727 0.0000
# 6 0.0000 0.0000 0.0000 0.0000 0.0000 16.3409
#
#
#
# Elastic Compliance Matrix: (Units=1/GPa)
#
#
# Indices 1 2 3 4 5 6 
#
# 1 0.025417 -0.005796 -0.006909 0.000000 0.000000 0.000000
# 2 -0.005796 0.019513 -0.006370 0.000000 0.000000 0.000000
# 3 -0.006909 -0.006370 0.012710 0.000000 0.000000 0.000000
# 4 0.000000 0.000000 0.000000 0.121371 0.000000 0.000000
# 5 0.000000 0.000000 0.000000 0.000000 0.040044 0.000000
# 6 0.000000 0.000000 0.000000 0.000000 0.000000 0.061196
#
#
# Mechanical properties :
#
#
# Convention : Reuss Voigt Hill
#
# Bulk Modulus (GPa) = 51.30919 62.93067 57.11993
# Shear Modulus (GPa) = 15.38950 18.79776 17.09363
#
# Velocity S-wave (km/s) = 3.11194 3.43931 3.27971
# Velocity P-wave (km/s) = 6.72306 7.44125 7.09126
#
# Compressibility (1/GPa) = 0.01948968
#
# Stress axis : x y z
#
# Youngs Moduli (GPa) = 39.34410 51.24880 78.67653
#
# Poissons Ratio (x) = 0.29706 0.54358
# Poissons Ratio (y) = 0.22805 0.50114
# Poissons Ratio (z) = 0.27183 0.32644
#
# Static dielectric constant tensor:
#      x y z
#    x 2.996830 0.000000 0.000000 
#    y 0.000000 3.160730 0.000000 
#    z 0.000000 0.000000 3.079440 
# 
# 
# High freq. dielectric constant tensor:
#      x y z
#    x 1.607560 0.000000 0.000000 
#    y 0.000000 1.595420 0.000000 
#    z 0.000000 0.000000 1.600550 
# 
# From -- ./inp_files/37611.got.cif
#   From: 2010.03.12/outbox.cif.g09.slc.cpg/sg51_19_cif.got.tgz:37611.got - 2010.04.16 13:43:02.
