data_PCOD8207768
_publ_section_title
;
Structure prediction by ZEFSAII (Michael W. Deem and Ramdas Pophale) SiO2 
 PCOD8207768
Probable space group: P M M A
;
_chemical_formula_sum "Si O2"
_cell_formula_units_Z 56
_cell_length_a 8.929182
_cell_length_b 18.952222
_cell_length_c 18.660765
_cell_angle_alpha 90.000000
_cell_angle_beta 90.000000
_cell_angle_gamma 90.000000
_cell_volume 3157.920945
_symmetry_space_group_name_H-M "P M M A"
_symmetry_group_IT_number 51
_symmetry_cell_setting 'orthorhombic'
loop_
_space_group_symop_operation_xyz
x,y,z
1/2-x,-y,z
1/2+x,-y,-z
-x,y,-z
-x,-y,-z
1/2+x,y,-z
1/2-x,y,z
x,-y,z
loop_
_atom_site_type_symbol
_atom_site_label
_atom_site_fract_x
_atom_site_fract_y
_atom_site_fract_z
Si Si1 0.078314 0.791361 0.800940
Si Si2 0.579861 0.704436 0.343372
Si Si3 0.573023 0.288792 0.926699
Si Si4 0.076199 0.579960 0.861185
Si Si5 0.921094 0.421111 0.710687
Si Si6 0.572989 0.159770 0.425386
Si Si7 0.071759 0.078526 0.712228
O O1 0.250000 0.793888 0.827654
O O2 0.063156 0.738516 0.734728
O O3 0.021356 0.868955 0.776046
O O4 0.972937 0.765223 0.864452
O O5 0.750000 0.681452 0.357594
O O6 0.475708 0.635021 0.348757
O O7 0.527097 0.760565 0.403146
O O8 0.750000 0.290027 0.934340
O O9 0.515974 0.368080 0.911920
O O10 0.500000 0.261204 0.000000
O O11 0.250000 0.601198 0.864402
O O12 0.049364 0.500000 0.888078
O O13 0.023790 0.588440 0.779919
O O14 0.750000 0.405805 0.732463
O O15 0.938355 0.500000 0.678931
O O16 0.500000 0.138253 0.500000
O O17 0.750000 0.153812 0.432328
O O18 0.512364 0.106061 0.364655
O O19 0.250000 0.079293 0.709235
O O20 0.008586 0.000000 0.727001
#
# Coordination Sequence:
#
# PCOD8207768 Si02
#       7
#     8   8   8   8   8   8   8
#     4   9  17  32  53  75  99 128 168 212 250 298
#     4   9  17  30  49  69  95 132 172 210 251 299
#     4  12  24  36  52  73 100 134 171 213 259 305
#     4  10  20  34  51  71  99 134 169 207 253 304
#     4  10  19  29  45  72 100 126 163 212 260 302
#     4   9  18  31  48  75 107 140 172 204 242 294
#     4   8  15  30  54  81 107 137 169 201 244 298
#
# _framework density 17.733187000000001
#
# number of rings (size 3 to 8) (size 9 to 14) (size 15 to 20)
#    0.000    2.429    1.429    3.857    0.000    2.857 
#    0.000    2.143    0.000    2.143    0.000    0.000 
#    0.000    0.000    0.000    0.000    0.000    0.000 
#
# Total GULP energy -694295.190178 kJ/mol
# GULP energy per Si atom -12398.128396 kJ/mol
# Density = 1.769283 g / cm^3
# Si number density = 17.733187 Si / 1000 Ang^3
#
#
#
# Elastic Constant Matrix: (Units=GPa)
#
#
# Indices 1 2 3 4 5 6 
#
# 1 84.7520 44.6239 33.3270 0.0000 0.0000 0.0000
# 2 44.6239 124.4433 44.3077 0.0000 0.0000 0.0000
# 3 33.3270 44.3077 71.7379 0.0000 0.0000 0.0000
# 4 0.0000 0.0000 0.0000 19.5664 0.0000 0.0000
# 5 0.0000 0.0000 0.0000 0.0000 27.1641 0.0000
# 6 0.0000 0.0000 0.0000 0.0000 0.0000 16.4147
#
#
#
# Elastic Compliance Matrix: (Units=1/GPa)
#
#
# Indices 1 2 3 4 5 6 
#
# 1 0.015794 -0.003911 -0.004922 0.000000 0.000000 0.000000
# 2 -0.003911 0.011270 -0.005143 0.000000 0.000000 0.000000
# 3 -0.004922 -0.005143 0.019403 0.000000 0.000000 0.000000
# 4 0.000000 0.000000 0.000000 0.051108 0.000000 0.000000
# 5 0.000000 0.000000 0.000000 0.000000 0.036813 0.000000
# 6 0.000000 0.000000 0.000000 0.000000 0.000000 0.060921
#
#
# Mechanical properties :
#
#
# Convention : Reuss Voigt Hill
#
# Bulk Modulus (GPa) = 54.01397 58.38338 56.19867
# Shear Modulus (GPa) = 21.79293 23.20735 22.50014
#
# Velocity S-wave (km/s) = 3.50942 3.62151 3.56591
# Velocity P-wave (km/s) = 6.85177 7.10506 6.97956
#
# Compressibility (1/GPa) = 0.01851373
#
# Stress axis : x y z
#
# Youngs Moduli (GPa) = 63.31610 88.73433 51.53887
#
# Poissons Ratio (x) = 0.34705 0.25365
# Poissons Ratio (y) = 0.24764 0.26509
# Poissons Ratio (z) = 0.31162 0.45640
#
# Static dielectric constant tensor:
#      x y z
#    x 3.127050 0.000000 0.000000 
#    y 0.000000 3.603120 0.000000 
#    z 0.000000 0.000000 3.099440 
# 
# 
# High freq. dielectric constant tensor:
#      x y z
#    x 1.674250 0.000000 0.000000 
#    y 0.000000 1.686970 0.000000 
#    z 0.000000 0.000000 1.657690 
# 
# From -- ./inp_files/28233.got.cif
#   From: 2010.03.12/outbox.cif.g09.slc.cpg/sg51_15_cif.got.tgz:28233.got - 2010.04.16 13:43:02.
