data_PCOD8207733
_publ_section_title
;
Structure prediction by ZEFSAII (Michael W. Deem and Ramdas Pophale) SiO2 
 PCOD8207733
Probable space group: P M M A
;
_chemical_formula_sum "Si O2"
_cell_formula_units_Z 56
_cell_length_a 9.064173
_cell_length_b 20.367220
_cell_length_c 15.417244
_cell_angle_alpha 90.000000
_cell_angle_beta 90.000000
_cell_angle_gamma 90.000000
_cell_volume 2846.208336
_symmetry_space_group_name_H-M "P M M A"
_symmetry_group_IT_number 51
_symmetry_cell_setting 'orthorhombic'
loop_
_space_group_symop_operation_xyz
x,y,z
1/2-x,-y,z
1/2+x,-y,-z
-x,y,-z
-x,-y,-z
1/2+x,y,-z
1/2-x,y,z
x,-y,z
loop_
_atom_site_type_symbol
_atom_site_label
_atom_site_fract_x
_atom_site_fract_y
_atom_site_fract_z
Si Si1 0.918954 0.571652 0.242766
Si Si2 0.925679 0.821908 0.911221
Si Si3 0.422398 0.289671 0.816784
Si Si4 0.084600 0.741458 0.353564
Si Si5 0.082938 0.600257 0.415797
Si Si6 0.080325 0.117226 0.415048
Si Si7 0.424830 0.927110 0.229886
O O1 0.750000 0.582673 0.271104
O O2 0.939636 0.500000 0.196659
O O3 0.963803 0.632169 0.179434
O O4 0.014846 0.570501 0.329172
O O5 0.750000 0.821114 0.920754
O O6 0.982715 0.873051 0.838107
O O7 0.983667 0.748754 0.888990
O O8 0.000000 0.845565 0.000000
O O9 0.250000 0.277597 0.834020
O O10 0.464913 0.261873 0.722597
O O11 0.250000 0.745512 0.311842
O O12 0.071242 0.679010 0.415661
O O13 0.055487 0.804655 0.412246
O O14 0.250000 0.575822 0.421003
O O15 0.000000 0.572641 0.500000
O O16 0.250000 0.097430 0.424076
O O17 0.012889 0.086722 0.326496
O O18 0.000000 0.088557 0.500000
O O19 0.250000 0.921291 0.233611
O O20 0.474876 0.000000 0.200199
#
# Coordination Sequence:
#
# PCOD8207733 Si02
#       7
#     8   8   8   8   8   8   8
#     4   9  19  35  53  74 103 141 183 226 275 332
#     4  11  22  39  63  90 118 146 183 228 279 337
#     4  10  19  33  57  85 111 141 180 225 277 331
#     4   9  17  31  49  72 103 143 186 231 283 331
#     4  10  19  29  44  67 100 138 184 235 285 337
#     4  10  19  32  51  77 109 149 193 234 278 325
#     4   9  19  37  59  81 113 156 192 227 279 336
#
# _framework density 19.675298999999999
#
# number of rings (size 3 to 8) (size 9 to 14) (size 15 to 20)
#    0.000    2.286    1.429    1.714    0.000    2.857 
#    0.000    0.000    0.000    3.429    0.000    0.000 
#    0.000    0.000    0.000    0.000    0.000    0.000 
#
# Total GULP energy -694211.898499 kJ/mol
# GULP energy per Si atom -12396.641045 kJ/mol
# Density = 1.963052 g / cm^3
# Si number density = 19.675299 Si / 1000 Ang^3
#
#
#
# Elastic Constant Matrix: (Units=GPa)
#
#
# Indices 1 2 3 4 5 6 
#
# 1 71.8406 31.9459 39.0281 0.0000 0.0000 0.0000
# 2 31.9459 121.2833 47.8332 0.0000 0.0000 0.0000
# 3 39.0281 47.8332 111.4624 0.0000 0.0000 0.0000
# 4 0.0000 0.0000 0.0000 9.8222 0.0000 0.0000
# 5 0.0000 0.0000 0.0000 0.0000 32.5257 0.0000
# 6 0.0000 0.0000 0.0000 0.0000 0.0000 17.1045
#
#
#
# Elastic Compliance Matrix: (Units=1/GPa)
#
#
# Indices 1 2 3 4 5 6 
#
# 1 0.017895 -0.002699 -0.005107 0.000000 0.000000 0.000000
# 2 -0.002699 0.010332 -0.003489 0.000000 0.000000 0.000000
# 3 -0.005107 -0.003489 0.012257 0.000000 0.000000 0.000000
# 4 0.000000 0.000000 0.000000 0.101810 0.000000 0.000000
# 5 0.000000 0.000000 0.000000 0.000000 0.030745 0.000000
# 6 0.000000 0.000000 0.000000 0.000000 0.000000 0.058464
#
#
# Mechanical properties :
#
#
# Convention : Reuss Voigt Hill
#
# Bulk Modulus (GPa) = 55.88739 60.24452 58.06596
# Shear Modulus (GPa) = 19.22649 24.27577 21.75113
#
# Velocity S-wave (km/s) = 3.12939 3.51639 3.32852
# Velocity P-wave (km/s) = 6.44391 6.86822 6.65945
#
# Compressibility (1/GPa) = 0.01789312
#
# Stress axis : x y z
#
# Youngs Moduli (GPa) = 55.88283 96.78602 81.58471
#
# Poissons Ratio (x) = 0.26123 0.41669
# Poissons Ratio (y) = 0.15083 0.28464
# Poissons Ratio (z) = 0.28542 0.33767
#
# Static dielectric constant tensor:
#      x y z
#    x 3.459240 0.000000 0.000000 
#    y 0.000000 3.818230 0.000000 
#    z 0.000000 0.000000 3.308150 
# 
# 
# High freq. dielectric constant tensor:
#      x y z
#    x 1.752140 0.000000 0.000000 
#    y 0.000000 1.777410 0.000000 
#    z 0.000000 0.000000 1.736230 
# 
# From -- ./inp_files/21852.got.cif
#   From: 2010.03.12/outbox.cif.g09.slc.cpg/sg51_11_cif.got.tgz:21852.got - 2010.04.16 13:43:02.
