data_PCOD8207279
_publ_section_title
;
Structure prediction by ZEFSAII (Michael W. Deem and Ramdas Pophale) SiO2 
 PCOD8207279
Probable space group: P M M A
;
_chemical_formula_sum "Si O2"
_cell_formula_units_Z 40
_cell_length_a 8.624230
_cell_length_b 12.505374
_cell_length_c 19.321269
_cell_angle_alpha 90.000000
_cell_angle_beta 90.000000
_cell_angle_gamma 90.000000
_cell_volume 2083.783822
_symmetry_space_group_name_H-M "P M M A"
_symmetry_group_IT_number 51
_symmetry_cell_setting 'orthorhombic'
loop_
_space_group_symop_operation_xyz
x,y,z
1/2-x,-y,z
1/2+x,-y,-z
-x,y,-z
-x,-y,-z
1/2+x,y,-z
1/2-x,y,z
x,-y,z
loop_
_atom_site_type_symbol
_atom_site_label
_atom_site_fract_x
_atom_site_fract_y
_atom_site_fract_z
Si Si1 0.565874 0.000000 0.576792
Si Si2 0.932670 0.500000 0.924283
Si Si3 0.434050 0.217456 0.576220
Si Si4 0.931748 0.876339 0.926535
Si Si5 0.933775 0.619608 0.308893
Si Si6 0.433289 0.305277 0.839796
O O1 0.500000 0.000000 0.500000
O O2 0.500799 0.891495 0.611247
O O3 0.750000 0.000000 0.577702
O O4 0.750000 0.500000 0.928293
O O5 0.988344 0.605405 0.886098
O O6 0.000000 0.500000 0.000000
O O7 0.500000 0.238454 0.500000
O O8 0.250000 0.208772 0.572208
O O9 0.491663 0.314072 0.624718
O O10 0.750000 0.853690 0.927073
O O11 0.011896 0.810975 0.864890
O O12 0.970824 0.000000 0.912905
O O13 0.000000 0.838598 0.000000
O O14 0.750000 0.612612 0.309257
O O15 0.004845 0.500000 0.312419
O O16 0.989255 0.678621 0.239136
O O17 0.250000 0.316115 0.846625
#
# Coordination Sequence:
#
# PCOD8207279 Si02
#       6
#     4   4   8   8   8   8
#     4  10  18  32  54  80 112 144 179 228 277 326
#     4  12  24  38  58  86 115 148 189 234 283 336
#     4  10  19  34  58  85 114 147 187 231 275 332
#     4  10  21  38  59  84 116 150 187 232 283 338
#     4   9  19  37  59  81 110 149 189 229 277 333
#     4  11  21  38  61  83 112 149 192 237 281 335
#
# _framework density 19.19585
#
# number of rings (size 3 to 8) (size 9 to 14) (size 15 to 20)
#    0.000    1.800    1.000    5.400    0.000    1.600 
#    1.800    4.000    0.000    0.000    0.000    0.000 
#    0.000    0.000    0.000    0.000    0.000    0.000 
#
# Total GULP energy -496028.088340 kJ/mol
# GULP energy per Si atom -12400.702209 kJ/mol
# Density = 1.915216 g / cm^3
# Si number density = 19.195850 Si / 1000 Ang^3
#
#
#
# Elastic Constant Matrix: (Units=GPa)
#
#
# Indices 1 2 3 4 5 6 
#
# 1 104.7586 46.0213 45.3122 0.0000 0.0000 0.0000
# 2 46.0213 145.3164 87.0413 0.0000 0.0000 0.0000
# 3 45.3122 87.0413 139.3888 0.0000 0.0000 0.0000
# 4 0.0000 0.0000 0.0000 18.6361 0.0000 0.0000
# 5 0.0000 0.0000 0.0000 0.0000 24.9275 0.0000
# 6 0.0000 0.0000 0.0000 0.0000 0.0000 26.4740
#
#
#
# Elastic Compliance Matrix: (Units=1/GPa)
#
#
# Indices 1 2 3 4 5 6 
#
# 1 0.011551 -0.002251 -0.002349 0.000000 0.000000 0.000000
# 2 -0.002251 0.011432 -0.006407 0.000000 0.000000 0.000000
# 3 -0.002349 -0.006407 0.011939 0.000000 0.000000 0.000000
# 4 0.000000 0.000000 0.000000 0.053659 0.000000 0.000000
# 5 0.000000 0.000000 0.000000 0.000000 0.040116 0.000000
# 6 0.000000 0.000000 0.000000 0.000000 0.000000 0.037773
#
#
# Mechanical properties :
#
#
# Convention : Reuss Voigt Hill
#
# Bulk Modulus (GPa) = 77.47687 82.91259 80.19473
# Shear Modulus (GPa) = 25.93537 28.08013 27.00775
#
# Velocity S-wave (km/s) = 3.67971 3.82884 3.75501
# Velocity P-wave (km/s) = 7.64870 7.92675 7.78897
#
# Compressibility (1/GPa) = 0.01290708
#
# Stress axis : x y z
#
# Youngs Moduli (GPa) = 86.57437 87.47335 83.76086
#
# Poissons Ratio (x) = 0.19689 0.19678
# Poissons Ratio (y) = 0.19487 0.53666
# Poissons Ratio (z) = 0.20339 0.56044
#
# Static dielectric constant tensor:
#      x y z
#    x 3.470420 0.000000 0.000000 
#    y 0.000000 4.349520 0.000000 
#    z 0.000000 0.000000 3.545410 
# 
# 
# High freq. dielectric constant tensor:
#      x y z
#    x 1.744180 0.000000 0.000000 
#    y 0.000000 1.762030 0.000000 
#    z 0.000000 0.000000 1.736710 
# 
# From -- ./inp_files/31423.got.cif
#   From: 2010.03.12/outbox.cif.g09.slc.cpg/sg51_16_cif.got.tgz:31423.got - 2010.04.16 13:43:02.
