data_PCOD8207493
_publ_section_title
;
Structure prediction by ZEFSAII (Michael W. Deem and Ramdas Pophale) SiO2 
 PCOD8207493
Probable space group: P M M A
;
_chemical_formula_sum "Si O2"
_cell_formula_units_Z 48
_cell_length_a 16.306692
_cell_length_b 8.816181
_cell_length_c 15.975021
_cell_angle_alpha 90.000000
_cell_angle_beta 90.000000
_cell_angle_gamma 90.000000
_cell_volume 2296.612921
_symmetry_space_group_name_H-M "P M M A"
_symmetry_group_IT_number 51
_symmetry_cell_setting 'orthorhombic'
loop_
_space_group_symop_operation_xyz
x,y,z
1/2-x,-y,z
1/2+x,-y,-z
-x,y,-z
-x,-y,-z
1/2+x,y,-z
1/2-x,y,z
x,-y,z
loop_
_atom_site_type_symbol
_atom_site_label
_atom_site_fract_x
_atom_site_fract_y
_atom_site_fract_z
Si Si1 0.250000 0.178769 0.584668
Si Si2 0.506826 0.177908 0.735504
Si Si3 0.843978 0.174067 0.966164
Si Si4 0.843128 0.676244 0.790243
Si Si5 0.930385 0.180453 0.437525
Si Si6 0.905493 0.676568 0.126822
Si Si7 0.250000 0.674310 0.761626
O O1 0.163562 0.239507 0.543537
O O2 0.250000 0.217984 0.681960
O O3 0.250000 0.000000 0.576616
O O4 0.601856 0.226786 0.724852
O O5 0.454483 0.233741 0.655819
O O6 0.482073 0.265170 0.819959
O O7 0.497391 0.000000 0.747862
O O8 0.750000 0.192890 0.995326
O O9 0.860951 0.273943 0.884972
O O10 0.865141 0.000000 0.945675
O O11 0.902295 0.233466 0.039901
O O12 0.750000 0.712129 0.765183
O O13 0.863834 0.500000 0.781458
O O14 0.000000 0.248478 0.500000
O O15 0.932559 0.000000 0.443969
O O16 0.913648 0.500000 0.106417
O O17 0.827205 0.714921 0.182414
O O18 0.250000 0.500000 0.731824
#
# Coordination Sequence:
#
# PCOD8207493 Si02
#       7
#     4   8   8   8   8   8   4
#     4  10  18  34  62  86 115 156 193 234 291 350
#     4  11  22  37  59  86 116 146 188 244 293 345
#     4  10  20  34  55  83 115 151 196 247 293 339
#     4  10  22  41  61  79 109 154 199 240 289 349
#     4   9  19  36  58  90 123 151 189 239 293 349
#     4  11  21  34  54  83 118 155 194 235 289 349
#     4  10  20  32  52  82 117 152 191 234 281 346
#
# _framework density 20.900342999999999
#
# number of rings (size 3 to 8) (size 9 to 14) (size 15 to 20)
#    0.000    1.833    2.500    2.000    0.000    3.000 
#    1.500    3.333    0.000    4.500    0.000    0.000 
#    0.000    0.000    0.000    0.000    0.000    0.000 
#
# Total GULP energy -595092.270588 kJ/mol
# GULP energy per Si atom -12397.755637 kJ/mol
# Density = 2.085277 g / cm^3
# Si number density = 20.900343 Si / 1000 Ang^3
#
#
#
# Elastic Constant Matrix: (Units=GPa)
#
#
# Indices 1 2 3 4 5 6 
#
# 1 135.9527 22.5483 42.4617 0.0000 0.0000 0.0000
# 2 22.5483 32.3490 12.6389 0.0000 0.0000 0.0000
# 3 42.4617 12.6389 41.4685 0.0000 0.0000 0.0000
# 4 0.0000 0.0000 0.0000 15.9473 0.0000 0.0000
# 5 0.0000 0.0000 0.0000 0.0000 21.4909 0.0000
# 6 0.0000 0.0000 0.0000 0.0000 0.0000 30.6473
#
#
#
# Elastic Compliance Matrix: (Units=1/GPa)
#
#
# Indices 1 2 3 4 5 6 
#
# 1 0.011206 -0.003778 -0.010323 0.000000 0.000000 0.000000
# 2 -0.003778 0.036365 -0.007215 0.000000 0.000000 0.000000
# 3 -0.010323 -0.007215 0.036884 0.000000 0.000000 0.000000
# 4 0.000000 0.000000 0.000000 0.062707 0.000000 0.000000
# 5 0.000000 0.000000 0.000000 0.000000 0.046531 0.000000
# 6 0.000000 0.000000 0.000000 0.000000 0.000000 0.032629
#
#
# Mechanical properties :
#
#
# Convention : Reuss Voigt Hill
#
# Bulk Modulus (GPa) = 23.91021 40.56312 32.23666
# Shear Modulus (GPa) = 17.67431 22.42519 20.04975
#
# Velocity S-wave (km/s) = 2.91116 3.27916 3.10062
# Velocity P-wave (km/s) = 4.77124 5.81267 5.31751
#
# Compressibility (1/GPa) = 0.04182314
#
# Stress axis : x y z
#
# Youngs Moduli (GPa) = 89.23543 27.49892 27.11180
#
# Poissons Ratio (x) = 0.10389 0.27988
# Poissons Ratio (y) = 0.33711 0.19562
# Poissons Ratio (z) = 0.92121 0.19841
#
# Static dielectric constant tensor:
#      x y z
#    x 4.293370 0.000000 0.000000 
#    y 0.000000 3.521170 0.000000 
#    z 0.000000 0.000000 3.551850 
# 
# 
# High freq. dielectric constant tensor:
#      x y z
#    x 1.840170 0.000000 0.000000 
#    y 0.000000 1.800300 0.000000 
#    z 0.000000 0.000000 1.794300 
# 
# From -- ./inp_files/24869.got.cif
#   From: 2010.03.12/outbox.cif.g09.slc.cpg/sg51_13_cif.got.tgz:24869.got - 2010.04.16 13:43:02.
