data_PCOD8207033
_publ_section_title
;
Structure prediction by ZEFSAII (Michael W. Deem and Ramdas Pophale) SiO2 
 PCOD8207033
Probable space group: P M M A
;
_chemical_formula_sum "Si O2"
_cell_formula_units_Z 64
_cell_length_a 33.518468
_cell_length_b 8.918098
_cell_length_c 12.705046
_cell_angle_alpha 90.000000
_cell_angle_beta 90.000000
_cell_angle_gamma 90.000000
_cell_volume 3797.804832
_symmetry_space_group_name_H-M "P M M A"
_symmetry_group_IT_number 51
_symmetry_cell_setting 'orthorhombic'
loop_
_space_group_symop_operation_xyz
x,y,z
1/2-x,-y,z
1/2+x,-y,-z
-x,y,-z
-x,-y,-z
1/2+x,y,-z
1/2-x,y,z
x,-y,z
loop_
_atom_site_type_symbol
_atom_site_label
_atom_site_fract_x
_atom_site_fract_y
_atom_site_fract_z
Si Si1 0.296204 0.827652 0.502154
Si Si2 0.834048 0.325145 0.693467
Si Si3 0.203712 0.674733 0.892216
Si Si4 0.844455 0.822799 0.293044
Si Si5 0.001561 0.169290 0.374909
Si Si6 0.703998 0.174245 0.890246
Si Si7 0.420079 0.326465 0.392898
Si Si8 0.078141 0.676471 0.634190
O O1 0.250000 0.807705 0.529793
O O2 0.306938 0.724261 0.403961
O O3 0.320770 0.771286 0.602943
O O4 0.306307 0.000000 0.474236
O O5 0.826386 0.500000 0.713996
O O6 0.823059 0.230547 0.795334
O O7 0.880181 0.290538 0.670651
O O8 0.250000 0.707825 0.869909
O O9 0.193710 0.500000 0.885043
O O10 0.178210 0.763976 0.808259
O O11 0.191617 0.733353 0.007001
O O12 0.888507 0.753360 0.293926
O O13 0.847545 0.000000 0.286236
O O14 0.043811 0.237104 0.337541
O O15 0.000000 0.178807 0.500000
O O16 0.964985 0.264542 0.327515
O O17 0.998111 0.000000 0.333634
O O18 0.750000 0.203263 0.860419
O O19 0.695764 0.000000 0.911212
O O20 0.431685 0.500000 0.390125
O O21 0.413797 0.275514 0.513505
O O22 0.080107 0.500000 0.650560
#
# Coordination Sequence:
#
# PCOD8207033 Si02
#       8
#     8   8   8   8   8   8   8   8
#     4  10  21  34  47  67  99 137 171 203 247 302
#     4  11  21  33  50  74 102 133 170 210 252 299
#     4  10  21  37  56  76  98 128 170 217 261 304
#     4  11  21  33  51  74 103 135 170 210 254 302
#     4   9  17  28  45  69  96 129 169 206 247 296
#     4  10  21  37  55  74  98 130 170 215 261 304
#     4   9  18  31  46  68 100 135 168 204 249 298
#     4  10  18  31  48  69 101 136 170 206 249 299
#
# _framework density 16.851839999999999
#
# number of rings (size 3 to 8) (size 9 to 14) (size 15 to 20)
#    0.000    2.000    1.250    3.000    0.000    7.250 
#    0.000    0.000    0.000    0.000    0.000    0.875 
#    0.000    7.000    0.000    0.000    0.000    0.000 
#
# Total GULP energy -793851.429392 kJ/mol
# GULP energy per Si atom -12403.928584 kJ/mol
# Density = 1.681348 g / cm^3
# Si number density = 16.851840 Si / 1000 Ang^3
#
#
#
# Elastic Constant Matrix: (Units=GPa)
#
#
# Indices 1 2 3 4 5 6 
#
# 1 91.5590 40.9221 34.6814 0.0000 0.0000 0.0000
# 2 40.9221 74.0317 25.4713 0.0000 0.0000 0.0000
# 3 34.6814 25.4713 61.4803 0.0000 0.0000 0.0000
# 4 0.0000 0.0000 0.0000 27.5016 0.0000 0.0000
# 5 0.0000 0.0000 0.0000 0.0000 9.5472 0.0000
# 6 0.0000 0.0000 0.0000 0.0000 0.0000 32.9894
#
#
#
# Elastic Compliance Matrix: (Units=1/GPa)
#
#
# Indices 1 2 3 4 5 6 
#
# 1 0.016424 -0.006870 -0.006418 0.000000 0.000000 0.000000
# 2 -0.006870 0.018627 -0.003842 0.000000 0.000000 0.000000
# 3 -0.006418 -0.003842 0.021478 0.000000 0.000000 0.000000
# 4 0.000000 0.000000 0.000000 0.036361 0.000000 0.000000
# 5 0.000000 0.000000 0.000000 0.000000 0.104742 0.000000
# 6 0.000000 0.000000 0.000000 0.000000 0.000000 0.030313
#
#
# Mechanical properties :
#
#
# Convention : Reuss Voigt Hill
#
# Bulk Modulus (GPa) = 44.90766 47.69117 46.29942
# Shear Modulus (GPa) = 18.54405 22.40741 20.47573
#
# Velocity S-wave (km/s) = 3.32085 3.65042 3.48953
# Velocity P-wave (km/s) = 6.43510 6.79184 6.61588
#
# Compressibility (1/GPa) = 0.02226792
#
# Stress axis : x y z
#
# Youngs Moduli (GPa) = 60.88752 53.68529 46.55996
#
# Poissons Ratio (x) = 0.36882 0.29884
# Poissons Ratio (y) = 0.41830 0.17887
# Poissons Ratio (z) = 0.39080 0.20624
#
# Static dielectric constant tensor:
#      x y z
#    x 3.258370 0.000000 0.000000 
#    y 0.000000 3.276280 0.000000 
#    z 0.000000 0.000000 2.911600 
# 
# 
# High freq. dielectric constant tensor:
#      x y z
#    x 1.653880 0.000000 0.000000 
#    y 0.000000 1.664890 0.000000 
#    z 0.000000 0.000000 1.613450 
# 
# From -- ./inp_files/19480.got.cif
#   From: 2010.03.12/outbox.cif.g09.slc.cpg/sg51_10_cif.got.tgz:19480.got - 2010.04.16 13:43:02.
