data_PCOD8207232
_publ_section_title
;
Structure prediction by ZEFSAII (Michael W. Deem and Ramdas Pophale) SiO2 
 PCOD8207232
Probable space group: P M M A
;
_chemical_formula_sum "Si O2"
_cell_formula_units_Z 52
_cell_length_a 9.138138
_cell_length_b 17.161170
_cell_length_c 17.813252
_cell_angle_alpha 90.000000
_cell_angle_beta 90.000000
_cell_angle_gamma 90.000000
_cell_volume 2793.494480
_symmetry_space_group_name_H-M "P M M A"
_symmetry_group_IT_number 51
_symmetry_cell_setting 'orthorhombic'
loop_
_space_group_symop_operation_xyz
x,y,z
1/2-x,-y,z
1/2+x,-y,-z
-x,y,-z
-x,-y,-z
1/2+x,y,-z
1/2-x,y,z
x,-y,z
loop_
_atom_site_type_symbol
_atom_site_label
_atom_site_fract_x
_atom_site_fract_y
_atom_site_fract_z
Si Si1 0.250000 0.407642 0.942365
Si Si2 0.426067 0.842257 0.419938
Si Si3 0.415592 0.222819 0.708316
Si Si4 0.750000 0.591297 0.881730
Si Si5 0.086895 0.837059 0.071422
Si Si6 0.982239 0.683450 0.151096
Si Si7 0.085706 0.912933 0.220925
Si Si8 0.069329 0.000000 0.582642
O O1 0.250000 0.500000 0.931384
O O2 0.386398 0.370954 0.901335
O O3 0.250000 0.386379 0.030265
O O4 0.500000 0.826621 0.500000
O O5 0.250000 0.848490 0.427493
O O6 0.475515 0.771719 0.364279
O O7 0.498624 0.921004 0.381855
O O8 0.250000 0.214512 0.679201
O O9 0.423632 0.296310 0.765173
O O10 0.462223 0.145358 0.751876
O O11 0.750000 0.500000 0.869611
O O12 0.620678 0.630234 0.835823
O O13 0.250000 0.812626 0.047055
O O14 0.090541 0.907323 0.130766
O O15 0.008823 0.762164 0.106182
O O16 0.000000 0.868078 0.000000
O O17 0.250000 0.891835 0.252309
O O18 0.040861 0.000000 0.244507
O O19 0.000000 0.000000 0.500000
O O20 0.250000 0.000000 0.583171
#
# Coordination Sequence:
#
# PCOD8207232 Si02
#       8
#     4   8   8   4   8   8   8   4
#     4  11  22  38  58  86 118 154 187 230 284 336
#     4  11  22  37  59  85 115 149 191 236 286 343
#     4  11  23  38  56  79 112 152 190 234 285 338
#     4  11  22  36  60  88 118 152 191 234 280 340
#     4  10  20  32  51  72  97 136 181 230 285 335
#     4  11  22  37  55  81 116 149 189 231 278 341
#     4   9  20  37  52  70  98 135 185 237 288 336
#     4  10  18  32  52  80 118 152 187 232 285 338
#
# _framework density 18.614678999999999
#
# number of rings (size 3 to 8) (size 9 to 14) (size 15 to 20)
#    0.000    1.538    1.538    5.308    4.308    2.462 
#    0.000    0.000    0.000    0.000    0.000    0.000 
#    0.000    3.692    0.000    0.000    0.000    0.000 
#
# Total GULP energy -644318.963697 kJ/mol
# GULP energy per Si atom -12390.749302 kJ/mol
# Density = 1.857231 g / cm^3
# Si number density = 18.614679 Si / 1000 Ang^3
#
#
#
# Elastic Constant Matrix: (Units=GPa)
#
#
# Indices 1 2 3 4 5 6 
#
# 1 135.6934 21.1931 28.7225 0.0000 0.0000 0.0000
# 2 21.1931 62.4572 22.9137 0.0000 0.0000 0.0000
# 3 28.7225 22.9137 78.9808 0.0000 0.0000 0.0000
# 4 0.0000 0.0000 0.0000 28.1370 0.0000 0.0000
# 5 0.0000 0.0000 0.0000 0.0000 32.8418 0.0000
# 6 0.0000 0.0000 0.0000 0.0000 0.0000 20.8875
#
#
#
# Elastic Compliance Matrix: (Units=1/GPa)
#
#
# Indices 1 2 3 4 5 6 
#
# 1 0.008178 -0.001884 -0.002427 0.000000 0.000000 0.000000
# 2 -0.001884 0.018352 -0.004639 0.000000 0.000000 0.000000
# 3 -0.002427 -0.004639 0.014890 0.000000 0.000000 0.000000
# 4 0.000000 0.000000 0.000000 0.035540 0.000000 0.000000
# 5 0.000000 0.000000 0.000000 0.000000 0.030449 0.000000
# 6 0.000000 0.000000 0.000000 0.000000 0.000000 0.047876
#
#
# Mechanical properties :
#
#
# Convention : Reuss Voigt Hill
#
# Bulk Modulus (GPa) = 42.51967 46.97667 44.74817
# Shear Modulus (GPa) = 27.62041 29.99340 28.80690
#
# Velocity S-wave (km/s) = 3.85619 4.01843 3.93814
# Velocity P-wave (km/s) = 6.53594 6.84262 6.69104
#
# Compressibility (1/GPa) = 0.02351853
#
# Stress axis : x y z
#
# Youngs Moduli (GPa) = 122.28466 54.48908 67.15978
#
# Poissons Ratio (x) = 0.10268 0.16301
# Poissons Ratio (y) = 0.23043 0.31156
# Poissons Ratio (z) = 0.29681 0.25278
#
# Static dielectric constant tensor:
#      x y z
#    x 3.385630 0.000000 0.000000 
#    y 0.000000 3.376640 0.000000 
#    z 0.000000 0.000000 3.647190 
# 
# 
# High freq. dielectric constant tensor:
#      x y z
#    x 1.739460 0.000000 0.000000 
#    y 0.000000 1.686940 0.000000 
#    z 0.000000 0.000000 1.723410 
# 
# From -- ./inp_files/28008.got.cif
#   From: 2010.03.12/outbox.cif.g09.slc.cpg/sg51_15_cif.got.tgz:28008.got - 2010.04.16 13:43:02.
