data_PCOD8207727
_publ_section_title
;
Structure prediction by ZEFSAII (Michael W. Deem and Ramdas Pophale) SiO2 
 PCOD8207727
Probable space group: P M M A
;
_chemical_formula_sum "Si O2"
_cell_formula_units_Z 64
_cell_length_a 8.791625
_cell_length_b 19.903902
_cell_length_c 20.254489
_cell_angle_alpha 90.000000
_cell_angle_beta 90.000000
_cell_angle_gamma 90.000000
_cell_volume 3544.285279
_symmetry_space_group_name_H-M "P M M A"
_symmetry_group_IT_number 51
_symmetry_cell_setting 'orthorhombic'
loop_
_space_group_symop_operation_xyz
x,y,z
1/2-x,-y,z
1/2+x,-y,-z
-x,y,-z
-x,-y,-z
1/2+x,y,-z
1/2-x,y,z
x,-y,z
loop_
_atom_site_type_symbol
_atom_site_label
_atom_site_fract_x
_atom_site_fract_y
_atom_site_fract_z
Si Si1 0.075922 0.108418 0.432282
Si Si2 0.070430 0.612722 0.564877
Si Si3 0.429198 0.834970 0.189981
Si Si4 0.576730 0.075631 0.298773
Si Si5 0.070019 0.076304 0.068585
Si Si6 0.075891 0.742520 0.389090
Si Si7 0.430536 0.284243 0.747194
Si Si8 0.569689 0.572358 0.291362
O O1 0.250000 0.083739 0.429734
O O2 0.065825 0.188486 0.428163
O O3 0.000000 0.083727 0.500000
O O4 0.983867 0.074771 0.373061
O O5 0.250000 0.613214 0.558236
O O6 0.017464 0.576384 0.632172
O O7 0.000000 0.576380 0.500000
O O8 0.007584 0.688296 0.565629
O O9 0.250000 0.826457 0.187550
O O10 0.471944 0.876995 0.254521
O O11 0.490862 0.874173 0.125648
O O12 0.502650 0.760084 0.192574
O O13 0.750000 0.102351 0.296760
O O14 0.567667 0.000000 0.270812
O O15 0.250000 0.079664 0.063417
O O16 0.016395 0.000000 0.084065
O O17 0.000000 0.101740 0.000000
O O18 0.250000 0.721417 0.375186
O O19 0.987997 0.750011 0.319887
O O20 0.250000 0.281999 0.749487
O O21 0.489471 0.362511 0.749727
O O22 0.750000 0.573797 0.289078
O O23 0.509960 0.500000 0.263064
#
# Coordination Sequence:
#
# PCOD8207727 Si02
#       8
#     8   8   8   8   8   8   8   8
#     4  11  23  36  52  70  91 124 162 210 267 321
#     4  10  19  29  44  65  89 120 157 201 252 311
#     4  11  21  35  56  81 110 143 176 212 253 302
#     4  11  24  39  55  75  98 127 168 216 261 308
#     4   9  19  35  55  81 114 151 185 215 250 294
#     4  10  19  32  49  69  92 120 157 204 259 313
#     4  10  19  31  52  77 101 130 167 213 255 298
#     4   8  16  31  48  67  94 128 164 205 257 311
#
# _framework density 18.057238000000002
#
# number of rings (size 3 to 8) (size 9 to 14) (size 15 to 20)
#    0.000    2.000    1.250    3.750    0.000    5.500 
#    0.000    1.250    0.000   13.125    0.000    0.000 
#    0.000    0.500    0.000    1.125    0.000    1.750 
#
# Total GULP energy -793396.742023 kJ/mol
# GULP energy per Si atom -12396.824094 kJ/mol
# Density = 1.801614 g / cm^3
# Si number density = 18.057238 Si / 1000 Ang^3
#
#
#
# Elastic Constant Matrix: (Units=GPa)
#
#
# Indices 1 2 3 4 5 6 
#
# 1 63.7276 24.8898 20.4393 0.0000 0.0000 0.0000
# 2 24.8898 111.5313 49.8579 0.0000 0.0000 0.0000
# 3 20.4393 49.8579 91.8154 0.0000 0.0000 0.0000
# 4 0.0000 0.0000 0.0000 19.5388 0.0000 0.0000
# 5 0.0000 0.0000 0.0000 0.0000 25.8692 0.0000
# 6 0.0000 0.0000 0.0000 0.0000 0.0000 15.2408
#
#
#
# Elastic Compliance Matrix: (Units=1/GPa)
#
#
# Indices 1 2 3 4 5 6 
#
# 1 0.017567 -0.002868 -0.002353 0.000000 0.000000 0.000000
# 2 -0.002868 0.012309 -0.006045 0.000000 0.000000 0.000000
# 3 -0.002353 -0.006045 0.014698 0.000000 0.000000 0.000000
# 4 0.000000 0.000000 0.000000 0.051180 0.000000 0.000000
# 5 0.000000 0.000000 0.000000 0.000000 0.038656 0.000000
# 6 0.000000 0.000000 0.000000 0.000000 0.000000 0.065613
#
#
# Mechanical properties :
#
#
# Convention : Reuss Voigt Hill
#
# Bulk Modulus (GPa) = 45.37217 50.82759 48.09988
# Shear Modulus (GPa) = 21.74829 23.58891 22.66860
#
# Velocity S-wave (km/s) = 3.47422 3.61826 3.54697
# Velocity P-wave (km/s) = 6.42457 6.75758 6.59317
#
# Compressibility (1/GPa) = 0.02203994
#
# Stress axis : x y z
#
# Youngs Moduli (GPa) = 56.92571 81.24353 68.03658
#
# Poissons Ratio (x) = 0.23304 0.16009
# Poissons Ratio (y) = 0.16329 0.41130
# Poissons Ratio (z) = 0.13394 0.49114
#
# Static dielectric constant tensor:
#      x y z
#    x 3.320200 0.000000 0.000000 
#    y 0.000000 3.648430 0.000000 
#    z 0.000000 0.000000 3.078270 
# 
# 
# High freq. dielectric constant tensor:
#      x y z
#    x 1.699630 0.000000 0.000000 
#    y 0.000000 1.701910 0.000000 
#    z 0.000000 0.000000 1.656790 
# 
# From -- ./inp_files/32551.got.cif
#   From: 2010.03.12/outbox.cif.g09.slc.cpg/sg51_17_cif.got.tgz:32551.got - 2010.04.16 13:43:02.
