data_PCOD8207766
_publ_section_title
;
Structure prediction by ZEFSAII (Michael W. Deem and Ramdas Pophale) SiO2 
 PCOD8207766
Probable space group: P M M A
;
_chemical_formula_sum "Si O2"
_cell_formula_units_Z 64
_cell_length_a 8.920130
_cell_length_b 19.652200
_cell_length_c 20.504440
_cell_angle_alpha 90.000000
_cell_angle_beta 90.000000
_cell_angle_gamma 90.000000
_cell_volume 3594.431998
_symmetry_space_group_name_H-M "P M M A"
_symmetry_group_IT_number 51
_symmetry_cell_setting 'orthorhombic'
loop_
_space_group_symop_operation_xyz
x,y,z
1/2-x,-y,z
1/2+x,-y,-z
-x,y,-z
-x,-y,-z
1/2+x,y,-z
1/2-x,y,z
x,-y,z
loop_
_atom_site_type_symbol
_atom_site_label
_atom_site_fract_x
_atom_site_fract_y
_atom_site_fract_z
Si Si1 0.918666 0.574613 0.728659
Si Si2 0.423192 0.708614 0.729419
Si Si3 0.572538 0.161171 0.933669
Si Si4 0.574232 0.921824 0.431615
Si Si5 0.071787 0.076372 0.189403
Si Si6 0.927907 0.841755 0.684955
Si Si7 0.077234 0.292178 0.882865
Si Si8 0.581538 0.574550 0.883527
O O1 0.750000 0.589212 0.703891
O O2 0.972580 0.500000 0.703053
O O3 0.920923 0.573704 0.806071
O O4 0.027756 0.634179 0.703103
O O5 0.250000 0.719751 0.712899
O O6 0.521152 0.763970 0.691438
O O7 0.455388 0.715258 0.806210
O O8 0.750000 0.158503 0.939619
O O9 0.512177 0.113596 0.875352
O O10 0.522289 0.238229 0.921350
O O11 0.500000 0.133054 0.000000
O O12 0.500000 0.902788 0.500000
O O13 0.750000 0.907711 0.436248
O O14 0.501682 0.873527 0.378374
O O15 0.539952 0.000000 0.413058
O O16 0.250000 0.075473 0.189449
O O17 0.012407 0.116548 0.252425
O O18 0.006598 0.000000 0.191028
O O19 0.750000 0.845390 0.678676
O O20 0.250000 0.279898 0.899698
O O21 0.030067 0.366904 0.908920
O O22 0.750000 0.590156 0.907981
O O23 0.528886 0.500000 0.909348
#
# Coordination Sequence:
#
# PCOD8207766 Si02
#       8
#     8   8   8   8   8   8   8   8
#     4   8  14  25  41  63  94 132 172 210 252 305
#     4  10  19  29  45  71 104 136 171 215 261 309
#     4  11  22  37  55  73  96 127 166 212 262 317
#     4  10  21  37  56  80 111 146 182 219 260 308
#     4   9  19  35  55  78 101 128 165 208 257 313
#     4  11  20  33  55  80 108 142 179 217 259 308
#     4  10  19  31  48  70  98 129 165 208 254 307
#     4   8  14  25  43  67  94 125 161 200 245 299
#
# _framework density 17.805316999999999
#
# number of rings (size 3 to 8) (size 9 to 14) (size 15 to 20)
#    0.000    2.375    1.250    3.000    0.000    3.000 
#    0.000    2.500    0.000    3.750    0.000    0.000 
#    0.000    0.500    0.000    1.875    0.000    2.875 
#
# Total GULP energy -793539.877950 kJ/mol
# GULP energy per Si atom -12399.060593 kJ/mol
# Density = 1.776479 g / cm^3
# Si number density = 17.805317 Si / 1000 Ang^3
#
#
#
# Elastic Constant Matrix: (Units=GPa)
#
#
# Indices 1 2 3 4 5 6 
#
# 1 72.7846 36.0754 35.3728 0.0000 0.0000 0.0000
# 2 36.0754 123.6368 46.4630 0.0000 0.0000 0.0000
# 3 35.3728 46.4630 78.9229 0.0000 0.0000 0.0000
# 4 0.0000 0.0000 0.0000 -10.3288 0.0000 0.0000
# 5 0.0000 0.0000 0.0000 0.0000 23.8831 0.0000
# 6 0.0000 0.0000 0.0000 0.0000 0.0000 25.9119
#
#
#
# Elastic Compliance Matrix: (Units=1/GPa)
#
#
# Indices 1 2 3 4 5 6 
#
# 1 0.018344 -0.002906 -0.006511 0.000000 0.000000 0.000000
# 2 -0.002906 0.010846 -0.005083 0.000000 0.000000 0.000000
# 3 -0.006511 -0.005083 0.018581 0.000000 0.000000 0.000000
# 4 0.000000 0.000000 0.000000 -0.096816 0.000000 0.000000
# 5 0.000000 0.000000 0.000000 0.000000 0.041871 0.000000
# 6 0.000000 0.000000 0.000000 0.000000 0.000000 0.038592
#
#
# Mechanical properties :
#
#
# Convention : Reuss Voigt Hill
#
# Bulk Modulus (GPa) = 53.27112 56.79630 55.03371
# Shear Modulus (GPa) = 74.99186 18.38878 46.69032
#
# Velocity S-wave (km/s) = 6.49685 3.21716 5.12636
# Velocity P-wave (km/s) = 9.28776 6.76520 8.12497
#
# Compressibility (1/GPa) = 0.01877190
#
# Stress axis : x y z
#
# Youngs Moduli (GPa) = 54.51505 92.19788 53.81775
#
# Poissons Ratio (x) = 0.26789 0.35040
# Poissons Ratio (y) = 0.15840 0.27356
# Poissons Ratio (z) = 0.35494 0.46865
#
# Static dielectric constant tensor:
#      x y z
#    x 3.233340 0.000000 0.000000 
#    y 0.000000 3.612270 0.000000 
#    z 0.000000 0.000000 2.988850 
# 
# 
# High freq. dielectric constant tensor:
#      x y z
#    x 1.685690 0.000000 0.000000 
#    y 0.000000 1.700140 0.000000 
#    z 0.000000 0.000000 1.644440 
# 
# From -- ./inp_files/32299.got.cif
#   From: 2010.03.12/outbox.cif.g09.slc.cpg/sg51_17_cif.got.tgz:32299.got - 2010.04.16 13:43:02.
