data_PCOD8207258
_publ_section_title
;
Structure prediction by ZEFSAII (Michael W. Deem and Ramdas Pophale) SiO2 
 PCOD8207258
Probable space group: P M M A
;
_chemical_formula_sum "Si O2"
_cell_formula_units_Z 64
_cell_length_a 8.819899
_cell_length_b 25.343928
_cell_length_c 14.410076
_cell_angle_alpha 90.000000
_cell_angle_beta 90.000000
_cell_angle_gamma 90.000000
_cell_volume 3221.097044
_symmetry_space_group_name_H-M "P M M A"
_symmetry_group_IT_number 51
_symmetry_cell_setting 'orthorhombic'
loop_
_space_group_symop_operation_xyz
x,y,z
1/2-x,-y,z
1/2+x,-y,-z
-x,y,-z
-x,-y,-z
1/2+x,y,-z
1/2-x,y,z
x,-y,z
loop_
_atom_site_type_symbol
_atom_site_label
_atom_site_fract_x
_atom_site_fract_y
_atom_site_fract_z
Si Si1 0.430082 0.108130 0.093851
Si Si2 0.570270 0.058143 0.715591
Si Si3 0.070175 0.222583 0.905535
Si Si4 0.070420 0.156338 0.400082
Si Si5 0.427096 0.254924 0.275658
Si Si6 0.079658 0.437190 0.091882
Si Si7 0.427285 0.646167 0.402472
Si Si8 0.427300 0.438775 0.719538
O O1 0.250000 0.113824 0.084357
O O2 0.478045 0.071070 0.179139
O O3 0.500354 0.165179 0.112183
O O4 0.500000 0.083206 0.000000
O O5 0.750000 0.058691 0.709394
O O6 0.506472 0.101823 0.644197
O O7 0.506363 0.000000 0.689456
O O8 0.250000 0.219228 0.914531
O O9 0.022105 0.258972 0.819212
O O10 0.000000 0.246805 0.000000
O O11 0.250000 0.155151 0.410216
O O12 0.019349 0.204256 0.334448
O O13 0.000000 0.165036 0.500000
O O14 0.250000 0.250740 0.251797
O O15 0.466881 0.307144 0.332233
O O16 0.250000 0.414988 0.096651
O O17 0.079048 0.500000 0.087203
O O18 0.991186 0.417492 0.182630
O O19 0.000000 0.413888 0.000000
O O20 0.500000 0.661095 0.500000
O O21 0.250000 0.638754 0.416419
O O22 0.495477 0.591672 0.364937
O O23 0.250000 0.428216 0.718459
O O24 0.467114 0.500000 0.705979
#
# Coordination Sequence:
#
# PCOD8207258 Si02
#       8
#     8   8   8   8   8   8   8   8
#     4  10  18  32  53  78 111 147 188 231 279 339
#     4   9  18  33  53  76 108 151 190 230 285 342
#     4  11  21  34  58  88 118 151 188 229 279 338
#     4  10  20  36  57  80 108 142 185 234 284 341
#     4  10  21  40  62  86 115 149 186 231 286 339
#     4   9  16  28  50  81 116 153 194 237 282 333
#     4  11  24  41  63  88 118 151 191 241 293 347
#     4  10  21  38  60  86 119 158 199 241 288 343
#
# _framework density 19.869007
#
# number of rings (size 3 to 8) (size 9 to 14) (size 15 to 20)
#    0.000    2.000    1.250    3.750    0.000    4.500 
#    0.000    0.625    0.000    5.625    0.000    0.000 
#    0.000    0.000    0.000    0.000    0.000    0.000 
#
# Total GULP energy -793713.151332 kJ/mol
# GULP energy per Si atom -12401.767990 kJ/mol
# Density = 1.982378 g / cm^3
# Si number density = 19.869007 Si / 1000 Ang^3
#
#
#
# Elastic Constant Matrix: (Units=GPa)
#
#
# Indices 1 2 3 4 5 6 
#
# 1 99.3736 43.7203 58.3431 0.0000 0.0000 0.0000
# 2 43.7203 77.1100 50.2085 0.0000 0.0000 0.0000
# 3 58.3431 50.2085 142.7778 0.0000 0.0000 0.0000
# 4 0.0000 0.0000 0.0000 16.9801 0.0000 0.0000
# 5 0.0000 0.0000 0.0000 0.0000 40.5821 0.0000
# 6 0.0000 0.0000 0.0000 0.0000 0.0000 15.2416
#
#
#
# Elastic Compliance Matrix: (Units=1/GPa)
#
#
# Indices 1 2 3 4 5 6 
#
# 1 0.015043 -0.005871 -0.004082 0.000000 0.000000 0.000000
# 2 -0.005871 0.019111 -0.004321 0.000000 0.000000 0.000000
# 3 -0.004082 -0.004321 0.010192 0.000000 0.000000 0.000000
# 4 0.000000 0.000000 0.000000 0.058892 0.000000 0.000000
# 5 0.000000 0.000000 0.000000 0.000000 0.024641 0.000000
# 6 0.000000 0.000000 0.000000 0.000000 0.000000 0.065610
#
#
# Mechanical properties :
#
#
# Convention : Reuss Voigt Hill
#
# Bulk Modulus (GPa) = 63.30694 69.31168 66.30931
# Shear Modulus (GPa) = 21.99695 25.69340 23.84517
#
# Velocity S-wave (km/s) = 3.33092 3.59993 3.46803
# Velocity P-wave (km/s) = 6.83555 7.22768 7.03435
#
# Compressibility (1/GPa) = 0.01579606
#
# Stress axis : x y z
#
# Youngs Moduli (GPa) = 66.47695 52.32572 98.11873
#
# Poissons Ratio (x) = 0.30720 0.40056
# Poissons Ratio (y) = 0.39028 0.42402
# Poissons Ratio (z) = 0.27138 0.22612
#
# Static dielectric constant tensor:
#      x y z
#    x 3.529590 0.000000 0.000000 
#    y 0.000000 3.532460 0.000000 
#    z 0.000000 0.000000 3.754730 
# 
# 
# High freq. dielectric constant tensor:
#      x y z
#    x 1.767100 0.000000 0.000000 
#    y 0.000000 1.758360 0.000000 
#    z 0.000000 0.000000 1.787790 
# 
# From -- ./inp_files/22305.got.cif
#   From: 2010.03.12/outbox.cif.g09.slc.cpg/sg51_12_cif.got.tgz:22305.got - 2010.04.16 13:43:02.
