data_PCOD8207399
_publ_section_title
;
Structure prediction by ZEFSAII (Michael W. Deem and Ramdas Pophale) SiO2 
 PCOD8207399
Probable space group: P M M A
;
_chemical_formula_sum "Si O2"
_cell_formula_units_Z 40
_cell_length_a 18.752812
_cell_length_b 8.991847
_cell_length_c 12.636097
_cell_angle_alpha 90.000000
_cell_angle_beta 90.000000
_cell_angle_gamma 90.000000
_cell_volume 2130.729209
_symmetry_space_group_name_H-M "P M M A"
_symmetry_group_IT_number 51
_symmetry_cell_setting 'orthorhombic'
loop_
_space_group_symop_operation_xyz
x,y,z
1/2-x,-y,z
1/2+x,-y,-z
-x,y,-z
-x,-y,-z
1/2+x,y,-z
1/2-x,y,z
x,-y,z
loop_
_atom_site_type_symbol
_atom_site_label
_atom_site_fract_x
_atom_site_fract_y
_atom_site_fract_z
Si Si1 0.577302 0.826417 0.452359
Si Si2 0.666157 0.329132 0.624214
Si Si3 0.436729 0.176646 0.786506
Si Si4 0.595434 0.823215 0.822785
Si Si5 0.830456 0.822699 0.036121
O O1 0.500000 0.793930 0.500000
O O2 0.636040 0.733678 0.514655
O O3 0.579448 0.768166 0.331884
O O4 0.596227 0.000000 0.460435
O O5 0.750000 0.307521 0.621743
O O6 0.643859 0.500000 0.636550
O O7 0.635326 0.237791 0.721326
O O8 0.514013 0.234484 0.824395
O O9 0.376370 0.239809 0.865438
O O10 0.437075 0.000000 0.789123
O O11 0.598086 0.000000 0.815956
O O12 0.634534 0.763655 0.927767
O O13 0.750000 0.760891 0.045373
O O14 0.830611 0.000000 0.036726
#
# Coordination Sequence:
#
# PCOD8207399 Si02
#       5
#     8   8   8   8   8
#     4  10  19  35  57  82 108 139 181 225 268 319
#     4  11  24  38  53  78 111 145 181 223 272 322
#     4   9  17  30  51  79 110 138 172 222 273 320
#     4  10  18  33  56  80 106 138 179 225 268 317
#     4   9  17  28  47  79 112 140 173 216 272 328
#
# _framework density 18.772915999999999
#
# number of rings (size 3 to 8) (size 9 to 14) (size 15 to 20)
#    0.000    2.200    2.000    1.800    0.000    6.000 
#    0.000    2.000    0.000    3.600    0.000    2.800 
#    0.000    0.000    0.000    0.000    0.000    0.000 
#
# Total GULP energy -496046.692177 kJ/mol
# GULP energy per Si atom -12401.167304 kJ/mol
# Density = 1.873019 g / cm^3
# Si number density = 18.772916 Si / 1000 Ang^3
#
#
#
# Elastic Constant Matrix: (Units=GPa)
#
#
# Indices 1 2 3 4 5 6 
#
# 1 124.0687 25.8891 90.8715 0.0000 0.0000 0.0000
# 2 25.8891 18.6335 19.1760 0.0000 0.0000 0.0000
# 3 90.8715 19.1760 174.5330 0.0000 0.0000 0.0000
# 4 0.0000 0.0000 0.0000 -3.0511 0.0000 0.0000
# 5 0.0000 0.0000 0.0000 0.0000 34.3269 0.0000
# 6 0.0000 0.0000 0.0000 0.0000 0.0000 16.7999
#
#
#
# Elastic Compliance Matrix: (Units=1/GPa)
#
#
# Indices 1 2 3 4 5 6 
#
# 1 0.016274 -0.015662 -0.006752 0.000000 0.000000 0.000000
# 2 -0.015662 0.075581 -0.000150 0.000000 0.000000 0.000000
# 3 -0.006752 -0.000150 0.009262 0.000000 0.000000 0.000000
# 4 0.000000 0.000000 0.000000 -0.327756 0.000000 0.000000
# 5 0.000000 0.000000 0.000000 0.000000 0.029132 0.000000
# 6 0.000000 0.000000 0.000000 0.000000 0.000000 0.059524
#
#
# Mechanical properties :
#
#
# Convention : Reuss Voigt Hill
#
# Bulk Modulus (GPa) = 17.86060 65.45650 41.65855
# Shear Modulus (GPa) = -67.39142 21.70173 -22.84484
#
# Velocity S-wave (km/s) = -5.99801 3.40371 -3.49220
# Velocity P-wave (km/s) = 6.19948 7.09860 2.44506
#
# Compressibility (1/GPa) = 0.05598915
#
# Stress axis : x y z
#
# Youngs Moduli (GPa) = 61.44908 13.23081 107.97260
#
# Poissons Ratio (x) = 0.20722 0.72905
# Poissons Ratio (y) = 0.96239 0.01618
# Poissons Ratio (z) = 0.41492 0.00198
#
# Static dielectric constant tensor:
#      x y z
#    x 3.687200 0.000000 0.000000 
#    y 0.000000 2.995140 0.000000 
#    z 0.000000 0.000000 3.718560 
# 
# 
# High freq. dielectric constant tensor:
#      x y z
#    x 1.740670 0.000000 0.000000 
#    y 0.000000 1.676300 0.000000 
#    z 0.000000 0.000000 1.746310 
# 
# From -- ./inp_files/17067.got.cif
#   From: 2010.03.12/outbox.cif.g09.slc.cpg/sg51_9_cif.got.tgz:17067.got - 2010.04.16 13:43:02.
