data_PCOD8207197
_publ_section_title
;
Structure prediction by ZEFSAII (Michael W. Deem and Ramdas Pophale) SiO2 
 PCOD8207197
Probable space group: P M M A
;
_chemical_formula_sum "Si O2"
_cell_formula_units_Z 52
_cell_length_a 8.798819
_cell_length_b 16.028806
_cell_length_c 25.190548
_cell_angle_alpha 90.000000
_cell_angle_beta 90.000000
_cell_angle_gamma 90.000000
_cell_volume 3552.737923
_symmetry_space_group_name_H-M "P M M A"
_symmetry_group_IT_number 51
_symmetry_cell_setting 'orthorhombic'
loop_
_space_group_symop_operation_xyz
x,y,z
1/2-x,-y,z
1/2+x,-y,-z
-x,y,-z
-x,-y,-z
1/2+x,y,-z
1/2-x,y,z
x,-y,z
loop_
_atom_site_type_symbol
_atom_site_label
_atom_site_fract_x
_atom_site_fract_y
_atom_site_fract_z
Si Si1 0.583017 0.095736 0.549642
Si Si2 0.431916 0.500000 0.558313
Si Si3 0.920822 0.099516 0.052989
Si Si4 0.568961 0.668589 0.558811
Si Si5 0.070626 0.905507 0.733740
Si Si6 0.072707 0.189666 0.630742
Si Si7 0.080014 0.099094 0.158179
O O1 0.500000 0.140427 0.500000
O O2 0.750000 0.137748 0.558134
O O3 0.470405 0.105418 0.599312
O O4 0.608146 0.000000 0.537073
O O5 0.250000 0.500000 0.559093
O O6 0.500000 0.500000 0.500000
O O7 0.497416 0.584343 0.584710
O O8 0.750000 0.132893 0.053342
O O9 0.002535 0.136017 0.105272
O O10 0.926412 0.000000 0.053243
O O11 0.000000 0.134592 0.000000
O O12 0.500000 0.686456 0.500000
O O13 0.750000 0.660249 0.553511
O O14 0.526670 0.739019 0.602154
O O15 0.250000 0.911100 0.737115
O O16 0.023228 0.834957 0.690597
O O17 0.008244 0.871257 0.789465
O O18 0.007649 0.000000 0.721455
O O19 0.250000 0.211848 0.626918
O O20 0.250000 0.134355 0.161129
O O21 0.078337 0.000000 0.154840
#
# Coordination Sequence:
#
# PCOD8207197 Si02
#       7
#     8   4   8   8   8   8   8
#     4  10  20  32  44  57  74  97 125 158 197 238
#     4  10  18  32  52  72  90 106 124 146 181 230
#     4   9  15  22  33  49  69  91 117 152 195 239
#     4  11  21  34  50  68  88 107 127 153 190 235
#     4   9  18  31  44  56  73 101 135 169 204 239
#     4  11  21  32  45  61  80 102 130 163 197 233
#     4   9  16  25  37  52  70  93 123 159 198 238
#
# _framework density 14.636597999999999
#
# number of rings (size 3 to 8) (size 9 to 14) (size 15 to 20)
#    0.000    2.154    0.000    5.769    0.000    6.462 
#    0.000    1.538    0.000    0.000    0.000    0.000 
#    0.000    0.000    0.000    0.000    0.000    0.000 
#
# Total GULP energy -644275.301171 kJ/mol
# GULP energy per Si atom -12389.909638 kJ/mol
# Density = 1.460328 g / cm^3
# Si number density = 14.636598 Si / 1000 Ang^3
#
#
#
# Elastic Constant Matrix: (Units=GPa)
#
#
# Indices 1 2 3 4 5 6 
#
# 1 78.8228 27.5494 44.6737 0.0000 0.0000 0.0000
# 2 27.5494 48.9602 29.6613 0.0000 0.0000 0.0000
# 3 44.6737 29.6613 120.6240 0.0000 0.0000 0.0000
# 4 0.0000 0.0000 0.0000 6.3889 0.0000 0.0000
# 5 0.0000 0.0000 0.0000 0.0000 26.4025 0.0000
# 6 0.0000 0.0000 0.0000 0.0000 0.0000 15.4427
#
#
#
# Elastic Compliance Matrix: (Units=1/GPa)
#
#
# Indices 1 2 3 4 5 6 
#
# 1 0.017956 -0.007138 -0.004895 0.000000 0.000000 0.000000
# 2 -0.007138 0.026838 -0.003956 0.000000 0.000000 0.000000
# 3 -0.004895 -0.003956 0.011076 0.000000 0.000000 0.000000
# 4 0.000000 0.000000 0.000000 0.156522 0.000000 0.000000
# 5 0.000000 0.000000 0.000000 0.000000 0.037875 0.000000
# 6 0.000000 0.000000 0.000000 0.000000 0.000000 0.064756
#
#
# Mechanical properties :
#
#
# Convention : Reuss Voigt Hill
#
# Bulk Modulus (GPa) = 41.85497 50.24173 46.04835
# Shear Modulus (GPa) = 14.08597 19.41497 16.75047
#
# Velocity S-wave (km/s) = 3.10559 3.64602 3.38660
# Velocity P-wave (km/s) = 6.44343 7.21978 6.84262
#
# Compressibility (1/GPa) = 0.02389202
#
# Stress axis : x y z
#
# Youngs Moduli (GPa) = 55.69271 37.26085 90.28755
#
# Poissons Ratio (x) = 0.26597 0.44193
# Poissons Ratio (y) = 0.39754 0.35716
# Poissons Ratio (z) = 0.27260 0.14740
#
# Static dielectric constant tensor:
#      x y z
#    x 3.107900 0.000000 0.000000 
#    y 0.000000 2.759270 0.000000 
#    z 0.000000 0.000000 2.889110 
# 
# 
# High freq. dielectric constant tensor:
#      x y z
#    x 1.581170 0.000000 0.000000 
#    y 0.000000 1.502960 0.000000 
#    z 0.000000 0.000000 1.546280 
# 
# From -- ./inp_files/35071.got.cif
#   From: 2010.03.12/outbox.cif.g09.slc.cpg/sg51_18_cif.got.tgz:35071.got - 2010.04.16 13:43:02.
