data_PCOD8207452
_publ_section_title
;
Structure prediction by ZEFSAII (Michael W. Deem and Ramdas Pophale) SiO2 
 PCOD8207452
Probable space group: P M M A
;
_chemical_formula_sum "Si O2"
_cell_formula_units_Z 56
_cell_length_a 14.373370
_cell_length_b 8.721984
_cell_length_c 23.757643
_cell_angle_alpha 90.000000
_cell_angle_beta 90.000000
_cell_angle_gamma 90.000000
_cell_volume 2978.360360
_symmetry_space_group_name_H-M "P M M A"
_symmetry_group_IT_number 51
_symmetry_cell_setting 'orthorhombic'
loop_
_space_group_symop_operation_xyz
x,y,z
1/2-x,-y,z
1/2+x,-y,-z
-x,y,-z
-x,-y,-z
1/2+x,y,-z
1/2-x,y,z
x,-y,z
loop_
_atom_site_type_symbol
_atom_site_label
_atom_site_fract_x
_atom_site_fract_y
_atom_site_fract_z
Si Si1 0.144632 0.174522 0.021524
Si Si2 0.036236 0.821145 0.132835
Si Si3 0.250000 0.320728 0.404358
Si Si4 0.575363 0.819135 0.654417
Si Si5 0.355268 0.320868 0.904058
Si Si6 0.856484 0.680841 0.764857
Si Si7 0.750000 0.176009 0.479828
Si Si8 0.451224 0.822068 0.555895
O O1 0.250000 0.194521 0.043584
O O2 0.075273 0.220064 0.071299
O O3 0.126665 0.000000 0.001630
O O4 0.124241 0.284036 0.969149
O O5 0.100762 0.733564 0.176587
O O6 0.928898 0.766393 0.135863
O O7 0.042083 0.000000 0.146236
O O8 0.250000 0.500000 0.387727
O O9 0.163933 0.232046 0.379853
O O10 0.250000 0.300022 0.470972
O O11 0.576289 0.742079 0.715583
O O12 0.489938 0.758109 0.615447
O O13 0.573104 0.000000 0.663760
O O14 0.250000 0.267983 0.888341
O O15 0.367715 0.500000 0.894160
O O16 0.750000 0.742621 0.758268
O O17 0.855966 0.500000 0.762520
O O18 0.841018 0.207175 0.442510
O O19 0.750000 0.000000 0.502786
O O20 0.500000 0.746895 0.500000
O O21 0.477609 0.000000 0.554262
#
# Coordination Sequence:
#
# PCOD8207452 Si02
#       8
#     8   8   4   8   8   8   4   8
#     4   9  18  33  53  80 114 147 181 225 274 331
#     4  11  22  36  57  83 111 146 189 231 276 328
#     4  12  22  32  50  82 116 146 182 223 272 325
#     4  11  21  36  58  81 108 146 188 226 270 328
#     4  10  21  36  55  80 111 148 187 229 282 336
#     4  11  24  40  58  83 114 144 179 225 279 335
#     4  10  18  34  56  80 114 146 178 223 270 325
#     4   9  17  30  54  86 110 139 182 224 269 317
#
# _framework density 18.802291
#
# number of rings (size 3 to 8) (size 9 to 14) (size 15 to 20)
#    0.000    1.714    2.143    3.214    0.000    5.143 
#    0.000    3.571    1.571    0.000    0.000    0.000 
#    0.000    0.000    0.000    0.000    0.000    0.000 
#
# Total GULP energy -694320.939218 kJ/mol
# GULP energy per Si atom -12398.588200 kJ/mol
# Density = 1.875950 g / cm^3
# Si number density = 18.802291 Si / 1000 Ang^3
#
#
#
# Elastic Constant Matrix: (Units=GPa)
#
#
# Indices 1 2 3 4 5 6 
#
# 1 115.5066 26.7126 36.8966 0.0000 0.0000 0.0000
# 2 26.7126 47.9946 25.0927 0.0000 0.0000 0.0000
# 3 36.8966 25.0927 62.3330 0.0000 0.0000 0.0000
# 4 0.0000 0.0000 0.0000 14.9167 0.0000 0.0000
# 5 0.0000 0.0000 0.0000 0.0000 33.1117 0.0000
# 6 0.0000 0.0000 0.0000 0.0000 0.0000 23.1014
#
#
#
# Elastic Compliance Matrix: (Units=1/GPa)
#
#
# Indices 1 2 3 4 5 6 
#
# 1 0.011117 -0.003479 -0.005180 0.000000 0.000000 0.000000
# 2 -0.003479 0.027479 -0.009002 0.000000 0.000000 0.000000
# 3 -0.005180 -0.009002 0.022733 0.000000 0.000000 0.000000
# 4 0.000000 0.000000 0.000000 0.067039 0.000000 0.000000
# 5 0.000000 0.000000 0.000000 0.000000 0.030201 0.000000
# 6 0.000000 0.000000 0.000000 0.000000 0.000000 0.043287
#
#
# Mechanical properties :
#
#
# Convention : Reuss Voigt Hill
#
# Bulk Modulus (GPa) = 38.45303 44.80421 41.62862
# Shear Modulus (GPa) = 20.33791 23.36813 21.85302
#
# Velocity S-wave (km/s) = 3.29245 3.52921 3.41288
# Velocity P-wave (km/s) = 5.91179 6.36301 6.14155
#
# Compressibility (1/GPa) = 0.02600576
#
# Stress axis : x y z
#
# Youngs Moduli (GPa) = 89.95481 36.39175 43.98923
#
# Poissons Ratio (x) = 0.12661 0.22785
# Poissons Ratio (y) = 0.31297 0.39601
# Poissons Ratio (z) = 0.46594 0.32761
#
# Static dielectric constant tensor:
#      x y z
#    x 3.641290 0.000000 0.000000 
#    y 0.000000 3.328360 0.000000 
#    z 0.000000 0.000000 3.420680 
# 
# 
# High freq. dielectric constant tensor:
#      x y z
#    x 1.737170 0.000000 0.000000 
#    y 0.000000 1.719110 0.000000 
#    z 0.000000 0.000000 1.713490 
# 
# From -- ./inp_files/33553.got.cif
#   From: 2010.03.12/outbox.cif.g09.slc.cpg/sg51_17_cif.got.tgz:33553.got - 2010.04.16 13:43:02.
