data_PCOD8207560
_publ_section_title
;
Structure prediction by ZEFSAII (Michael W. Deem and Ramdas Pophale) SiO2 
 PCOD8207560
Probable space group: P M M A
;
_chemical_formula_sum "Si O2"
_cell_formula_units_Z 56
_cell_length_a 9.502047
_cell_length_b 13.533885
_cell_length_c 28.920132
_cell_angle_alpha 90.000000
_cell_angle_beta 90.000000
_cell_angle_gamma 90.000000
_cell_volume 3719.117736
_symmetry_space_group_name_H-M "P M M A"
_symmetry_group_IT_number 51
_symmetry_cell_setting 'orthorhombic'
loop_
_space_group_symop_operation_xyz
x,y,z
1/2-x,-y,z
1/2+x,-y,-z
-x,y,-z
-x,-y,-z
1/2+x,y,-z
1/2-x,y,z
x,-y,z
loop_
_atom_site_type_symbol
_atom_site_label
_atom_site_fract_x
_atom_site_fract_y
_atom_site_fract_z
Si Si1 0.915330 0.699191 0.725424
Si Si2 0.904862 0.617066 0.459532
Si Si3 0.413045 0.198770 0.859781
Si Si4 0.913018 0.114481 0.043953
Si Si5 0.089443 0.610613 0.805770
Si Si6 0.085228 0.614748 0.643946
Si Si7 0.089619 0.110344 0.219610
O O1 0.750000 0.675402 0.721846
O O2 0.945366 0.812706 0.739537
O O3 0.984496 0.627243 0.763228
O O4 0.989421 0.682191 0.676487
O O5 0.750000 0.662563 0.465859
O O6 0.897349 0.500000 0.464980
O O7 0.961501 0.642307 0.408303
O O8 0.000000 0.664214 0.500000
O O9 0.250000 0.170980 0.854835
O O10 0.463271 0.178423 0.911989
O O11 0.443044 0.313423 0.847404
O O12 0.494657 0.127512 0.825089
O O13 0.750000 0.131844 0.032890
O O14 0.945165 0.000000 0.054472
O O15 0.000000 0.152600 0.000000
O O16 0.250000 0.625085 0.787992
O O17 0.066503 0.500000 0.825023
O O18 0.250000 0.637680 0.651527
O O19 0.055099 0.500000 0.654494
O O20 0.250000 0.124518 0.203363
O O21 0.062340 0.000000 0.238793
#
# Coordination Sequence:
#
# PCOD8207560 Si02
#       7
#     8   8   8   8   8   8   8
#     4  10  19  28  40  60  82 105 136 170 200 233
#     4   8  14  24  37  53  74 102 135 167 198 233
#     4   9  17  29  45  64  83 104 134 168 196 229
#     4   9  17  28  42  61  83 104 127 159 199 240
#     4   9  17  29  44  60  80 108 137 164 198 237
#     4   9  17  28  40  55  80 113 141 165 198 238
#     4   9  18  31  44  59  82 109 133 161 201 245
#
# _framework density 15.057334000000001
#
# number of rings (size 3 to 8) (size 9 to 14) (size 15 to 20)
#    0.000    3.000    0.000    2.143    0.000    4.857 
#    0.000    2.857    0.000    0.429    0.000    0.000 
#    0.000    0.571    0.000    1.286    0.000    2.000 
#
# Total GULP energy -694238.793020 kJ/mol
# GULP energy per Si atom -12397.121304 kJ/mol
# Density = 1.502306 g / cm^3
# Si number density = 15.057334 Si / 1000 Ang^3
#
#
#
# Elastic Constant Matrix: (Units=GPa)
#
#
# Indices 1 2 3 4 5 6 
#
# 1 68.8795 35.5548 64.1554 0.0000 0.0000 0.0000
# 2 35.5548 75.7707 49.5860 0.0000 0.0000 0.0000
# 3 64.1554 49.5860 133.5184 0.0000 0.0000 0.0000
# 4 0.0000 0.0000 0.0000 17.8288 0.0000 0.0000
# 5 0.0000 0.0000 0.0000 0.0000 29.7872 0.0000
# 6 0.0000 0.0000 0.0000 0.0000 0.0000 17.2537
#
#
#
# Elastic Compliance Matrix: (Units=1/GPa)
#
#
# Indices 1 2 3 4 5 6 
#
# 1 0.028047 -0.005735 -0.011347 0.000000 0.000000 0.000000
# 2 -0.005735 0.018608 -0.004155 0.000000 0.000000 0.000000
# 3 -0.011347 -0.004155 0.014485 0.000000 0.000000 0.000000
# 4 0.000000 0.000000 0.000000 0.056089 0.000000 0.000000
# 5 0.000000 0.000000 0.000000 0.000000 0.033571 0.000000
# 6 0.000000 0.000000 0.000000 0.000000 0.000000 0.057959
#
#
# Mechanical properties :
#
#
# Convention : Reuss Voigt Hill
#
# Bulk Modulus (GPa) = 53.57290 64.08455 58.82873
# Shear Modulus (GPa) = 19.42093 21.56542 20.49317
#
# Velocity S-wave (km/s) = 3.59527 3.78857 3.69319
# Velocity P-wave (km/s) = 7.27263 7.86069 7.57237
#
# Compressibility (1/GPa) = 0.01866615
#
# Stress axis : x y z
#
# Youngs Moduli (GPa) = 35.65444 53.74039 69.03887
#
# Poissons Ratio (x) = 0.30822 0.78335
# Poissons Ratio (y) = 0.20449 0.28684
# Poissons Ratio (z) = 0.40455 0.22328
#
# Static dielectric constant tensor:
#      x y z
#    x 3.033180 0.000000 0.000000 
#    y 0.000000 2.770620 0.000000 
#    z 0.000000 0.000000 2.910520 
# 
# 
# High freq. dielectric constant tensor:
#      x y z
#    x 1.582150 0.000000 0.000000 
#    y 0.000000 1.546840 0.000000 
#    z 0.000000 0.000000 1.568580 
# 
# From -- ./inp_files/37465.got.cif
#   From: 2010.03.12/outbox.cif.g09.slc.cpg/sg51_19_cif.got.tgz:37465.got - 2010.04.16 13:43:02.
