data_PCOD8207218
_publ_section_title
;
Structure prediction by ZEFSAII (Michael W. Deem and Ramdas Pophale) SiO2 
 PCOD8207218
Probable space group: P M M A
;
_chemical_formula_sum "Si O2"
_cell_formula_units_Z 36
_cell_length_a 8.640988
_cell_length_b 15.031065
_cell_length_c 14.529975
_cell_angle_alpha 90.000000
_cell_angle_beta 90.000000
_cell_angle_gamma 90.000000
_cell_volume 1887.200409
_symmetry_space_group_name_H-M "P M M A"
_symmetry_group_IT_number 51
_symmetry_cell_setting 'orthorhombic'
loop_
_space_group_symop_operation_xyz
x,y,z
1/2-x,-y,z
1/2+x,-y,-z
-x,y,-z
-x,-y,-z
1/2+x,y,-z
1/2-x,y,z
x,-y,z
loop_
_atom_site_type_symbol
_atom_site_label
_atom_site_fract_x
_atom_site_fract_y
_atom_site_fract_z
Si Si1 0.932620 0.757157 0.229159
Si Si2 0.566030 0.500000 0.398185
Si Si3 0.429506 0.104063 0.096891
Si Si4 0.567403 0.400212 0.098565
Si Si5 0.432375 0.680959 0.399294
O O1 0.750000 0.755002 0.244330
O O2 0.993213 0.671818 0.171615
O O3 0.980544 0.847211 0.178434
O O4 0.016889 0.757963 0.328634
O O5 0.750000 0.500000 0.394249
O O6 0.500000 0.500000 0.500000
O O7 0.502058 0.590406 0.353269
O O8 0.250000 0.129964 0.098463
O O9 0.456463 0.000000 0.112231
O O10 0.500000 0.135386 0.000000
O O11 0.750000 0.395116 0.090778
O O12 0.514852 0.500000 0.128553
O O13 0.500000 0.374401 0.000000
O O14 0.500000 0.701324 0.500000
O O15 0.250000 0.673189 0.408755
#
# Coordination Sequence:
#
# PCOD8207218 Si02
#       5
#     8   4   8   8   8
#     4  11  22  35  56  83 111 147 188 233 282 337
#     4  10  18  32  52  74 103 140 185 234 282 328
#     4  10  21  38  60  86 116 148 184 232 286 340
#     4   9  19  34  50  72 105 145 182 220 266 319
#     4  11  22  37  55  79 110 147 191 237 286 336
#
# _framework density 19.075873999999999
#
# number of rings (size 3 to 8) (size 9 to 14) (size 15 to 20)
#    0.000    1.778    0.000    6.333    1.556    4.889 
#    0.000    0.000    0.000    0.667    0.000    0.000 
#    0.000    0.000    0.000    0.000    0.000    0.000 
#
# Total GULP energy -446437.933079 kJ/mol
# GULP energy per Si atom -12401.053697 kJ/mol
# Density = 1.903246 g / cm^3
# Si number density = 19.075874 Si / 1000 Ang^3
#
#
#
# Elastic Constant Matrix: (Units=GPa)
#
#
# Indices 1 2 3 4 5 6 
#
# 1 119.2264 33.3305 46.3785 0.0000 0.0000 0.0000
# 2 33.3305 61.6018 49.1112 0.0000 0.0000 0.0000
# 3 46.3785 49.1112 112.1536 0.0000 0.0000 0.0000
# 4 0.0000 0.0000 0.0000 18.9091 0.0000 0.0000
# 5 0.0000 0.0000 0.0000 0.0000 33.4647 0.0000
# 6 0.0000 0.0000 0.0000 0.0000 0.0000 29.9101
#
#
#
# Elastic Compliance Matrix: (Units=1/GPa)
#
#
# Indices 1 2 3 4 5 6 
#
# 1 0.010436 -0.003389 -0.002832 0.000000 0.000000 0.000000
# 2 -0.003389 0.026041 -0.010001 0.000000 0.000000 0.000000
# 3 -0.002832 -0.010001 0.014467 0.000000 0.000000 0.000000
# 4 0.000000 0.000000 0.000000 0.052885 0.000000 0.000000
# 5 0.000000 0.000000 0.000000 0.000000 0.029882 0.000000
# 6 0.000000 0.000000 0.000000 0.000000 0.000000 0.033434
#
#
# Mechanical properties :
#
#
# Convention : Reuss Voigt Hill
#
# Bulk Modulus (GPa) = 54.05631 61.18022 57.61827
# Shear Modulus (GPa) = 24.30073 27.40089 25.85081
#
# Velocity S-wave (km/s) = 3.57304 3.79412 3.68524
# Velocity P-wave (km/s) = 6.73953 7.16488 6.95545
#
# Compressibility (1/GPa) = 0.01849923
#
# Stress axis : x y z
#
# Youngs Moduli (GPa) = 95.81871 38.40153 69.12377
#
# Poissons Ratio (x) = 0.13016 0.19573
# Poissons Ratio (y) = 0.32476 0.69134
# Poissons Ratio (z) = 0.27132 0.38407
#
# Static dielectric constant tensor:
#      x y z
#    x 3.135420 0.000000 0.000000 
#    y 0.000000 3.620710 0.000000 
#    z 0.000000 0.000000 3.462510 
# 
# 
# High freq. dielectric constant tensor:
#      x y z
#    x 1.752510 0.000000 0.000000 
#    y 0.000000 1.723660 0.000000 
#    z 0.000000 0.000000 1.739930 
# 
# From -- ./inp_files/20358.got.cif
#   From: 2010.03.12/outbox.cif.g09.slc.cpg/sg51_11_cif.got.tgz:20358.got - 2010.04.16 13:43:02.
