data_PCOD8207754
_publ_section_title
;
Structure prediction by ZEFSAII (Michael W. Deem and Ramdas Pophale) SiO2 
 PCOD8207754
Probable space group: P M M A
;
_chemical_formula_sum "Si O2"
_cell_formula_units_Z 64
_cell_length_a 8.913307
_cell_length_b 23.420488
_cell_length_c 18.836158
_cell_angle_alpha 90.000000
_cell_angle_beta 90.000000
_cell_angle_gamma 90.000000
_cell_volume 3932.123320
_symmetry_space_group_name_H-M "P M M A"
_symmetry_group_IT_number 51
_symmetry_cell_setting 'orthorhombic'
loop_
_space_group_symop_operation_xyz
x,y,z
1/2-x,-y,z
1/2+x,-y,-z
-x,y,-z
-x,-y,-z
1/2+x,y,-z
1/2-x,y,z
x,-y,z
loop_
_atom_site_type_symbol
_atom_site_label
_atom_site_fract_x
_atom_site_fract_y
_atom_site_fract_z
Si Si1 0.573837 0.835438 0.849695
Si Si2 0.074629 0.747788 0.571325
Si Si3 0.422349 0.564972 0.294922
Si Si4 0.074937 0.065832 0.925626
Si Si5 0.426091 0.383124 0.571610
Si Si6 0.921410 0.773293 0.708905
Si Si7 0.071946 0.270845 0.925212
Si Si8 0.423912 0.666262 0.196825
O O1 0.750000 0.833999 0.867059
O O2 0.504021 0.897408 0.864324
O O3 0.543944 0.822031 0.766988
O O4 0.493123 0.789490 0.899526
O O5 0.250000 0.754112 0.562581
O O6 0.023248 0.682340 0.583030
O O7 0.000000 0.772662 0.500000
O O8 0.021956 0.784093 0.639495
O O9 0.250000 0.576216 0.316238
O O10 0.450710 0.500000 0.271470
O O11 0.522933 0.578965 0.362521
O O12 0.465381 0.604088 0.227435
O O13 0.250000 0.080267 0.930194
O O14 0.046197 0.000000 0.906586
O O15 0.000000 0.082353 0.000000
O O16 0.500000 0.407747 0.500000
O O17 0.250000 0.388422 0.563248
O O18 0.750000 0.775310 0.684221
O O19 0.961084 0.711951 0.742109
O O20 0.250000 0.266538 0.931427
O O21 0.026913 0.321457 0.871207
O O22 0.000000 0.287078 0.000000
O O23 0.250000 0.671547 0.173945
#
# Coordination Sequence:
#
# PCOD8207754 Si02
#       8
#     8   8   8   8   8   8   8   8
#     4  10  20  33  49  72 101 132 164 200 240 280
#     4  10  19  29  45  67  92 123 157 191 232 282
#     4  10  20  34  52  70  90 119 152 189 234 284
#     4  10  20  33  49  70  99 137 176 210 241 276
#     4  10  20  32  47  67  91 121 156 193 232 276
#     4   9  17  30  48  68  93 124 154 193 238 281
#     4  11  21  33  51  73  97 123 153 191 236 283
#     4   9  18  33  50  69  94 119 148 187 233 286
#
# _framework density 16.276194
#
# number of rings (size 3 to 8) (size 9 to 14) (size 15 to 20)
#    0.000    2.125    1.250    3.750    0.000    5.250 
#    0.000    0.000    0.000    0.375    0.000    0.000 
#    0.000    0.500    0.000    1.625    0.000    2.375 
#
# Total GULP energy -793770.747899 kJ/mol
# GULP energy per Si atom -12402.667936 kJ/mol
# Density = 1.623915 g / cm^3
# Si number density = 16.276194 Si / 1000 Ang^3
#
#
#
# Elastic Constant Matrix: (Units=GPa)
#
#
# Indices 1 2 3 4 5 6 
#
# 1 99.6316 40.7380 62.2283 0.0000 0.0000 0.0000
# 2 40.7380 76.2701 51.3371 0.0000 0.0000 0.0000
# 3 62.2283 51.3371 118.2987 0.0000 0.0000 0.0000
# 4 0.0000 0.0000 0.0000 23.1576 0.0000 0.0000
# 5 0.0000 0.0000 0.0000 0.0000 32.6425 0.0000
# 6 0.0000 0.0000 0.0000 0.0000 0.0000 21.8056
#
#
#
# Elastic Compliance Matrix: (Units=1/GPa)
#
#
# Indices 1 2 3 4 5 6 
#
# 1 0.015772 -0.004012 -0.006555 0.000000 0.000000 0.000000
# 2 -0.004012 0.019542 -0.006370 0.000000 0.000000 0.000000
# 3 -0.006555 -0.006370 0.014666 0.000000 0.000000 0.000000
# 4 0.000000 0.000000 0.000000 0.043182 0.000000 0.000000
# 5 0.000000 0.000000 0.000000 0.000000 0.030635 0.000000
# 6 0.000000 0.000000 0.000000 0.000000 0.000000 0.045860
#
#
# Mechanical properties :
#
#
# Convention : Reuss Voigt Hill
#
# Bulk Modulus (GPa) = 62.09290 66.97860 64.53575
# Shear Modulus (GPa) = 23.93499 24.84760 24.39129
#
# Velocity S-wave (km/s) = 3.83894 3.91144 3.87536
# Velocity P-wave (km/s) = 7.60804 7.85110 7.73052
#
# Compressibility (1/GPa) = 0.01610490
#
# Stress axis : x y z
#
# Youngs Moduli (GPa) = 63.40458 51.17244 68.18540
#
# Poissons Ratio (x) = 0.20529 0.44698
# Poissons Ratio (y) = 0.25436 0.43435
# Poissons Ratio (z) = 0.41564 0.32597
#
# Static dielectric constant tensor:
#      x y z
#    x 3.103950 0.000000 0.000000 
#    y 0.000000 2.909520 0.000000 
#    z 0.000000 0.000000 3.053660 
# 
# 
# High freq. dielectric constant tensor:
#      x y z
#    x 1.637700 0.000000 0.000000 
#    y 0.000000 1.592380 0.000000 
#    z 0.000000 0.000000 1.621760 
# 
# From -- ./inp_files/28615.got.cif
#   From: 2010.03.12/outbox.cif.g09.slc.cpg/sg51_15_cif.got.tgz:28615.got - 2010.04.16 13:43:02.
