data_PCOD8207373
_publ_section_title
;
Structure prediction by ZEFSAII (Michael W. Deem and Ramdas Pophale) SiO2 
 PCOD8207373
Probable space group: P M M A
;
_chemical_formula_sum "Si O2"
_cell_formula_units_Z 40
_cell_length_a 17.037837
_cell_length_b 11.638364
_cell_length_c 10.315326
_cell_angle_alpha 90.000000
_cell_angle_beta 90.000000
_cell_angle_gamma 90.000000
_cell_volume 2045.452284
_symmetry_space_group_name_H-M "P M M A"
_symmetry_group_IT_number 51
_symmetry_cell_setting 'orthorhombic'
loop_
_space_group_symop_operation_xyz
x,y,z
1/2-x,-y,z
1/2+x,-y,-z
-x,y,-z
-x,-y,-z
1/2+x,y,-z
1/2-x,y,z
x,-y,z
loop_
_atom_site_type_symbol
_atom_site_label
_atom_site_fract_x
_atom_site_fract_y
_atom_site_fract_z
Si Si1 0.592216 0.000000 0.490885
Si Si2 0.343555 0.631470 0.855060
Si Si3 0.156605 0.240172 0.109003
Si Si4 0.843290 0.232578 0.397363
Si Si5 0.843521 0.372752 0.642715
Si Si6 0.156808 0.000000 0.216792
O O1 0.500000 0.000000 0.500000
O O2 0.619896 0.892983 0.404453
O O3 0.626931 0.000000 0.635713
O O4 0.250000 0.627883 0.857891
O O5 0.375498 0.500000 0.857851
O O6 0.373656 0.697786 0.727777
O O7 0.376713 0.704889 0.976636
O O8 0.250000 0.242040 0.105479
O O9 0.124070 0.317431 0.225867
O O10 0.127051 0.110177 0.134960
O O11 0.750000 0.221214 0.395835
O O12 0.874679 0.300808 0.521810
O O13 0.750000 0.374808 0.642768
O O14 0.878247 0.500000 0.631764
O O15 0.250000 0.000000 0.229448
#
# Coordination Sequence:
#
# PCOD8207373 Si02
#       6
#     4   8   8   8   8   4
#     4  12  24  37  54  76 104 138 180 230 271 311
#     4   9  17  29  48  81 118 141 165 211 265 314
#     4   9  16  26  46  76 112 142 167 209 260 306
#     4  10  19  33  54  78 106 139 172 214 265 317
#     4   9  15  24  44  75 104 133 171 211 255 306
#     4  10  18  33  54  79 106 136 177 221 260 308
#
# _framework density 19.555577
#
# number of rings (size 3 to 8) (size 9 to 14) (size 15 to 20)
#    0.000    2.400    2.000    2.100    0.000    5.600 
#    0.000    3.000    0.000    4.800    0.000    1.400 
#    0.000    0.000    0.000    0.000    0.000    0.000 
#
# Total GULP energy -495878.972994 kJ/mol
# GULP energy per Si atom -12396.974325 kJ/mol
# Density = 1.951107 g / cm^3
# Si number density = 19.555577 Si / 1000 Ang^3
#
#
#
# Elastic Constant Matrix: (Units=GPa)
#
#
# Indices 1 2 3 4 5 6 
#
# 1 16.3768 16.6469 11.5418 0.0000 0.0000 0.0000
# 2 16.6469 202.8536 91.5516 0.0000 0.0000 0.0000
# 3 11.5418 91.5516 172.9439 0.0000 0.0000 0.0000
# 4 0.0000 0.0000 0.0000 44.8143 0.0000 0.0000
# 5 0.0000 0.0000 0.0000 0.0000 4.7222 0.0000
# 6 0.0000 0.0000 0.0000 0.0000 0.0000 1.9321
#
#
#
# Elastic Compliance Matrix: (Units=1/GPa)
#
#
# Indices 1 2 3 4 5 6 
#
# 1 0.067171 -0.004584 -0.002056 0.000000 0.000000 0.000000
# 2 -0.004584 0.006790 -0.003289 0.000000 0.000000 0.000000
# 3 -0.002056 -0.003289 0.007660 0.000000 0.000000 0.000000
# 4 0.000000 0.000000 0.000000 0.022314 0.000000 0.000000
# 5 0.000000 0.000000 0.000000 0.000000 0.211768 0.000000
# 6 0.000000 0.000000 0.000000 0.000000 0.000000 0.517564
#
#
# Mechanical properties :
#
#
# Convention : Reuss Voigt Hill
#
# Bulk Modulus (GPa) = 16.19082 70.18388 43.18735
# Shear Modulus (GPa) = 5.72271 28.45599 17.08935
#
# Velocity S-wave (km/s) = 1.71252 3.81876 2.95936
# Velocity P-wave (km/s) = 3.49395 7.44387 5.81459
#
# Compressibility (1/GPa) = 0.06176339
#
# Stress axis : x y z
#
# Youngs Moduli (GPa) = 14.88743 147.27454 130.54371
#
# Poissons Ratio (x) = 0.67516 0.26839
# Poissons Ratio (y) = 0.06825 0.42929
# Poissons Ratio (z) = 0.03061 0.48431
#
# Static dielectric constant tensor:
#      x y z
#    x 2.806180 0.000000 0.000000 
#    y 0.000000 3.937190 0.000000 
#    z 0.000000 0.000000 3.794060 
# 
# 
# High freq. dielectric constant tensor:
#      x y z
#    x 1.684070 0.000000 0.000000 
#    y 0.000000 1.784260 0.000000 
#    z 0.000000 0.000000 1.771580 
# 
# From -- ./inp_files/10678.got.cif
#   From: 2010.03.12/outbox.cif.g09.slc.cpg/sg51_6_cif.got.tgz:10678.got - 2010.04.16 13:43:02.
