data_PCOD8207920
_publ_section_title
;
Structure prediction by ZEFSAII (Michael W. Deem and Ramdas Pophale) SiO2 
 PCOD8207920
Probable space group: P M M A
;
_chemical_formula_sum "Si O2"
_cell_formula_units_Z 64
_cell_length_a 20.029502
_cell_length_b 9.072862
_cell_length_c 19.177837
_cell_angle_alpha 90.000000
_cell_angle_beta 90.000000
_cell_angle_gamma 90.000000
_cell_volume 3485.090656
_symmetry_space_group_name_H-M "P M M A"
_symmetry_group_IT_number 51
_symmetry_cell_setting 'orthorhombic'
loop_
_space_group_symop_operation_xyz
x,y,z
1/2-x,-y,z
1/2+x,-y,-z
-x,y,-z
-x,-y,-z
1/2+x,y,-z
1/2-x,y,z
x,-y,z
loop_
_atom_site_type_symbol
_atom_site_label
_atom_site_fract_x
_atom_site_fract_y
_atom_site_fract_z
Si Si1 0.465297 0.671606 0.651778
Si Si2 0.425140 0.834704 0.528869
Si Si3 0.324732 0.159686 0.123969
Si Si4 0.361721 0.665029 0.252693
Si Si5 0.398200 0.172568 0.380155
Si Si6 0.172222 0.673320 0.990653
Si Si7 0.048446 0.173691 0.936462
Si Si8 0.012121 0.337006 0.800856
O O1 0.483864 0.500000 0.640519
O O2 0.410556 0.723387 0.593844
O O3 0.526966 0.777054 0.635841
O O4 0.441170 0.696501 0.732507
O O5 0.500000 0.822350 0.500000
O O6 0.379059 0.795731 0.461288
O O7 0.409982 0.000000 0.554973
O O8 0.250000 0.128292 0.100464
O O9 0.322102 0.235650 0.198512
O O10 0.362792 0.000000 0.125100
O O11 0.354615 0.268118 0.065563
O O12 0.332508 0.500000 0.252688
O O13 0.349762 0.735537 0.329018
O O14 0.438506 0.666011 0.230808
O O15 0.392500 0.000000 0.363028
O O16 0.250000 0.712337 0.974106
O O17 0.161633 0.500000 0.989368
O O18 0.121515 0.749386 0.936627
O O19 0.016762 0.217687 0.862085
O O20 0.059216 0.000000 0.939307
O O21 0.000000 0.225160 0.000000
O O22 0.028644 0.500000 0.831003
#
# Coordination Sequence:
#
# PCOD8207920 Si02
#       8
#     8   8   8   8   8   8   8   8
#     4   9  16  25  38  57  82 113 149 187 225 267
#     4   8  14  23  35  53  78 111 148 182 220 266
#     4  10  20  33  49  68  90 117 150 189 231 275
#     4  10  19  30  45  65  90 121 156 192 231 274
#     4   9  16  25  37  55  82 115 149 184 222 267
#     4  10  21  37  56  75  96 126 162 200 244 290
#     4  11  23  35  50  74 100 128 163 201 244 293
#     4   9  19  32  44  63  91 122 154 189 233 281
#
# _framework density 18.363941000000001
#
# number of rings (size 3 to 8) (size 9 to 14) (size 15 to 20)
#    0.000    2.500    0.000    4.500    0.000   10.250 
#    0.000    0.000    0.000    0.000    0.000    0.000 
#    0.000    1.000    0.000    3.250    0.000    5.375 
#
# Total GULP energy -792852.352094 kJ/mol
# GULP energy per Si atom -12388.318001 kJ/mol
# Density = 1.832214 g / cm^3
# Si number density = 18.363941 Si / 1000 Ang^3
#
#
#
# Elastic Constant Matrix: (Units=GPa)
#
#
# Indices 1 2 3 4 5 6 
#
# 1 30.7582 20.8517 13.3204 0.0000 0.0000 0.0000
# 2 20.8517 110.6496 48.2991 0.0000 0.0000 0.0000
# 3 13.3204 48.2991 111.3145 0.0000 0.0000 0.0000
# 4 0.0000 0.0000 0.0000 38.6616 0.0000 0.0000
# 5 0.0000 0.0000 0.0000 0.0000 17.1065 0.0000
# 6 0.0000 0.0000 0.0000 0.0000 0.0000 14.6365
#
#
#
# Elastic Compliance Matrix: (Units=1/GPa)
#
#
# Indices 1 2 3 4 5 6 
#
# 1 0.037550 -0.006310 -0.001756 0.000000 0.000000 0.000000
# 2 -0.006310 0.012209 -0.004543 0.000000 0.000000 0.000000
# 3 -0.001756 -0.004543 0.011165 0.000000 0.000000 0.000000
# 4 0.000000 0.000000 0.000000 0.025865 0.000000 0.000000
# 5 0.000000 0.000000 0.000000 0.000000 0.058457 0.000000
# 6 0.000000 0.000000 0.000000 0.000000 0.000000 0.068322
#
#
# Mechanical properties :
#
#
# Convention : Reuss Voigt Hill
#
# Bulk Modulus (GPa) = 28.00514 46.40718 37.20616
# Shear Modulus (GPa) = 19.94516 25.43100 22.68808
#
# Velocity S-wave (km/s) = 3.29919 3.72537 3.51874
# Velocity P-wave (km/s) = 5.45857 6.62044 6.06738
#
# Compressibility (1/GPa) = 0.03570773
#
# Stress axis : x y z
#
# Youngs Moduli (GPa) = 26.63151 81.90357 89.56846
#
# Poissons Ratio (x) = 0.51680 0.15724
# Poissons Ratio (y) = 0.16804 0.40687
# Poissons Ratio (z) = 0.04675 0.37205
#
# Static dielectric constant tensor:
#      x y z
#    x 2.970850 0.000000 0.000000 
#    y 0.000000 3.595760 0.000000 
#    z 0.000000 0.000000 3.954380 
# 
# 
# High freq. dielectric constant tensor:
#      x y z
#    x 1.642850 0.000000 0.000000 
#    y 0.000000 1.726410 0.000000 
#    z 0.000000 0.000000 1.719570 
# 
# From -- ./inp_files/34186.got.cif
#   From: 2010.03.12/outbox.cif.g09.slc.cpg/sg51_18_cif.got.tgz:34186.got - 2010.04.16 13:43:02.
