data_PCOD8207138
_publ_section_title
;
Structure prediction by ZEFSAII (Michael W. Deem and Ramdas Pophale) SiO2 
 PCOD8207138
Probable space group: P M M A
;
_chemical_formula_sum "Si O2"
_cell_formula_units_Z 64
_cell_length_a 23.535620
_cell_length_b 9.167603
_cell_length_c 14.997299
_cell_angle_alpha 90.000000
_cell_angle_beta 90.000000
_cell_angle_gamma 90.000000
_cell_volume 3235.895526
_symmetry_space_group_name_H-M "P M M A"
_symmetry_group_IT_number 51
_symmetry_cell_setting 'orthorhombic'
loop_
_space_group_symop_operation_xyz
x,y,z
1/2-x,-y,z
1/2+x,-y,-z
-x,y,-z
-x,-y,-z
1/2+x,y,-z
1/2-x,y,z
x,-y,z
loop_
_atom_site_type_symbol
_atom_site_label
_atom_site_fract_x
_atom_site_fract_y
_atom_site_fract_z
Si Si1 0.509120 0.326562 0.285166
Si Si2 0.185567 0.172718 0.867821
Si Si3 0.978158 0.335742 0.909404
Si Si4 0.108585 0.673059 0.367093
Si Si5 0.623653 0.168908 0.309824
Si Si6 0.688721 0.328750 0.783739
Si Si7 0.315181 0.169253 0.508536
Si Si8 0.351360 0.663891 0.036424
O O1 0.514591 0.500000 0.281815
O O2 0.498504 0.264090 0.184312
O O3 0.457354 0.284023 0.352116
O O4 0.565855 0.258045 0.326121
O O5 0.250000 0.232854 0.869800
O O6 0.154592 0.227466 0.778785
O O7 0.150124 0.234482 0.950569
O O8 0.185425 0.000000 0.872898
O O9 0.003131 0.500000 0.910593
O O10 0.910981 0.335624 0.912882
O O11 0.000000 0.254131 0.000000
O O12 0.116109 0.500000 0.376305
O O13 0.141640 0.738023 0.281249
O O14 0.137237 0.744622 0.453098
O O15 0.668350 0.194532 0.388796
O O16 0.606971 0.000000 0.301138
O O17 0.750000 0.292723 0.741202
O O18 0.677299 0.500000 0.791797
O O19 0.688538 0.269542 0.885625
O O20 0.250000 0.225145 0.493948
O O21 0.319067 0.000000 0.482717
O O22 0.334330 0.500000 0.006629
#
# Coordination Sequence:
#
# PCOD8207138 Si02
#       8
#     8   8   8   8   8   8   8   8
#     4  10  20  36  57  85 117 147 185 231 279 332
#     4  10  21  37  55  77 109 147 186 232 287 340
#     4   9  16  28  49  76 108 146 184 221 261 311
#     4  10  20  36  58  85 117 148 180 223 279 336
#     4  10  22  40  60  80 107 147 190 233 285 340
#     4   9  16  28  49  77 108 141 177 217 263 320
#     4  10  22  41  63  85 109 143 190 237 281 335
#     4  10  18  31  52  80 109 141 184 227 268 322
#
# _framework density 19.778141999999999
#
# number of rings (size 3 to 8) (size 9 to 14) (size 15 to 20)
#    0.000    2.250    1.250    1.875    0.000    6.000 
#    0.000    3.750    0.000    6.750    0.000    0.000 
#    0.000    0.000    0.000    0.000    0.000    0.000 
#
# Total GULP energy -793214.556346 kJ/mol
# GULP energy per Si atom -12393.977443 kJ/mol
# Density = 1.973313 g / cm^3
# Si number density = 19.778142 Si / 1000 Ang^3
#
#
#
# Elastic Constant Matrix: (Units=GPa)
#
#
# Indices 1 2 3 4 5 6 
#
# 1 97.1204 24.1232 25.8538 0.0000 0.0000 0.0000
# 2 24.1232 24.9333 20.9971 0.0000 0.0000 0.0000
# 3 25.8538 20.9971 90.7895 0.0000 0.0000 0.0000
# 4 0.0000 0.0000 0.0000 23.2874 0.0000 0.0000
# 5 0.0000 0.0000 0.0000 0.0000 35.6304 0.0000
# 6 0.0000 0.0000 0.0000 0.0000 0.0000 24.1705
#
#
#
# Elastic Compliance Matrix: (Units=1/GPa)
#
#
# Indices 1 2 3 4 5 6 
#
# 1 0.013631 -0.012319 -0.001033 0.000000 0.000000 0.000000
# 2 -0.012319 0.060940 -0.010586 0.000000 0.000000 0.000000
# 3 -0.001033 -0.010586 0.013757 0.000000 0.000000 0.000000
# 4 0.000000 0.000000 0.000000 0.042942 0.000000 0.000000
# 5 0.000000 0.000000 0.000000 0.000000 0.028066 0.000000
# 6 0.000000 0.000000 0.000000 0.000000 0.000000 0.041373
#
#
# Mechanical properties :
#
#
# Convention : Reuss Voigt Hill
#
# Bulk Modulus (GPa) = 24.71961 39.42124 32.07043
# Shear Modulus (GPa) = 19.07909 26.07560 22.57735
#
# Velocity S-wave (km/s) = 3.10926 3.63492 3.38232
# Velocity P-wave (km/s) = 5.04139 6.13122 5.61282
#
# Compressibility (1/GPa) = 0.04045371
#
# Stress axis : x y z
#
# Youngs Moduli (GPa) = 73.36136 16.40960 72.69146
#
# Poissons Ratio (x) = 0.20214 0.07507
# Poissons Ratio (y) = 0.90370 0.76950
# Poissons Ratio (z) = 0.07576 0.17371
#
# Static dielectric constant tensor:
#      x y z
#    x 3.694460 0.000000 0.000000 
#    y 0.000000 3.177510 0.000000 
#    z 0.000000 0.000000 3.706990 
# 
# 
# High freq. dielectric constant tensor:
#      x y z
#    x 1.784170 0.000000 0.000000 
#    y 0.000000 1.719970 0.000000 
#    z 0.000000 0.000000 1.781480 
# 
# From -- ./inp_files/26316.got.cif
#   From: 2010.03.12/outbox.cif.g09.slc.cpg/sg51_14_cif.got.tgz:26316.got - 2010.04.16 13:43:02.
