data_PCOD8207512
_publ_section_title
;
Structure prediction by ZEFSAII (Michael W. Deem and Ramdas Pophale) SiO2 
 PCOD8207512
Probable space group: P M M A
;
_chemical_formula_sum "Si O2"
_cell_formula_units_Z 40
_cell_length_a 14.437043
_cell_length_b 8.556829
_cell_length_c 17.269279
_cell_angle_alpha 90.000000
_cell_angle_beta 90.000000
_cell_angle_gamma 90.000000
_cell_volume 2133.365704
_symmetry_space_group_name_H-M "P M M A"
_symmetry_group_IT_number 51
_symmetry_cell_setting 'orthorhombic'
loop_
_space_group_symop_operation_xyz
x,y,z
1/2-x,-y,z
1/2+x,-y,-z
-x,y,-z
-x,-y,-z
1/2+x,y,-z
1/2-x,y,z
x,-y,z
loop_
_atom_site_type_symbol
_atom_site_label
_atom_site_fract_x
_atom_site_fract_y
_atom_site_fract_z
Si Si1 0.250000 0.185256 0.480356
Si Si2 0.250000 0.682241 0.651548
Si Si3 0.014330 0.315064 0.876390
Si Si4 0.556146 0.814233 0.573040
Si Si5 0.934670 0.183414 0.285511
Si Si6 0.353302 0.684883 0.012530
O O1 0.250000 0.231136 0.569928
O O2 0.160642 0.251177 0.434800
O O3 0.250000 0.000000 0.479473
O O4 0.250000 0.500000 0.635425
O O5 0.338653 0.727646 0.702416
O O6 0.017615 0.500000 0.860763
O O7 0.023622 0.220176 0.797810
O O8 0.916449 0.264086 0.914671
O O9 0.097970 0.262193 0.932800
O O10 0.500000 0.747082 0.500000
O O11 0.509266 0.754396 0.651830
O O12 0.556414 0.000000 0.570848
O O13 0.916888 0.000000 0.295233
O O14 0.250000 0.758988 0.018792
O O15 0.346680 0.500000 0.012134
#
# Coordination Sequence:
#
# PCOD8207512 Si02
#       6
#     4   4   8   8   8   8
#     4  10  18  36  60  78 101 142 191 226 261 318
#     4  12  24  36  54  82 109 138 177 226 279 326
#     4   9  18  33  54  81 107 138 184 226 264 318
#     4   9  17  32  56  79 102 141 184 219 260 319
#     4  11  22  37  55  80 111 144 180 223 274 323
#     4   8  15  31  55  78 105 144 183 218 265 327
#
# _framework density 18.749714999999998
#
# number of rings (size 3 to 8) (size 9 to 14) (size 15 to 20)
#    0.000    2.400    2.000    2.700    1.400    0.000 
#    1.800    5.000    0.000    1.200    0.000    0.000 
#    0.000    0.000    0.000    0.000    0.000    0.000 
#
# Total GULP energy -495911.994029 kJ/mol
# GULP energy per Si atom -12397.799851 kJ/mol
# Density = 1.870704 g / cm^3
# Si number density = 18.749715 Si / 1000 Ang^3
#
#
#
# Elastic Constant Matrix: (Units=GPa)
#
#
# Indices 1 2 3 4 5 6 
#
# 1 186.1389 14.9010 78.8418 0.0000 0.0000 0.0000
# 2 14.9010 15.3043 3.3218 0.0000 0.0000 0.0000
# 3 78.8418 3.3218 137.9095 0.0000 0.0000 0.0000
# 4 0.0000 0.0000 0.0000 23.8806 0.0000 0.0000
# 5 0.0000 0.0000 0.0000 0.0000 24.1278 0.0000
# 6 0.0000 0.0000 0.0000 0.0000 0.0000 12.2003
#
#
#
# Elastic Compliance Matrix: (Units=1/GPa)
#
#
# Indices 1 2 3 4 5 6 
#
# 1 0.007695 -0.006571 -0.004241 0.000000 0.000000 0.000000
# 2 -0.006571 0.071297 0.002039 0.000000 0.000000 0.000000
# 3 -0.004241 0.002039 0.009626 0.000000 0.000000 0.000000
# 4 0.000000 0.000000 0.000000 0.041875 0.000000 0.000000
# 5 0.000000 0.000000 0.000000 0.000000 0.041446 0.000000
# 6 0.000000 0.000000 0.000000 0.000000 0.000000 0.081965
#
#
# Mechanical properties :
#
#
# Convention : Reuss Voigt Hill
#
# Bulk Modulus (GPa) = 14.07016 59.27577 36.67297
# Shear Modulus (GPa) = 16.94115 28.19428 22.56772
#
# Velocity S-wave (km/s) = 3.00916 3.88199 3.47310
# Velocity P-wave (km/s) = 4.42650 7.19555 5.97368
#
# Compressibility (1/GPa) = 0.07107239
#
# Stress axis : x y z
#
# Youngs Moduli (GPa) = 129.96175 14.02593 103.88156
#
# Poissons Ratio (x) = 0.09217 0.44052
# Poissons Ratio (y) = 0.85402 -0.21186
# Poissons Ratio (z) = 0.55112 -0.02861
#
# Static dielectric constant tensor:
#      x y z
#    x 4.091800 0.000000 0.000000 
#    y 0.000000 2.992240 0.000000 
#    z 0.000000 0.000000 3.405520 
# 
# 
# High freq. dielectric constant tensor:
#      x y z
#    x 1.742330 0.000000 0.000000 
#    y 0.000000 1.687880 0.000000 
#    z 0.000000 0.000000 1.727190 
# 
# From -- ./inp_files/23763.got.cif
#   From: 2010.03.12/outbox.cif.g09.slc.cpg/sg51_12_cif.got.tgz:23763.got - 2010.04.16 13:43:02.
