data_PCOD8207476
_publ_section_title
;
Structure prediction by ZEFSAII (Michael W. Deem and Ramdas Pophale) SiO2 
 PCOD8207476
Probable space group: P M M A
;
_chemical_formula_sum "Si O2"
_cell_formula_units_Z 48
_cell_length_a 14.621994
_cell_length_b 8.950739
_cell_length_c 19.728628
_cell_angle_alpha 90.000000
_cell_angle_beta 90.000000
_cell_angle_gamma 90.000000
_cell_volume 2582.036509
_symmetry_space_group_name_H-M "P M M A"
_symmetry_group_IT_number 51
_symmetry_cell_setting 'orthorhombic'
loop_
_space_group_symop_operation_xyz
x,y,z
1/2-x,-y,z
1/2+x,-y,-z
-x,y,-z
-x,-y,-z
1/2+x,y,-z
1/2-x,y,z
x,-y,z
loop_
_atom_site_type_symbol
_atom_site_label
_atom_site_fract_x
_atom_site_fract_y
_atom_site_fract_z
Si Si1 0.429650 0.676718 0.684974
Si Si2 0.555203 0.676535 0.563705
Si Si3 0.750000 0.323017 0.517465
Si Si4 0.250000 0.177638 0.629265
Si Si5 0.354681 0.824589 0.087677
Si Si6 0.492568 0.324764 0.833828
Si Si7 0.645534 0.674498 0.050264
O O1 0.410520 0.500000 0.678999
O O2 0.508999 0.730539 0.633327
O O3 0.337756 0.764972 0.669569
O O4 0.462089 0.723509 0.759289
O O5 0.500000 0.745985 0.500000
O O6 0.549803 0.500000 0.559270
O O7 0.661045 0.727616 0.560285
O O8 0.750000 0.500000 0.503173
O O9 0.750000 0.241853 0.445971
O O10 0.250000 0.000000 0.626547
O O11 0.250000 0.777304 0.100387
O O12 0.413288 0.758294 0.149140
O O13 0.367185 0.000000 0.085062
O O14 0.390129 0.758356 0.016512
O O15 0.510636 0.500000 0.838141
O O16 0.413863 0.273380 0.885811
O O17 0.750000 0.717707 0.066743
O O18 0.634372 0.500000 0.036042
#
# Coordination Sequence:
#
# PCOD8207476 Si02
#       7
#     8   8   4   4   8   8   8
#     4  10  21  38  58  82 113 147 182 224 277 333
#     4   9  16  30  56  86 107 136 182 227 272 317
#     4  10  18  34  60  82 108 143 184 233 276 323
#     4  12  24  36  54  84 114 145 182 221 274 331
#     4  10  21  37  56  77 106 147 188 224 270 326
#     4  10  21  35  56  83 110 143 181 226 280 327
#     4   9  18  33  54  81 110 138 177 228 277 327
#
# _framework density 18.589976
#
# number of rings (size 3 to 8) (size 9 to 14) (size 15 to 20)
#    0.000    2.167    1.667    1.750    1.167    4.333 
#    1.500    1.667    0.000    0.000    0.000    0.000 
#    0.000    0.000    0.000    0.000    0.000    0.000 
#
# Total GULP energy -595292.193091 kJ/mol
# GULP energy per Si atom -12401.920689 kJ/mol
# Density = 1.854766 g / cm^3
# Si number density = 18.589976 Si / 1000 Ang^3
#
#
#
# Elastic Constant Matrix: (Units=GPa)
#
#
# Indices 1 2 3 4 5 6 
#
# 1 153.7613 44.7301 93.5452 0.0000 0.0000 0.0000
# 2 44.7301 49.2262 45.2785 0.0000 0.0000 0.0000
# 3 93.5452 45.2785 151.6393 0.0000 0.0000 0.0000
# 4 0.0000 0.0000 0.0000 5.5164 0.0000 0.0000
# 5 0.0000 0.0000 0.0000 0.0000 6.5613 0.0000
# 6 0.0000 0.0000 0.0000 0.0000 0.0000 20.6992
#
#
#
# Elastic Compliance Matrix: (Units=1/GPa)
#
#
# Indices 1 2 3 4 5 6 
#
# 1 0.011344 -0.005337 -0.005405 0.000000 0.000000 0.000000
# 2 -0.005337 0.030517 -0.005820 0.000000 0.000000 0.000000
# 3 -0.005405 -0.005820 0.011666 0.000000 0.000000 0.000000
# 4 0.000000 0.000000 0.000000 0.181278 0.000000 0.000000
# 5 0.000000 0.000000 0.000000 0.000000 0.152408 0.000000
# 6 0.000000 0.000000 0.000000 0.000000 0.000000 0.048311
#
#
# Mechanical properties :
#
#
# Convention : Reuss Voigt Hill
#
# Bulk Modulus (GPa) = 49.00788 80.19269 64.60029
# Shear Modulus (GPa) = 10.51638 17.96026 14.23832
#
# Velocity S-wave (km/s) = 2.38103 3.11163 2.77052
# Velocity P-wave (km/s) = 5.82914 7.49272 6.71266
#
# Compressibility (1/GPa) = 0.02040488
#
# Stress axis : x y z
#
# Youngs Moduli (GPa) = 88.15124 32.76866 85.71615
#
# Poissons Ratio (x) = 0.17488 0.46326
# Poissons Ratio (y) = 0.47045 0.49886
# Poissons Ratio (z) = 0.47642 0.19071
#
# Static dielectric constant tensor:
#      x y z
#    x 3.758700 0.000000 0.000000 
#    y 0.000000 3.131230 0.000000 
#    z 0.000000 0.000000 3.498030 
# 
# 
# High freq. dielectric constant tensor:
#      x y z
#    x 1.735880 0.000000 0.000000 
#    y 0.000000 1.693060 0.000000 
#    z 0.000000 0.000000 1.718900 
# 
# From -- ./inp_files/29603.got.cif
#   From: 2010.03.12/outbox.cif.g09.slc.cpg/sg51_15_cif.got.tgz:29603.got - 2010.04.16 13:43:02.
