data_PCOD8207528
_publ_section_title
;
Structure prediction by ZEFSAII (Michael W. Deem and Ramdas Pophale) SiO2 
 PCOD8207528
Probable space group: P M M A
;
_chemical_formula_sum "Si O2"
_cell_formula_units_Z 48
_cell_length_a 28.008490
_cell_length_b 8.418950
_cell_length_c 10.181407
_cell_angle_alpha 90.000000
_cell_angle_beta 90.000000
_cell_angle_gamma 90.000000
_cell_volume 2400.796916
_symmetry_space_group_name_H-M "P M M A"
_symmetry_group_IT_number 51
_symmetry_cell_setting 'orthorhombic'
loop_
_space_group_symop_operation_xyz
x,y,z
1/2-x,-y,z
1/2+x,-y,-z
-x,y,-z
-x,-y,-z
1/2+x,y,-z
1/2-x,y,z
x,-y,z
loop_
_atom_site_type_symbol
_atom_site_label
_atom_site_fract_x
_atom_site_fract_y
_atom_site_fract_z
Si Si1 0.100984 0.684604 0.240250
Si Si2 0.250000 0.685472 0.585226
Si Si3 0.750000 0.815330 0.129266
Si Si4 0.002137 0.815126 0.150512
Si Si5 0.852091 0.311223 0.492547
Si Si6 0.407242 0.314906 0.765028
Si Si7 0.651416 0.183391 0.999912
O O1 0.087698 0.500000 0.252471
O O2 0.124149 0.752061 0.374053
O O3 0.053762 0.784292 0.211233
O O4 0.139154 0.708715 0.124753
O O5 0.250000 0.500000 0.558020
O O6 0.250000 0.711544 0.740512
O O7 0.298241 0.759653 0.521863
O O8 0.795662 0.769058 0.043493
O O9 0.750000 0.000000 0.169053
O O10 0.963830 0.717778 0.236826
O O11 0.989862 0.000000 0.158645
O O12 0.000000 0.754983 0.000000
O O13 0.849707 0.500000 0.494629
O O14 0.884228 0.253380 0.370517
O O15 0.396528 0.500000 0.786914
O O16 0.385445 0.214289 0.883333
O O17 0.647607 0.000000 0.959086
#
# Coordination Sequence:
#
# PCOD8207528 Si02
#       7
#     8   4   4   8   8   8   8
#     4  11  23  40  61  88 121 158 199 245 299 356
#     4  10  18  37  64  88 118 156 198 241 292 350
#     4  10  22  37  58  88 122 156 196 245 294 346
#     4  11  23  39  60  87 121 158 196 246 301 355
#     4   9  21  38  60  91 123 153 193 249 298 345
#     4  11  21  37  63  91 116 152 198 244 295 353
#     4  11  22  38  58  87 122 155 196 246 292 345
#
# _framework density 19.993361
#
# number of rings (size 3 to 8) (size 9 to 14) (size 15 to 20)
#    0.000    1.500    3.333    2.000    0.000    2.667 
#    0.000    9.167    0.000    0.000    0.000    0.000 
#    0.000    0.000    0.000    0.000    0.000    0.000 
#
# Total GULP energy -595415.145932 kJ/mol
# GULP energy per Si atom -12404.482207 kJ/mol
# Density = 1.994786 g / cm^3
# Si number density = 19.993361 Si / 1000 Ang^3
#
#
#
# Elastic Constant Matrix: (Units=GPa)
#
#
# Indices 1 2 3 4 5 6 
#
# 1 156.9524 13.8394 70.8210 0.0000 0.0000 0.0000
# 2 13.8394 30.4349 12.9950 0.0000 0.0000 0.0000
# 3 70.8210 12.9950 147.4738 0.0000 0.0000 0.0000
# 4 0.0000 0.0000 0.0000 6.8113 0.0000 0.0000
# 5 0.0000 0.0000 0.0000 0.0000 9.8479 0.0000
# 6 0.0000 0.0000 0.0000 0.0000 0.0000 25.0470
#
#
#
# Elastic Compliance Matrix: (Units=1/GPa)
#
#
# Indices 1 2 3 4 5 6 
#
# 1 0.008266 -0.002145 -0.003781 0.000000 0.000000 0.000000
# 2 -0.002145 0.034698 -0.002028 0.000000 0.000000 0.000000
# 3 -0.003781 -0.002028 0.008775 0.000000 0.000000 0.000000
# 4 0.000000 0.000000 0.000000 0.146816 0.000000 0.000000
# 5 0.000000 0.000000 0.000000 0.000000 0.101545 0.000000
# 6 0.000000 0.000000 0.000000 0.000000 0.000000 0.039925
#
#
# Mechanical properties :
#
#
# Convention : Reuss Voigt Hill
#
# Bulk Modulus (GPa) = 27.90677 58.90800 43.40739
# Shear Modulus (GPa) = 13.59155 24.15494 18.87325
#
# Velocity S-wave (km/s) = 2.61013 3.47961 3.07575
# Velocity P-wave (km/s) = 4.80334 6.75806 5.86274
#
# Compressibility (1/GPa) = 0.03583360
#
# Stress axis : x y z
#
# Youngs Moduli (GPa) = 120.97075 28.82010 113.95779
#
# Poissons Ratio (x) = 0.06181 0.43085
# Poissons Ratio (y) = 0.25944 0.23106
# Poissons Ratio (z) = 0.45737 0.05844
#
# Static dielectric constant tensor:
#      x y z
#    x 3.917220 0.000000 0.000000 
#    y 0.000000 3.359140 0.000000 
#    z 0.000000 0.000000 3.711980 
# 
# 
# High freq. dielectric constant tensor:
#      x y z
#    x 1.797240 0.000000 0.000000 
#    y 0.000000 1.764800 0.000000 
#    z 0.000000 0.000000 1.774330 
# 
# From -- ./inp_files/12982.got.cif
#   From: 2010.03.12/outbox.cif.g09.slc.cpg/sg51_7_cif.got.tgz:12982.got - 2010.04.16 13:43:02.
