data_PCOD8207934
_publ_section_title
;
Structure prediction by ZEFSAII (Michael W. Deem and Ramdas Pophale) SiO2 
 PCOD8207934
Probable space group: P M M A
;
_chemical_formula_sum "Si O2"
_cell_formula_units_Z 64
_cell_length_a 9.285794
_cell_length_b 23.546686
_cell_length_c 19.044906
_cell_angle_alpha 90.000000
_cell_angle_beta 90.000000
_cell_angle_gamma 90.000000
_cell_volume 4164.162518
_symmetry_space_group_name_H-M "P M M A"
_symmetry_group_IT_number 51
_symmetry_cell_setting 'orthorhombic'
loop_
_space_group_symop_operation_xyz
x,y,z
1/2-x,-y,z
1/2+x,-y,-z
-x,y,-z
-x,-y,-z
1/2+x,y,-z
1/2-x,y,z
x,-y,z
loop_
_atom_site_type_symbol
_atom_site_label
_atom_site_fract_x
_atom_site_fract_y
_atom_site_fract_z
Si Si1 0.417145 0.674553 0.854591
Si Si2 0.583090 0.563170 0.069774
Si Si3 0.915031 0.935426 0.697830
Si Si4 0.085701 0.832862 0.209809
Si Si5 0.084910 0.248455 0.566341
Si Si6 0.581454 0.115720 0.430918
Si Si7 0.080366 0.226612 0.070340
Si Si8 0.082850 0.736065 0.717752
O O1 0.250000 0.688652 0.871046
O O2 0.453066 0.608637 0.869497
O O3 0.516467 0.713480 0.903549
O O4 0.452380 0.685415 0.772350
O O5 0.750000 0.564575 0.050272
O O6 0.537071 0.500000 0.095581
O O7 0.500000 0.581098 0.000000
O O8 0.750000 0.927534 0.672529
O O9 0.943902 0.897875 0.767883
O O10 0.020107 0.917425 0.635625
O O11 0.947459 0.000000 0.719500
O O12 0.250000 0.815127 0.222459
O O13 0.047162 0.822241 0.128057
O O14 0.993871 0.793543 0.260381
O O15 0.250000 0.259012 0.548654
O O16 0.050720 0.182328 0.578326
O O17 0.037130 0.280864 0.638202
O O18 0.000000 0.273735 0.500000
O O19 0.500000 0.092918 0.500000
O O20 0.750000 0.102391 0.438252
O O21 0.250000 0.234162 0.056171
O O22 0.000000 0.207066 0.000000
O O23 0.250000 0.751635 0.717289
#
# Coordination Sequence:
#
# PCOD8207934 Si02
#       8
#     8   8   8   8   8   8   8   8
#     4   9  17  28  44  64  88 116 143 177 212 245
#     4   9  17  28  41  59  85 119 153 179 205 239
#     4  10  20  33  48  64  82 106 137 173 210 250
#     4   9  18  31  46  63  83 106 134 167 207 253
#     4   9  17  27  41  61  84 110 137 166 202 248
#     4  10  19  31  46  64  85 111 140 171 205 245
#     4  10  19  30  45  66  88 110 136 170 210 253
#     4   9  16  28  44  63  85 109 138 171 212 251
#
# _framework density 15.369237
#
# number of rings (size 3 to 8) (size 9 to 14) (size 15 to 20)
#    0.000    2.625    1.250    1.125    0.000    3.500 
#    0.000    0.000    0.000    0.375    0.000    0.000 
#    0.000    0.500    0.000    0.375    0.000    1.125 
#
# Total GULP energy -793359.715849 kJ/mol
# GULP energy per Si atom -12396.245560 kJ/mol
# Density = 1.533426 g / cm^3
# Si number density = 15.369237 Si / 1000 Ang^3
#
#
#
# Elastic Constant Matrix: (Units=GPa)
#
#
# Indices 1 2 3 4 5 6 
#
# 1 59.8640 32.9823 52.6238 0.0000 0.0000 0.0000
# 2 32.9823 79.5062 59.2810 0.0000 0.0000 0.0000
# 3 52.6238 59.2810 135.7167 0.0000 0.0000 0.0000
# 4 0.0000 0.0000 0.0000 21.4213 0.0000 0.0000
# 5 0.0000 0.0000 0.0000 0.0000 25.2060 0.0000
# 6 0.0000 0.0000 0.0000 0.0000 0.0000 14.5966
#
#
#
# Elastic Compliance Matrix: (Units=1/GPa)
#
#
# Indices 1 2 3 4 5 6 
#
# 1 0.026599 -0.004959 -0.008147 0.000000 0.000000 0.000000
# 2 -0.004959 0.019577 -0.006628 0.000000 0.000000 0.000000
# 3 -0.008147 -0.006628 0.013423 0.000000 0.000000 0.000000
# 4 0.000000 0.000000 0.000000 0.046683 0.000000 0.000000
# 5 0.000000 0.000000 0.000000 0.000000 0.039673 0.000000
# 6 0.000000 0.000000 0.000000 0.000000 0.000000 0.068509
#
#
# Mechanical properties :
#
#
# Convention : Reuss Voigt Hill
#
# Bulk Modulus (GPa) = 49.68080 62.76233 56.22156
# Shear Modulus (GPa) = 19.18333 20.92478 20.05405
#
# Velocity S-wave (km/s) = 3.53677 3.69382 3.61614
# Velocity P-wave (km/s) = 7.00524 7.68878 7.35495
#
# Compressibility (1/GPa) = 0.02012850
#
# Stress axis : x y z
#
# Youngs Moduli (GPa) = 37.59547 51.07990 74.50103
#
# Poissons Ratio (x) = 0.25333 0.60699
# Poissons Ratio (y) = 0.18645 0.49381
# Poissons Ratio (z) = 0.30630 0.33857
#
# Static dielectric constant tensor:
#      x y z
#    x 3.028490 0.000000 0.000000 
#    y 0.000000 2.834840 0.000000 
#    z 0.000000 0.000000 3.135840 
# 
# 
# High freq. dielectric constant tensor:
#      x y z
#    x 1.596820 0.000000 0.000000 
#    y 0.000000 1.553650 0.000000 
#    z 0.000000 0.000000 1.588390 
# 
# From -- ./inp_files/32692.got.cif
#   From: 2010.03.12/outbox.cif.g09.slc.cpg/sg51_17_cif.got.tgz:32692.got - 2010.04.16 13:43:02.
