data_PCOD8207474
_publ_section_title
;
Structure prediction by ZEFSAII (Michael W. Deem and Ramdas Pophale) SiO2 
 PCOD8207474
Probable space group: P M M A
;
_chemical_formula_sum "Si O2"
_cell_formula_units_Z 64
_cell_length_a 30.869104
_cell_length_b 9.217108
_cell_length_c 11.848429
_cell_angle_alpha 90.000000
_cell_angle_beta 90.000000
_cell_angle_gamma 90.000000
_cell_volume 3371.160818
_symmetry_space_group_name_H-M "P M M A"
_symmetry_group_IT_number 51
_symmetry_cell_setting 'orthorhombic'
loop_
_space_group_symop_operation_xyz
x,y,z
1/2-x,-y,z
1/2+x,-y,-z
-x,y,-z
-x,-y,-z
1/2+x,y,-z
1/2-x,y,z
x,-y,z
loop_
_atom_site_type_symbol
_atom_site_label
_atom_site_fract_x
_atom_site_fract_y
_atom_site_fract_z
Si Si1 0.584725 0.167879 0.766206
Si Si2 0.450645 0.666293 0.022499
Si Si3 0.297682 0.327984 0.005700
Si Si4 0.373825 0.826973 0.612384
Si Si5 0.545830 0.831266 0.532564
Si Si6 0.201353 0.664767 0.489972
Si Si7 0.124163 0.668910 0.848126
Si Si8 0.171067 0.333015 0.246617
O O1 0.566058 0.232632 0.879409
O O2 0.551082 0.195335 0.665434
O O3 0.628693 0.241683 0.728159
O O4 0.593932 0.000000 0.786048
O O5 0.447085 0.500000 0.062130
O O6 0.500000 0.710556 0.000000
O O7 0.421121 0.692686 0.912842
O O8 0.250000 0.271047 0.967018
O O9 0.298117 0.500000 0.004744
O O10 0.305840 0.273504 0.133623
O O11 0.335573 0.271501 0.923262
O O12 0.414398 0.765714 0.539763
O O13 0.329750 0.774713 0.554277
O O14 0.377803 0.764262 0.737032
O O15 0.372837 0.000000 0.617492
O O16 0.500000 0.757044 0.500000
O O17 0.544310 0.000000 0.502540
O O18 0.250000 0.694247 0.533107
O O19 0.187126 0.500000 0.518687
O O20 0.201661 0.687740 0.354754
O O21 0.130887 0.500000 0.817726
O O22 0.157585 0.500000 0.228763
#
# Coordination Sequence:
#
# PCOD8207474 Si02
#       8
#     8   8   8   8   8   8   8   8
#     4  11  21  35  60  88 116 148 189 234 285 343
#     4  10  22  40  60  84 117 152 188 235 287 337
#     4   9  17  32  57  84 108 140 182 227 277 331
#     4  11  23  39  59  82 114 153 192 239 290 339
#     4   9  20  38  57  80 113 152 190 232 284 339
#     4  10  21  37  60  88 116 150 193 238 284 344
#     4  10  21  38  57  81 113 149 188 232 282 336
#     4  10  18  34  59  86 117 146 183 231 284 337
#
# _framework density 18.984559000000001
#
# number of rings (size 3 to 8) (size 9 to 14) (size 15 to 20)
#    0.000    2.000    2.500    1.125    1.750    3.000 
#    0.000    1.250    0.000    4.875    0.000    0.000 
#    0.000    0.000    0.000    0.000    0.000    0.000 
#
# Total GULP energy -793573.634103 kJ/mol
# GULP energy per Si atom -12399.588033 kJ/mol
# Density = 1.894135 g / cm^3
# Si number density = 18.984559 Si / 1000 Ang^3
#
#
#
# Elastic Constant Matrix: (Units=GPa)
#
#
# Indices 1 2 3 4 5 6 
#
# 1 125.1369 33.1995 37.5182 0.0000 0.0000 0.0000
# 2 33.1995 61.7605 41.1302 0.0000 0.0000 0.0000
# 3 37.5182 41.1302 101.5759 0.0000 0.0000 0.0000
# 4 0.0000 0.0000 0.0000 1402.3078 0.0000 0.0000
# 5 0.0000 0.0000 0.0000 0.0000 25.2239 0.0000
# 6 0.0000 0.0000 0.0000 0.0000 0.0000 17.9804
#
#
#
# Elastic Compliance Matrix: (Units=1/GPa)
#
#
# Indices 1 2 3 4 5 6 
#
# 1 0.009607 -0.003835 -0.001995 0.000000 0.000000 0.000000
# 2 -0.003835 0.023701 -0.008180 0.000000 0.000000 0.000000
# 3 -0.001995 -0.008180 0.013894 0.000000 0.000000 0.000000
# 4 0.000000 0.000000 0.000000 0.000713 0.000000 0.000000
# 5 0.000000 0.000000 0.000000 0.000000 0.039645 0.000000
# 6 0.000000 0.000000 0.000000 0.000000 0.000000 0.055616
#
#
# Mechanical properties :
#
#
# Convention : Reuss Voigt Hill
#
# Bulk Modulus (GPa) = 52.13770 56.90767 54.52269
# Shear Modulus (GPa) = 28.15432 300.87746 164.51589
#
# Velocity S-wave (km/s) = 3.85517 12.60275 9.31911
# Velocity P-wave (km/s) = 6.88035 15.55035 12.02399
#
# Compressibility (1/GPa) = 0.01917998
#
# Stress axis : x y z
#
# Youngs Moduli (GPa) = 104.09000 42.19193 71.97178
#
# Poissons Ratio (x) = 0.16182 0.14361
# Poissons Ratio (y) = 0.39923 0.58876
# Poissons Ratio (z) = 0.20770 0.34515
#
# Static dielectric constant tensor:
#      x y z
#    x 4.053930 0.000000 0.000000 
#    y 0.000000 3.223870 0.000000 
#    z 0.000000 0.000000 3.459140 
# 
# 
# High freq. dielectric constant tensor:
#      x y z
#    x 1.751160 0.000000 0.000000 
#    y 0.000000 1.708060 0.000000 
#    z 0.000000 0.000000 1.743310 
# 
# From -- ./inp_files/19491.got.cif
#   From: 2010.03.12/outbox.cif.g09.slc.cpg/sg51_10_cif.got.tgz:19491.got - 2010.04.16 13:43:02.
