data_PCOD8207375
_publ_section_title
;
Structure prediction by ZEFSAII (Michael W. Deem and Ramdas Pophale) SiO2 
 PCOD8207375
Probable space group: P M M A
;
_chemical_formula_sum "Si O2"
_cell_formula_units_Z 48
_cell_length_a 34.516437
_cell_length_b 7.891091
_cell_length_c 9.286875
_cell_angle_alpha 90.000000
_cell_angle_beta 90.000000
_cell_angle_gamma 90.000000
_cell_volume 2529.487925
_symmetry_space_group_name_H-M "P M M A"
_symmetry_group_IT_number 51
_symmetry_cell_setting 'orthorhombic'
loop_
_space_group_symop_operation_xyz
x,y,z
1/2-x,-y,z
1/2+x,-y,-z
-x,y,-z
-x,-y,-z
1/2+x,y,-z
1/2-x,y,z
x,-y,z
loop_
_atom_site_type_symbol
_atom_site_label
_atom_site_fract_x
_atom_site_fract_y
_atom_site_fract_z
Si Si1 0.323949 0.197116 0.346362
Si Si2 0.593944 0.313052 0.666378
Si Si3 0.250000 0.300851 0.166906
Si Si4 0.956845 0.000000 0.325847
Si Si5 0.544350 0.000000 0.669938
Si Si6 0.176553 0.201033 0.672906
Si Si7 0.593231 0.311929 0.324501
Si Si8 0.750000 0.803789 0.158730
O O1 0.361820 0.288884 0.281021
O O2 0.287632 0.236927 0.248277
O O3 0.315115 0.258258 0.508791
O O4 0.333517 0.000000 0.346446
O O5 0.579429 0.500000 0.715244
O O6 0.565784 0.168369 0.730427
O O7 0.593867 0.296478 0.495447
O O8 0.250000 0.500000 0.154892
O O9 0.250000 0.220870 0.010299
O O10 0.955680 0.000000 0.497898
O O11 0.935866 0.831353 0.263664
O O12 0.000803 0.000000 0.269195
O O13 0.136730 0.280898 0.732580
O O14 0.211373 0.275722 0.770144
O O15 0.172650 0.000000 0.684714
O O16 0.579334 0.500000 0.276002
O O17 0.750000 0.000000 0.199036
#
# Coordination Sequence:
#
# PCOD8207375 Si02
#       8
#     8   8   4   4   4   8   8   4
#     4  10  18  33  55  74  95 131 174 213 253 298
#     4   9  16  27  43  67  95 126 167 207 244 294
#     4  12  25  36  46  70 106 136 167 212 256 299
#     4   9  16  26  40  61  97 128 166 199 247 303
#     4   9  16  26  40  63  93 134 160 201 251 299
#     4   9  17  32  54  75  96 127 173 217 250 298
#     4   9  16  26  43  66  94 128 165 206 247 291
#     4  10  21  36  52  72 100 134 167 207 261 306
#
# _framework density 18.976172999999999
#
# number of rings (size 3 to 8) (size 9 to 14) (size 15 to 20)
#    0.000    2.500    1.667    1.750    0.000    3.333 
#    0.000    4.167    0.000    0.000    0.000    0.000 
#    0.000    2.667    0.000    4.667    0.000    4.333 
#
# Total GULP energy -595045.924693 kJ/mol
# GULP energy per Si atom -12396.790098 kJ/mol
# Density = 1.893298 g / cm^3
# Si number density = 18.976173 Si / 1000 Ang^3
#
#
#
# Elastic Constant Matrix: (Units=GPa)
#
#
# Indices 1 2 3 4 5 6 
#
# 1 170.9731 74.3107 34.0060 0.0000 0.0000 0.0000
# 2 74.3107 123.9731 12.7591 0.0000 0.0000 0.0000
# 3 34.0060 12.7591 49.5045 0.0000 0.0000 0.0000
# 4 0.0000 0.0000 0.0000 8.9840 0.0000 0.0000
# 5 0.0000 0.0000 0.0000 0.0000 -1.9512 0.0000
# 6 0.0000 0.0000 0.0000 0.0000 0.0000 17.8745
#
#
#
# Elastic Compliance Matrix: (Units=1/GPa)
#
#
# Indices 1 2 3 4 5 6 
#
# 1 0.008927 -0.004849 -0.004883 0.000000 0.000000 0.000000
# 2 -0.004849 0.010919 0.000516 0.000000 0.000000 0.000000
# 3 -0.004883 0.000516 0.023421 0.000000 0.000000 0.000000
# 4 0.000000 0.000000 0.000000 0.111309 0.000000 0.000000
# 5 0.000000 0.000000 0.000000 0.000000 -0.512505 0.000000
# 6 0.000000 0.000000 0.000000 0.000000 0.000000 0.055946
#
#
# Mechanical properties :
#
#
# Convention : Reuss Voigt Hill
#
# Bulk Modulus (GPa) = 40.26116 65.17805 52.71961
# Shear Modulus (GPa) = -18.16379 19.87313 0.85467
#
# Velocity S-wave (km/s) = -3.09720 3.23966 0.67184
# Velocity P-wave (km/s) = 2.91076 6.95814 5.33330
#
# Compressibility (1/GPa) = 0.02483783
#
# Stress axis : x y z
#
# Youngs Moduli (GPa) = 112.01416 91.57964 42.69628
#
# Poissons Ratio (x) = 0.44404 0.20848
# Poissons Ratio (y) = 0.54312 -0.02205
# Poissons Ratio (z) = 0.54695 -0.04729
#
# Static dielectric constant tensor:
#      x y z
#    x 3.652220 0.000000 0.000000 
#    y 0.000000 3.669480 0.000000 
#    z 0.000000 0.000000 2.832240 
# 
# 
# High freq. dielectric constant tensor:
#      x y z
#    x 1.744380 0.000000 0.000000 
#    y 0.000000 1.749040 0.000000 
#    z 0.000000 0.000000 1.663850 
# 
# From -- ./inp_files/13003.got.cif
#   From: 2010.03.12/outbox.cif.g09.slc.cpg/sg51_7_cif.got.tgz:13003.got - 2010.04.16 13:43:02.
