data_PCOD8207998
_publ_section_title
;
Structure prediction by ZEFSAII (Michael W. Deem and Ramdas Pophale) SiO2 
 PCOD8207998
Probable space group: P M M A
;
_chemical_formula_sum "Si O2"
_cell_formula_units_Z 48
_cell_length_a 8.972682
_cell_length_b 18.298836
_cell_length_c 16.825251
_cell_angle_alpha 90.000000
_cell_angle_beta 90.000000
_cell_angle_gamma 90.000000
_cell_volume 2762.531844
_symmetry_space_group_name_H-M "P M M A"
_symmetry_group_IT_number 51
_symmetry_cell_setting 'orthorhombic'
loop_
_space_group_symop_operation_xyz
x,y,z
1/2-x,-y,z
1/2+x,-y,-z
-x,y,-z
-x,-y,-z
1/2+x,y,-z
1/2-x,y,z
x,-y,z
loop_
_atom_site_type_symbol
_atom_site_label
_atom_site_fract_x
_atom_site_fract_y
_atom_site_fract_z
Si Si1 0.072707 0.179062 0.917242
Si Si2 0.085511 0.795333 0.328985
Si Si3 0.075623 0.915681 0.215262
Si Si4 0.075129 0.416151 0.731259
Si Si5 0.917259 0.698367 0.827727
Si Si6 0.423746 0.320730 0.581213
O O1 0.250000 0.181102 0.923909
O O2 0.024734 0.117850 0.854081
O O3 0.013522 0.259756 0.894111
O O4 0.000000 0.155306 0.000000
O O5 0.250000 0.795912 0.367851
O O6 0.038231 0.876528 0.299993
O O7 0.085560 0.747293 0.250119
O O8 0.973108 0.761264 0.393309
O O9 0.250000 0.903257 0.194277
O O10 0.034729 0.000000 0.225115
O O11 0.250000 0.406776 0.745172
O O12 0.025611 0.500000 0.727216
O O13 0.027573 0.378644 0.648340
O O14 0.992335 0.379038 0.805904
O O15 0.750000 0.684979 0.860057
O O16 0.500000 0.345690 0.500000
O O17 0.250000 0.320194 0.566759
#
# Coordination Sequence:
#
# PCOD8207998 Si02
#       6
#     8   8   8   8   8   8
#     4  11  21  33  50  72  99 130 163 199 239 283
#     4   8  15  29  48  68  91 121 157 195 234 280
#     4   9  18  33  52  74 100 128 158 195 240 288
#     4   9  18  32  49  71  99 129 160 195 238 287
#     4   9  17  31  50  71  94 123 162 201 237 281
#     4  10  19  30  46  68  95 127 161 199 240 283
#
# _framework density 17.375364999999999
#
# number of rings (size 3 to 8) (size 9 to 14) (size 15 to 20)
#    0.000    2.667    0.000    3.500    0.000    6.000 
#    0.000    0.000    0.000    1.000    0.000    0.000 
#    0.000    0.000    0.000    0.000    0.000    0.000 
#
# Total GULP energy -595087.257301 kJ/mol
# GULP energy per Si atom -12397.651194 kJ/mol
# Density = 1.733582 g / cm^3
# Si number density = 17.375365 Si / 1000 Ang^3
#
#
#
# Elastic Constant Matrix: (Units=GPa)
#
#
# Indices 1 2 3 4 5 6 
#
# 1 84.7627 43.7873 15.3298 0.0000 0.0000 0.0000
# 2 43.7873 124.8623 33.6563 0.0000 0.0000 0.0000
# 3 15.3298 33.6563 17.3889 0.0000 0.0000 0.0000
# 4 0.0000 0.0000 0.0000 16.7537 0.0000 0.0000
# 5 0.0000 0.0000 0.0000 0.0000 28.3346 0.0000
# 6 0.0000 0.0000 0.0000 0.0000 0.0000 25.2596
#
#
#
# Elastic Compliance Matrix: (Units=1/GPa)
#
#
# Indices 1 2 3 4 5 6 
#
# 1 0.014725 -0.003481 -0.006245 0.000000 0.000000 0.000000
# 2 -0.003481 0.017567 -0.030933 0.000000 0.000000 0.000000
# 3 -0.006245 -0.030933 0.122885 0.000000 0.000000 0.000000
# 4 0.000000 0.000000 0.000000 0.059688 0.000000 0.000000
# 5 0.000000 0.000000 0.000000 0.000000 0.035293 0.000000
# 6 0.000000 0.000000 0.000000 0.000000 0.000000 0.039589
#
#
# Mechanical properties :
#
#
# Convention : Reuss Voigt Hill
#
# Bulk Modulus (GPa) = 13.53912 45.84010 29.68961
# Shear Modulus (GPa) = 12.63633 23.01894 17.82763
#
# Velocity S-wave (km/s) = 2.69969 3.64373 3.20664
# Velocity P-wave (km/s) = 4.18651 6.64394 5.55287
#
# Compressibility (1/GPa) = 0.07386007
#
# Stress axis : x y z
#
# Youngs Moduli (GPa) = 67.91140 56.92335 8.13770
#
# Poissons Ratio (x) = 0.19813 0.05082
# Poissons Ratio (y) = 0.23638 0.25173
# Poissons Ratio (z) = 0.42408 1.76084
#
# Static dielectric constant tensor:
#      x y z
#    x 3.313640 0.000000 0.000000 
#    y 0.000000 3.374650 0.000000 
#    z 0.000000 0.000000 3.109080 
# 
# 
# High freq. dielectric constant tensor:
#      x y z
#    x 1.677050 0.000000 0.000000 
#    y 0.000000 1.661090 0.000000 
#    z 0.000000 0.000000 1.646430 
# 
# From -- ./inp_files/21093.got.cif
#   From: 2010.03.12/outbox.cif.g09.slc.cpg/sg51_11_cif.got.tgz:21093.got - 2010.04.16 13:43:02.
