data_PCOD8207709
_publ_section_title
;
Structure prediction by ZEFSAII (Michael W. Deem and Ramdas Pophale) SiO2 
 PCOD8207709
Probable space group: P M M A
;
_chemical_formula_sum "Si O2"
_cell_formula_units_Z 64
_cell_length_a 15.177984
_cell_length_b 12.790626
_cell_length_c 19.659941
_cell_angle_alpha 90.000000
_cell_angle_beta 90.000000
_cell_angle_gamma 90.000000
_cell_volume 3816.700670
_symmetry_space_group_name_H-M "P M M A"
_symmetry_group_IT_number 51
_symmetry_cell_setting 'orthorhombic'
loop_
_space_group_symop_operation_xyz
x,y,z
1/2-x,-y,z
1/2+x,-y,-z
-x,y,-z
-x,-y,-z
1/2+x,y,-z
1/2-x,y,z
x,-y,z
loop_
_atom_site_type_symbol
_atom_site_label
_atom_site_fract_x
_atom_site_fract_y
_atom_site_fract_z
Si Si1 0.847381 0.124223 0.088492
Si Si2 0.851812 0.382763 0.331347
Si Si3 0.147078 0.622414 0.379895
Si Si4 0.938362 0.884264 0.435343
Si Si5 0.493015 0.240258 0.309553
Si Si6 0.512409 0.875466 0.828534
Si Si7 0.651549 0.123970 0.937176
Si Si8 0.849741 0.684650 0.474902
O O1 0.750000 0.164952 0.109502
O O2 0.917431 0.163220 0.143973
O O3 0.847480 0.000000 0.085796
O O4 0.872353 0.165708 0.012875
O O5 0.750000 0.343523 0.324920
O O6 0.860874 0.500000 0.302650
O O7 0.883539 0.382480 0.410554
O O8 0.918120 0.305996 0.291930
O O9 0.250000 0.655426 0.372946
O O10 0.135380 0.500000 0.366890
O O11 0.089340 0.683991 0.324668
O O12 0.104587 0.652339 0.454012
O O13 0.859238 0.807033 0.456033
O O14 0.000000 0.891612 0.500000
O O15 0.991836 0.840297 0.371057
O O16 0.901214 0.000000 0.417597
O O17 0.467455 0.174086 0.243918
O O18 0.584360 0.831089 0.881584
O O19 0.516747 0.000000 0.821541
O O20 0.750000 0.160114 0.917343
O O21 0.644725 0.000000 0.937437
O O22 0.750000 0.654995 0.487711
#
# Coordination Sequence:
#
# PCOD8207709 Si02
#       8
#     8   8   8   8   8   8   8   8
#     4   8  14  26  45  68  92 121 157 191 223 261
#     4   9  18  32  50  70  90 111 143 195 254 302
#     4  10  20  34  51  69  88 110 145 199 256 300
#     4  10  19  32  46  61  89 127 164 197 225 258
#     4  11  21  32  46  68  93 128 160 192 231 280
#     4  10  19  29  43  65  98 133 162 187 218 261
#     4   8  14  26  45  67  91 122 158 191 223 261
#     4   9  17  31  50  71  87 106 147 200 247 290
#
# _framework density 16.768409999999999
#
# number of rings (size 3 to 8) (size 9 to 14) (size 15 to 20)
#    0.000    2.625    1.250    2.250    0.000    4.250 
#    0.000    1.875    0.000    3.375    0.000    0.000 
#    0.000    8.000    0.000   22.000    0.000    1.000 
#
# Total GULP energy -793128.511924 kJ/mol
# GULP energy per Si atom -12392.632999 kJ/mol
# Density = 1.673024 g / cm^3
# Si number density = 16.768410 Si / 1000 Ang^3
#
#
#
# Elastic Constant Matrix: (Units=GPa)
#
#
# Indices 1 2 3 4 5 6 
#
# 1 63.0870 20.3705 30.9932 0.0000 0.0000 0.0000
# 2 20.3705 63.3977 22.7124 0.0000 0.0000 0.0000
# 3 30.9932 22.7124 82.4343 0.0000 0.0000 0.0000
# 4 0.0000 0.0000 0.0000 -13.6383 0.0000 0.0000
# 5 0.0000 0.0000 0.0000 0.0000 19.2821 0.0000
# 6 0.0000 0.0000 0.0000 0.0000 0.0000 19.4432
#
#
#
# Elastic Compliance Matrix: (Units=1/GPa)
#
#
# Indices 1 2 3 4 5 6 
#
# 1 0.020415 -0.004227 -0.006511 0.000000 0.000000 0.000000
# 2 -0.004227 0.018376 -0.003474 0.000000 0.000000 0.000000
# 3 -0.006511 -0.003474 0.015536 0.000000 0.000000 0.000000
# 4 0.000000 0.000000 0.000000 -0.073323 0.000000 0.000000
# 5 0.000000 0.000000 0.000000 0.000000 0.051862 0.000000
# 6 0.000000 0.000000 0.000000 0.000000 0.000000 0.051432
#
#
# Mechanical properties :
#
#
# Convention : Reuss Voigt Hill
#
# Bulk Modulus (GPa) = 38.60473 39.67457 39.13965
# Shear Modulus (GPa) = 41.20149 14.00691 27.60420
#
# Velocity S-wave (km/s) = 4.96228 2.89332 4.06174
# Velocity P-wave (km/s) = 7.47694 5.90537 6.73714
#
# Compressibility (1/GPa) = 0.02590356
#
# Stress axis : x y z
#
# Youngs Moduli (GPa) = 48.98459 54.41845 64.36721
#
# Poissons Ratio (x) = 0.23002 0.41908
# Poissons Ratio (y) = 0.20706 0.22360
# Poissons Ratio (z) = 0.31893 0.18904
#
# Static dielectric constant tensor:
#      x y z
#    x 3.287240 0.000000 0.000000 
#    y 0.000000 2.989860 0.000000 
#    z 0.000000 0.000000 3.076490 
# 
# 
# High freq. dielectric constant tensor:
#      x y z
#    x 1.650940 0.000000 0.000000 
#    y 0.000000 1.608870 0.000000 
#    z 0.000000 0.000000 1.629890 
# 
# From -- ./inp_files/29877.got.cif
#   From: 2010.03.12/outbox.cif.g09.slc.cpg/sg51_15_cif.got.tgz:29877.got - 2010.04.16 13:43:02.
